data_PCOD9033988
_publ_section_title
;
Structure prediction by ZEFSAII (Michael W. Deem and Ramdas Pophale) SiO2 
 PCOD9033988
Probable space group: P -1
;
_chemical_formula_sum "Si O2"
_cell_formula_units_Z 16
_cell_length_a 15.735085
_cell_length_b 8.637772
_cell_length_c 18.514983
_cell_angle_alpha 40.000129
_cell_angle_beta 22.855302
_cell_angle_gamma 44.081602
_cell_volume 627.490553
_symmetry_space_group_name_H-M "P -1"
_symmetry_group_IT_number 2
_symmetry_cell_setting 'triclinic'
loop_
_space_group_symop_operation_xyz
x,y,z
-x,-y,-z
loop_
_atom_site_type_symbol
_atom_site_label
_atom_site_fract_x
_atom_site_fract_y
_atom_site_fract_z
Si Si1 0.282548 0.483963 0.727503
Si Si2 0.150002 0.143587 0.416881
Si Si3 0.517580 0.947621 0.920054
Si Si4 0.957612 0.927951 0.784930
Si Si5 0.855489 0.616771 0.440198
Si Si6 0.505251 0.609005 0.840690
Si Si7 0.190538 0.011132 0.905564
Si Si8 0.430935 0.236483 0.512393
O O1 0.500000 0.500000 0.500000
O O2 0.173857 0.225615 0.900480
O O3 0.382829 0.574460 0.691518
O O4 0.098457 0.683122 0.776456
O O5 0.260011 0.997409 0.315998
O O6 0.351502 0.230019 0.277161
O O7 0.015554 0.386365 0.411881
O O8 0.008969 0.999593 0.635633
O O9 0.507516 0.658274 0.023969
O O10 0.500000 0.000000 0.000000
O O11 0.303658 0.071477 0.006804
O O12 0.042254 0.143219 0.692490
O O13 0.635670 0.586417 0.670913
O O14 0.777708 0.647656 0.407705
O O15 0.273048 0.752303 0.962263
O O16 0.383224 0.112685 0.669996
O O17 0.000000 0.000000 0.000000
O O18 0.500000 0.000000 0.500000
#
# Coordination Sequence:
#
# PCOD9033988 Si02
#       8
#     2   2   2   2   2   2   2   2
#     4  10  22  44  70  98 139 184 237 283 341 426
#     4  11  23  44  72  99 131 188 226 278 357 418
#     4  12  28  43  65 106 143 174 228 299 348 411
#     4  11  22  44  73 101 138 179 234 286 346 417
#     4  11  20  40  74 100 131 181 235 278 346 427
#     4  11  22  47  68  97 139 180 232 283 347 419
#     4  11  26  43  67 100 140 185 234 286 344 415
#     4  11  20  40  68  98 131 182 228 283 346 410
#
# _framework density 25.498391999999999
#
# number of rings (size 3 to 8) (size 9 to 14) (size 15 to 20)
#    0.000    1.000    5.000    3.375    3.500    1.500 
#    6.750    0.625    0.000    0.000    0.000    0.000 
#    0.000    0.000    0.000    0.000    0.000    0.000 
#
# Total GULP energy -89626.148593 kJ/mol
# GULP energy per Si atom -5601.634287 kJ/mol
# Density = 2.544036 g / cm^3
# Si number density = 25.498392 Si / 1000 Ang^3
#
#
#
# Elastic Constant Matrix: (Units=GPa)
#
#
# Indices 1 2 3 4 5 6 
#
# 1 106.5454 61.6733 12.4892 11.0783 -17.9645 -14.0217
# 2 61.6733 146.9694 62.2001 30.1406 -21.2840 -23.0223
# 3 12.4892 62.2001 84.3303 12.5452 -2.7684 -6.0450
# 4 11.0783 30.1406 12.5452 37.3928 -4.7897 -12.6963
# 5 -17.9645 -21.2840 -2.7684 -4.7897 52.3595 6.2250
# 6 -14.0217 -23.0223 -6.0450 -12.6963 6.2250 56.8104
#
#
#
# Elastic Compliance Matrix: (Units=1/GPa)
#
#
# Indices 1 2 3 4 5 6 
#
# 1 0.013165 -0.006476 0.002818 0.000942 0.002011 0.000915
# 2 -0.006476 0.015462 -0.009259 -0.006425 0.002755 0.001944
# 3 0.002818 -0.009259 0.018146 0.000002 -0.001726 -0.000936
# 4 0.000942 -0.006425 0.000002 0.033385 0.000163 0.005072
# 5 0.002011 0.002755 -0.001726 0.000163 0.020931 -0.000828
# 6 0.000915 0.001944 -0.000936 0.005072 -0.000828 0.019741
#
#
# Mechanical properties :
#
#
# Convention : Reuss Voigt Hill
#
# Bulk Modulus (GPa) = 47.75824 67.84113 57.79969
# Shear Modulus (GPa) = 32.54274 42.74471 37.64373
#
# Velocity S-wave (km/s) = 3.57636 4.09879 3.84646
# Velocity P-wave (km/s) = 5.98535 7.00456 6.51492
#
# Compressibility (1/GPa) = 0.02093879
#
# Stress axis : x y z
#
# Youngs Moduli (GPa) = 75.95615 64.67654 55.10770
#
# Poissons Ratio (x) = 0.41885 -0.15531
# Poissons Ratio (y) = 0.49190 0.51027
# Poissons Ratio (z) = -0.21406 0.59887
#
# Static dielectric constant tensor:
#      x y z
#    x 2.117540 0.116110 0.055640 
#    y 0.116110 2.060700 -0.007230 
#    z 0.055640 -0.007230 2.095300 
# 
# From -- ./inp_files/599704.got.cif
#   From: 2010.05.17/outbox.cif.g08.bks.cpg/sg2_300_cif.got.tgz:599704.got - 2010.06.03 11:33:40.
