data_PCOD9033164
_publ_section_title
;
Structure prediction by ZEFSAII (Michael W. Deem and Ramdas Pophale) SiO2 
 PCOD9033164
Probable space group: P -1
;
_chemical_formula_sum "Si O2"
_cell_formula_units_Z 14
_cell_length_a 9.031154
_cell_length_b 12.745597
_cell_length_c 18.776397
_cell_angle_alpha 37.901840
_cell_angle_beta 38.022457
_cell_angle_gamma 64.862542
_cell_volume 698.506926
_symmetry_space_group_name_H-M "P -1"
_symmetry_group_IT_number 2
_symmetry_cell_setting 'triclinic'
loop_
_space_group_symop_operation_xyz
x,y,z
-x,-y,-z
loop_
_atom_site_type_symbol
_atom_site_label
_atom_site_fract_x
_atom_site_fract_y
_atom_site_fract_z
Si Si1 0.874253 0.283411 0.697686
Si Si2 0.450344 0.242392 0.383951
Si Si3 0.681140 0.059720 0.133767
Si Si4 0.722329 0.093987 0.256532
Si Si5 0.350611 0.299247 0.933255
Si Si6 0.196387 0.298159 0.712310
Si Si7 0.167898 0.988440 0.272651
O O1 0.563461 0.232499 0.862732
O O2 0.870944 0.138699 0.716188
O O3 0.000000 0.500000 0.500000
O O4 0.051248 0.295528 0.693701
O O5 0.679488 0.231747 0.254559
O O6 0.522182 0.466069 0.248403
O O7 0.151299 0.117446 0.522815
O O8 0.410288 0.118666 0.538346
O O9 0.608120 0.094345 0.222157
O O10 0.744870 0.882080 0.211426
O O11 0.406494 0.989291 0.227954
O O12 0.957009 0.243835 0.892610
O O13 0.051807 0.183226 0.070023
O O14 0.274483 0.215063 0.087652
O O15 0.500000 0.500000 0.500000
#
# Coordination Sequence:
#
# PCOD9033164 Si02
#       7
#     2   2   2   2   2   2   2
#     4  12  23  39  66  94 124 166 206 248 315 374
#     4  10  22  44  66  90 121 163 219 254 304 368
#     4  11  25  40  60  92 130 164 202 253 317 361
#     4  10  24  42  65  92 122 165 210 261 307 361
#     4  11  22  39  66  89 123 161 212 253 305 371
#     4  11  25  41  60  92 132 163 200 254 312 374
#     4  11  23  40  63  93 126 164 205 255 307 375
#
# _framework density 20.042750000000002
#
# number of rings (size 3 to 8) (size 9 to 14) (size 15 to 20)
#    0.000    1.143    2.857    3.429    6.000    0.571 
#    0.000    0.714    0.000    0.000    0.000    0.000 
#    0.000    0.000    0.000    0.000    0.000    0.000 
#
# Total GULP energy -78153.929272 kJ/mol
# GULP energy per Si atom -5582.423519 kJ/mol
# Density = 1.999713 g / cm^3
# Si number density = 20.042750 Si / 1000 Ang^3
#
#
#
# Elastic Constant Matrix: (Units=GPa)
#
#
# Indices 1 2 3 4 5 6 
#
# 1 142.5695 33.9177 41.9099 7.4252 2.9851 5.7269
# 2 33.9177 43.3207 10.3753 -2.5826 -0.3459 1.1656
# 3 41.9099 10.3753 96.5083 -3.0000 -0.9136 6.3981
# 4 7.4252 -2.5826 -3.0000 18.9440 -14.3673 7.6322
# 5 2.9851 -0.3459 -0.9136 -14.3673 32.1144 3.4652
# 6 5.7269 1.1656 6.3981 7.6322 3.4652 28.3924
#
#
#
# Elastic Compliance Matrix: (Units=1/GPa)
#
#
# Indices 1 2 3 4 5 6 
#
# 1 0.011165 -0.008607 -0.004678 -0.013768 -0.007835 0.003813
# 2 -0.008607 0.030738 0.001436 0.017289 0.009517 -0.005659
# 3 -0.004678 0.001436 0.013055 0.011517 0.006617 -0.005961
# 4 -0.013768 0.017289 0.011517 0.127712 0.063527 -0.042611
# 5 -0.007835 0.009517 0.006617 0.063527 0.063287 -0.025102
# 6 0.003813 -0.005659 -0.005961 -0.042611 -0.025102 0.050545
#
#
# Mechanical properties :
#
#
# Convention : Reuss Voigt Hill
#
# Bulk Modulus (GPa) = 31.99109 50.53379 41.26244
# Shear Modulus (GPa) = 15.12314 28.96988 22.04651
#
# Velocity S-wave (km/s) = 2.74988 3.80597 3.32018
# Velocity P-wave (km/s) = 5.10671 6.67695 5.94391
#
# Compressibility (1/GPa) = 0.03125871
#
# Stress axis : x y z
#
# Youngs Moduli (GPa) = 89.56635 32.53342 76.60037
#
# Poissons Ratio (x) = 0.28002 0.35835
# Poissons Ratio (y) = 0.77090 -0.10999
# Poissons Ratio (z) = 0.41900 -0.04671
#
# Static dielectric constant tensor:
#      x y z
#    x 1.731990 -0.011910 -0.023300 
#    y -0.011910 1.715520 0.059210 
#    z -0.023300 0.059210 1.855040 
# 
# From -- ./inp_files/257770.got.cif
#   From: 2010.05.17/outbox.cif.g08.bks.cpg/sg2_129_cif.got.tgz:257770.got - 2010.06.03 11:33:40.
