data_PCOD9033834
_publ_section_title
;
Structure prediction by ZEFSAII (Michael W. Deem and Ramdas Pophale) SiO2 
 PCOD9033834
Probable space group: P -1
;
_chemical_formula_sum "Si O2"
_cell_formula_units_Z 16
_cell_length_a 8.266919
_cell_length_b 18.946748
_cell_length_c 10.711773
_cell_angle_alpha 42.466052
_cell_angle_beta 131.526030
_cell_angle_gamma 99.672593
_cell_volume 655.038251
_symmetry_space_group_name_H-M "P -1"
_symmetry_group_IT_number 2
_symmetry_cell_setting 'triclinic'
loop_
_space_group_symop_operation_xyz
x,y,z
-x,-y,-z
loop_
_atom_site_type_symbol
_atom_site_label
_atom_site_fract_x
_atom_site_fract_y
_atom_site_fract_z
Si Si1 0.670739 0.119173 0.681379
Si Si2 0.022750 0.683425 0.255672
Si Si3 0.563270 0.365125 0.256383
Si Si4 0.444015 0.140504 0.801342
Si Si5 0.961607 0.569424 0.761087
Si Si6 0.275783 0.082306 0.386411
Si Si7 0.415525 0.832821 0.884936
Si Si8 0.417732 0.425242 0.636710
O O1 0.649454 0.224358 0.437729
O O2 0.581228 0.159718 0.728668
O O3 0.454414 0.095188 0.560168
O O4 0.000000 0.000000 0.000000
O O5 0.219255 0.681550 0.458733
O O6 0.203892 0.530662 0.496111
O O7 0.964694 0.775380 0.986282
O O8 0.725929 0.748354 0.086568
O O9 0.500000 0.500000 0.000000
O O10 0.240896 0.441290 0.011949
O O11 0.120192 0.283498 0.453757
O O12 0.562258 0.133878 0.005441
O O13 0.500000 0.000000 0.000000
O O14 0.728519 0.599094 0.511549
O O15 0.000000 0.500000 0.000000
O O16 0.500000 0.000000 0.500000
O O17 0.216108 0.981675 0.527345
O O18 0.357468 0.725798 0.993465
O O19 0.500000 0.500000 0.500000
#
# Coordination Sequence:
#
# PCOD9033834 Si02
#       8
#     2   2   2   2   2   2   2   2
#     4  12  25  43  72 108 144 187 244 298 357 426
#     4  11  24  45  74 101 145 186 236 300 361 428
#     4  12  26  44  72 107 140 184 245 294 354 434
#     4  11  23  41  73 101 140 188 238 292 358 422
#     4  11  23  44  68 101 146 187 234 291 353 424
#     4  10  22  44  70  99 140 185 234 292 361 418
#     4  10  22  44  70 102 136 193 238 286 356 430
#     4  11  24  41  69 104 142 180 231 293 361 421
#
# _framework density 24.426055000000002
#
# number of rings (size 3 to 8) (size 9 to 14) (size 15 to 20)
#    0.000    1.000    2.500    4.875    3.500    2.000 
#    0.000    0.625    5.500    0.000    0.000    0.000 
#    0.000    0.000    0.000    0.000    0.000    0.000 
#
# Total GULP energy -89109.547815 kJ/mol
# GULP energy per Si atom -5569.346738 kJ/mol
# Density = 2.437046 g / cm^3
# Si number density = 24.426055 Si / 1000 Ang^3
#
#
#
# Elastic Constant Matrix: (Units=GPa)
#
#
# Indices 1 2 3 4 5 6 
#
# 1 43.4716 12.1538 2.2468 -1.4912 -22.1511 7.4990
# 2 12.1538 70.4796 11.4600 -20.4552 -1.5475 5.2439
# 3 2.2468 11.4600 121.5756 -23.1044 -7.2185 22.3310
# 4 -1.4912 -20.4552 -23.1044 39.1688 -0.5306 -8.1462
# 5 -22.1511 -1.5475 -7.2185 -0.5306 32.1426 -7.7052
# 6 7.4990 5.2439 22.3310 -8.1462 -7.7052 38.6225
#
#
#
# Elastic Compliance Matrix: (Units=1/GPa)
#
#
# Indices 1 2 3 4 5 6 
#
# 1 0.038279 -0.006433 0.001706 -0.001093 0.025806 -0.002628
# 2 -0.006433 0.017840 -0.000071 0.009001 -0.003422 0.000084
# 3 0.001706 -0.000071 0.010165 0.005091 0.002427 -0.004641
# 4 -0.001093 0.009001 0.005091 0.033986 0.002264 0.003666
# 5 0.025806 -0.003422 0.002427 0.002264 0.050412 0.004586
# 6 -0.002628 0.000084 -0.004641 0.003666 0.004586 0.030762
#
#
# Mechanical properties :
#
#
# Convention : Reuss Voigt Hill
#
# Bulk Modulus (GPa) = 17.64039 31.91643 24.77841
# Shear Modulus (GPa) = 23.81671 35.96452 29.89061
#
# Velocity S-wave (km/s) = 3.12597 3.84133 3.50196
# Velocity P-wave (km/s) = 4.50184 5.72445 5.14956
#
# Compressibility (1/GPa) = 0.05668808
#
# Stress axis : x y z
#
# Youngs Moduli (GPa) = 26.12384 56.05236 98.38124
#
# Poissons Ratio (x) = 0.36061 -0.16785
# Poissons Ratio (y) = 0.16807 0.00696
# Poissons Ratio (z) = -0.04457 0.00396
#
# Static dielectric constant tensor:
#      x y z
#    x 2.610030 -0.002070 -1.003850 
#    y -0.002070 1.946810 -0.136600 
#    z -1.003850 -0.136600 3.551540 
# 
# From -- ./inp_files/405430.got.cif
#   From: 2010.05.17/outbox.cif.g08.bks.cpg/sg2_203_cif.got.tgz:405430.got - 2010.06.03 11:33:40.
