data_PCOD9033229
_publ_section_title
;
Structure prediction by ZEFSAII (Michael W. Deem and Ramdas Pophale) SiO2 
 PCOD9033229
Probable space group: P -1
;
_chemical_formula_sum "Si O2"
_cell_formula_units_Z 15
_cell_length_a 10.306107
_cell_length_b 12.329367
_cell_length_c 13.201772
_cell_angle_alpha 146.996778
_cell_angle_beta 120.443457
_cell_angle_gamma 84.036653
_cell_volume 574.903657
_symmetry_space_group_name_H-M "P -1"
_symmetry_group_IT_number 2
_symmetry_cell_setting 'triclinic'
loop_
_space_group_symop_operation_xyz
x,y,z
-x,-y,-z
loop_
_atom_site_type_symbol
_atom_site_label
_atom_site_fract_x
_atom_site_fract_y
_atom_site_fract_z
Si Si1 0.058298 0.305001 0.648832
Si Si2 0.281287 0.847334 0.912260
Si Si3 0.185186 0.066521 0.391981
Si Si4 0.584723 0.428744 0.562681
Si Si5 0.850304 0.552270 0.982479
Si Si6 0.969003 0.289449 0.118002
Si Si7 0.625633 0.849073 0.023838
Si Si8 0.500000 0.000000 0.500000
O O1 0.130173 0.321245 0.802616
O O2 0.111097 0.585884 0.874673
O O3 0.188558 0.292800 0.611465
O O4 0.812439 0.058137 0.339988
O O5 0.404231 0.751534 0.878209
O O6 0.430419 0.105989 0.249861
O O7 0.066277 0.686485 0.759951
O O8 0.289386 0.965771 0.900257
O O9 0.352461 0.067911 0.504933
O O10 0.965312 0.792313 0.135079
O O11 0.151056 0.004587 0.210070
O O12 0.500000 0.500000 0.500000
O O13 0.794956 0.532539 0.678786
O O14 0.595627 0.587331 0.786724
O O15 0.000000 0.500000 0.000000
O O16 0.632479 0.243828 0.655277
#
# Coordination Sequence:
#
# PCOD9033229 Si02
#       8
#     2   2   2   2   2   2   2   1
#     4  12  23  44  68  99 130 174 226 274 332 397
#     4  10  24  42  67  97 138 183 218 277 330 392
#     4  11  25  45  68  99 132 173 220 278 339 398
#     4  10  22  44  67  95 136 180 223 271 333 391
#     4  10  22  45  70  92 131 173 215 276 340 392
#     4  12  24  43  68 101 138 176 223 278 332 394
#     4  10  22  44  66  98 135 177 229 271 334 395
#     4  10  22  44  70  94 130 166 222 270 336 402
#
# _framework density 26.091329000000002
#
# number of rings (size 3 to 8) (size 9 to 14) (size 15 to 20)
#    0.000    1.333    5.333    0.400    0.000    7.467 
#    2.400    0.000    0.000    0.000    0.000    0.000 
#    0.000    0.000    0.000    0.000    0.000    0.000 
#
# Total GULP energy -83545.599446 kJ/mol
# GULP energy per Si atom -5569.706630 kJ/mol
# Density = 2.603194 g / cm^3
# Si number density = 26.091329 Si / 1000 Ang^3
#
#
#
# Elastic Constant Matrix: (Units=GPa)
#
#
# Indices 1 2 3 4 5 6 
#
# 1 143.1810 4.9730 4.1468 11.2372 -11.3409 -10.4251
# 2 4.9730 42.8177 -10.0742 -1.2453 4.5928 10.3963
# 3 4.1468 -10.0742 37.9317 3.7287 -11.9732 2.8158
# 4 11.2372 -1.2453 3.7287 39.9364 8.3932 -2.2036
# 5 -11.3409 4.5928 -11.9732 8.3932 41.3098 4.2145
# 6 -10.4251 10.3963 2.8158 -2.2036 4.2145 52.6582
#
#
#
# Elastic Compliance Matrix: (Units=1/GPa)
#
#
# Indices 1 2 3 4 5 6 
#
# 1 0.007569 -0.001677 -0.000329 -0.002601 0.002541 0.001535
# 2 -0.001677 0.026848 0.007471 0.000443 -0.000763 -0.005953
# 3 -0.000329 0.007471 0.032317 -0.005008 0.009899 -0.004270
# 4 -0.002601 0.000443 -0.005008 0.028029 -0.008061 0.001483
# 5 0.002541 -0.000763 0.009899 -0.008061 0.029761 -0.002595
# 6 0.001535 -0.005953 -0.004270 0.001483 -0.002595 0.020968
#
#
# Mechanical properties :
#
#
# Convention : Reuss Voigt Hill
#
# Bulk Modulus (GPa) = 12.87618 24.66907 18.77263
# Shear Modulus (GPa) = 31.16229 41.77320 36.46775
#
# Velocity S-wave (km/s) = 3.45969 4.00564 3.74263
# Velocity P-wave (km/s) = 4.57220 5.55598 5.08793
#
# Compressibility (1/GPa) = 0.07766276
#
# Stress axis : x y z
#
# Youngs Moduli (GPa) = 132.11634 37.24741 30.94323
#
# Poissons Ratio (x) = 0.06248 0.01019
# Poissons Ratio (y) = 0.22162 -0.23118
# Poissons Ratio (z) = 0.04351 -0.27828
#
# Static dielectric constant tensor:
#      x y z
#    x 2.135960 -0.021670 0.113070 
#    y -0.021670 2.238280 -0.205960 
#    z 0.113070 -0.205960 2.333630 
# 
# From -- ./inp_files/505935.got.cif
#   From: 2010.05.17/outbox.cif.g08.bks.cpg/sg2_253_cif.got.tgz:505935.got - 2010.06.03 11:33:40.
