data_PCOD9033835
_publ_section_title
;
Structure prediction by ZEFSAII (Michael W. Deem and Ramdas Pophale) SiO2 
 PCOD9033835
Probable space group: P -1
;
_chemical_formula_sum "Si O2"
_cell_formula_units_Z 16
_cell_length_a 15.387956
_cell_length_b 10.399376
_cell_length_c 10.993068
_cell_angle_alpha 72.947217
_cell_angle_beta 148.412275
_cell_angle_gamma 86.508987
_cell_volume 690.891525
_symmetry_space_group_name_H-M "P -1"
_symmetry_group_IT_number 2
_symmetry_cell_setting 'triclinic'
loop_
_space_group_symop_operation_xyz
x,y,z
-x,-y,-z
loop_
_atom_site_type_symbol
_atom_site_label
_atom_site_fract_x
_atom_site_fract_y
_atom_site_fract_z
Si Si1 0.883674 0.859990 0.890800
Si Si2 0.810978 0.424163 0.860282
Si Si3 0.423477 0.297395 0.700792
Si Si4 0.841300 0.206417 0.154846
Si Si5 0.087165 0.077194 0.842048
Si Si6 0.001224 0.535314 0.241849
Si Si7 0.950995 0.693713 0.448944
Si Si8 0.518355 0.987201 0.776802
O O1 0.664671 0.991936 0.523029
O O2 0.951086 0.925849 0.060857
O O3 0.057617 0.732393 0.034544
O O4 0.865731 0.731644 0.986829
O O5 0.658243 0.593085 0.552200
O O6 0.729136 0.365466 0.882708
O O7 0.957507 0.452397 0.103111
O O8 0.252905 0.430287 0.559390
O O9 0.426028 0.136117 0.725572
O O10 0.661376 0.230861 0.017690
O O11 0.005624 0.211452 0.425631
O O12 0.949031 0.035563 0.251250
O O13 0.973598 0.265822 0.594396
O O14 0.335825 0.989190 0.141579
O O15 0.949197 0.488254 0.319963
O O16 0.699107 0.804083 0.101843
#
# Coordination Sequence:
#
# PCOD9033835 Si02
#       8
#     2   2   2   2   2   2   2   2
#     4  11  18  35  57  78 112 135 174 226 260 320
#     4  10  19  33  55  83 105 136 181 221 265 304
#     4  10  17  32  56  81 105 134 175 220 268 304
#     4  10  20  36  53  79 109 141 177 216 262 319
#     4   9  21  33  53  77 112 142 174 207 276 309
#     4  10  19  34  56  83 104 136 179 223 267 302
#     4   9  21  36  53  83 105 138 182 216 261 314
#     4   9  18  33  54  80 105 136 173 217 266 303
#
# _framework density 23.158484000000001
#
# number of rings (size 3 to 8) (size 9 to 14) (size 15 to 20)
#    0.750    1.500    2.500    1.875    0.000    1.500 
#    0.000    0.000    0.000    3.000    0.000    0.000 
#    0.000    0.000    0.000    0.000    0.000    0.000 
#
# Total GULP energy -89205.031800 kJ/mol
# GULP energy per Si atom -5575.314488 kJ/mol
# Density = 2.310577 g / cm^3
# Si number density = 23.158484 Si / 1000 Ang^3
#
#
#
# Elastic Constant Matrix: (Units=GPa)
#
#
# Indices 1 2 3 4 5 6 
#
# 1 47.6886 3.5848 16.8303 7.9393 -9.8462 -0.0365
# 2 3.5848 52.7131 16.6362 -2.6997 5.6335 -6.0791
# 3 16.8303 16.6362 89.1365 -1.3230 -12.6906 -5.6645
# 4 7.9393 -2.6997 -1.3230 26.7430 1.1233 -9.2338
# 5 -9.8462 5.6335 -12.6906 1.1233 21.8457 -8.6299
# 6 -0.0365 -6.0791 -5.6645 -9.2338 -8.6299 33.9318
#
#
#
# Elastic Compliance Matrix: (Units=1/GPa)
#
#
# Indices 1 2 3 4 5 6 
#
# 1 0.025912 -0.002456 -0.003069 -0.008740 0.010755 -0.000568
# 2 -0.002456 0.022005 -0.004748 0.003742 -0.008990 0.001879
# 3 -0.003069 -0.004748 0.014442 0.002363 0.009981 0.004738
# 4 -0.008740 0.003742 0.002363 0.045050 -0.000654 0.013149
# 5 0.010755 -0.008990 0.009981 -0.000654 0.065289 0.016494
# 6 -0.000568 0.001879 0.004738 0.013149 0.016494 0.038371
#
#
# Mechanical properties :
#
#
# Convention : Reuss Voigt Hill
#
# Bulk Modulus (GPa) = 23.91615 29.29340 26.60478
# Shear Modulus (GPa) = 20.36217 26.66988 23.51602
#
# Velocity S-wave (km/s) = 2.96844 3.39724 3.19005
# Velocity P-wave (km/s) = 4.70089 5.29763 5.00816
#
# Compressibility (1/GPa) = 0.04181274
#
# Stress axis : x y z
#
# Youngs Moduli (GPa) = 38.59181 45.44347 69.24436
#
# Poissons Ratio (x) = 0.11162 0.21250
# Poissons Ratio (y) = 0.09479 0.32879
# Poissons Ratio (z) = 0.11843 0.21578
#
# Static dielectric constant tensor:
#      x y z
#    x 1.928400 -0.003600 -0.020160 
#    y -0.003600 1.956330 0.011500 
#    z -0.020160 0.011500 1.831810 
# 
# From -- ./inp_files/464601.got.cif
#   From: 2010.05.17/outbox.cif.g08.bks.cpg/sg2_233_cif.got.tgz:464601.got - 2010.06.03 11:33:40.
