data_PCOD9033831
_publ_section_title
;
Structure prediction by ZEFSAII (Michael W. Deem and Ramdas Pophale) SiO2 
 PCOD9033831
Probable space group: P -1
;
_chemical_formula_sum "Si O2"
_cell_formula_units_Z 16
_cell_length_a 18.418278
_cell_length_b 7.548863
_cell_length_c 9.074694
_cell_angle_alpha 88.897394
_cell_angle_beta 33.560860
_cell_angle_gamma 91.883653
_cell_volume 694.642080
_symmetry_space_group_name_H-M "P -1"
_symmetry_group_IT_number 2
_symmetry_cell_setting 'triclinic'
loop_
_space_group_symop_operation_xyz
x,y,z
-x,-y,-z
loop_
_atom_site_type_symbol
_atom_site_label
_atom_site_fract_x
_atom_site_fract_y
_atom_site_fract_z
Si Si1 0.066669 0.658540 0.693018
Si Si2 0.741140 0.804573 0.751962
Si Si3 0.462699 0.178680 0.146733
Si Si4 0.698319 0.397021 0.895935
Si Si5 0.141689 0.654377 0.897943
Si Si6 0.515888 0.956391 0.304690
Si Si7 0.385162 0.616366 0.642626
Si Si8 0.016156 0.982490 0.150890
O O1 0.170990 0.673256 0.387448
O O2 0.992190 0.464475 0.835527
O O3 0.968888 0.811765 0.832913
O O4 0.144609 0.681357 0.716802
O O5 0.657604 0.763317 0.743498
O O6 0.731301 0.610681 0.847932
O O7 0.883094 0.894258 0.458213
O O8 0.658916 0.935739 0.989597
O O9 0.432504 0.093178 0.357597
O O10 0.580064 0.329707 0.983917
O O11 0.500000 0.000000 0.000000
O O12 0.663503 0.319838 0.117328
O O13 0.129088 0.849232 0.985537
O O14 0.255167 0.546461 0.775935
O O15 0.446575 0.758004 0.418403
O O16 0.500000 0.000000 0.500000
O O17 0.500000 0.500000 0.500000
O O18 0.000000 0.000000 0.000000
#
# Coordination Sequence:
#
# PCOD9033831 Si02
#       8
#     2   2   2   2   2   2   2   2
#     4  10  22  44  73 101 132 182 234 297 352 410
#     4  11  23  41  71 100 138 184 240 293 352 417
#     4  10  23  38  64 101 129 182 230 294 344 408
#     4  12  23  43  66 100 143 181 235 283 354 426
#     4  10  24  46  69  99 137 181 239 291 351 422
#     4  11  23  44  64  98 144 183 235 291 356 422
#     4  12  27  46  66  99 144 190 225 288 357 423
#     4  10  22  44  70 102 135 176 236 297 352 412
#
# _framework density 23.033446000000001
#
# number of rings (size 3 to 8) (size 9 to 14) (size 15 to 20)
#    0.000    1.250    3.750    1.875    7.000    1.500 
#    2.250    0.625    0.000    0.000    0.000    0.000 
#    0.000    0.000    0.000    0.000    0.000    0.000 
#
# Total GULP energy -89222.170571 kJ/mol
# GULP energy per Si atom -5576.385661 kJ/mol
# Density = 2.298102 g / cm^3
# Si number density = 23.033446 Si / 1000 Ang^3
#
#
#
# Elastic Constant Matrix: (Units=GPa)
#
#
# Indices 1 2 3 4 5 6 
#
# 1 55.0088 5.0783 13.2019 7.6387 1.7263 -11.0393
# 2 5.0783 86.9470 15.0872 5.7971 6.2888 -13.9087
# 3 13.2019 15.0872 110.9104 -1.7020 23.7525 -4.4790
# 4 7.6387 5.7971 -1.7020 31.7835 -8.2906 2.6638
# 5 1.7263 6.2888 23.7525 -8.2906 25.2226 0.2395
# 6 -11.0393 -13.9087 -4.4790 2.6638 0.2395 29.3795
#
#
#
# Elastic Compliance Matrix: (Units=1/GPa)
#
#
# Indices 1 2 3 4 5 6 
#
# 1 0.021336 0.001125 -0.001968 -0.006754 -0.002191 0.008880
# 2 0.001125 0.013296 -0.000847 -0.004401 -0.004108 0.007021
# 3 -0.001968 -0.000847 0.011811 -0.001783 -0.011371 0.000914
# 4 -0.006754 -0.004401 -0.001783 0.038692 0.016037 -0.008532
# 5 -0.002191 -0.004108 -0.011371 0.016037 0.056862 -0.006419
# 6 0.008880 0.007021 0.000914 -0.008532 -0.006419 0.041663
#
#
# Mechanical properties :
#
#
# Convention : Reuss Voigt Hill
#
# Bulk Modulus (GPa) = 23.22258 35.51124 29.36691
# Shear Modulus (GPa) = 24.82695 31.91036 28.36866
#
# Velocity S-wave (km/s) = 3.28665 3.72612 3.51326
# Velocity P-wave (km/s) = 4.95043 5.82775 5.40691
#
# Compressibility (1/GPa) = 0.04306153
#
# Stress axis : x y z
#
# Youngs Moduli (GPa) = 46.86887 75.21010 84.67002
#
# Poissons Ratio (x) = -0.08459 0.16667
# Poissons Ratio (y) = -0.05271 0.07170
# Poissons Ratio (z) = 0.09226 0.06369
#
# Static dielectric constant tensor:
#      x y z
#    x 1.907830 -0.019540 0.006150 
#    y -0.019540 2.048000 -0.027880 
#    z 0.006150 -0.027880 1.927370 
# 
# From -- ./inp_files/328993.got.cif
#   From: 2010.05.17/outbox.cif.g08.bks.cpg/sg2_165_cif.got.tgz:328993.got - 2010.06.03 11:33:40.
