data_PCOD9033115
_publ_section_title
;
Structure prediction by ZEFSAII (Michael W. Deem and Ramdas Pophale) SiO2 
 PCOD9033115
Probable space group: P -1
;
_chemical_formula_sum "Si O2"
_cell_formula_units_Z 16
_cell_length_a 15.147576
_cell_length_b 12.611473
_cell_length_c 9.212387
_cell_angle_alpha 142.270627
_cell_angle_beta 134.273526
_cell_angle_gamma 45.240574
_cell_volume 723.200965
_symmetry_space_group_name_H-M "P -1"
_symmetry_group_IT_number 2
_symmetry_cell_setting 'triclinic'
loop_
_space_group_symop_operation_xyz
x,y,z
-x,-y,-z
loop_
_atom_site_type_symbol
_atom_site_label
_atom_site_fract_x
_atom_site_fract_y
_atom_site_fract_z
Si Si1 0.905086 0.742259 0.874330
Si Si2 0.364772 0.035963 0.300823
Si Si3 0.829614 0.087135 0.380288
Si Si4 0.179519 0.754029 0.162590
Si Si5 0.645764 0.347748 0.033644
Si Si6 0.195193 0.546727 0.419413
Si Si7 0.450102 0.924112 0.996389
Si Si8 0.375189 0.443959 0.249629
O O1 0.901093 0.558477 0.751177
O O2 0.783510 0.819153 0.702691
O O3 0.043382 0.722753 0.938583
O O4 0.883333 0.899118 0.145291
O O5 0.500000 0.000000 0.500000
O O6 0.357081 0.831799 0.077453
O O7 0.404588 0.077184 0.231152
O O8 0.856956 0.081169 0.578944
O O9 0.860489 0.252037 0.507805
O O10 0.673624 0.133954 0.245324
O O11 0.272919 0.590428 0.190710
O O12 0.267970 0.740843 0.107070
O O13 0.725301 0.434952 0.326084
O O14 0.500000 0.500000 0.000000
O O15 0.297222 0.427027 0.286012
O O16 0.568715 0.742646 0.980103
O O17 0.500000 0.000000 0.000000
O O18 0.500000 0.500000 0.500000
#
# Coordination Sequence:
#
# PCOD9033115 Si02
#       8
#     2   2   2   2   2   2   2   2
#     4  11  24  45  68  99 136 176 233 277 335 406
#     4  11  24  43  64  98 137 174 223 281 333 401
#     4  10  22  44  66 100 133 176 224 280 332 402
#     4  11  25  39  71  98 134 182 224 275 343 401
#     4  12  24  42  69  98 134 183 220 278 348 398
#     4  11  22  42  68  90 137 180 214 283 335 387
#     4  11  21  37  67  98 131 167 224 279 333 389
#     4  11  19  38  64  94 126 167 227 272 323 402
#
# _framework density 22.123864000000001
#
# number of rings (size 3 to 8) (size 9 to 14) (size 15 to 20)
#    0.000    1.000    5.000    4.125    1.750    3.000 
#    0.000    1.250    0.000    0.000    0.000    0.000 
#    0.000    0.000    0.000    0.000    0.000    0.000 
#
# Total GULP energy -89152.554158 kJ/mol
# GULP energy per Si atom -5572.034635 kJ/mol
# Density = 2.207351 g / cm^3
# Si number density = 22.123864 Si / 1000 Ang^3
#
#
#
# Elastic Constant Matrix: (Units=GPa)
#
#
# Indices 1 2 3 4 5 6 
#
# 1 96.5023 33.4872 28.9430 -10.0506 3.3887 1.6206
# 2 33.4872 63.3140 14.5422 -6.6730 6.5592 -2.8057
# 3 28.9430 14.5422 56.3834 -7.8343 3.4812 0.6225
# 4 -10.0506 -6.6730 -7.8343 41.9840 5.8357 7.4889
# 5 3.3887 6.5592 3.4812 5.8357 24.4524 -5.2949
# 6 1.6206 -2.8057 0.6225 7.4889 -5.2949 37.1506
#
#
#
# Elastic Compliance Matrix: (Units=1/GPa)
#
#
# Indices 1 2 3 4 5 6 
#
# 1 0.014375 -0.006191 -0.005513 0.001710 -0.000254 -0.001383
# 2 -0.006191 0.020124 -0.001463 0.001952 -0.004633 0.000761
# 3 -0.005513 -0.001463 0.021570 0.003108 -0.002932 -0.001276
# 4 0.001710 0.001952 0.003108 0.027635 -0.009287 -0.006874
# 5 -0.000254 -0.004633 -0.002932 -0.009287 0.046588 0.008222
# 6 -0.001383 0.000761 -0.001276 -0.006874 0.008222 0.029614
#
#
# Mechanical properties :
#
#
# Convention : Reuss Voigt Hill
#
# Bulk Modulus (GPa) = 33.63262 41.12716 37.37989
# Shear Modulus (GPa) = 25.49019 29.99922 27.74470
#
# Velocity S-wave (km/s) = 3.39803 3.68634 3.54512
# Velocity P-wave (km/s) = 5.53448 6.06207 5.80427
#
# Compressibility (1/GPa) = 0.02973304
#
# Stress axis : x y z
#
# Youngs Moduli (GPa) = 69.56637 49.69098 46.36007
#
# Poissons Ratio (x) = 0.30765 0.25561
# Poissons Ratio (y) = 0.43070 0.06785
# Poissons Ratio (z) = 0.38355 0.07272
#
# Static dielectric constant tensor:
#      x y z
#    x 1.867730 -0.040670 -0.034390 
#    y -0.040670 1.864060 -0.001800 
#    z -0.034390 -0.001800 1.938800 
# 
# From -- ./inp_files/308887.got.cif
#   From: 2010.05.17/outbox.cif.g08.bks.cpg/sg2_155_cif.got.tgz:308887.got - 2010.06.03 11:33:40.
