data_PCOD9033476
_publ_section_title
;
Structure prediction by ZEFSAII (Michael W. Deem and Ramdas Pophale) SiO2 
 PCOD9033476
Probable space group: P -1
;
_chemical_formula_sum "Si O2"
_cell_formula_units_Z 14
_cell_length_a 8.772976
_cell_length_b 8.335249
_cell_length_c 12.818870
_cell_angle_alpha 119.908663
_cell_angle_beta 91.777459
_cell_angle_gamma 51.758571
_cell_volume 582.708670
_symmetry_space_group_name_H-M "P -1"
_symmetry_group_IT_number 2
_symmetry_cell_setting 'triclinic'
loop_
_space_group_symop_operation_xyz
x,y,z
-x,-y,-z
loop_
_atom_site_type_symbol
_atom_site_label
_atom_site_fract_x
_atom_site_fract_y
_atom_site_fract_z
Si Si1 0.521436 0.815228 0.355319
Si Si2 0.455053 0.794745 0.846862
Si Si3 0.785936 0.737963 0.138569
Si Si4 0.039465 0.138187 0.468440
Si Si5 0.935502 0.467035 0.750002
Si Si6 0.868206 0.962864 0.917374
Si Si7 0.801350 0.280517 0.309844
O O1 0.632506 0.761364 0.227202
O O2 0.677491 0.543350 0.329770
O O3 0.500000 0.000000 0.500000
O O4 0.285322 0.932770 0.371210
O O5 0.703671 0.578033 0.785862
O O6 0.340578 0.771554 0.746654
O O7 0.372178 0.062782 0.890995
O O8 0.361317 0.823530 0.967018
O O9 0.908099 0.757861 0.235518
O O10 0.000000 0.500000 0.000000
O O11 0.015937 0.350396 0.599573
O O12 0.845741 0.289827 0.432193
O O13 0.000000 0.000000 0.500000
O O14 0.922890 0.698186 0.845185
O O15 0.956015 0.940611 0.799576
O O16 0.000000 0.000000 0.000000
#
# Coordination Sequence:
#
# PCOD9033476 Si02
#       7
#     2   2   2   2   2   2   2
#     4  12  26  45  72 107 145 191 246 298 365 433
#     4  11  25  43  75 100 146 190 239 298 369 430
#     4  12  25  44  72 109 142 184 246 302 358 440
#     4  12  28  46  72 107 149 192 252 299 363 442
#     4  12  24  44  70 102 140 189 242 291 362 430
#     4  10  22  44  68 104 137 183 243 301 360 435
#     4  11  25  46  70 103 147 191 239 307 362 427
#
# _framework density 24.025727
#
# number of rings (size 3 to 8) (size 9 to 14) (size 15 to 20)
#    0.000    0.571    4.286    2.143    4.000    2.286 
#    0.000    0.000    0.000    9.429    0.000    0.000 
#    0.000    0.000    0.000    0.000    0.000    0.000 
#
# Total GULP energy -78007.539151 kJ/mol
# GULP energy per Si atom -5571.967082 kJ/mol
# Density = 2.397104 g / cm^3
# Si number density = 24.025727 Si / 1000 Ang^3
#
#
#
# Elastic Constant Matrix: (Units=GPa)
#
#
# Indices 1 2 3 4 5 6 
#
# 1 158.6613 40.4039 42.7645 7.8792 -21.5833 -30.0579
# 2 40.4039 33.8152 -2.1069 0.8697 -4.9444 -22.2966
# 3 42.7645 -2.1069 89.7055 4.4954 4.7871 0.1918
# 4 7.8792 0.8697 4.4954 21.5389 -12.8653 -3.7677
# 5 -21.5833 -4.9444 4.7871 -12.8653 52.1925 7.6892
# 6 -30.0579 -22.2966 0.1918 -3.7677 7.6892 37.3897
#
#
#
# Elastic Compliance Matrix: (Units=1/GPa)
#
#
# Indices 1 2 3 4 5 6 
#
# 1 0.012324 -0.014046 -0.006438 0.000076 0.004273 0.000693
# 2 -0.014046 0.065094 0.008183 0.003582 -0.003725 0.028610
# 3 -0.006438 0.008183 0.014805 -0.003509 -0.004128 0.000124
# 4 0.000076 0.003582 -0.003509 0.056099 0.013779 0.005035
# 5 0.004273 -0.003725 -0.004128 0.013779 0.024711 -0.002458
# 6 0.000693 0.028610 0.000124 0.005035 -0.002458 0.045376
#
#
# Mechanical properties :
#
#
# Convention : Reuss Voigt Hill
#
# Bulk Modulus (GPa) = 14.78867 49.36722 32.07795
# Shear Modulus (GPa) = 18.82877 35.63226 27.23051
#
# Velocity S-wave (km/s) = 2.80249 3.85527 3.37024
# Velocity P-wave (km/s) = 4.07929 6.35686 5.34089
#
# Compressibility (1/GPa) = 0.06761933
#
# Stress axis : x y z
#
# Youngs Moduli (GPa) = 81.14399 15.36246 67.54511
#
# Poissons Ratio (x) = 0.21579 0.43487
# Poissons Ratio (y) = 1.13979 -0.55273
# Poissons Ratio (z) = 0.52242 -0.12571
#
# Static dielectric constant tensor:
#      x y z
#    x 2.042320 0.169270 0.034260 
#    y 0.169270 2.036500 0.094580 
#    z 0.034260 0.094580 2.060250 
# 
# From -- ./inp_files/383258.got.cif
#   From: 2010.05.17/outbox.cif.g08.bks.cpg/sg2_192_cif.got.tgz:383258.got - 2010.06.03 11:33:40.
