data_PCOD9033176
_publ_section_title
;
Structure prediction by ZEFSAII (Michael W. Deem and Ramdas Pophale) SiO2 
 PCOD9033176
Probable space group: P -1
;
_chemical_formula_sum "Si O2"
_cell_formula_units_Z 14
_cell_length_a 14.403667
_cell_length_b 17.875600
_cell_length_c 17.168078
_cell_angle_alpha 155.922116
_cell_angle_beta 154.003760
_cell_angle_gamma 23.761324
_cell_volume 670.747311
_symmetry_space_group_name_H-M "P -1"
_symmetry_group_IT_number 2
_symmetry_cell_setting 'triclinic'
loop_
_space_group_symop_operation_xyz
x,y,z
-x,-y,-z
loop_
_atom_site_type_symbol
_atom_site_label
_atom_site_fract_x
_atom_site_fract_y
_atom_site_fract_z
Si Si1 0.138353 0.000692 0.027801
Si Si2 0.392273 0.769297 0.757352
Si Si3 0.712559 0.362213 0.965963
Si Si4 0.330983 0.719047 0.480309
Si Si5 0.946875 0.920860 0.665423
Si Si6 0.781306 0.836979 0.203962
Si Si7 0.289516 0.287086 0.803143
O O1 0.424612 0.910370 0.170147
O O2 0.978460 0.236116 0.091615
O O3 0.000000 0.000000 0.000000
O O4 0.110380 0.850350 0.800237
O O5 0.371665 0.758363 0.638908
O O6 0.473738 0.531934 0.626462
O O7 0.123325 0.937475 0.750412
O O8 0.599034 0.817892 0.988549
O O9 0.712237 0.156980 0.735378
O O10 0.500000 0.500000 0.000000
O O11 0.710329 0.508210 0.034144
O O12 0.055012 0.757176 0.301508
O O13 0.333886 0.911114 0.620674
O O14 0.865779 0.765985 0.423631
O O15 0.808233 0.701734 0.172887
#
# Coordination Sequence:
#
# PCOD9033176 Si02
#       7
#     2   2   2   2   2   2   2
#     4  10  22  44  66  93 129 164 211 268 326 387
#     4  11  21  43  63  93 131 172 216 269 321 379
#     4  10  23  43  67  95 127 166 215 271 326 388
#     4  10  24  40  63  96 132 167 222 267 321 381
#     4  10  24  41  64  99 128 168 221 269 313 402
#     4  11  22  41  64  93 130 174 216 265 324 382
#     4  12  22  44  67  95 134 170 215 272 321 392
#
# _framework density 20.872242
#
# number of rings (size 3 to 8) (size 9 to 14) (size 15 to 20)
#    0.857    0.571    4.286    0.857    0.000    5.714 
#    5.143    1.429    0.000    0.000    0.000    0.000 
#    0.000    0.000    0.000    0.000    0.000    0.000 
#
# Total GULP energy -78106.854632 kJ/mol
# GULP energy per Si atom -5579.061045 kJ/mol
# Density = 2.082474 g / cm^3
# Si number density = 20.872242 Si / 1000 Ang^3
#
#
#
# Elastic Constant Matrix: (Units=GPa)
#
#
# Indices 1 2 3 4 5 6 
#
# 1 35.5287 -1.7023 -11.1563 -10.2895 -9.4757 6.6119
# 2 -1.7023 66.5189 -1.6367 4.9836 7.3484 -2.8184
# 3 -11.1563 -1.6367 42.2322 -28.0453 -11.7965 -4.0486
# 4 -10.2895 4.9836 -28.0453 37.3813 3.0137 4.6220
# 5 -9.4757 7.3484 -11.7965 3.0137 19.7364 10.7038
# 6 6.6119 -2.8184 -4.0486 4.6220 10.7038 29.9844
#
#
#
# Elastic Compliance Matrix: (Units=1/GPa)
#
#
# Indices 1 2 3 4 5 6 
#
# 1 -0.041442 0.012461 -0.072600 -0.065978 -0.078927 0.038852
# 2 0.012461 0.013408 0.014363 0.012211 0.010524 -0.005187
# 3 -0.072600 0.014363 -0.060204 -0.065999 -0.095032 0.053328
# 4 -0.065978 0.012211 -0.065999 -0.040705 -0.094914 0.046942
# 5 -0.078927 0.010524 -0.095032 -0.094914 -0.055064 0.039849
# 6 0.038852 -0.005187 0.053328 0.046942 0.039849 0.010035
#
#
# Mechanical properties :
#
#
# Convention : Reuss Voigt Hill
#
# Bulk Modulus (GPa) = -5.56206 12.80992 3.62393
# Shear Modulus (GPa) = -35.12467 28.00545 -3.55961
#
# Velocity S-wave (km/s) = -4.10670 3.66697 -1.30734
# Velocity P-wave (km/s) = 5.01569 4.90709 0.73405
#
# Compressibility (1/GPa) = -0.17978960
#
# Stress axis : x y z
#
# Youngs Moduli (GPa) = -24.12988 74.58051 -16.61023
#
# Poissons Ratio (x) = -0.92938 -1.20591
# Poissons Ratio (y) = 0.30069 0.23858
# Poissons Ratio (z) = -1.75184 -1.07121
#
# Static dielectric constant tensor:
#      x y z
#    x 1.773380 0.008220 0.008700 
#    y 0.008220 1.791090 0.038090 
#    z 0.008700 0.038090 1.759180 
# 
# From -- ./inp_files/574197.got.cif
#   From: 2010.05.17/outbox.cif.g08.bks.cpg/sg2_288_cif.got.tgz:574197.got - 2010.06.03 11:33:40.
