data_PCOD9033707
_publ_section_title
;
Structure prediction by ZEFSAII (Michael W. Deem and Ramdas Pophale) SiO2 
 PCOD9033707
Probable space group: P -1
;
_chemical_formula_sum "Si O2"
_cell_formula_units_Z 16
_cell_length_a 16.638451
_cell_length_b 7.070447
_cell_length_c 9.333336
_cell_angle_alpha 72.965590
_cell_angle_beta 132.918636
_cell_angle_gamma 103.253066
_cell_volume 768.107605
_symmetry_space_group_name_H-M "P -1"
_symmetry_group_IT_number 2
_symmetry_cell_setting 'triclinic'
loop_
_space_group_symop_operation_xyz
x,y,z
-x,-y,-z
loop_
_atom_site_type_symbol
_atom_site_label
_atom_site_fract_x
_atom_site_fract_y
_atom_site_fract_z
Si Si1 0.482203 0.123499 0.807327
Si Si2 0.637725 0.938268 0.821102
Si Si3 0.768565 0.951877 0.514647
Si Si4 0.521465 0.544481 0.685027
Si Si5 0.299147 0.737969 0.412043
Si Si6 0.839159 0.018506 0.259621
Si Si7 0.986374 0.664656 0.565872
Si Si8 0.108332 0.425643 0.223563
O O1 0.353202 0.150862 0.622562
O O2 0.544969 0.337247 0.834521
O O3 0.529354 0.005663 0.756783
O O4 0.500000 0.000000 0.000000
O O5 0.613619 0.717781 0.781809
O O6 0.666853 0.091759 0.697391
O O7 0.734811 0.964722 0.047855
O O8 0.806557 0.008598 0.388840
O O9 0.851795 0.794952 0.714857
O O10 0.752660 0.147783 0.543711
O O11 0.500000 0.500000 0.500000
O O12 0.409324 0.622281 0.599106
O O13 0.208043 0.580833 0.278434
O O14 0.924469 0.846139 0.378963
O O15 0.900386 0.230950 0.260620
O O16 0.000000 0.500000 0.500000
O O17 0.916669 0.583645 0.634359
O O18 0.000000 0.500000 0.000000
#
# Coordination Sequence:
#
# PCOD9033707 Si02
#       8
#     2   2   2   2   2   2   2   2
#     4  12  24  44  67 101 142 178 225 284 339 413
#     4  12  25  41  69 103 135 184 231 272 348 414
#     4  11  23  43  67  95 139 175 220 285 348 403
#     4  12  25  44  68  98 142 186 230 281 342 418
#     4  12  24  41  70  97 134 183 225 279 350 406
#     4  10  23  43  65  98 133 173 225 284 339 411
#     4  10  22  44  69  92 134 175 221 283 350 397
#     4  11  25  43  67  99 131 173 233 284 339 408
#
# _framework density 20.830414999999999
#
# number of rings (size 3 to 8) (size 9 to 14) (size 15 to 20)
#    0.000    0.750    5.000    2.625    0.000    3.000 
#    4.500    0.000    0.000    0.000    0.000    0.000 
#    0.000    0.000    0.000    0.000    0.000    0.000 
#
# Total GULP energy -89470.133585 kJ/mol
# GULP energy per Si atom -5591.883349 kJ/mol
# Density = 2.078300 g / cm^3
# Si number density = 20.830415 Si / 1000 Ang^3
#
#
#
# Elastic Constant Matrix: (Units=GPa)
#
#
# Indices 1 2 3 4 5 6 
#
# 1 73.0076 35.7413 10.8598 6.7162 -2.2548 -3.9246
# 2 35.7413 136.5032 33.6407 0.5211 -12.8321 1.0628
# 3 10.8598 33.6407 74.9996 -8.2883 7.0066 -2.1729
# 4 6.7162 0.5211 -8.2883 21.9887 4.3803 -1.0836
# 5 -2.2548 -12.8321 7.0066 4.3803 33.8400 0.6299
# 6 -3.9246 1.0628 -2.1729 -1.0836 0.6299 52.2713
#
#
#
# Elastic Compliance Matrix: (Units=1/GPa)
#
#
# Indices 1 2 3 4 5 6 
#
# 1 0.016377 -0.003923 -0.001228 -0.005423 0.000539 0.001139
# 2 -0.003923 0.009922 -0.004531 -0.001714 0.004675 -0.000777
# 3 -0.001228 -0.004531 0.017083 0.008248 -0.006423 0.000958
# 4 -0.005423 -0.001714 0.008248 0.052235 -0.009502 0.001168
# 5 0.000539 0.004675 -0.006423 -0.009502 0.033937 -0.000928
# 6 0.001139 -0.000777 0.000958 0.001168 -0.000928 0.019308
#
#
# Mechanical properties :
#
#
# Convention : Reuss Voigt Hill
#
# Bulk Modulus (GPa) = 41.63707 49.44378 45.54043
# Shear Modulus (GPa) = 28.37179 35.23791 31.80485
#
# Velocity S-wave (km/s) = 3.69458 4.11744 3.91173
# Velocity P-wave (km/s) = 6.18319 6.81119 6.50477
#
# Compressibility (1/GPa) = 0.02401706
#
# Stress axis : x y z
#
# Youngs Moduli (GPa) = 61.06040 100.78851 58.53772
#
# Poissons Ratio (x) = 0.39538 0.07191
# Poissons Ratio (y) = 0.23953 0.26524
# Poissons Ratio (z) = 0.07501 0.45668
#
# Static dielectric constant tensor:
#      x y z
#    x 1.779500 0.002930 0.035920 
#    y 0.002930 1.749120 -0.000450 
#    z 0.035920 -0.000450 1.748930 
# 
# From -- ./inp_files/46225.got.cif
#   From: 2010.05.17/outbox.cif.g08.bks.cpg/sg2_24_cif.got.tgz:46225.got - 2010.06.03 11:33:40.
