data_PCOD9033639
_publ_section_title
;
Structure prediction by ZEFSAII (Michael W. Deem and Ramdas Pophale) SiO2 
 PCOD9033639
Probable space group: P -1
;
_chemical_formula_sum "Si O2"
_cell_formula_units_Z 16
_cell_length_a 10.813424
_cell_length_b 6.489567
_cell_length_c 12.561384
_cell_angle_alpha 53.995741
_cell_angle_beta 97.387828
_cell_angle_gamma 91.619282
_cell_volume 705.948767
_symmetry_space_group_name_H-M "P -1"
_symmetry_group_IT_number 2
_symmetry_cell_setting 'triclinic'
loop_
_space_group_symop_operation_xyz
x,y,z
-x,-y,-z
loop_
_atom_site_type_symbol
_atom_site_label
_atom_site_fract_x
_atom_site_fract_y
_atom_site_fract_z
Si Si1 0.426703 0.370794 0.218127
Si Si2 0.975783 0.679833 0.805309
Si Si3 0.340916 0.974555 0.690378
Si Si4 0.242222 0.910526 0.376770
Si Si5 0.378902 0.900771 0.957074
Si Si6 0.880752 0.173646 0.395641
Si Si7 0.383145 0.466213 0.421465
Si Si8 0.895826 0.166435 0.005429
O O1 0.392269 0.588072 0.060437
O O2 0.410990 0.500100 0.291818
O O3 0.570305 0.273162 0.250617
O O4 0.348216 0.113294 0.299730
O O5 0.058967 0.606376 0.731937
O O6 0.053835 0.746472 0.898985
O O7 0.885922 0.931516 0.707114
O O8 0.883689 0.449659 0.868757
O O9 0.358391 0.180261 0.537818
O O10 0.194527 0.947601 0.671896
O O11 0.376768 0.021308 0.802038
O O12 0.217277 0.798403 0.526990
O O13 0.273296 0.666575 0.382164
O O14 0.238263 0.956411 0.970052
O O15 0.500000 0.000000 0.000000
O O16 0.000000 0.000000 0.500000
O O17 0.500000 0.500000 0.500000
O O18 0.000000 0.000000 0.000000
#
# Coordination Sequence:
#
# PCOD9033639 Si02
#       8
#     2   2   2   2   2   2   2   2
#     4  12  25  45  72 103 145 193 236 298 369 436
#     4  10  23  46  69 100 141 185 239 296 363 433
#     4  12  24  46  70 102 149 189 242 300 364 435
#     4  11  23  42  74 102 141 182 239 294 366 428
#     4  12  28  48  71 111 150 194 246 302 370 441
#     4  10  22  44  69 101 136 186 236 303 361 421
#     4  12  24  41  70 105 136 184 242 288 360 439
#     4  11  25  44  75 101 140 193 244 295 364 437
#
# _framework density 22.664532999999999
#
# number of rings (size 3 to 8) (size 9 to 14) (size 15 to 20)
#    0.000    0.750    5.000    2.250    1.750    2.000 
#    0.000    1.250    0.000    0.000    0.000    0.000 
#    0.000    0.000    0.000    0.000    0.000    0.000 
#
# Total GULP energy -89110.328811 kJ/mol
# GULP energy per Si atom -5569.395551 kJ/mol
# Density = 2.261295 g / cm^3
# Si number density = 22.664533 Si / 1000 Ang^3
#
#
#
# Elastic Constant Matrix: (Units=GPa)
#
#
# Indices 1 2 3 4 5 6 
#
# 1 110.5073 24.1032 17.9928 11.5018 7.5664 2.6029
# 2 24.1032 50.3986 11.8891 7.4281 0.9376 -19.8913
# 3 17.9928 11.8891 69.4434 6.8153 -0.9748 -2.6898
# 4 11.5018 7.4281 6.8153 32.4761 -3.7760 9.7409
# 5 7.5664 0.9376 -0.9748 -3.7760 34.3318 -2.1206
# 6 2.6029 -19.8913 -2.6898 9.7409 -2.1206 32.6299
#
#
#
# Elastic Compliance Matrix: (Units=1/GPa)
#
#
# Indices 1 2 3 4 5 6 
#
# 1 0.011229 -0.006768 -0.001908 -0.000814 -0.002750 -0.005114
# 2 -0.006768 0.035818 -0.002067 -0.013138 0.000626 0.026167
# 3 -0.001908 -0.002067 0.015519 -0.002295 0.000721 0.000903
# 4 -0.000814 -0.013138 -0.002295 0.041044 0.003743 -0.020142
# 5 -0.002750 0.000626 0.000721 0.003743 0.030242 0.001508
# 6 -0.005114 0.026167 0.000903 -0.020142 0.001508 0.053192
#
#
# Mechanical properties :
#
#
# Convention : Reuss Voigt Hill
#
# Bulk Modulus (GPa) = 24.34176 37.59108 30.96642
# Shear Modulus (GPa) = 22.49994 31.64515 27.07255
#
# Velocity S-wave (km/s) = 3.15419 3.74068 3.45989
# Velocity P-wave (km/s) = 4.90190 5.93960 5.44552
#
# Compressibility (1/GPa) = 0.04108166
#
# Stress axis : x y z
#
# Youngs Moduli (GPa) = 89.05173 27.91858 64.43805
#
# Poissons Ratio (x) = 0.18895 0.12292
# Poissons Ratio (y) = 0.60268 0.13320
# Poissons Ratio (z) = 0.16988 0.05771
#
# Static dielectric constant tensor:
#      x y z
#    x 0.357950 -2.168160 0.795530 
#    y -2.168160 -1.257100 1.156070 
#    z 0.795530 1.156070 1.431980 
# 
# From -- ./inp_files/409888.got.cif
#   From: 2010.05.17/outbox.cif.g08.bks.cpg/sg2_205_cif.got.tgz:409888.got - 2010.06.03 11:33:40.
