data_PCOD9033155
_publ_section_title
;
Structure prediction by ZEFSAII (Michael W. Deem and Ramdas Pophale) SiO2 
 PCOD9033155
Probable space group: P -1
;
_chemical_formula_sum "Si O2"
_cell_formula_units_Z 16
_cell_length_a 9.072596
_cell_length_b 9.149059
_cell_length_c 19.493057
_cell_angle_alpha 35.174429
_cell_angle_beta 125.386577
_cell_angle_gamma 107.616458
_cell_volume 707.930008
_symmetry_space_group_name_H-M "P -1"
_symmetry_group_IT_number 2
_symmetry_cell_setting 'triclinic'
loop_
_space_group_symop_operation_xyz
x,y,z
-x,-y,-z
loop_
_atom_site_type_symbol
_atom_site_label
_atom_site_fract_x
_atom_site_fract_y
_atom_site_fract_z
Si Si1 0.267205 0.710829 0.939620
Si Si2 0.716174 0.976193 0.049096
Si Si3 0.679366 0.199011 0.808585
Si Si4 0.780007 0.026674 0.413988
Si Si5 0.114684 0.596685 0.325102
Si Si6 0.581000 0.236773 0.414206
Si Si7 0.501888 0.170068 0.159179
Si Si8 0.076851 0.744868 0.406499
O O1 0.256302 0.786221 0.987695
O O2 0.451091 0.738007 0.938245
O O3 0.308960 0.397163 0.052932
O O4 0.090132 0.959666 0.763964
O O5 0.746183 0.997905 0.968210
O O6 0.880228 0.697466 0.226586
O O7 0.500000 0.000000 0.000000
O O8 0.835922 0.229002 0.787338
O O9 0.572445 0.483071 0.708166
O O10 0.534552 0.104881 0.759882
O O11 0.634061 0.221287 0.354700
O O12 0.684052 0.122466 0.277122
O O13 0.788024 0.719378 0.543332
O O14 0.000000 0.000000 0.500000
O O15 0.177944 0.660007 0.392409
O O16 0.777793 0.213439 0.515386
O O17 0.500000 0.000000 0.500000
O O18 0.000000 0.500000 0.500000
#
# Coordination Sequence:
#
# PCOD9033155 Si02
#       8
#     2   2   2   2   2   2   2   2
#     4  10  22  44  66 106 131 182 239 290 343 421
#     4  11  24  44  71 100 138 183 232 290 352 424
#     4  12  25  46  68 100 143 186 232 290 364 427
#     4  12  26  43  70 105 137 181 238 297 351 425
#     4  11  26  44  70 102 138 185 233 288 357 428
#     4  12  26  44  68 105 144 182 230 299 364 420
#     4  11  24  41  72  99 138 184 232 286 355 420
#     4  11  24  46  73 101 142 188 241 290 354 432
#
# _framework density 22.601105
#
# number of rings (size 3 to 8) (size 9 to 14) (size 15 to 20)
#    0.000    0.750    2.500    4.875    7.000    2.000 
#    2.250    1.250    0.000    0.000    0.000    0.000 
#    0.000    0.000    0.000    0.000    0.000    0.000 
#
# Total GULP energy -89407.132259 kJ/mol
# GULP energy per Si atom -5587.945766 kJ/mol
# Density = 2.254966 g / cm^3
# Si number density = 22.601105 Si / 1000 Ang^3
#
#
#
# Elastic Constant Matrix: (Units=GPa)
#
#
# Indices 1 2 3 4 5 6 
#
# 1 68.0911 31.9650 3.3375 12.8209 -14.4279 -15.3063
# 2 31.9650 122.8477 30.5095 9.7825 -3.8390 -10.0483
# 3 3.3375 30.5095 78.8479 9.2150 2.1270 2.2378
# 4 12.8209 9.7825 9.2150 38.8842 -11.4826 -4.1397
# 5 -14.4279 -3.8390 2.1270 -11.4826 30.8570 0.2968
# 6 -15.3063 -10.0483 2.2378 -4.1397 0.2968 37.5310
#
#
#
# Elastic Compliance Matrix: (Units=1/GPa)
#
#
# Indices 1 2 3 4 5 6 
#
# 1 0.020459 -0.004506 0.000798 -0.002765 0.007857 0.006723
# 2 -0.004506 0.010350 -0.003793 -0.000300 -0.000680 0.001132
# 3 0.000798 -0.003793 0.014674 -0.003727 -0.002478 -0.001956
# 4 -0.002765 -0.000300 -0.003727 0.030910 0.010406 0.002341
# 5 0.007857 -0.000680 -0.002478 0.010406 0.040001 0.004001
# 6 0.006723 0.001132 -0.001956 0.002341 0.004001 0.030033
#
#
# Mechanical properties :
#
#
# Convention : Reuss Voigt Hill
#
# Bulk Modulus (GPa) = 32.80661 44.60121 38.70391
# Shear Modulus (GPa) = 29.13933 35.05274 32.09603
#
# Velocity S-wave (km/s) = 3.59456 3.94246 3.77252
# Velocity P-wave (km/s) = 5.63692 6.36403 6.01148
#
# Compressibility (1/GPa) = 0.03048166
#
# Stress axis : x y z
#
# Youngs Moduli (GPa) = 48.87794 96.62068 68.14609
#
# Poissons Ratio (x) = 0.43538 -0.05438
# Poissons Ratio (y) = 0.22025 0.25846
# Poissons Ratio (z) = -0.03901 0.36646
#
# Static dielectric constant tensor:
#      x y z
#    x 1.844610 0.021180 0.004730 
#    y 0.021180 1.906450 -0.003640 
#    z 0.004730 -0.003640 1.891190 
# 
# From -- ./inp_files/381493.got.cif
#   From: 2010.05.17/outbox.cif.g08.bks.cpg/sg2_191_cif.got.tgz:381493.got - 2010.06.03 11:33:40.
