data_PCOD9033844
_publ_section_title
;
Structure prediction by ZEFSAII (Michael W. Deem and Ramdas Pophale) SiO2 
 PCOD9033844
Probable space group: P -1
;
_chemical_formula_sum "Si O2"
_cell_formula_units_Z 15
_cell_length_a 6.919166
_cell_length_b 8.904167
_cell_length_c 16.126995
_cell_angle_alpha 73.904314
_cell_angle_beta 81.874539
_cell_angle_gamma 124.549849
_cell_volume 728.151635
_symmetry_space_group_name_H-M "P -1"
_symmetry_group_IT_number 2
_symmetry_cell_setting 'triclinic'
loop_
_space_group_symop_operation_xyz
x,y,z
-x,-y,-z
loop_
_atom_site_type_symbol
_atom_site_label
_atom_site_fract_x
_atom_site_fract_y
_atom_site_fract_z
Si Si1 0.600775 0.376477 0.025643
Si Si2 0.500000 0.000000 0.500000
Si Si3 0.705140 0.452618 0.615067
Si Si4 0.954081 0.522949 0.129427
Si Si5 0.884838 0.919432 0.278486
Si Si6 0.910018 0.049685 0.917496
Si Si7 0.969364 0.285998 0.303329
Si Si8 0.081144 0.767091 0.414539
O O1 0.700273 0.401816 0.108797
O O2 0.379086 0.143734 0.052870
O O3 0.500000 0.500000 0.000000
O O4 0.838243 0.466489 0.937658
O O5 0.747781 0.150674 0.403777
O O6 0.690618 0.084945 0.558429
O O7 0.409867 0.264679 0.655187
O O8 0.857377 0.366634 0.612537
O O9 0.775268 0.568010 0.680330
O O10 0.823243 0.614025 0.507857
O O11 0.051885 0.748127 0.100823
O O12 0.923534 0.417875 0.233140
O O13 0.935307 0.919757 0.178571
O O14 0.043442 0.880372 0.331280
O O15 0.961445 0.132701 0.267647
O O16 0.000000 0.000000 0.000000
#
# Coordination Sequence:
#
# PCOD9033844 Si02
#       8
#     2   1   2   2   2   2   2   2
#     4  11  24  47  74 103 139 181 239 296 355 425
#     4  10  22  44  70 102 144 178 228 290 352 410
#     4  10  23  45  69 100 143 182 234 292 348 425
#     4  11  26  46  72 102 140 190 231 296 358 417
#     4  12  26  44  70 103 138 189 240 285 356 432
#     4  12  27  46  71 106 143 186 237 298 356 418
#     4  11  25  44  71 104 139 189 232 290 354 419
#     4  10  22  46  69 103 140 184 232 293 355 418
#
# _framework density 20.600104000000002
#
# number of rings (size 3 to 8) (size 9 to 14) (size 15 to 20)
#    0.000    1.067    2.667    2.400    5.600    4.267 
#    9.600    0.000    0.000    0.000    0.000    0.000 
#    0.000    0.000    0.000    0.000    0.000    0.000 
#
# Total GULP energy -83647.073480 kJ/mol
# GULP energy per Si atom -5576.471565 kJ/mol
# Density = 2.055322 g / cm^3
# Si number density = 20.600104 Si / 1000 Ang^3
#
#
#
# Elastic Constant Matrix: (Units=GPa)
#
#
# Indices 1 2 3 4 5 6 
#
# 1 68.6759 46.4696 35.3880 5.5457 12.8652 -4.0562
# 2 46.4696 116.8953 27.2359 16.6663 25.1103 6.6844
# 3 35.3880 27.2359 99.0312 18.1660 20.9326 -15.8176
# 4 5.5457 16.6663 18.1660 21.3073 -0.3977 5.9688
# 5 12.8652 25.1103 20.9326 -0.3977 18.5037 -11.6448
# 6 -4.0562 6.6844 -15.8176 5.9688 -11.6448 35.1733
#
#
#
# Elastic Compliance Matrix: (Units=1/GPa)
#
#
# Indices 1 2 3 4 5 6 
#
# 1 0.024424 -0.011537 -0.009308 0.010019 0.011203 0.002832
# 2 -0.011537 0.023748 0.007943 -0.019554 -0.041625 -0.012734
# 3 -0.009308 0.007943 0.021822 -0.023434 -0.028351 0.001821
# 4 0.010019 -0.019554 -0.023434 0.081746 0.044894 -0.004676
# 5 0.011203 -0.041625 -0.028351 0.044894 0.162638 0.042679
# 6 0.002832 -0.012734 0.001821 -0.004676 0.042679 0.046919
#
#
# Mechanical properties :
#
#
# Convention : Reuss Voigt Hill
#
# Bulk Modulus (GPa) = 22.63030 55.86549 39.24790
# Shear Modulus (GPa) = 12.44300 26.69747 19.57023
#
# Velocity S-wave (km/s) = 2.46036 3.60389 3.08556
# Velocity P-wave (km/s) = 4.36813 6.67048 5.63808
#
# Compressibility (1/GPa) = 0.04418854
#
# Stress axis : x y z
#
# Youngs Moduli (GPa) = 40.94351 42.10851 45.82601
#
# Poissons Ratio (x) = 0.48583 0.42656
# Poissons Ratio (y) = 0.47238 -0.36400
# Poissons Ratio (z) = 0.38111 -0.33447
#
# Static dielectric constant tensor:
#      x y z
#    x 1.706950 -0.003760 -0.004660 
#    y -0.003760 1.739840 0.012240 
#    z -0.004660 0.012240 1.719870 
# 
# From -- ./inp_files/107693.got.cif
#   From: 2010.05.17/outbox.cif.g08.bks.cpg/sg2_54_cif.got.tgz:107693.got - 2010.06.03 11:33:40.
