data_PCOD9033737
_publ_section_title
;
Structure prediction by ZEFSAII (Michael W. Deem and Ramdas Pophale) SiO2 
 PCOD9033737
Probable space group: P -1
;
_chemical_formula_sum "Si O2"
_cell_formula_units_Z 12
_cell_length_a 5.671767
_cell_length_b 8.397626
_cell_length_c 21.362575
_cell_angle_alpha 33.991385
_cell_angle_beta 123.436530
_cell_angle_gamma 121.946672
_cell_volume 468.968149
_symmetry_space_group_name_H-M "P -1"
_symmetry_group_IT_number 2
_symmetry_cell_setting 'triclinic'
loop_
_space_group_symop_operation_xyz
x,y,z
-x,-y,-z
loop_
_atom_site_type_symbol
_atom_site_label
_atom_site_fract_x
_atom_site_fract_y
_atom_site_fract_z
Si Si1 0.432277 0.004407 0.660046
Si Si2 0.543248 0.807202 0.011929
Si Si3 0.137193 0.767139 0.169791
Si Si4 0.488098 0.285088 0.364100
Si Si5 0.937519 0.528935 0.554856
Si Si6 0.638705 0.724602 0.892435
O O1 0.688937 0.270362 0.617752
O O2 0.167616 0.163101 0.551361
O O3 0.509348 0.802422 0.680233
O O4 0.411242 0.866445 0.771027
O O5 0.858024 0.721834 0.100404
O O6 0.301145 0.528906 0.063178
O O7 0.500000 0.000000 0.000000
O O8 0.594431 0.033914 0.889204
O O9 0.239720 0.460809 0.293726
O O10 0.786456 0.482447 0.359662
O O11 0.117664 0.008439 0.141907
O O12 0.500000 0.000000 0.500000
O O13 0.000000 0.500000 0.500000
O O14 0.500000 0.500000 0.000000
#
# Coordination Sequence:
#
# PCOD9033737 Si02
#       6
#     2   2   2   2   2   2
#     4  11  25  43  70 102 143 191 235 292 358 422
#     4  10  22  44  69  96 132 182 231 290 356 412
#     4  10  24  42  64  99 138 177 234 289 347 419
#     4  12  25  43  71 106 142 193 237 294 358 419
#     4  11  24  45  68 103 145 187 240 292 356 423
#     4  10  23  43  71 101 137 183 232 294 355 415
#
# _framework density 25.588089
#
# number of rings (size 3 to 8) (size 9 to 14) (size 15 to 20)
#    0.000    1.333    1.667    2.500    4.667    4.667 
#    0.000    3.333    0.000    0.000    0.000    0.000 
#    0.000    0.000    0.000    0.000    0.000    0.000 
#
# Total GULP energy -66986.461674 kJ/mol
# GULP energy per Si atom -5582.205139 kJ/mol
# Density = 2.552985 g / cm^3
# Si number density = 25.588089 Si / 1000 Ang^3
#
#
#
# Elastic Constant Matrix: (Units=GPa)
#
#
# Indices 1 2 3 4 5 6 
#
# 1 55.4585 11.8804 40.6721 -12.3182 12.8506 12.3175
# 2 11.8804 125.4387 52.0162 -29.3783 6.3985 18.3310
# 3 40.6721 52.0162 156.8603 -4.2712 10.3837 5.1904
# 4 -12.3182 -29.3783 -4.2712 47.7004 -3.0205 1.6154
# 5 12.8506 6.3985 10.3837 -3.0205 37.1670 -2.8082
# 6 12.3175 18.3310 5.1904 1.6154 -2.8082 40.3373
#
#
#
# Elastic Compliance Matrix: (Units=1/GPa)
#
#
# Indices 1 2 3 4 5 6 
#
# 1 0.029654 0.004946 -0.008100 0.009797 -0.008897 -0.011272
# 2 0.004946 0.012759 -0.004879 0.008792 -0.002373 -0.007198
# 3 -0.008100 -0.004879 0.009800 -0.004290 0.000830 0.003659
# 4 0.009797 0.008792 -0.004290 0.028662 -0.001956 -0.007719
# 5 -0.008897 -0.002373 0.000830 -0.001956 0.030444 0.005886
# 6 -0.011272 -0.007198 0.003659 -0.007719 0.005886 0.031752
#
#
# Mechanical properties :
#
#
# Convention : Reuss Voigt Hill
#
# Bulk Modulus (GPa) = 27.66491 60.76612 44.21552
# Shear Modulus (GPa) = 29.20797 40.58687 34.89742
#
# Velocity S-wave (km/s) = 3.38223 3.98699 3.69699
# Velocity P-wave (km/s) = 5.10761 6.70777 5.96162
#
# Compressibility (1/GPa) = 0.03614687
#
# Stress axis : x y z
#
# Youngs Moduli (GPa) = 33.72254 78.37817 102.03693
#
# Poissons Ratio (x) = -0.38767 0.82654
# Poissons Ratio (y) = -0.16679 0.49781
# Poissons Ratio (z) = 0.27316 0.38238
#
# Static dielectric constant tensor:
#      x y z
#    x 2.220880 -0.067320 -0.088430 
#    y -0.067320 2.024030 0.061640 
#    z -0.088430 0.061640 2.095880 
# 
# From -- ./inp_files/59256.got.cif
#   From: 2010.05.17/outbox.cif.g08.bks.cpg/sg2_30_cif.got.tgz:59256.got - 2010.06.03 11:33:40.
