data_PCOD9033645
_publ_section_title
;
Structure prediction by ZEFSAII (Michael W. Deem and Ramdas Pophale) SiO2 
 PCOD9033645
Probable space group: P -1
;
_chemical_formula_sum "Si O2"
_cell_formula_units_Z 14
_cell_length_a 9.426756
_cell_length_b 12.526395
_cell_length_c 12.562940
_cell_angle_alpha 50.218042
_cell_angle_beta 33.496154
_cell_angle_gamma 54.855388
_cell_volume 626.060308
_symmetry_space_group_name_H-M "P -1"
_symmetry_group_IT_number 2
_symmetry_cell_setting 'triclinic'
loop_
_space_group_symop_operation_xyz
x,y,z
-x,-y,-z
loop_
_atom_site_type_symbol
_atom_site_label
_atom_site_fract_x
_atom_site_fract_y
_atom_site_fract_z
Si Si1 0.744708 0.098748 0.904601
Si Si2 0.159550 0.554469 0.966474
Si Si3 0.426900 0.071951 0.324801
Si Si4 0.251422 0.580616 0.315055
Si Si5 0.224767 0.869369 0.743664
Si Si6 0.758453 0.415553 0.430957
Si Si7 0.115871 0.874834 0.431559
O O1 0.771757 0.260368 0.815715
O O2 0.708927 0.095510 0.799496
O O3 0.538335 0.051967 0.148846
O O4 0.995602 0.990153 0.832612
O O5 0.461233 0.499411 0.831427
O O6 0.132535 0.721053 0.869118
O O7 0.000000 0.500000 0.000000
O O8 0.000712 0.496071 0.198949
O O9 0.609691 0.146224 0.242377
O O10 0.151661 0.162285 0.431928
O O11 0.381282 0.930714 0.508509
O O12 0.256111 0.599550 0.425735
O O13 0.000000 0.500000 0.500000
O O14 0.500000 0.500000 0.500000
O O15 0.777505 0.256025 0.481283
O O16 0.000000 0.000000 0.500000
#
# Coordination Sequence:
#
# PCOD9033645 Si02
#       7
#     2   2   2   2   2   2   2
#     4  10  23  45  68 102 137 185 240 293 358 427
#     4  12  27  46  72 107 147 190 238 297 374 426
#     4  10  22  44  69 101 141 183 246 293 359 418
#     4  11  27  46  74 108 148 188 243 300 365 438
#     4  10  25  42  73 102 140 188 240 300 349 437
#     4  11  25  47  70 104 147 190 240 293 367 439
#     4  10  24  42  68 101 137 182 240 296 351 425
#
# _framework density 22.362064
#
# number of rings (size 3 to 8) (size 9 to 14) (size 15 to 20)
#    0.000    1.429    1.429    1.286   14.000    3.429 
#    0.000    0.000    0.000    0.000    0.000    0.000 
#    0.000    0.000    0.000    0.000    0.000    0.000 
#
# Total GULP energy -78129.750425 kJ/mol
# GULP energy per Si atom -5580.696459 kJ/mol
# Density = 2.231117 g / cm^3
# Si number density = 22.362064 Si / 1000 Ang^3
#
#
#
# Elastic Constant Matrix: (Units=GPa)
#
#
# Indices 1 2 3 4 5 6 
#
# 1 84.4994 44.2908 22.9545 -1.8581 -9.9828 -14.0785
# 2 44.2908 141.0941 52.7867 -12.1331 -10.4217 -27.2186
# 3 22.9545 52.7867 161.8108 15.5646 8.4775 -6.7044
# 4 -1.8581 -12.1331 15.5646 31.8222 1.0747 0.3941
# 5 -9.9828 -10.4217 8.4775 1.0747 41.1259 8.1540
# 6 -14.0785 -27.2186 -6.7044 0.3941 8.1540 31.8536
#
#
#
# Elastic Compliance Matrix: (Units=1/GPa)
#
#
# Indices 1 2 3 4 5 6 
#
# 1 0.014678 -0.003611 -0.000899 -0.000191 0.002318 0.002622
# 2 -0.003611 0.011518 -0.003572 0.005799 0.001217 0.007111
# 3 -0.000899 -0.003572 0.008063 -0.005262 -0.002437 -0.001064
# 4 -0.000191 0.005799 -0.005262 0.036128 0.000955 0.003071
# 5 0.002318 0.001217 -0.002437 0.000955 0.026715 -0.005299
# 6 0.002622 0.007111 -0.001064 0.003071 -0.005299 0.039723
#
#
# Mechanical properties :
#
#
# Convention : Reuss Voigt Hill
#
# Bulk Modulus (GPa) = 55.26403 69.71868 62.49136
# Shear Modulus (GPa) = 31.44305 38.78515 35.11410
#
# Velocity S-wave (km/s) = 3.75385 4.16915 3.96694
# Velocity P-wave (km/s) = 6.59966 7.37704 6.99915
#
# Compressibility (1/GPa) = 0.01809495
#
# Stress axis : x y z
#
# Youngs Moduli (GPa) = 68.13125 86.82429 124.02878
#
# Poissons Ratio (x) = 0.31349 0.11147
# Poissons Ratio (y) = 0.24599 0.44303
# Poissons Ratio (z) = 0.06123 0.31014
#
# Static dielectric constant tensor:
#      x y z
#    x 1.949930 -0.080650 0.030220 
#    y -0.080650 1.949150 -0.105410 
#    z 0.030220 -0.105410 1.831950 
# 
# From -- ./inp_files/391920.got.cif
#   From: 2010.05.17/outbox.cif.g08.bks.cpg/sg2_196_cif.got.tgz:391920.got - 2010.06.03 11:33:40.
