data_PCOD9033994
_publ_section_title
;
Structure prediction by ZEFSAII (Michael W. Deem and Ramdas Pophale) SiO2 
 PCOD9033994
Probable space group: P -1
;
_chemical_formula_sum "Si O2"
_cell_formula_units_Z 13
_cell_length_a 17.284791
_cell_length_b 17.256267
_cell_length_c 6.395936
_cell_angle_alpha 133.281357
_cell_angle_beta 54.441140
_cell_angle_gamma 155.979107
_cell_volume 558.884675
_symmetry_space_group_name_H-M "P -1"
_symmetry_group_IT_number 2
_symmetry_cell_setting 'triclinic'
loop_
_space_group_symop_operation_xyz
x,y,z
-x,-y,-z
loop_
_atom_site_type_symbol
_atom_site_label
_atom_site_fract_x
_atom_site_fract_y
_atom_site_fract_z
Si Si1 0.356151 0.507696 0.086283
Si Si2 0.399332 0.972438 0.930910
Si Si3 0.703846 0.892398 0.543284
Si Si4 0.000000 0.500000 0.500000
Si Si5 0.216352 0.195164 0.432543
Si Si6 0.722611 0.395448 0.939727
Si Si7 0.879609 0.738744 0.615488
O O1 0.529574 0.672575 0.280797
O O2 0.352385 0.613686 0.161344
O O3 0.163634 0.313103 0.169130
O O4 0.349443 0.406050 0.743908
O O5 0.219506 0.737959 0.678608
O O6 0.559609 0.162606 0.862434
O O7 0.500000 0.000000 0.000000
O O8 0.329485 0.015266 0.219703
O O9 0.719205 0.858000 0.690207
O O10 0.899884 0.056740 0.418656
O O11 0.912717 0.514747 0.805245
O O12 0.202511 0.229683 0.287032
O O13 0.000000 0.000000 0.500000
O O14 0.775279 0.539168 0.291335
#
# Coordination Sequence:
#
# PCOD9033994 Si02
#       7
#     2   2   2   1   2   2   2
#     4  11  23  43  70 101 140 179 225 285 346 419
#     4  12  27  48  72 103 142 182 240 293 351 420
#     4  11  22  44  68 101 136 186 227 283 352 404
#     4  12  26  46  76  98 138 190 230 298 362 394
#     4   9  22  42  66 104 140 175 232 277 339 424
#     4  11  25  47  67 105 137 178 236 289 344 425
#     4  10  22  44  70  98 142 179 225 285 339 421
#
# _framework density 23.260614
#
# number of rings (size 3 to 8) (size 9 to 14) (size 15 to 20)
#    0.000    1.231    3.077    1.846    0.000    6.154 
#    2.769    0.000    0.000    0.000    0.000    0.000 
#    0.000    0.000    0.000    0.000    0.000    0.000 
#
# Total GULP energy -72558.460668 kJ/mol
# GULP energy per Si atom -5581.420051 kJ/mol
# Density = 2.320767 g / cm^3
# Si number density = 23.260614 Si / 1000 Ang^3
#
#
#
# Elastic Constant Matrix: (Units=GPa)
#
#
# Indices 1 2 3 4 5 6 
#
# 1 167.7616 76.8275 36.7321 -8.8023 -13.2521 -16.8908
# 2 76.8275 124.3875 16.0140 3.5089 8.1824 0.2978
# 3 36.7321 16.0140 81.3716 8.1775 -9.6145 1.5784
# 4 -8.8023 3.5089 8.1775 46.0181 3.7380 7.0002
# 5 -13.2521 8.1824 -9.6145 3.7380 24.9589 -1.5942
# 6 -16.8908 0.2978 1.5784 7.0002 -1.5942 43.0163
#
#
#
# Elastic Compliance Matrix: (Units=1/GPa)
#
#
# Indices 1 2 3 4 5 6 
#
# 1 0.010809 -0.006800 -0.003014 0.001909 0.006799 0.004343
# 2 -0.006800 0.012827 -0.000217 -0.001164 -0.007907 -0.002855
# 3 -0.003014 -0.000217 0.014586 -0.003367 0.004530 -0.001001
# 4 0.001909 -0.001164 -0.003367 0.023547 -0.003626 -0.003085
# 5 0.006799 -0.007907 0.004530 -0.003626 0.048873 0.004960
# 6 0.004343 -0.002855 -0.001001 -0.003085 0.004960 0.025695
#
#
# Mechanical properties :
#
#
# Convention : Reuss Voigt Hill
#
# Bulk Modulus (GPa) = 55.06392 70.29645 62.68018
# Shear Modulus (GPa) = 30.77854 39.06181 34.92017
#
# Velocity S-wave (km/s) = 3.64153 4.10239 3.87881
# Velocity P-wave (km/s) = 6.43467 7.26129 6.86044
#
# Compressibility (1/GPa) = 0.01816071
#
# Stress axis : x y z
#
# Youngs Moduli (GPa) = 92.51277 77.96062 68.56094
#
# Poissons Ratio (x) = 0.53012 0.20664
# Poissons Ratio (y) = 0.62907 0.01487
# Poissons Ratio (z) = 0.27883 0.01690
#
# Static dielectric constant tensor:
#      x y z
#    x 1.832390 -0.008310 -0.006520 
#    y -0.008310 1.883120 -0.004440 
#    z -0.006520 -0.004440 1.887110 
# 
# From -- ./inp_files/95160.got.cif
#   From: 2010.05.17/outbox.cif.g08.bks.cpg/sg2_48_cif.got.tgz:95160.got - 2010.06.03 11:33:40.
