data_PCOD9033125
_publ_section_title
;
Structure prediction by ZEFSAII (Michael W. Deem and Ramdas Pophale) SiO2 
 PCOD9033125
Probable space group: P -1
;
_chemical_formula_sum "Si O2"
_cell_formula_units_Z 15
_cell_length_a 6.291282
_cell_length_b 14.146208
_cell_length_c 10.292008
_cell_angle_alpha 54.143957
_cell_angle_beta 115.804310
_cell_angle_gamma 121.282794
_cell_volume 622.976051
_symmetry_space_group_name_H-M "P -1"
_symmetry_group_IT_number 2
_symmetry_cell_setting 'triclinic'
loop_
_space_group_symop_operation_xyz
x,y,z
-x,-y,-z
loop_
_atom_site_type_symbol
_atom_site_label
_atom_site_fract_x
_atom_site_fract_y
_atom_site_fract_z
Si Si1 0.025007 0.587102 0.780181
Si Si2 0.308098 0.049012 0.482376
Si Si3 0.961775 0.623414 0.441923
Si Si4 0.478563 0.128190 0.007823
Si Si5 0.487893 0.388044 0.820941
Si Si6 0.625411 0.136152 0.749237
Si Si7 0.500000 0.500000 0.000000
Si Si8 0.008269 0.815120 0.751007
O O1 0.041687 0.646486 0.594510
O O2 0.785167 0.457537 0.815508
O O3 0.956009 0.677526 0.792928
O O4 0.280189 0.565561 0.902717
O O5 0.440024 0.119392 0.591536
O O6 0.226014 0.147026 0.297170
O O7 0.500000 0.000000 0.500000
O O8 0.098692 0.915521 0.576941
O O9 0.672727 0.606532 0.352762
O O10 0.000000 0.500000 0.500000
O O11 0.134705 0.740624 0.308751
O O12 0.418270 0.243418 0.952862
O O13 0.486237 0.136358 0.847730
O O14 0.765110 0.150627 0.114242
O O15 0.312870 0.990843 0.123964
O O16 0.407456 0.457004 0.861480
#
# Coordination Sequence:
#
# PCOD9033125 Si02
#       8
#     2   2   2   2   2   2   1   2
#     4  12  26  47  74 109 145 195 237 310 368 433
#     4  10  22  44  66 101 137 183 236 292 357 429
#     4  12  26  45  70 108 145 193 246 298 365 441
#     4  10  23  48  69 104 144 190 245 300 363 425
#     4  12  27  46  73 106 149 195 243 302 366 434
#     4  10  24  46  71 102 142 190 243 295 361 432
#     4  12  26  48  74 110 146 190 252 296 374 434
#     4  10  23  41  69  99 137 182 234 294 360 427
#
# _framework density 24.077971999999999
#
# number of rings (size 3 to 8) (size 9 to 14) (size 15 to 20)
#    0.000    1.067    2.667    2.400    3.733    1.600 
#    9.600    0.000    0.000    0.000    0.000    0.000 
#    0.000    0.000    0.000    0.000    0.000    0.000 
#
# Total GULP energy -83696.705073 kJ/mol
# GULP energy per Si atom -5579.780338 kJ/mol
# Density = 2.402317 g / cm^3
# Si number density = 24.077972 Si / 1000 Ang^3
#
#
#
# Elastic Constant Matrix: (Units=GPa)
#
#
# Indices 1 2 3 4 5 6 
#
# 1 38.8293 27.6185 37.0377 -12.9750 23.4785 -10.9662
# 2 27.6185 113.5605 39.6527 -20.8673 6.1740 4.1612
# 3 37.0377 39.6527 118.1479 4.5475 19.2806 1.1779
# 4 -12.9750 -20.8673 4.5475 51.6958 4.8873 -3.3318
# 5 23.4785 6.1740 19.2806 4.8873 49.4412 -5.5589
# 6 -10.9662 4.1612 1.1779 -3.3318 -5.5589 31.9662
#
#
#
# Elastic Compliance Matrix: (Units=1/GPa)
#
#
# Indices 1 2 3 4 5 6 
#
# 1 0.087017 -0.008793 -0.020439 0.024925 -0.031471 0.028874
# 2 -0.008793 0.011966 -0.001752 0.002276 0.002712 -0.003801
# 3 -0.020439 -0.001752 0.015199 -0.008030 0.003949 -0.007494
# 4 0.024925 0.002276 -0.008030 0.028866 -0.010753 0.009689
# 5 -0.031471 0.002712 0.003949 -0.010753 0.033616 -0.006570
# 6 0.028874 -0.003801 -0.007494 0.009689 -0.006570 0.041827
#
#
# Mechanical properties :
#
#
# Convention : Reuss Voigt Hill
#
# Bulk Modulus (GPa) = 19.15208 53.23950 36.19579
# Shear Modulus (GPa) = 16.78626 37.70256 27.24441
#
# Velocity S-wave (km/s) = 2.64325 3.96138 3.36744
# Velocity P-wave (km/s) = 4.15778 6.56374 5.49408
#
# Compressibility (1/GPa) = 0.05221364
#
# Stress axis : x y z
#
# Youngs Moduli (GPa) = 11.49207 83.56895 65.79555
#
# Poissons Ratio (x) = 0.73483 1.34478
# Poissons Ratio (y) = 0.10105 0.11526
# Poissons Ratio (z) = 0.23488 0.14640
#
# Static dielectric constant tensor:
#      x y z
#    x 2.205310 0.049910 0.066780 
#    y 0.049910 1.921570 -0.021860 
#    z 0.066780 -0.021860 1.948630 
# 
# From -- ./inp_files/366768.got.cif
#   From: 2010.05.17/outbox.cif.g08.bks.cpg/sg2_184_cif.got.tgz:366768.got - 2010.06.03 11:33:40.
