data_PCOD9033334
_publ_section_title
;
Structure prediction by ZEFSAII (Michael W. Deem and Ramdas Pophale) SiO2 
 PCOD9033334
Probable space group: P -1
;
_chemical_formula_sum "Si O2"
_cell_formula_units_Z 14
_cell_length_a 11.482545
_cell_length_b 6.990688
_cell_length_c 11.059611
_cell_angle_alpha 74.572388
_cell_angle_beta 47.637078
_cell_angle_gamma 80.267418
_cell_volume 632.260991
_symmetry_space_group_name_H-M "P -1"
_symmetry_group_IT_number 2
_symmetry_cell_setting 'triclinic'
loop_
_space_group_symop_operation_xyz
x,y,z
-x,-y,-z
loop_
_atom_site_type_symbol
_atom_site_label
_atom_site_fract_x
_atom_site_fract_y
_atom_site_fract_z
Si Si1 0.348745 0.165687 0.722039
Si Si2 0.853783 0.769169 0.582331
Si Si3 0.817556 0.436193 0.153261
Si Si4 0.284556 0.932921 0.564962
Si Si5 0.691175 0.209744 0.043356
Si Si6 0.789191 0.320071 0.684237
Si Si7 0.392305 0.036953 0.182914
O O1 0.290037 0.382735 0.757869
O O2 0.537173 0.131994 0.583080
O O3 0.289541 0.085362 0.648248
O O4 0.275253 0.015361 0.899440
O O5 0.789326 0.553964 0.624616
O O6 0.764545 0.838408 0.754135
O O7 0.038990 0.753301 0.461157
O O8 0.797900 0.941720 0.502847
O O9 0.804242 0.261834 0.291364
O O10 0.747285 0.349166 0.090501
O O11 0.000000 0.500000 0.000000
O O12 0.501628 0.183557 0.163207
O O13 0.762821 0.276086 0.853518
O O14 0.663539 0.191208 0.718599
O O15 0.500000 0.000000 0.000000
#
# Coordination Sequence:
#
# PCOD9033334 Si02
#       7
#     2   2   2   2   2   2   2
#     4  10  22  44  68 100 131 175 223 275 338 397
#     4  11  23  44  68 101 138 173 223 279 333 397
#     4  11  26  42  70 103 132 177 222 277 348 396
#     4  10  23  44  69  98 135 175 223 279 327 406
#     4  10  23  44  66 100 134 177 223 276 330 401
#     4  10  25  42  68 100 137 180 222 273 335 395
#     4  10  22  44  67  95 132 179 222 275 324 394
#
# _framework density 22.142755999999999
#
# number of rings (size 3 to 8) (size 9 to 14) (size 15 to 20)
#    0.000    1.714    1.429    0.857    4.000    8.000 
#    2.571    0.000    0.000    0.000    0.000    0.000 
#    0.000    0.000    0.000    0.000    0.000    0.000 
#
# Total GULP energy -78084.267422 kJ/mol
# GULP energy per Si atom -5577.447673 kJ/mol
# Density = 2.209236 g / cm^3
# Si number density = 22.142756 Si / 1000 Ang^3
#
#
#
# Elastic Constant Matrix: (Units=GPa)
#
#
# Indices 1 2 3 4 5 6 
#
# 1 71.0035 62.8009 42.5454 -7.7292 -3.7459 14.3923
# 2 62.8009 157.1353 69.6317 -2.4156 -10.4749 4.7809
# 3 42.5454 69.6317 118.0749 -5.1610 -10.0184 -0.0129
# 4 -7.7292 -2.4156 -5.1610 35.1928 -0.6182 -10.8999
# 5 -3.7459 -10.4749 -10.0184 -0.6182 34.1616 -9.3005
# 6 14.3923 4.7809 -0.0129 -10.8999 -9.3005 32.0393
#
#
#
# Elastic Compliance Matrix: (Units=1/GPa)
#
#
# Indices 1 2 3 4 5 6 
#
# 1 0.026749 -0.008380 -0.005024 0.000858 -0.004285 -0.011719
# 2 -0.008380 0.011327 -0.003510 -0.000785 0.002174 0.002437
# 3 -0.005024 -0.003510 0.012718 0.001948 0.003341 0.004418
# 4 0.000858 -0.000785 0.001948 0.032656 0.004308 0.012093
# 5 -0.004285 0.002174 0.003341 0.004308 0.034053 0.012952
# 6 -0.011719 0.002437 0.004418 0.012093 0.012952 0.043988
#
#
# Mechanical properties :
#
#
# Convention : Reuss Voigt Hill
#
# Bulk Modulus (GPa) = 58.93816 77.35220 68.14518
# Shear Modulus (GPa) = 24.87864 31.69444 28.28654
#
# Velocity S-wave (km/s) = 3.35559 3.78745 3.57804
# Velocity P-wave (km/s) = 6.45666 7.35769 6.92185
#
# Compressibility (1/GPa) = 0.01696694
#
# Stress axis : x y z
#
# Youngs Moduli (GPa) = 37.38460 88.28227 78.62672
#
# Poissons Ratio (x) = 0.73983 0.39499
# Poissons Ratio (y) = 0.31329 0.27597
# Poissons Ratio (z) = 0.18781 0.30986
#
# Static dielectric constant tensor:
#      x y z
#    x 1.852200 0.026860 0.034510 
#    y 0.026860 1.818100 0.051690 
#    z 0.034510 0.051690 2.014430 
# 
# From -- ./inp_files/409970.got.cif
#   From: 2010.05.17/outbox.cif.g08.bks.cpg/sg2_205_cif.got.tgz:409970.got - 2010.06.03 11:33:40.
