data_PCOD9033540
_publ_section_title
;
Structure prediction by ZEFSAII (Michael W. Deem and Ramdas Pophale) SiO2 
 PCOD9033540
Probable space group: P -1
;
_chemical_formula_sum "Si O2"
_cell_formula_units_Z 16
_cell_length_a 8.671037
_cell_length_b 16.798485
_cell_length_c 6.302641
_cell_angle_alpha 102.154400
_cell_angle_beta 101.340689
_cell_angle_gamma 51.444042
_cell_volume 699.243808
_symmetry_space_group_name_H-M "P -1"
_symmetry_group_IT_number 2
_symmetry_cell_setting 'triclinic'
loop_
_space_group_symop_operation_xyz
x,y,z
-x,-y,-z
loop_
_atom_site_type_symbol
_atom_site_label
_atom_site_fract_x
_atom_site_fract_y
_atom_site_fract_z
Si Si1 0.511325 0.807910 0.758661
Si Si2 0.458248 0.447749 0.639238
Si Si3 0.396842 0.948521 0.187307
Si Si4 0.171691 0.892792 0.384780
Si Si5 0.094598 0.738876 0.259207
Si Si6 0.758038 0.840569 0.547596
Si Si7 0.870445 0.426075 0.058124
Si Si8 0.762580 0.588243 0.759364
O O1 0.332097 0.830005 0.580870
O O2 0.677894 0.790304 0.633953
O O3 0.608912 0.705285 0.866060
O O4 0.437927 0.906477 0.936741
O O5 0.500000 0.500000 0.500000
O O6 0.671100 0.350301 0.713966
O O7 0.333369 0.414386 0.481929
O O8 0.319170 0.529726 0.825199
O O9 0.281498 0.910249 0.245423
O O10 0.604866 0.896011 0.338355
O O11 0.271192 0.069216 0.268259
O O12 0.078147 0.838041 0.248469
O O13 0.000000 0.000000 0.500000
O O14 0.026726 0.689571 0.053913
O O15 0.974393 0.764961 0.460940
O O16 0.798467 0.501929 0.879384
O O17 0.029467 0.432382 0.221192
#
# Coordination Sequence:
#
# PCOD9033540 Si02
#       8
#     2   2   2   2   2   2   2   2
#     4  11  24  41  71  99 132 186 227 274 340 415
#     4  12  26  45  71 101 139 178 227 289 343 400
#     4  10  22  44  68  95 138 179 225 279 340 408
#     4  11  24  45  67  99 141 177 224 287 343 400
#     4  12  24  46  69  99 138 179 226 284 342 401
#     4  10  23  43  66  98 136 174 229 282 337 402
#     4  11  27  46  70 100 136 186 230 280 342 410
#     4  11  25  46  69  99 140 180 234 276 340 405
#
# _framework density 22.881861000000001
#
# number of rings (size 3 to 8) (size 9 to 14) (size 15 to 20)
#    0.000    1.000    3.750    1.875    3.500    2.500 
#    2.250    0.000    0.000    0.000    0.000    0.000 
#    0.000    0.000    0.000    0.000    0.000    0.000 
#
# Total GULP energy -89521.580202 kJ/mol
# GULP energy per Si atom -5595.098763 kJ/mol
# Density = 2.282978 g / cm^3
# Si number density = 22.881861 Si / 1000 Ang^3
#
#
#
# Elastic Constant Matrix: (Units=GPa)
#
#
# Indices 1 2 3 4 5 6 
#
# 1 109.5798 26.2381 38.9878 15.7589 -0.6107 4.6460
# 2 26.2381 84.8585 13.2392 25.8566 -5.1645 6.4221
# 3 38.9878 13.2392 61.2119 30.2131 0.0260 -4.1649
# 4 15.7589 25.8566 30.2131 37.2525 -6.0101 6.3946
# 5 -0.6107 -5.1645 0.0260 -6.0101 38.6068 10.3106
# 6 4.6460 6.4221 -4.1649 6.3946 10.3106 37.6899
#
#
#
# Elastic Compliance Matrix: (Units=1/GPa)
#
#
# Indices 1 2 3 4 5 6 
#
# 1 0.013387 -0.004270 -0.011762 0.007859 0.001965 -0.004093
# 2 -0.004270 0.016680 0.006980 -0.015759 -0.000643 0.001305
# 3 -0.011762 0.006980 0.041750 -0.037481 -0.008755 0.013628
# 4 0.007859 -0.015759 -0.037481 0.070192 0.013805 -0.018111
# 5 0.001965 -0.000643 -0.008755 0.013805 0.031201 -0.011978
# 6 -0.004093 0.001305 0.013628 -0.018111 -0.011978 0.034670
#
#
# Mechanical properties :
#
#
# Convention : Reuss Voigt Hill
#
# Bulk Modulus (GPa) = 18.61759 45.84226 32.22993
# Shear Modulus (GPa) = 20.50124 34.52217 27.51171
#
# Velocity S-wave (km/s) = 2.99651 3.88843 3.47123
# Velocity P-wave (km/s) = 4.48622 6.34332 5.49381
#
# Compressibility (1/GPa) = 0.05371263
#
# Stress axis : x y z
#
# Youngs Moduli (GPa) = 74.69883 59.95344 23.95236
#
# Poissons Ratio (x) = 0.25598 0.28172
# Poissons Ratio (y) = 0.31893 -0.16718
# Poissons Ratio (z) = 0.87859 -0.41845
#
# Static dielectric constant tensor:
#      x y z
#    x 1.854710 0.030320 0.054320 
#    y 0.030320 1.904820 0.023660 
#    z 0.054320 0.023660 1.853880 
# 
# From -- ./inp_files/48265.got.cif
#   From: 2010.05.17/outbox.cif.g08.bks.cpg/sg2_25_cif.got.tgz:48265.got - 2010.06.03 11:33:40.
