data_PCOD9033928
_publ_section_title
;
Structure prediction by ZEFSAII (Michael W. Deem and Ramdas Pophale) SiO2 
 PCOD9033928
Probable space group: P -1
;
_chemical_formula_sum "Si O2"
_cell_formula_units_Z 15
_cell_length_a 12.808470
_cell_length_b 13.231837
_cell_length_c 4.966774
_cell_angle_alpha 84.317767
_cell_angle_beta 119.814974
_cell_angle_gamma 125.418548
_cell_volume 573.499610
_symmetry_space_group_name_H-M "P -1"
_symmetry_group_IT_number 2
_symmetry_cell_setting 'triclinic'
loop_
_space_group_symop_operation_xyz
x,y,z
-x,-y,-z
loop_
_atom_site_type_symbol
_atom_site_label
_atom_site_fract_x
_atom_site_fract_y
_atom_site_fract_z
Si Si1 0.019404 0.607390 0.188966
Si Si2 0.259956 0.872810 0.243258
Si Si3 0.605863 0.852085 0.881511
Si Si4 0.780603 0.609743 0.197008
Si Si5 0.644946 0.700903 0.614890
Si Si6 0.872351 0.859838 0.480583
Si Si7 0.500000 0.500000 0.000000
Si Si8 0.322041 0.791155 0.833682
O O1 0.088103 0.740416 0.078163
O O2 0.156178 0.659531 0.569010
O O3 0.870133 0.574522 0.150986
O O4 0.000000 0.500000 0.000000
O O5 0.320392 0.892958 0.619180
O O6 0.301944 0.002439 0.146459
O O7 0.333681 0.828179 0.147783
O O8 0.564961 0.758815 0.604471
O O9 0.462544 0.804521 0.890332
O O10 0.726086 0.846177 0.194753
O O11 0.650850 0.616543 0.878502
O O12 0.888616 0.754562 0.410479
O O13 0.658305 0.505403 0.276392
O O14 0.823186 0.817190 0.739833
O O15 0.566811 0.616089 0.278116
O O16 0.000000 0.000000 0.500000
#
# Coordination Sequence:
#
# PCOD9033928 Si02
#       8
#     2   2   2   2   2   2   1   2
#     4  10  26  45  69 104 139 193 239 299 360 428
#     4  10  25  43  72 102 145 186 240 296 359 424
#     4  11  24  41  70 101 143 183 239 292 358 434
#     4  10  23  45  66 101 139 180 237 295 359 425
#     4  10  24  42  66 104 133 187 233 294 363 423
#     4  10  25  38  69 102 138 183 227 294 360 431
#     4  10  22  44  70  94 138 186 234 294 346 426
#     4  10  25  45  69 104 141 192 236 295 359 421
#
# _framework density 26.155203
#
# number of rings (size 3 to 8) (size 9 to 14) (size 15 to 20)
#    0.800    1.067    0.000    1.200   11.200    2.667 
#    4.800    0.000    0.000    0.000    0.000    0.000 
#    0.000    0.000    0.000    0.000    0.000    0.000 
#
# Total GULP energy -83642.954567 kJ/mol
# GULP energy per Si atom -5576.196971 kJ/mol
# Density = 2.609567 g / cm^3
# Si number density = 26.155203 Si / 1000 Ang^3
#
#
#
# Elastic Constant Matrix: (Units=GPa)
#
#
# Indices 1 2 3 4 5 6 
#
# 1 201.1917 68.5127 17.1409 19.6866 -9.4919 -1.5673
# 2 68.5127 130.5425 27.8392 13.0407 0.6940 9.4484
# 3 17.1409 27.8392 61.0460 -1.8332 -7.8534 -5.2148
# 4 19.6866 13.0407 -1.8332 32.6615 0.2782 2.5691
# 5 -9.4919 0.6940 -7.8534 0.2782 38.9403 0.3748
# 6 -1.5673 9.4484 -5.2148 2.5691 0.3748 39.8431
#
#
#
# Elastic Compliance Matrix: (Units=1/GPa)
#
#
# Indices 1 2 3 4 5 6 
#
# 1 0.006405 -0.003152 -0.000140 -0.002714 0.001598 0.001141
# 2 -0.003152 0.010770 -0.004601 -0.002398 -0.001841 -0.003108
# 3 -0.000140 -0.004601 0.019394 0.002708 0.003907 0.003413
# 4 -0.002714 -0.002398 0.002708 0.033470 -0.000299 -0.001339
# 5 0.001598 -0.001841 0.003907 -0.000299 0.026885 0.000777
# 6 0.001141 -0.003108 0.003413 -0.001339 0.000777 0.026406
#
#
# Mechanical properties :
#
#
# Convention : Reuss Voigt Hill
#
# Bulk Modulus (GPa) = 48.11285 68.86286 58.48785
# Shear Modulus (GPa) = 34.23621 40.90814 37.57217
#
# Velocity S-wave (km/s) = 3.62189 3.95910 3.79424
# Velocity P-wave (km/s) = 5.99381 6.87641 6.45023
#
# Compressibility (1/GPa) = 0.02078447
#
# Stress axis : x y z
#
# Youngs Moduli (GPa) = 156.11744 92.84935 51.56248
#
# Poissons Ratio (x) = 0.29266 0.00720
# Poissons Ratio (y) = 0.49208 0.23724
# Poissons Ratio (z) = 0.02179 0.42719
#
# Static dielectric constant tensor:
#      x y z
#    x 2.461050 0.602170 -0.064420 
#    y 0.602170 2.806940 -0.119280 
#    z -0.064420 -0.119280 2.194210 
# 
# From -- ./inp_files/74867.got.cif
#   From: 2010.05.17/outbox.cif.g08.bks.cpg/sg2_38_cif.got.tgz:74867.got - 2010.06.03 11:33:40.
