data_PCOD9033424
_publ_section_title
;
Structure prediction by ZEFSAII (Michael W. Deem and Ramdas Pophale) SiO2 
 PCOD9033424
Probable space group: P -1
;
_chemical_formula_sum "Si O2"
_cell_formula_units_Z 15
_cell_length_a 9.251030
_cell_length_b 11.435764
_cell_length_c 9.200639
_cell_angle_alpha 60.437971
_cell_angle_beta 109.272111
_cell_angle_gamma 68.192381
_cell_volume 606.819808
_symmetry_space_group_name_H-M "P -1"
_symmetry_group_IT_number 2
_symmetry_cell_setting 'triclinic'
loop_
_space_group_symop_operation_xyz
x,y,z
-x,-y,-z
loop_
_atom_site_type_symbol
_atom_site_label
_atom_site_fract_x
_atom_site_fract_y
_atom_site_fract_z
Si Si1 0.812206 0.283107 0.523727
Si Si2 0.847025 0.487700 0.177169
Si Si3 0.141836 0.483512 0.430742
Si Si4 0.416484 0.885103 0.256384
Si Si5 0.500000 0.000000 0.500000
Si Si6 0.825370 0.092815 0.077342
Si Si7 0.500532 0.875952 0.884196
Si Si8 0.390047 0.524974 0.102688
O O1 0.885698 0.329982 0.378578
O O2 0.846601 0.365608 0.620064
O O3 0.575353 0.390448 0.354435
O O4 0.947174 0.074875 0.709340
O O5 0.027159 0.491072 0.246505
O O6 0.657723 0.666169 0.083448
O O7 0.767362 0.498822 0.984293
O O8 0.367346 0.297973 0.608242
O O9 0.000000 0.500000 0.500000
O O10 0.427689 0.922150 0.405154
O O11 0.397184 0.044855 0.080356
O O12 0.247868 0.889786 0.122505
O O13 0.539667 0.075876 0.328161
O O14 0.700735 0.051722 0.149950
O O15 0.743715 0.279686 0.995392
O O16 0.500000 0.500000 0.000000
#
# Coordination Sequence:
#
# PCOD9033424 Si02
#       8
#     2   2   2   2   1   2   2   2
#     4  10  20  32  54  92 117 149 191 242 295 350
#     4  10  19  33  53  80 131 142 189 236 298 344
#     4  10  17  32  55  87 115 146 191 247 289 342
#     4  10  20  37  57  88 118 154 191 249 292 349
#     4   8  24  34  54  84 120 156 196 234 308 340
#     4  12  19  34  64  83 118 155 195 239 298 340
#     4  10  18  36  54  84 114 155 185 248 287 345
#     4  10  20  36  49  91 127 151 184 245 293 356
#
# _framework density 24.719037
#
# number of rings (size 3 to 8) (size 9 to 14) (size 15 to 20)
#    0.800    1.067    4.000    3.600    0.000    2.133 
#    2.400    0.667    0.000    0.800    0.000    1.867 
#    0.000    0.000    0.000    0.000    0.000    0.000 
#
# Total GULP energy -83535.766057 kJ/mol
# GULP energy per Si atom -5569.051070 kJ/mol
# Density = 2.466277 g / cm^3
# Si number density = 24.719037 Si / 1000 Ang^3
#
#
#
# Elastic Constant Matrix: (Units=GPa)
#
#
# Indices 1 2 3 4 5 6 
#
# 1 56.7902 25.9331 38.0447 11.7783 -4.6929 -5.8898
# 2 25.9331 158.7501 87.0616 14.7978 15.8208 24.4179
# 3 38.0447 87.0616 143.8523 1.4350 39.7844 -2.7817
# 4 11.7783 14.7978 1.4350 54.8830 -1.2030 5.1226
# 5 -4.6929 15.8208 39.7844 -1.2030 22.2113 27.5679
# 6 -5.8898 24.4179 -2.7817 5.1226 27.5679 34.3467
#
#
#
# Elastic Compliance Matrix: (Units=1/GPa)
#
#
# Indices 1 2 3 4 5 6 
#
# 1 0.021811 -0.003836 -0.000985 -0.005041 -0.007783 0.013387
# 2 -0.003836 0.007401 0.000445 -0.001988 -0.013686 0.005398
# 3 -0.000985 0.000445 0.000293 0.002351 0.022634 -0.018979
# 4 -0.005041 -0.001988 0.002351 0.019967 -0.000198 -0.002080
# 5 -0.007783 -0.013686 0.022634 -0.000198 -0.041399 0.043486
# 6 0.013387 0.005398 -0.018979 -0.002080 0.043486 -0.008557
#
#
# Mechanical properties :
#
#
# Convention : Reuss Voigt Hill
#
# Bulk Modulus (GPa) = 48.18915 73.49681 60.84298
# Shear Modulus (GPa) = 329.25846 36.17841 182.71844
#
# Velocity S-wave (km/s) = 11.55377 3.82983 8.60689
# Velocity P-wave (km/s) = 14.05429 7.02526 11.11030
#
# Compressibility (1/GPa) = 0.02075156
#
# Stress axis : x y z
#
# Youngs Moduli (GPa) = 45.84854 135.11670 3414.90048
#
# Poissons Ratio (x) = 0.51836 3.36308
# Poissons Ratio (y) = 0.17589 -1.51836
# Poissons Ratio (z) = 0.04515 -0.06008
#
# Static dielectric constant tensor:
#      x y z
#    x 1.979600 0.036600 0.004140 
#    y 0.036600 1.987200 0.048630 
#    z 0.004140 0.048630 2.020470 
# 
# From -- ./inp_files/448976.got.cif
#   From: 2010.05.17/outbox.cif.g08.bks.cpg/sg2_225_cif.got.tgz:448976.got - 2010.06.03 11:33:40.
