data_PCOD9033933
_publ_section_title
;
Structure prediction by ZEFSAII (Michael W. Deem and Ramdas Pophale) SiO2 
 PCOD9033933
Probable space group: P -1
;
_chemical_formula_sum "Si O2"
_cell_formula_units_Z 16
_cell_length_a 11.728268
_cell_length_b 14.208001
_cell_length_c 9.354870
_cell_angle_alpha 109.422391
_cell_angle_beta 101.868354
_cell_angle_gamma 30.529962
_cell_volume 736.126401
_symmetry_space_group_name_H-M "P -1"
_symmetry_group_IT_number 2
_symmetry_cell_setting 'triclinic'
loop_
_space_group_symop_operation_xyz
x,y,z
-x,-y,-z
loop_
_atom_site_type_symbol
_atom_site_label
_atom_site_fract_x
_atom_site_fract_y
_atom_site_fract_z
Si Si1 0.927558 0.642204 0.156504
Si Si2 0.749919 0.132607 0.030969
Si Si3 0.438126 0.040848 0.337561
Si Si4 0.349216 0.682657 0.152660
Si Si5 0.610557 0.410881 0.330762
Si Si6 0.186627 0.418722 0.409289
Si Si7 0.942193 0.313575 0.300704
Si Si8 0.015188 0.208765 0.950106
O O1 0.959808 0.723369 0.123784
O O2 0.075567 0.525928 0.281781
O O3 0.659710 0.831429 0.216573
O O4 0.000000 0.500000 0.000000
O O5 0.615704 0.301149 0.194377
O O6 0.769355 0.008070 0.035726
O O7 0.652596 0.215058 0.887555
O O8 0.000000 0.000000 0.000000
O O9 0.389094 0.189171 0.339871
O O10 0.202790 0.153960 0.312641
O O11 0.500000 0.000000 0.500000
O O12 0.465061 0.594137 0.289086
O O13 0.118739 0.786829 0.150463
O O14 0.500000 0.500000 0.000000
O O15 0.500000 0.500000 0.500000
O O16 0.869840 0.259089 0.314113
O O17 0.000000 0.500000 0.500000
O O18 0.215206 0.496467 0.550429
O O19 0.904312 0.336945 0.131300
#
# Coordination Sequence:
#
# PCOD9033933 Si02
#       8
#     2   2   2   2   2   2   2   2
#     4  12  26  46  72 107 137 177 238 296 343 413
#     4   9  18  43  64  91 138 180 221 284 336 419
#     4  11  24  47  69  96 141 184 224 284 358 415
#     4   9  18  41  65  91 132 178 222 269 347 408
#     4  11  23  39  67 104 138 176 232 291 340 412
#     4  10  22  44  70  94 142 175 228 289 340 418
#     4  11  22  43  68  98 137 189 229 276 357 414
#     4  11  23  41  69  97 133 179 232 282 350 402
#
# _framework density 21.735398
#
# number of rings (size 3 to 8) (size 9 to 14) (size 15 to 20)
#    0.000    1.500    6.250    1.500    1.750    3.000 
#    9.000    3.750    0.000    0.000    0.000    0.000 
#    0.000    0.000    0.000    0.000    0.000    0.000 
#
# Total GULP energy -89188.684121 kJ/mol
# GULP energy per Si atom -5574.292758 kJ/mol
# Density = 2.168593 g / cm^3
# Si number density = 21.735398 Si / 1000 Ang^3
#
#
#
# Elastic Constant Matrix: (Units=GPa)
#
#
# Indices 1 2 3 4 5 6 
#
# 1 94.2371 44.7915 49.1488 -18.0849 -6.2087 20.4477
# 2 44.7915 124.2345 66.0554 -9.7429 -6.3449 26.2816
# 3 49.1488 66.0554 155.2499 -13.3035 -10.2533 13.7567
# 4 -18.0849 -9.7429 -13.3035 43.6958 7.7409 -6.4037
# 5 -6.2087 -6.3449 -10.2533 7.7409 38.6880 -7.0023
# 6 20.4477 26.2816 13.7567 -6.4037 -7.0023 44.4416
#
#
#
# Elastic Compliance Matrix: (Units=1/GPa)
#
#
# Indices 1 2 3 4 5 6 
#
# 1 0.015065 -0.002753 -0.002918 0.004231 -0.000350 -0.003846
# 2 -0.002753 0.012080 -0.003890 -0.000275 -0.000298 -0.004760
# 3 -0.002918 -0.003890 0.009062 0.000607 0.001381 0.001143
# 4 0.004231 -0.000275 0.000607 0.025651 -0.004144 0.001071
# 5 -0.000350 -0.000298 0.001381 -0.004144 0.027601 0.003661
# 6 -0.003846 -0.004760 0.001143 0.001071 0.003661 0.027463
#
#
# Mechanical properties :
#
#
# Convention : Reuss Voigt Hill
#
# Bulk Modulus (GPa) = 58.52553 77.07920 67.80236
# Shear Modulus (GPa) = 35.27624 39.61349 37.44486
#
# Velocity S-wave (km/s) = 4.03300 4.27375 4.15512
# Velocity P-wave (km/s) = 6.97650 7.73904 7.36764
#
# Compressibility (1/GPa) = 0.01708656
#
# Stress axis : x y z
#
# Youngs Moduli (GPa) = 66.37851 82.78061 110.35155
#
# Poissons Ratio (x) = 0.22786 0.32199
# Poissons Ratio (y) = 0.18271 0.42925
# Poissons Ratio (z) = 0.19368 0.32201
#
# Static dielectric constant tensor:
#      x y z
#    x 1.883430 -0.045850 0.024830 
#    y -0.045850 1.918040 -0.008660 
#    z 0.024830 -0.008660 1.784480 
# 
# From -- ./inp_files/273770.got.cif
#   From: 2010.05.17/outbox.cif.g08.bks.cpg/sg2_137_cif.got.tgz:273770.got - 2010.06.03 11:33:40.
