data_PCOD9033361
_publ_section_title
;
Structure prediction by ZEFSAII (Michael W. Deem and Ramdas Pophale) SiO2 
 PCOD9033361
Probable space group: P -1
;
_chemical_formula_sum "Si O2"
_cell_formula_units_Z 12
_cell_length_a 14.321741
_cell_length_b 6.674376
_cell_length_c 7.822188
_cell_angle_alpha 125.156245
_cell_angle_beta 73.592215
_cell_angle_gamma 90.407012
_cell_volume 574.774186
_symmetry_space_group_name_H-M "P -1"
_symmetry_group_IT_number 2
_symmetry_cell_setting 'triclinic'
loop_
_space_group_symop_operation_xyz
x,y,z
-x,-y,-z
loop_
_atom_site_type_symbol
_atom_site_label
_atom_site_fract_x
_atom_site_fract_y
_atom_site_fract_z
Si Si1 0.253850 0.376900 0.831293
Si Si2 0.387599 0.602707 0.665081
Si Si3 0.389930 0.617560 0.055667
Si Si4 0.946773 0.272303 0.369434
Si Si5 0.943033 0.276697 0.963234
Si Si6 0.742780 0.161165 0.466562
O O1 0.324846 0.388915 0.637226
O O2 0.328000 0.394753 0.956980
O O3 0.168221 0.622576 0.996499
O O4 0.210398 0.130019 0.727122
O O5 0.500000 0.500000 0.500000
O O6 0.389523 0.722300 0.913163
O O7 0.325482 0.758770 0.624549
O O8 0.500000 0.500000 0.000000
O O9 0.329991 0.798760 0.314663
O O10 0.938705 0.262681 0.163677
O O11 0.833916 0.302953 0.508762
O O12 0.000000 0.500000 0.500000
O O13 0.008692 0.000743 0.262455
O O14 0.000000 0.500000 0.000000
#
# Coordination Sequence:
#
# PCOD9033361 Si02
#       6
#     2   2   2   2   2   2
#     4  10  24  43  67  98 135 181 222 278 342 415
#     4  10  22  44  67  96 138 173 222 283 339 402
#     4  10  23  41  67 100 129 176 228 273 341 406
#     4  11  26  40  70 101 131 180 234 279 338 409
#     4  11  23  45  66  97 140 177 223 287 345 399
#     4  12  22  46  67  96 140 178 225 280 345 407
#
# _framework density 20.877763999999999
#
# number of rings (size 3 to 8) (size 9 to 14) (size 15 to 20)
#    1.000    0.333    5.000    0.000    2.333    4.667 
#    3.000    1.667    0.000    0.000    0.000    0.000 
#    0.000    0.000    0.000    0.000    0.000    0.000 
#
# Total GULP energy -66880.544704 kJ/mol
# GULP energy per Si atom -5573.378725 kJ/mol
# Density = 2.083025 g / cm^3
# Si number density = 20.877764 Si / 1000 Ang^3
#
#
#
# Elastic Constant Matrix: (Units=GPa)
#
#
# Indices 1 2 3 4 5 6 
#
# 1 158.3665 47.2627 52.0755 12.5454 -21.9901 -10.0471
# 2 47.2627 81.5317 44.6928 7.1598 -7.4987 -5.8121
# 3 52.0755 44.6928 97.4347 -3.6072 -8.6522 -19.8069
# 4 12.5454 7.1598 -3.6072 37.3228 -0.3658 6.6026
# 5 -21.9901 -7.4987 -8.6522 -0.3658 36.2342 -2.8854
# 6 -10.0471 -5.8121 -19.8069 6.6026 -2.8854 23.4317
#
#
#
# Elastic Compliance Matrix: (Units=1/GPa)
#
#
# Indices 1 2 3 4 5 6 
#
# 1 0.009103 -0.002900 -0.002805 -0.003127 0.004401 0.002235
# 2 -0.002900 0.018017 -0.007241 -0.002809 0.000044 -0.002098
# 3 -0.002805 -0.007241 0.017700 0.002003 0.001973 0.011641
# 4 -0.003127 -0.002809 0.002003 0.030171 -0.002425 -0.009145
# 5 0.004401 0.000044 0.001973 -0.002425 0.031371 0.008112
# 6 0.002235 -0.002098 0.011641 -0.009145 0.008112 0.056532
#
#
# Mechanical properties :
#
#
# Convention : Reuss Voigt Hill
#
# Bulk Modulus (GPa) = 52.83557 69.48831 61.16194
# Shear Modulus (GPa) = 25.62856 32.28454 28.95655
#
# Velocity S-wave (km/s) = 3.50745 3.93664 3.72823
# Velocity P-wave (km/s) = 6.46258 7.34973 6.92039
#
# Compressibility (1/GPa) = 0.01892664
#
# Stress axis : x y z
#
# Youngs Moduli (GPa) = 109.85140 55.50387 56.49791
#
# Poissons Ratio (x) = 0.16098 0.15850
# Poissons Ratio (y) = 0.31862 0.40908
# Poissons Ratio (z) = 0.30819 0.40188
#
# Static dielectric constant tensor:
#      x y z
#    x 1.764330 0.019590 0.007930 
#    y 0.019590 1.767360 -0.004560 
#    z 0.007930 -0.004560 1.764260 
# 
# From -- ./inp_files/14005.got.cif
#   From: 2010.05.17/outbox.cif.g08.bks.cpg/sg2_8_cif.got.tgz:14005.got - 2010.06.03 11:33:40.
