data_PCOD9033270
_publ_section_title
;
Structure prediction by ZEFSAII (Michael W. Deem and Ramdas Pophale) SiO2 
 PCOD9033270
Probable space group: P -1
;
_chemical_formula_sum "Si O2"
_cell_formula_units_Z 16
_cell_length_a 12.997566
_cell_length_b 5.375147
_cell_length_c 11.817267
_cell_angle_alpha 64.795034
_cell_angle_beta 70.264352
_cell_angle_gamma 62.018564
_cell_volume 649.775301
_symmetry_space_group_name_H-M "P -1"
_symmetry_group_IT_number 2
_symmetry_cell_setting 'triclinic'
loop_
_space_group_symop_operation_xyz
x,y,z
-x,-y,-z
loop_
_atom_site_type_symbol
_atom_site_label
_atom_site_fract_x
_atom_site_fract_y
_atom_site_fract_z
Si Si1 0.349728 0.102735 0.422410
Si Si2 0.565447 0.724978 0.285140
Si Si3 0.302939 0.924923 0.942074
Si Si4 0.757769 0.577576 0.396216
Si Si5 0.853920 0.409206 0.038079
Si Si6 0.396091 0.649370 0.193148
Si Si7 0.820417 0.023433 0.635700
Si Si8 0.022477 0.580071 0.789731
O O1 0.336765 0.153287 0.550840
O O2 0.381661 0.356530 0.300391
O O3 0.453934 0.809904 0.394393
O O4 0.222038 0.139160 0.415478
O O5 0.680501 0.488126 0.348726
O O6 0.516249 0.655028 0.199398
O O7 0.610997 0.988646 0.189191
O O8 0.225083 0.767159 0.940386
O O9 0.376585 0.711779 0.056477
O O10 0.222645 0.245060 0.966424
O O11 0.812547 0.323194 0.518745
O O12 0.862825 0.624932 0.282883
O O13 0.943415 0.415028 0.904355
O O14 0.930671 0.288746 0.146266
O O15 0.283886 0.904230 0.246656
O O16 0.941305 0.835545 0.687226
#
# Coordination Sequence:
#
# PCOD9033270 Si02
#       8
#     2   2   2   2   2   2   2   2
#     4  10  24  42  68 101 138 193 233 302 347 431
#     4  11  25  43  69 103 144 188 238 295 357 428
#     4  12  25  49  75 108 148 186 243 294 368 431
#     4  11  24  44  66 104 137 193 240 292 357 426
#     4  11  27  47  76 109 146 188 237 303 360 435
#     4  10  23  43  71 100 144 183 236 293 363 426
#     4  10  22  44  67 101 142 184 237 297 355 423
#     4  11  23  47  72 103 144 186 238 299 363 425
#
# _framework density 24.623896999999999
#
# number of rings (size 3 to 8) (size 9 to 14) (size 15 to 20)
#    0.000    1.250    2.500    1.875    3.500    9.500 
#    6.750    0.000    0.000    0.000    0.000    0.000 
#    0.000    0.000    0.000    0.000    0.000    0.000 
#
# Total GULP energy -89548.587218 kJ/mol
# GULP energy per Si atom -5596.786701 kJ/mol
# Density = 2.456785 g / cm^3
# Si number density = 24.623897 Si / 1000 Ang^3
#
#
#
# Elastic Constant Matrix: (Units=GPa)
#
#
# Indices 1 2 3 4 5 6 
#
# 1 113.8154 67.0774 63.5129 6.4217 4.7334 1.5755
# 2 67.0774 61.6289 26.1337 -4.1811 -0.3881 15.2312
# 3 63.5129 26.1337 149.4368 -0.4653 0.3371 -2.9984
# 4 6.4217 -4.1811 -0.4653 12.1670 -9.1954 -4.8214
# 5 4.7334 -0.3881 0.3371 -9.1954 52.8552 -3.4589
# 6 1.5755 15.2312 -2.9984 -4.8214 -3.4589 46.2420
#
#
#
# Elastic Compliance Matrix: (Units=1/GPa)
#
#
# Indices 1 2 3 4 5 6 
#
# 1 0.058470 -0.064897 -0.013436 -0.061060 -0.015531 0.010984
# 2 -0.064897 0.091587 0.011382 0.072342 0.017797 -0.018344
# 3 -0.013436 0.011382 0.010428 0.013718 0.003547 -0.000920
# 4 -0.061060 0.072342 0.013718 0.165596 0.034656 -0.001000
# 5 -0.015531 0.017797 0.003547 0.034656 0.026480 0.000491
# 6 0.010984 -0.018344 -0.000920 -0.001000 0.000491 0.027166
#
#
# Mechanical properties :
#
#
# Convention : Reuss Voigt Hill
#
# Bulk Modulus (GPa) = 37.61640 70.92546 54.27093
# Shear Modulus (GPa) = 9.56955 33.46332 21.51643
#
# Velocity S-wave (km/s) = 1.97350 3.69043 2.95922
# Velocity P-wave (km/s) = 4.52797 6.85748 5.81066
#
# Compressibility (1/GPa) = 0.02658415
#
# Stress axis : x y z
#
# Youngs Moduli (GPa) = 17.10275 10.91852 95.89514
#
# Poissons Ratio (x) = 0.70858 1.28846
# Poissons Ratio (y) = 1.10992 -1.09150
# Poissons Ratio (z) = 0.22979 -0.12428
#
# Static dielectric constant tensor:
#      x y z
#    x 1.915520 -0.018030 0.023670 
#    y -0.018030 2.046980 0.016280 
#    z 0.023670 0.016280 1.927970 
# 
# From -- ./inp_files/410052.got.cif
#   From: 2010.05.17/outbox.cif.g08.bks.cpg/sg2_206_cif.got.tgz:410052.got - 2010.06.03 11:33:40.
