data_PCOD9033614
_publ_section_title
;
Structure prediction by ZEFSAII (Michael W. Deem and Ramdas Pophale) SiO2 
 PCOD9033614
Probable space group: P -1
;
_chemical_formula_sum "Si O2"
_cell_formula_units_Z 14
_cell_length_a 30.151623
_cell_length_b 6.764899
_cell_length_c 11.443900
_cell_angle_alpha 144.651968
_cell_angle_beta 24.039914
_cell_angle_gamma 143.847966
_cell_volume 530.410814
_symmetry_space_group_name_H-M "P -1"
_symmetry_group_IT_number 2
_symmetry_cell_setting 'triclinic'
loop_
_space_group_symop_operation_xyz
x,y,z
-x,-y,-z
loop_
_atom_site_type_symbol
_atom_site_label
_atom_site_fract_x
_atom_site_fract_y
_atom_site_fract_z
Si Si1 0.522707 0.497747 0.107334
Si Si2 0.661996 0.297929 0.464169
Si Si3 0.940937 0.519211 0.299226
Si Si4 0.148886 0.356137 0.653469
Si Si5 0.602727 0.510171 0.170174
Si Si6 0.921416 0.669202 0.687840
Si Si7 0.707362 0.197712 0.962286
O O1 0.392521 0.481555 0.390043
O O2 0.554710 0.375852 0.096073
O O3 0.575768 0.307796 0.785457
O O4 0.588637 0.923398 0.152269
O O5 0.781539 0.438553 0.305900
O O6 0.663956 0.927780 0.223600
O O7 0.846083 0.462071 0.398998
O O8 0.916271 0.523741 0.496667
O O9 0.020148 0.914639 0.268730
O O10 0.019530 0.261601 0.958538
O O11 0.207847 0.045637 0.344926
O O12 0.500000 0.500000 0.500000
O O13 0.677972 0.294930 0.949418
O O14 0.788877 0.561540 0.994068
O O15 0.000000 0.500000 0.500000
#
# Coordination Sequence:
#
# PCOD9033614 Si02
#       7
#     2   2   2   2   2   2   2
#     4  10  24  46  67  97 144 171 227 287 325 411
#     4  10  22  44  68  99 136 183 217 278 346 395
#     4  10  23  44  68  95 140 172 219 292 327 395
#     4  10  22  45  66  96 136 179 220 275 345 393
#     4  12  25  44  70 102 134 182 228 276 339 401
#     4  11  23  42  68 102 127 176 230 273 339 400
#     4  11  24  41  68  99 132 180 225 272 340 401
#
# _framework density 26.394635000000001
#
# number of rings (size 3 to 8) (size 9 to 14) (size 15 to 20)
#    0.000    1.429    2.857    1.286    4.000    2.286 
#    0.000    0.000    0.000    0.000    0.000    0.000 
#    0.000    0.000    0.000    0.000    0.000    0.000 
#
# Total GULP energy -78242.440928 kJ/mol
# GULP energy per Si atom -5588.745781 kJ/mol
# Density = 2.633456 g / cm^3
# Si number density = 26.394635 Si / 1000 Ang^3
#
#
#
# Elastic Constant Matrix: (Units=GPa)
#
#
# Indices 1 2 3 4 5 6 
#
# 1 204.3306 20.8817 64.5975 -2.2826 -38.2180 -10.5060
# 2 20.8817 58.0510 10.7510 -6.6567 -13.9286 4.4532
# 3 64.5975 10.7510 95.9359 6.1836 -23.7939 -22.6771
# 4 -2.2826 -6.6567 6.1836 25.4615 -6.0492 -10.1955
# 5 -38.2180 -13.9286 -23.7939 -6.0492 60.1699 7.1803
# 6 -10.5060 4.4532 -22.6771 -10.1955 7.1803 40.6925
#
#
#
# Elastic Compliance Matrix: (Units=1/GPa)
#
#
# Indices 1 2 3 4 5 6 
#
# 1 0.006753 -0.000780 -0.003992 0.001861 0.002767 -0.000418
# 2 -0.000780 0.019652 -0.001586 0.005416 0.004285 -0.002635
# 3 -0.003992 -0.001586 0.015627 -0.001154 0.002307 0.007155
# 4 0.001861 0.005416 -0.001154 0.046403 0.005462 0.009907
# 5 0.002767 0.004285 0.002307 0.005462 0.020925 -0.000793
# 6 -0.000418 -0.002635 0.007155 0.009907 -0.000793 0.031365
#
#
# Mechanical properties :
#
#
# Convention : Reuss Voigt Hill
#
# Bulk Modulus (GPa) = 34.11164 61.19753 47.65458
# Shear Modulus (GPa) = 30.63493 42.73727 36.68610
#
# Velocity S-wave (km/s) = 3.41053 4.02825 3.73219
# Velocity P-wave (km/s) = 5.33486 6.69863 6.05526
#
# Compressibility (1/GPa) = 0.02931551
#
# Stress axis : x y z
#
# Youngs Moduli (GPa) = 148.09203 50.88520 63.99110
#
# Poissons Ratio (x) = 0.03971 0.25544
# Poissons Ratio (y) = 0.11558 0.10149
# Poissons Ratio (z) = 0.59115 0.08070
#
# Static dielectric constant tensor:
#      x y z
#    x 2.064190 0.043410 0.017850 
#    y 0.043410 2.261060 -0.065230 
#    z 0.017850 -0.065230 2.084770 
# 
# From -- ./inp_files/287032.got.cif
#   From: 2010.05.17/outbox.cif.g08.bks.cpg/sg2_144_cif.got.tgz:287032.got - 2010.06.03 11:33:40.
