data_PCOD9033087
_publ_section_title
;
Structure prediction by ZEFSAII (Michael W. Deem and Ramdas Pophale) SiO2 
 PCOD9033087
Probable space group: P -1
;
_chemical_formula_sum "Si O2"
_cell_formula_units_Z 14
_cell_length_a 7.661606
_cell_length_b 15.036918
_cell_length_c 13.367181
_cell_angle_alpha 30.581372
_cell_angle_beta 122.279629
_cell_angle_gamma 102.627783
_cell_volume 548.505410
_symmetry_space_group_name_H-M "P -1"
_symmetry_group_IT_number 2
_symmetry_cell_setting 'triclinic'
loop_
_space_group_symop_operation_xyz
x,y,z
-x,-y,-z
loop_
_atom_site_type_symbol
_atom_site_label
_atom_site_fract_x
_atom_site_fract_y
_atom_site_fract_z
Si Si1 0.856851 0.962096 0.606946
Si Si2 0.442914 0.190224 0.435236
Si Si3 0.921453 0.984246 0.881488
Si Si4 0.746035 0.887426 0.252291
Si Si5 0.850138 0.497067 0.554959
Si Si6 0.592011 0.265867 0.955319
Si Si7 0.637855 0.397159 0.038264
O O1 0.740008 0.879422 0.575371
O O2 0.131394 0.784864 0.900329
O O3 0.662502 0.063047 0.541784
O O4 0.844216 0.160001 0.362668
O O5 0.622709 0.125105 0.647871
O O6 0.299608 0.439794 0.137004
O O7 0.049050 0.072061 0.766123
O O8 0.027816 0.738227 0.140471
O O9 0.000000 0.000000 0.000000
O O10 0.844459 0.645009 0.498173
O O11 0.647323 0.033937 0.178922
O O12 0.500000 0.000000 0.000000
O O13 0.000000 0.500000 0.500000
O O14 0.577836 0.595050 0.324745
O O15 0.480764 0.374858 0.923411
O O16 0.500000 0.500000 0.000000
#
# Coordination Sequence:
#
# PCOD9033087 Si02
#       7
#     2   2   2   2   2   2   2
#     4  10  22  44  65  96 139 178 223 290 345 406
#     4  10  23  42  67 101 134 176 235 276 343 429
#     4  12  23  42  73 102 140 185 230 290 345 421
#     4  10  24  44  64 101 143 176 233 291 341 410
#     4  11  25  43  71 104 138 189 237 281 357 419
#     4  11  23  44  67  99 144 173 235 292 345 419
#     4  10  23  42  69  95 132 183 229 279 350 413
#
# _framework density 25.523904000000002
#
# number of rings (size 3 to 8) (size 9 to 14) (size 15 to 20)
#    0.000    1.429    2.857    1.286    2.000    2.857 
#    5.143    2.857    0.000    0.000    0.000    0.000 
#    0.000    0.000    0.000    0.000    0.000    0.000 
#
# Total GULP energy -78245.934382 kJ/mol
# GULP energy per Si atom -5588.995313 kJ/mol
# Density = 2.546581 g / cm^3
# Si number density = 25.523904 Si / 1000 Ang^3
#
#
#
# Elastic Constant Matrix: (Units=GPa)
#
#
# Indices 1 2 3 4 5 6 
#
# 1 84.9721 29.7224 38.5727 2.5639 8.5502 27.3067
# 2 29.7224 172.3751 26.3530 -22.1323 -1.9425 4.8242
# 3 38.5727 26.3530 126.2932 -18.6931 0.6316 28.6323
# 4 2.5639 -22.1323 -18.6931 63.6388 6.2705 8.6226
# 5 8.5502 -1.9425 0.6316 6.2705 32.1147 3.9394
# 6 27.3067 4.8242 28.6323 8.6226 3.9394 50.3118
#
#
#
# Elastic Compliance Matrix: (Units=1/GPa)
#
#
# Indices 1 2 3 4 5 6 
#
# 1 0.016521 -0.002368 -0.003268 -0.001243 -0.003450 -0.006397
# 2 -0.002368 0.006542 -0.000446 0.002116 0.000560 0.000505
# 3 -0.003268 -0.000446 0.010679 0.003733 0.000510 -0.004941
# 4 -0.001243 0.002116 0.003733 0.018483 -0.002658 -0.004612
# 5 -0.003450 0.000560 0.000510 -0.002658 0.032670 -0.000574
# 6 -0.006397 0.000505 -0.004941 -0.004612 -0.000574 0.026947
#
#
# Mechanical properties :
#
#
# Convention : Reuss Voigt Hill
#
# Bulk Modulus (GPa) = 46.34549 63.65960 55.00254
# Shear Modulus (GPa) = 38.11020 48.47922 43.29471
#
# Velocity S-wave (km/s) = 3.86828 4.36290 4.12301
# Velocity P-wave (km/s) = 6.17645 7.09755 6.65296
#
# Compressibility (1/GPa) = 0.02157707
#
# Stress axis : x y z
#
# Youngs Moduli (GPa) = 60.52961 152.86585 93.63882
#
# Poissons Ratio (x) = 0.36205 0.30602
# Poissons Ratio (y) = 0.14336 0.04175
# Poissons Ratio (z) = 0.19782 0.06816
#
# Static dielectric constant tensor:
#      x y z
#    x 2.141170 -0.116130 0.032410 
#    y -0.116130 2.187280 0.051620 
#    z 0.032410 0.051620 2.016250 
# 
# From -- ./inp_files/342407.got.cif
#   From: 2010.05.17/outbox.cif.g08.bks.cpg/sg2_172_cif.got.tgz:342407.got - 2010.06.03 11:33:40.
