data_PCOD9033838
_publ_section_title
;
Structure prediction by ZEFSAII (Michael W. Deem and Ramdas Pophale) SiO2 
 PCOD9033838
Probable space group: P -1
;
_chemical_formula_sum "Si O2"
_cell_formula_units_Z 14
_cell_length_a 7.873235
_cell_length_b 16.753236
_cell_length_c 16.219487
_cell_angle_alpha 157.056297
_cell_angle_beta 46.607088
_cell_angle_gamma 133.121201
_cell_volume 596.164147
_symmetry_space_group_name_H-M "P -1"
_symmetry_group_IT_number 2
_symmetry_cell_setting 'triclinic'
loop_
_space_group_symop_operation_xyz
x,y,z
-x,-y,-z
loop_
_atom_site_type_symbol
_atom_site_label
_atom_site_fract_x
_atom_site_fract_y
_atom_site_fract_z
Si Si1 0.999522 0.877272 0.469279
Si Si2 0.286493 0.759095 0.804946
Si Si3 0.452720 0.456538 0.722941
Si Si4 0.041003 0.664199 0.541761
Si Si5 0.372130 0.180946 0.106694
Si Si6 0.915987 0.955661 0.225410
Si Si7 0.435018 0.636984 0.076591
O O1 0.210757 0.744534 0.271518
O O2 0.755139 0.714740 0.406817
O O3 0.039450 0.032417 0.680908
O O4 0.000000 0.000000 0.500000
O O5 0.507857 0.735006 0.765973
O O6 0.134030 0.551028 0.623167
O O7 0.112923 0.857557 0.017808
O O8 0.373286 0.936247 0.876588
O O9 0.704240 0.381028 0.561412
O O10 0.485658 0.678286 0.876640
O O11 0.395301 0.496161 0.874561
O O12 0.898926 0.782279 0.766521
O O13 0.074724 0.812282 0.591441
O O14 0.662451 0.817848 0.158543
O O15 0.500000 0.500000 0.000000
#
# Coordination Sequence:
#
# PCOD9033838 Si02
#       7
#     2   2   2   2   2   2   2
#     4  12  27  45  69 106 141 179 240 298 344 404
#     4  10  22  44  70 102 139 183 227 278 349 425
#     4  12  25  43  71 103 143 177 228 295 346 402
#     4  11  22  46  68 104 139 185 223 278 354 424
#     4  10  24  40  69 105 138 179 229 283 342 421
#     4  11  24  45  74  97 139 186 230 279 352 418
#     4  12  26  47  73 100 139 190 239 285 347 416
#
# _framework density 23.483466
#
# number of rings (size 3 to 8) (size 9 to 14) (size 15 to 20)
#    0.000    0.857    1.429    5.143    4.000    2.857 
#    2.571    0.000    0.000    0.000    0.000    0.000 
#    0.000    0.000    0.000    0.000    0.000    0.000 
#
# Total GULP energy -78503.227681 kJ/mol
# GULP energy per Si atom -5607.373406 kJ/mol
# Density = 2.343002 g / cm^3
# Si number density = 23.483466 Si / 1000 Ang^3
#
#
#
# Elastic Constant Matrix: (Units=GPa)
#
#
# Indices 1 2 3 4 5 6 
#
# 1 80.5313 16.2922 34.4544 -0.1207 -20.8066 12.2430
# 2 16.2922 75.1498 13.2267 12.6260 -26.0925 5.2950
# 3 34.4544 13.2267 80.4969 -6.0525 -12.9512 4.4415
# 4 -0.1207 12.6260 -6.0525 33.6125 -0.8050 -2.3741
# 5 -20.8066 -26.0925 -12.9512 -0.8050 45.9678 5.9120
# 6 12.2430 5.2950 4.4415 -2.3741 5.9120 61.4462
#
#
#
# Elastic Compliance Matrix: (Units=1/GPa)
#
#
# Indices 1 2 3 4 5 6 
#
# 1 0.017341 0.000094 -0.006264 -0.001204 0.006591 -0.003691
# 2 0.000094 0.018606 -0.001832 -0.007267 0.010316 -0.002763
# 3 -0.006264 -0.001832 0.015745 0.003539 0.000578 0.000349
# 4 -0.001204 -0.007267 0.003539 0.033189 -0.003376 0.002217
# 5 0.006591 0.010316 0.000578 -0.003376 0.031391 -0.005395
# 6 -0.003691 -0.002763 0.000349 0.002217 -0.005395 0.017827
#
#
# Mechanical properties :
#
#
# Convention : Reuss Voigt Hill
#
# Bulk Modulus (GPa) = 28.02058 40.45826 34.23942
# Shear Modulus (GPa) = 30.86446 39.68561 35.27504
#
# Velocity S-wave (km/s) = 3.62927 4.11535 3.87993
# Velocity P-wave (km/s) = 5.43324 6.31247 5.88928
#
# Compressibility (1/GPa) = 0.03568806
#
# Stress axis : x y z
#
# Youngs Moduli (GPa) = 57.66745 53.74604 63.51296
#
# Poissons Ratio (x) = -0.00505 0.39785
# Poissons Ratio (y) = -0.00541 0.11633
# Poissons Ratio (z) = 0.36123 0.09844
#
# Static dielectric constant tensor:
#      x y z
#    x 1.908560 -0.036720 -0.024200 
#    y -0.036720 1.872900 0.001120 
#    z -0.024200 0.001120 1.860790 
# 
# From -- ./inp_files/562117.got.cif
#   From: 2010.05.17/outbox.cif.g08.bks.cpg/sg2_282_cif.got.tgz:562117.got - 2010.06.03 11:33:40.
