data_PCOD9033715
_publ_section_title
;
Structure prediction by ZEFSAII (Michael W. Deem and Ramdas Pophale) SiO2 
 PCOD9033715
Probable space group: P -1
;
_chemical_formula_sum "Si O2"
_cell_formula_units_Z 14
_cell_length_a 8.660458
_cell_length_b 9.398604
_cell_length_c 9.816528
_cell_angle_alpha 56.750282
_cell_angle_beta 124.756867
_cell_angle_gamma 106.805117
_cell_volume 548.673839
_symmetry_space_group_name_H-M "P -1"
_symmetry_group_IT_number 2
_symmetry_cell_setting 'triclinic'
loop_
_space_group_symop_operation_xyz
x,y,z
-x,-y,-z
loop_
_atom_site_type_symbol
_atom_site_label
_atom_site_fract_x
_atom_site_fract_y
_atom_site_fract_z
Si Si1 0.468024 0.135697 0.706297
Si Si2 0.205307 0.048165 0.859670
Si Si3 0.489917 0.813181 0.701485
Si Si4 0.633577 0.401551 0.469226
Si Si5 0.333572 0.383965 0.870127
Si Si6 0.088643 0.226147 0.179595
Si Si7 0.977435 0.515720 0.757541
O O1 0.503060 0.319522 0.561823
O O2 0.292263 0.105491 0.730390
O O3 0.456648 0.996132 0.654471
O O4 0.647317 0.079713 0.920032
O O5 0.017005 0.948851 0.796927
O O6 0.208561 0.220109 0.858479
O O7 0.343918 0.754746 0.545564
O O8 0.696229 0.793695 0.747671
O O9 0.514592 0.685040 0.909219
O O10 0.567274 0.548449 0.251953
O O11 0.820625 0.465997 0.596997
O O12 0.177559 0.513919 0.784564
O O13 0.067798 0.311637 0.272733
O O14 0.992475 0.364238 0.955900
#
# Coordination Sequence:
#
# PCOD9033715 Si02
#       7
#     2   2   2   2   2   2   2
#     4  10  23  41  68  99 126 173 216 267 325 374
#     4  10  22  44  69  94 129 173 217 262 322 393
#     4  10  24  42  67  97 129 174 216 261 331 379
#     4  12  23  43  63  97 135 170 212 280 305 397
#     4  10  24  42  67  97 129 174 216 261 331 379
#     4  10  22  44  69  94 129 173 217 262 322 393
#     4  10  23  41  68  99 126 173 216 267 325 374
#
# _framework density 25.516069999999999
#
# number of rings (size 3 to 8) (size 9 to 14) (size 15 to 20)
#    0.000    1.714    1.429    1.286    4.000    5.143 
#    7.714    1.429    0.000    0.000    0.000    0.000 
#    0.000    0.000    0.000    0.000    0.000    0.000 
#
# Total GULP energy -78439.106879 kJ/mol
# GULP energy per Si atom -5602.793348 kJ/mol
# Density = 2.545799 g / cm^3
# Si number density = 25.516070 Si / 1000 Ang^3
#
#
#
# Elastic Constant Matrix: (Units=GPa)
#
#
# Indices 1 2 3 4 5 6 
#
# 1 89.4028 69.0728 36.4844 7.4603 -14.6840 7.4201
# 2 69.0728 133.9952 43.9572 29.1804 -9.7224 19.3863
# 3 36.4844 43.9572 168.3904 3.9847 -18.3150 15.4882
# 4 7.4603 29.1804 3.9847 55.6187 12.9783 -6.8488
# 5 -14.6840 -9.7224 -18.3150 12.9783 32.6295 -1.5960
# 6 7.4201 19.3863 15.4882 -6.8488 -1.5960 45.8460
#
#
#
# Elastic Compliance Matrix: (Units=1/GPa)
#
#
# Indices 1 2 3 4 5 6 
#
# 1 0.020142 -0.010330 -0.001416 0.002024 0.004487 0.002045
# 2 -0.010330 0.015913 -0.000900 -0.008224 0.002571 -0.005892
# 3 -0.001416 -0.000900 0.007019 -0.000823 0.003275 -0.001771
# 4 0.002024 -0.008224 -0.000823 0.025700 -0.011889 0.006854
# 5 0.004487 0.002571 0.003275 -0.011889 0.039838 -0.003309
# 6 0.002045 -0.005892 -0.001771 0.006854 -0.003309 0.025480
#
#
# Mechanical properties :
#
#
# Convention : Reuss Voigt Hill
#
# Bulk Modulus (GPa) = 56.23064 76.75747 66.49405
# Shear Modulus (GPa) = 30.24649 42.97045 36.60847
#
# Velocity S-wave (km/s) = 3.44668 4.10818 3.79188
# Velocity P-wave (km/s) = 6.15830 7.25604 6.72959
#
# Compressibility (1/GPa) = 0.01778390
#
# Stress axis : x y z
#
# Youngs Moduli (GPa) = 49.64734 62.84213 142.47611
#
# Poissons Ratio (x) = 0.64914 0.20168
# Poissons Ratio (y) = 0.51284 0.12819
# Poissons Ratio (z) = 0.07028 0.05654
#
# Static dielectric constant tensor:
#      x y z
#    x 1.950840 -0.021600 -0.040070 
#    y -0.021600 2.064910 -0.015370 
#    z -0.040070 -0.015370 2.032740 
# 
# From -- ./inp_files/157701.got.cif
#   From: 2010.05.17/outbox.cif.g08.bks.cpg/sg2_79_cif.got.tgz:157701.got - 2010.06.03 11:33:40.
