data_PCOD9033139
_publ_section_title
;
Structure prediction by ZEFSAII (Michael W. Deem and Ramdas Pophale) SiO2 
 PCOD9033139
Probable space group: P -1
;
_chemical_formula_sum "Si O2"
_cell_formula_units_Z 16
_cell_length_a 12.743811
_cell_length_b 5.257610
_cell_length_c 11.856376
_cell_angle_alpha 109.775044
_cell_angle_beta 109.549136
_cell_angle_gamma 71.621425
_cell_volume 685.924978
_symmetry_space_group_name_H-M "P -1"
_symmetry_group_IT_number 2
_symmetry_cell_setting 'triclinic'
loop_
_space_group_symop_operation_xyz
x,y,z
-x,-y,-z
loop_
_atom_site_type_symbol
_atom_site_label
_atom_site_fract_x
_atom_site_fract_y
_atom_site_fract_z
Si Si1 0.892631 0.262966 0.490351
Si Si2 0.394652 0.272944 0.493514
Si Si3 0.523294 0.171899 0.925827
Si Si4 0.935730 0.325455 0.031114
Si Si5 0.026116 0.698661 0.701364
Si Si6 0.487433 0.295096 0.288950
Si Si7 0.206317 0.966766 0.379774
Si Si8 0.306664 0.696089 0.145605
O O1 0.948960 0.502656 0.593521
O O2 0.798093 0.208190 0.534687
O O3 0.875936 0.293985 0.354081
O O4 0.000000 0.000000 0.500000
O O5 0.403112 0.327581 0.371356
O O6 0.424678 0.520951 0.614219
O O7 0.500000 0.000000 0.500000
O O8 0.275810 0.199277 0.473740
O O9 0.649733 0.124918 0.908748
O O10 0.464259 0.024523 0.780934
O O11 0.500000 0.500000 0.000000
O O12 0.500000 0.000000 0.000000
O O13 0.936298 0.393724 0.174311
O O14 0.805899 0.383188 0.951761
O O15 0.000000 0.500000 0.000000
O O16 0.000000 0.000000 0.000000
O O17 0.925121 0.977282 0.704227
O O18 0.411722 0.449134 0.182111
O O19 0.275214 0.848512 0.275671
#
# Coordination Sequence:
#
# PCOD9033139 Si02
#       8
#     2   2   2   2   2   2   2   2
#     4   9  21  40  69  96 140 188 230 304 369 439
#     4  11  23  40  69 112 144 181 242 318 374 446
#     4  12  26  48  77 102 146 206 251 308 381 451
#     4  12  28  44  74 113 148 195 249 307 361 442
#     4  10  22  44  66 102 146 187 244 297 373 442
#     4  11  24  44  72 105 153 185 251 312 385 443
#     4  11  21  38  74 106 138 187 243 300 385 439
#     4  12  25  46  75 108 147 197 253 309 374 455
#
# _framework density 23.326167999999999
#
# number of rings (size 3 to 8) (size 9 to 14) (size 15 to 20)
#    0.000    1.000    5.000    0.750    7.000    0.000 
#    0.000    6.250    2.750    0.000    0.000    0.000 
#    0.000    0.000    0.000    0.000    0.000    0.000 
#
# Total GULP energy -89233.317035 kJ/mol
# GULP energy per Si atom -5577.082315 kJ/mol
# Density = 2.327308 g / cm^3
# Si number density = 23.326168 Si / 1000 Ang^3
#
#
#
# Elastic Constant Matrix: (Units=GPa)
#
#
# Indices 1 2 3 4 5 6 
#
# 1 136.4450 45.7820 80.9211 -12.4246 -24.5322 47.8290
# 2 45.7820 85.7804 60.7724 -0.8710 -9.9855 31.9227
# 3 80.9211 60.7724 166.5982 -2.0426 -14.8286 23.3244
# 4 -12.4246 -0.8710 -2.0426 51.3498 1.0842 -8.9921
# 5 -24.5322 -9.9855 -14.8286 1.0842 48.7694 -10.0906
# 6 47.8290 31.9227 23.3244 -8.9921 -10.0906 53.8918
#
#
#
# Elastic Compliance Matrix: (Units=1/GPa)
#
#
# Indices 1 2 3 4 5 6 
#
# 1 0.014843 0.000120 -0.005516 0.001562 0.003731 -0.009897
# 2 0.000120 0.019062 -0.005723 -0.001476 0.000374 -0.009097
# 3 -0.005516 -0.005723 0.010231 -0.000360 -0.000044 0.003789
# 4 0.001562 -0.001476 -0.000360 0.020352 0.000573 0.003147
# 5 0.003731 0.000374 -0.000044 0.000573 0.022600 0.000813
# 6 -0.009897 -0.009097 0.003789 0.003147 0.000813 0.031765
#
#
# Mechanical properties :
#
#
# Convention : Reuss Voigt Hill
#
# Bulk Modulus (GPa) = 45.66929 84.86384 65.26656
# Shear Modulus (GPa) = 33.69478 44.22541 38.96009
#
# Velocity S-wave (km/s) = 3.80479 4.35898 4.09128
# Velocity P-wave (km/s) = 6.23883 7.86096 7.09639
#
# Compressibility (1/GPa) = 0.02189655
#
# Stress axis : x y z
#
# Youngs Moduli (GPa) = 67.37330 52.45965 97.74566
#
# Poissons Ratio (x) = -0.00628 0.53919
# Poissons Ratio (y) = -0.00806 0.55939
# Poissons Ratio (z) = 0.37165 0.30022
#
# Static dielectric constant tensor:
#      x y z
#    x 1.161720 1.486150 0.161260 
#    y 1.486150 -1.159980 -0.355510 
#    z 0.161260 -0.355510 1.853160 
# 
# From -- ./inp_files/411126.got.cif
#   From: 2010.05.17/outbox.cif.g08.bks.cpg/sg2_206_cif.got.tgz:411126.got - 2010.06.03 11:33:40.
