data_PCOD9033962
_publ_section_title
;
Structure prediction by ZEFSAII (Michael W. Deem and Ramdas Pophale) SiO2 
 PCOD9033962
Probable space group: P -1
;
_chemical_formula_sum "Si O2"
_cell_formula_units_Z 14
_cell_length_a 11.427745
_cell_length_b 5.593992
_cell_length_c 20.813402
_cell_angle_alpha 122.722628
_cell_angle_beta 145.322250
_cell_angle_gamma 48.299810
_cell_volume 565.152366
_symmetry_space_group_name_H-M "P -1"
_symmetry_group_IT_number 2
_symmetry_cell_setting 'triclinic'
loop_
_space_group_symop_operation_xyz
x,y,z
-x,-y,-z
loop_
_atom_site_type_symbol
_atom_site_label
_atom_site_fract_x
_atom_site_fract_y
_atom_site_fract_z
Si Si1 0.674091 0.171126 0.322547
Si Si2 0.849801 0.246326 0.059193
Si Si3 0.822787 0.726395 0.900073
Si Si4 0.877447 0.684452 0.228249
Si Si5 0.290535 0.793119 0.412286
Si Si6 0.229883 0.004257 0.285958
Si Si7 0.695718 0.816940 0.410087
O O1 0.754024 0.444815 0.386378
O O2 0.393079 0.339242 0.220902
O O3 0.746501 0.937152 0.260040
O O4 0.753288 0.959781 0.392767
O O5 0.020056 0.290320 0.091870
O O6 0.738543 0.570087 0.099041
O O7 0.022657 0.987324 0.151284
O O8 0.720990 0.088750 0.937460
O O9 0.000000 0.500000 0.000000
O O10 0.050265 0.788892 0.285432
O O11 0.075197 0.352947 0.299230
O O12 0.500000 0.500000 0.500000
O O13 0.617690 0.198301 0.615771
O O14 0.220852 0.076641 0.473005
O O15 0.414449 0.997960 0.316654
#
# Coordination Sequence:
#
# PCOD9033962 Si02
#       7
#     2   2   2   2   2   2   2
#     4  12  28  46  68 108 149 185 229 298 360 415
#     4   9  22  42  68  99 134 175 241 278 359 411
#     4  11  23  42  73 103 131 187 235 294 350 427
#     4  10  26  44  68 100 145 186 230 293 358 415
#     4  12  24  42  74 106 134 190 250 286 346 417
#     4  10  22  44  70  97 137 181 238 293 337 419
#     4  12  26  45  72 102 144 190 237 290 348 425
#
# _framework density 24.772081
#
# number of rings (size 3 to 8) (size 9 to 14) (size 15 to 20)
#    0.857    0.286    2.857    2.143   10.000    1.714 
#    0.000    0.714    0.000    0.000    0.000    0.000 
#    0.000    0.000    0.000    0.000    0.000    0.000 
#
# Total GULP energy -78082.538228 kJ/mol
# GULP energy per Si atom -5577.324159 kJ/mol
# Density = 2.471570 g / cm^3
# Si number density = 24.772081 Si / 1000 Ang^3
#
#
#
# Elastic Constant Matrix: (Units=GPa)
#
#
# Indices 1 2 3 4 5 6 
#
# 1 98.1105 48.7554 15.5383 3.0990 -30.8170 8.4492
# 2 48.7554 117.4638 31.2521 30.2443 -20.8888 -3.2329
# 3 15.5383 31.2521 73.9660 25.1124 -14.9602 12.3749
# 4 3.0990 30.2443 25.1124 58.0481 -4.7877 -9.5536
# 5 -30.8170 -20.8888 -14.9602 -4.7877 43.2563 1.2256
# 6 8.4492 -3.2329 12.3749 -9.5536 1.2256 40.1247
#
#
#
# Elastic Compliance Matrix: (Units=1/GPa)
#
#
# Indices 1 2 3 4 5 6 
#
# 1 0.016207 -0.005934 0.001033 0.001886 0.009361 -0.004046
# 2 -0.005934 0.013157 -0.002869 -0.004923 0.000532 0.002006
# 3 0.001033 -0.002869 0.019845 -0.008114 0.005561 -0.008671
# 4 0.001886 -0.004923 -0.008114 0.024331 -0.001361 0.007543
# 5 0.009361 0.000532 0.005561 -0.001361 0.031957 -0.004944
# 6 -0.004046 0.002006 -0.008671 0.007543 -0.004944 0.030557
#
#
# Mechanical properties :
#
#
# Convention : Reuss Voigt Hill
#
# Bulk Modulus (GPa) = 29.70122 53.40354 41.55238
# Shear Modulus (GPa) = 30.70893 41.21879 35.96386
#
# Velocity S-wave (km/s) = 3.52470 4.08354 3.81437
# Velocity P-wave (km/s) = 5.34607 6.62107 6.01743
#
# Compressibility (1/GPa) = 0.03366865
#
# Stress axis : x y z
#
# Youngs Moduli (GPa) = 61.70045 76.00488 50.38957
#
# Poissons Ratio (x) = 0.45102 -0.05203
# Poissons Ratio (y) = 0.36614 0.14457
# Poissons Ratio (z) = -0.06371 0.21807
#
# Static dielectric constant tensor:
#      x y z
#    x 2.005100 0.087340 0.046330 
#    y 0.087340 2.177400 0.075470 
#    z 0.046330 0.075470 1.911500 
# 
# From -- ./inp_files/592840.got.cif
#   From: 2010.05.17/outbox.cif.g08.bks.cpg/sg2_297_cif.got.tgz:592840.got - 2010.06.03 11:33:40.
