data_PCOD9033187
_publ_section_title
;
Structure prediction by ZEFSAII (Michael W. Deem and Ramdas Pophale) SiO2 
 PCOD9033187
Probable space group: P -1
;
_chemical_formula_sum "Si O2"
_cell_formula_units_Z 14
_cell_length_a 11.534280
_cell_length_b 14.637415
_cell_length_c 12.131090
_cell_angle_alpha 28.513767
_cell_angle_beta 36.110070
_cell_angle_gamma 45.705251
_cell_volume 575.716464
_symmetry_space_group_name_H-M "P -1"
_symmetry_group_IT_number 2
_symmetry_cell_setting 'triclinic'
loop_
_space_group_symop_operation_xyz
x,y,z
-x,-y,-z
loop_
_atom_site_type_symbol
_atom_site_label
_atom_site_fract_x
_atom_site_fract_y
_atom_site_fract_z
Si Si1 0.811059 0.199407 0.751134
Si Si2 0.151549 0.596790 0.694853
Si Si3 0.614157 0.699771 0.076479
Si Si4 0.964381 0.791712 0.016175
Si Si5 0.795998 0.386363 0.799392
Si Si6 0.226072 0.889248 0.514077
Si Si7 0.445830 0.371810 0.399194
O O1 0.927528 0.351489 0.419995
O O2 0.776299 0.250977 0.850210
O O3 0.597512 0.207262 0.848261
O O4 0.915489 0.002604 0.871749
O O5 0.220055 0.789315 0.504954
O O6 0.310593 0.431507 0.743807
O O7 0.000000 0.500000 0.000000
O O8 0.758502 0.881319 0.747500
O O9 0.576342 0.541344 0.177858
O O10 0.759201 0.675424 0.326818
O O11 0.152718 0.719749 0.015823
O O12 0.040839 0.816311 0.807023
O O13 0.627933 0.540121 0.752237
O O14 0.000000 0.500000 0.500000
O O15 0.422633 0.811757 0.503318
#
# Coordination Sequence:
#
# PCOD9033187 Si02
#       7
#     2   2   2   2   2   2   2
#     4  11  22  42  68  94 134 175 220 270 327 393
#     4  11  26  41  65 101 132 173 220 272 326 395
#     4  10  22  44  66  94 136 175 217 267 332 391
#     4  11  22  41  74  97 130 179 220 273 323 389
#     4   9  21  40  68  97 127 176 223 266 331 385
#     4  11  24  44  66 103 135 168 224 267 329 394
#     4   9  21  44  66  95 137 173 217 269 328 387
#
# _framework density 24.317526999999998
#
# number of rings (size 3 to 8) (size 9 to 14) (size 15 to 20)
#    0.000    1.714    1.429    1.714    6.000    3.429 
#    0.000    2.857    0.000    0.000    0.000    0.000 
#    0.000    0.000    0.000    0.000    0.000    0.000 
#
# Total GULP energy -78180.392771 kJ/mol
# GULP energy per Si atom -5584.313769 kJ/mol
# Density = 2.426218 g / cm^3
# Si number density = 24.317527 Si / 1000 Ang^3
#
#
#
# Elastic Constant Matrix: (Units=GPa)
#
#
# Indices 1 2 3 4 5 6 
#
# 1 102.8854 19.0807 33.6829 -11.1193 10.7268 -14.0480
# 2 19.0807 61.2864 33.0476 -10.0453 4.8283 -12.3284
# 3 33.6829 33.0476 126.5738 -9.5611 5.1057 9.3869
# 4 -11.1193 -10.0453 -9.5611 50.6515 -7.4986 11.7936
# 5 10.7268 4.8283 5.1057 -7.4986 25.8779 -0.1166
# 6 -14.0480 -12.3284 9.3869 11.7936 -0.1166 41.2162
#
#
#
# Elastic Compliance Matrix: (Units=1/GPa)
#
#
# Indices 1 2 3 4 5 6 
#
# 1 0.011951 -0.000772 -0.003128 0.000230 -0.004106 0.004477
# 2 -0.000772 0.021445 -0.005760 0.000997 -0.002223 0.007171
# 3 -0.003128 -0.005760 0.010755 0.001632 0.000697 -0.005704
# 4 0.000230 0.000997 0.001632 0.022685 0.005941 -0.006469
# 5 -0.004106 -0.002223 0.000697 0.005941 0.042327 -0.003803
# 6 0.004477 0.007171 -0.005704 -0.006469 -0.003803 0.031073
#
#
# Mechanical properties :
#
#
# Convention : Reuss Voigt Hill
#
# Bulk Modulus (GPa) = 40.27435 51.37421 45.82428
# Shear Modulus (GPa) = 29.79155 37.21140 33.50147
#
# Velocity S-wave (km/s) = 3.50395 3.91606 3.71572
# Velocity P-wave (km/s) = 5.74178 6.45133 6.10687
#
# Compressibility (1/GPa) = 0.02482970
#
# Stress axis : x y z
#
# Youngs Moduli (GPa) = 83.67506 46.63156 92.97977
#
# Poissons Ratio (x) = 0.03602 0.29081
# Poissons Ratio (y) = 0.06463 0.53560
# Poissons Ratio (z) = 0.26171 0.26861
#
# Static dielectric constant tensor:
#      x y z
#    x 3.251040 1.287300 0.371060 
#    y 1.287300 3.374800 0.437390 
#    z 0.371060 0.437390 2.168670 
# 
# From -- ./inp_files/432194.got.cif
#   From: 2010.05.17/outbox.cif.g08.bks.cpg/sg2_217_cif.got.tgz:432194.got - 2010.06.03 11:33:40.
