data_PCOD9033710
_publ_section_title
;
Structure prediction by ZEFSAII (Michael W. Deem and Ramdas Pophale) SiO2 
 PCOD9033710
Probable space group: P -1
;
_chemical_formula_sum "Si O2"
_cell_formula_units_Z 13
_cell_length_a 11.170924
_cell_length_b 8.966012
_cell_length_c 14.020122
_cell_angle_alpha 111.381828
_cell_angle_beta 30.575484
_cell_angle_gamma 119.602697
_cell_volume 615.180756
_symmetry_space_group_name_H-M "P -1"
_symmetry_group_IT_number 2
_symmetry_cell_setting 'triclinic'
loop_
_space_group_symop_operation_xyz
x,y,z
-x,-y,-z
loop_
_atom_site_type_symbol
_atom_site_label
_atom_site_fract_x
_atom_site_fract_y
_atom_site_fract_z
Si Si1 0.000000 0.500000 0.000000
Si Si2 0.233285 0.068017 0.783843
Si Si3 0.246579 0.962684 0.225404
Si Si4 0.985844 0.753155 0.526728
Si Si5 0.160268 0.242964 0.695402
Si Si6 0.240407 0.628571 0.490365
Si Si7 0.714502 0.280278 0.308325
O O1 0.909387 0.613282 0.167958
O O2 0.894987 0.335976 0.106853
O O3 0.130381 0.090975 0.756288
O O4 0.459099 0.252687 0.694518
O O5 0.350956 0.921621 0.673337
O O6 0.000000 0.000000 0.000000
O O7 0.218565 0.868490 0.325006
O O8 0.019000 0.832167 0.288290
O O9 0.191532 0.136906 0.317178
O O10 0.500000 0.000000 0.000000
O O11 0.092639 0.715660 0.544708
O O12 0.831402 0.566031 0.542602
O O13 0.451863 0.305882 0.476866
O O14 0.170301 0.627162 0.649348
#
# Coordination Sequence:
#
# PCOD9033710 Si02
#       7
#     1   2   2   2   2   2   2
#     4  12  24  38  66 100 134 164 210 272 328 394
#     4  11  22  41  68  97 126 171 215 269 326 386
#     4  11  25  42  66  95 130 176 221 259 324 391
#     4  10  23  46  66  94 131 175 215 272 317 382
#     4  11  24  42  65  97 132 170 213 272 327 386
#     4  10  22  44  69  93 132 170 218 270 327 378
#     4  11  23  43  66  99 130 168 214 271 335 387
#
# _framework density 21.131999
#
# number of rings (size 3 to 8) (size 9 to 14) (size 15 to 20)
#    0.000    1.231    1.538    5.077    2.154    6.154 
#    2.769    1.538    0.000    0.000    0.000    0.000 
#    0.000    0.000    0.000    0.000    0.000    0.000 
#
# Total GULP energy -72431.388314 kJ/mol
# GULP energy per Si atom -5571.645255 kJ/mol
# Density = 2.108390 g / cm^3
# Si number density = 21.131999 Si / 1000 Ang^3
#
#
#
# Elastic Constant Matrix: (Units=GPa)
#
#
# Indices 1 2 3 4 5 6 
#
# 1 83.5869 11.0553 35.8476 -14.6002 9.3793 1.5332
# 2 11.0553 106.7475 25.5462 9.5263 -2.0421 -8.5110
# 3 35.8476 25.5462 99.1825 -2.9445 31.6452 -5.8849
# 4 -14.6002 9.5263 -2.9445 33.4320 -12.9403 9.6541
# 5 9.3793 -2.0421 31.6452 -12.9403 23.3986 -2.4999
# 6 1.5332 -8.5110 -5.8849 9.6541 -2.4999 30.4187
#
#
#
# Elastic Compliance Matrix: (Units=1/GPa)
#
#
# Indices 1 2 3 4 5 6 
#
# 1 0.017824 -0.000767 -0.011079 0.014885 0.015285 -0.006724
# 2 -0.000767 0.011150 -0.004480 -0.002491 0.006347 0.003604
# 3 -0.011079 -0.004480 0.030603 -0.022083 -0.048671 0.008234
# 4 0.014885 -0.002491 -0.022083 0.063065 0.056304 -0.021107
# 5 0.015285 0.006347 -0.048671 0.056304 0.132483 -0.015392
# 6 -0.006724 0.003604 0.008234 -0.021107 -0.015392 0.041249
#
#
# Mechanical properties :
#
#
# Convention : Reuss Voigt Hill
#
# Bulk Modulus (GPa) = 37.13843 48.26834 42.70339
# Shear Modulus (GPa) = 14.79285 31.92106 23.35695
#
# Velocity S-wave (km/s) = 2.64866 3.89080 3.32819
# Velocity P-wave (km/s) = 5.19293 6.56319 5.91785
#
# Compressibility (1/GPa) = 0.02692629
#
# Stress axis : x y z
#
# Youngs Moduli (GPa) = 56.10266 89.68219 32.67699
#
# Poissons Ratio (x) = 0.06877 0.36202
# Poissons Ratio (y) = 0.04302 0.14640
# Poissons Ratio (z) = 0.62155 0.40179
#
# Static dielectric constant tensor:
#      x y z
#    x 1.770660 0.003090 -0.013310 
#    y 0.003090 1.767180 -0.009410 
#    z -0.013310 -0.009410 1.750070 
# 
# From -- ./inp_files/476075.got.cif
#   From: 2010.05.17/outbox.cif.g08.bks.cpg/sg2_239_cif.got.tgz:476075.got - 2010.06.03 11:33:40.
