data_PCOD9033556
_publ_section_title
;
Structure prediction by ZEFSAII (Michael W. Deem and Ramdas Pophale) SiO2 
 PCOD9033556
Probable space group: P -1
;
_chemical_formula_sum "Si O2"
_cell_formula_units_Z 16
_cell_length_a 5.961787
_cell_length_b 10.574542
_cell_length_c 11.605145
_cell_angle_alpha 67.008664
_cell_angle_beta 85.166509
_cell_angle_gamma 93.296294
_cell_volume 667.844756
_symmetry_space_group_name_H-M "P -1"
_symmetry_group_IT_number 2
_symmetry_cell_setting 'triclinic'
loop_
_space_group_symop_operation_xyz
x,y,z
-x,-y,-z
loop_
_atom_site_type_symbol
_atom_site_label
_atom_site_fract_x
_atom_site_fract_y
_atom_site_fract_z
Si Si1 0.628149 0.011572 0.272857
Si Si2 0.298001 0.576434 0.705242
Si Si3 0.964207 0.772904 0.736707
Si Si4 0.894184 0.827115 0.163701
Si Si5 0.333882 0.191661 0.460703
Si Si6 0.753897 0.564688 0.004340
Si Si7 0.314058 0.055470 0.071687
Si Si8 0.838192 0.601866 0.416809
O O1 0.712391 0.894935 0.226384
O O2 0.574064 0.928322 0.423147
O O3 0.430875 0.070989 0.185921
O O4 0.835516 0.127910 0.246804
O O5 0.482594 0.708202 0.652308
O O6 0.341168 0.498081 0.612531
O O7 0.068441 0.650636 0.703702
O O8 0.289445 0.466045 0.846914
O O9 0.844575 0.856821 0.613580
O O10 0.809891 0.696196 0.870303
O O11 0.953395 0.691196 0.274067
O O12 0.794123 0.824848 0.039462
O O13 0.113191 0.934486 0.124277
O O14 0.230598 0.292112 0.522636
O O15 0.500000 0.500000 0.000000
O O16 0.000000 0.500000 0.000000
O O17 0.500000 0.000000 0.000000
O O18 0.000000 0.500000 0.500000
#
# Coordination Sequence:
#
# PCOD9033556 Si02
#       8
#     2   2   2   2   2   2   2   2
#     4  10  23  38  66  98 129 176 222 281 346 414
#     4  11  24  42  66  95 133 180 230 282 345 419
#     4  11  23  43  65  97 137 176 229 284 345 418
#     4   9  21  41  63  91 133 172 222 283 336 406
#     4  11  23  42  66  96 137 175 228 280 350 416
#     4  10  22  44  68  96 137 188 234 288 348 419
#     4   9  19  40  63  93 129 171 225 278 339 402
#     4  11  23  42  67  94 131 180 224 283 344 417
#
# _framework density 23.957664000000001
#
# number of rings (size 3 to 8) (size 9 to 14) (size 15 to 20)
#    0.000    1.750    2.500    0.750    1.750    4.500 
#    6.750    0.000    0.000    0.000    0.000    0.000 
#    0.000    0.000    0.000    0.000    0.000    0.000 
#
# Total GULP energy -89165.446412 kJ/mol
# GULP energy per Si atom -5572.840401 kJ/mol
# Density = 2.390314 g / cm^3
# Si number density = 23.957664 Si / 1000 Ang^3
#
#
#
# Elastic Constant Matrix: (Units=GPa)
#
#
# Indices 1 2 3 4 5 6 
#
# 1 94.2377 34.6233 90.3342 -2.3446 32.7349 12.8816
# 2 34.6233 61.7208 77.5157 2.5555 15.8974 5.5925
# 3 90.3342 77.5157 231.4249 -9.9407 38.6476 16.3760
# 4 -2.3446 2.5555 -9.9407 66.5584 -1.8068 -3.8674
# 5 32.7349 15.8974 38.6476 -1.8068 48.7148 6.9910
# 6 12.8816 5.5925 16.3760 -3.8674 6.9910 40.3414
#
#
#
# Elastic Compliance Matrix: (Units=1/GPa)
#
#
# Indices 1 2 3 4 5 6 
#
# 1 0.019716 -0.001677 -0.005666 -0.000443 -0.007872 -0.002441
# 2 -0.001677 0.028694 -0.008853 -0.002511 -0.001327 0.000141
# 3 -0.005666 -0.008853 0.009758 0.001537 -0.000899 -0.000622
# 4 -0.000443 -0.002511 0.001537 0.015418 0.000284 0.001294
# 5 -0.007872 -0.001327 -0.000899 0.000284 0.027208 -0.001625
# 6 -0.002441 0.000141 -0.000622 0.001294 -0.001625 0.026207
#
#
# Mechanical properties :
#
#
# Convention : Reuss Voigt Hill
#
# Bulk Modulus (GPa) = 38.79430 88.03664 63.41547
# Shear Modulus (GPa) = 29.76496 43.45028 36.60762
#
# Velocity S-wave (km/s) = 3.52859 4.26329 3.91322
# Velocity P-wave (km/s) = 5.72968 7.81414 6.85164
#
# Compressibility (1/GPa) = 0.02577699
#
# Stress axis : x y z
#
# Youngs Moduli (GPa) = 50.72017 34.85076 102.48071
#
# Poissons Ratio (x) = 0.05845 0.58063
# Poissons Ratio (y) = 0.08506 0.90721
# Poissons Ratio (z) = 0.28737 0.30852
#
# Static dielectric constant tensor:
#      x y z
#    x 4.377450 -4.786670 -2.504520 
#    y -4.786670 11.486910 5.009080 
#    z -2.504520 5.009080 4.566450 
# 
# From -- ./inp_files/78783.got.cif
#   From: 2010.05.17/outbox.cif.g08.bks.cpg/sg2_40_cif.got.tgz:78783.got - 2010.06.03 11:33:40.
