data_PCOD9033163
_publ_section_title
;
Structure prediction by ZEFSAII (Michael W. Deem and Ramdas Pophale) SiO2 
 PCOD9033163
Probable space group: P -1
;
_chemical_formula_sum "Si O2"
_cell_formula_units_Z 16
_cell_length_a 18.997103
_cell_length_b 6.418134
_cell_length_c 7.695517
_cell_angle_alpha 116.726636
_cell_angle_beta 58.284999
_cell_angle_gamma 97.969572
_cell_volume 706.970217
_symmetry_space_group_name_H-M "P -1"
_symmetry_group_IT_number 2
_symmetry_cell_setting 'triclinic'
loop_
_space_group_symop_operation_xyz
x,y,z
-x,-y,-z
loop_
_atom_site_type_symbol
_atom_site_label
_atom_site_fract_x
_atom_site_fract_y
_atom_site_fract_z
Si Si1 0.721306 0.623345 0.665374
Si Si2 0.876972 0.490903 0.566007
Si Si3 0.916040 0.380435 0.074926
Si Si4 0.403272 0.621258 0.686456
Si Si5 0.988407 0.890959 0.659320
Si Si6 0.595219 0.029625 0.886131
Si Si7 0.242999 0.337723 0.745543
Si Si8 0.669686 0.120626 0.449944
O O1 0.780358 0.591372 0.743807
O O2 0.757303 0.735532 0.486052
O O3 0.705483 0.361855 0.538584
O O4 0.638726 0.804273 0.852819
O O5 0.885341 0.452901 0.333778
O O6 0.930223 0.684804 0.644382
O O7 0.918483 0.235954 0.473893
O O8 0.843818 0.483563 0.068541
O O9 0.000000 0.500000 0.000000
O O10 0.945330 0.102514 0.912779
O O11 0.500000 0.500000 0.500000
O O12 0.327916 0.459077 0.706064
O O13 0.384900 0.813072 0.626345
O O14 0.390826 0.743871 0.935205
O O15 0.000000 0.000000 0.500000
O O16 0.620881 0.055453 0.661483
O O17 0.500000 0.000000 0.000000
O O18 0.256878 0.097437 0.746427
#
# Coordination Sequence:
#
# PCOD9033163 Si02
#       8
#     2   2   2   2   2   2   2   2
#     4   9  21  40  64  89 122 166 210 263 317 383
#     4  10  23  42  62  90 127 170 215 268 325 379
#     4  11  22  41  66  91 129 174 215 266 330 381
#     4  11  24  43  66  95 131 167 213 269 317 388
#     4  11  23  40  61  92 127 164 218 267 319 395
#     4  11  24  41  66  97 126 166 216 259 323 394
#     4   9  22  41  62  95 124 164 218 261 318 390
#     4  10  22  44  66  89 133 169 206 267 324 381
#
# _framework density 22.631789000000001
#
# number of rings (size 3 to 8) (size 9 to 14) (size 15 to 20)
#    0.000    1.750    1.250    2.625    3.500    6.000 
#    4.500    0.000    0.000    0.000    0.000    0.000 
#    0.000    0.000    0.000    0.000    0.000    0.000 
#
# Total GULP energy -89186.937429 kJ/mol
# GULP energy per Si atom -5574.183589 kJ/mol
# Density = 2.258028 g / cm^3
# Si number density = 22.631789 Si / 1000 Ang^3
#
#
#
# Elastic Constant Matrix: (Units=GPa)
#
#
# Indices 1 2 3 4 5 6 
#
# 1 139.2088 37.8516 31.1437 22.3284 -36.3792 -30.0180
# 2 37.8516 76.6079 22.7168 25.9345 -17.2368 -24.3729
# 3 31.1437 22.7168 79.1984 26.6730 -2.6041 -6.4903
# 4 22.3284 25.9345 26.6730 40.7603 -7.8455 -4.4089
# 5 -36.3792 -17.2368 -2.6041 -7.8455 43.5090 14.2990
# 6 -30.0180 -24.3729 -6.4903 -4.4089 14.2990 40.7622
#
#
#
# Elastic Compliance Matrix: (Units=1/GPa)
#
#
# Indices 1 2 3 4 5 6 
#
# 1 0.011198 -0.001091 -0.002920 -0.001701 0.006970 0.004500
# 2 -0.001091 0.021125 -0.001202 -0.010567 0.002295 0.009688
# 3 -0.002920 -0.001202 0.017246 -0.009613 -0.003658 0.000121
# 4 -0.001701 -0.010567 -0.009613 0.038356 0.002668 -0.005889
# 5 0.006970 0.002295 -0.003658 0.002668 0.031583 -0.004867
# 6 0.004500 0.009688 0.000121 -0.005889 -0.004867 0.034729
#
#
# Mechanical properties :
#
#
# Convention : Reuss Voigt Hill
#
# Bulk Modulus (GPa) = 25.54677 53.15993 39.35335
# Shear Modulus (GPa) = 28.13546 38.55982 33.34764
#
# Velocity S-wave (km/s) = 3.52971 4.13218 3.84277
# Velocity P-wave (km/s) = 5.28434 6.80489 6.09224
#
# Compressibility (1/GPa) = 0.03914389
#
# Stress axis : x y z
#
# Youngs Moduli (GPa) = 89.30091 47.33665 57.98297
#
# Poissons Ratio (x) = 0.05166 0.16929
# Poissons Ratio (y) = 0.09746 0.06969
# Poissons Ratio (z) = 0.26073 0.05690
#
# Static dielectric constant tensor:
#      x y z
#    x 2.002780 -0.031930 -0.157710 
#    y -0.031930 1.854960 0.049930 
#    z -0.157710 0.049930 2.098700 
# 
# From -- ./inp_files/117495.got.cif
#   From: 2010.05.17/outbox.cif.g08.bks.cpg/sg2_59_cif.got.tgz:117495.got - 2010.06.03 11:33:40.
