data_PCOD9033472
_publ_section_title
;
Structure prediction by ZEFSAII (Michael W. Deem and Ramdas Pophale) SiO2 
 PCOD9033472
Probable space group: P -1
;
_chemical_formula_sum "Si O2"
_cell_formula_units_Z 16
_cell_length_a 8.924759
_cell_length_b 14.050555
_cell_length_c 15.246544
_cell_angle_alpha 140.144182
_cell_angle_beta 44.904212
_cell_angle_gamma 105.180141
_cell_volume 676.527074
_symmetry_space_group_name_H-M "P -1"
_symmetry_group_IT_number 2
_symmetry_cell_setting 'triclinic'
loop_
_space_group_symop_operation_xyz
x,y,z
-x,-y,-z
loop_
_atom_site_type_symbol
_atom_site_label
_atom_site_fract_x
_atom_site_fract_y
_atom_site_fract_z
Si Si1 0.165994 0.087534 0.382211
Si Si2 0.027280 0.495682 0.212529
Si Si3 0.349745 0.794137 0.243274
Si Si4 0.283824 0.530256 0.539499
Si Si5 0.326519 0.306402 0.663280
Si Si6 0.335299 0.836231 0.981549
Si Si7 0.116218 0.899990 0.787176
Si Si8 0.812716 0.350193 0.950006
O O1 0.086131 0.293222 0.563879
O O2 0.877043 0.124761 0.530366
O O3 0.304626 0.963194 0.324862
O O4 0.350640 0.962145 0.134776
O O5 0.968892 0.409752 0.254933
O O6 0.847323 0.539374 0.233326
O O7 0.342991 0.356786 0.963060
O O8 0.279968 0.694418 0.130935
O O9 0.500000 0.500000 0.500000
O O10 0.207837 0.690671 0.616295
O O11 0.406645 0.336287 0.300208
O O12 0.612618 0.135193 0.383307
O O13 0.124879 0.267668 0.754407
O O14 0.355280 0.425391 0.805828
O O15 0.239802 0.738876 0.011794
O O16 0.112416 0.977696 0.103194
O O17 0.000000 0.000000 0.000000
#
# Coordination Sequence:
#
# PCOD9033472 Si02
#       8
#     2   2   2   2   2   2   2   2
#     4  10  24  43  66 104 135 177 231 277 332 417
#     4  12  24  42  74  97 138 187 224 277 346 400
#     4  10  23  45  69  96 145 180 220 282 342 403
#     4  12  24  48  65  98 140 176 231 284 332 404
#     4  11  23  39  72 105 134 175 231 276 344 410
#     4  11  24  44  71  94 142 180 223 289 335 393
#     4  12  25  44  71  97 135 182 223 277 342 401
#     4  10  22  44  68 103 139 174 221 289 336 405
#
# _framework density 23.650199000000001
#
# number of rings (size 3 to 8) (size 9 to 14) (size 15 to 20)
#    0.000    1.000    5.000    0.375    1.750    4.000 
#    0.000    4.375    0.000    0.000    0.000    0.000 
#    0.000    0.000    0.000    0.000    0.000    0.000 
#
# Total GULP energy -89570.220938 kJ/mol
# GULP energy per Si atom -5598.138809 kJ/mol
# Density = 2.359637 g / cm^3
# Si number density = 23.650199 Si / 1000 Ang^3
#
#
#
# Elastic Constant Matrix: (Units=GPa)
#
#
# Indices 1 2 3 4 5 6 
#
# 1 32.4171 -1.5144 23.9445 5.2725 6.4474 -7.6231
# 2 -1.5144 66.5928 -5.7237 -16.1964 -14.0118 -5.3863
# 3 23.9445 -5.7237 118.1322 -4.2929 6.2670 -1.4901
# 4 5.2725 -16.1964 -4.2929 32.6406 -9.6593 3.2202
# 5 6.4474 -14.0118 6.2670 -9.6593 29.7666 1.9222
# 6 -7.6231 -5.3863 -1.4901 3.2202 1.9222 27.7458
#
#
#
# Elastic Compliance Matrix: (Units=1/GPa)
#
#
# Indices 1 2 3 4 5 6 
#
# 1 0.048243 -0.007456 -0.009649 -0.019970 -0.019373 0.014949
# 2 -0.007456 0.023312 0.002341 0.018534 0.018162 -0.000807
# 3 -0.009649 0.002341 0.010543 0.005177 0.002809 -0.002426
# 4 -0.019970 0.018534 0.005177 0.053593 0.029991 -0.009908
# 5 -0.019373 0.018162 0.002809 0.029991 0.056063 -0.009011
# 6 0.014949 -0.000807 -0.002426 -0.009908 -0.009011 0.041636
#
#
# Mechanical properties :
#
#
# Convention : Reuss Voigt Hill
#
# Bulk Modulus (GPa) = 19.02270 27.83944 23.43107
# Shear Modulus (GPa) = 17.82896 31.39299 24.61098
#
# Velocity S-wave (km/s) = 2.74863 3.64729 3.22937
# Velocity P-wave (km/s) = 4.25842 5.43450 4.88200
#
# Compressibility (1/GPa) = 0.05256878
#
# Stress axis : x y z
#
# Youngs Moduli (GPa) = 20.72831 42.89569 94.85108
#
# Poissons Ratio (x) = 0.31984 0.91523
# Poissons Ratio (y) = 0.15456 -0.22202
# Poissons Ratio (z) = 0.20001 -0.10041
#
# Static dielectric constant tensor:
#      x y z
#    x 1.899790 0.018600 0.058040 
#    y 0.018600 1.914970 -0.018270 
#    z 0.058040 -0.018270 1.935950 
# 
# From -- ./inp_files/505557.got.cif
#   From: 2010.05.17/outbox.cif.g08.bks.cpg/sg2_253_cif.got.tgz:505557.got - 2010.06.03 11:33:40.
