data_PCOD9033803
_publ_section_title
;
Structure prediction by ZEFSAII (Michael W. Deem and Ramdas Pophale) SiO2 
 PCOD9033803
Probable space group: P -1
;
_chemical_formula_sum "Si O2"
_cell_formula_units_Z 15
_cell_length_a 8.761371
_cell_length_b 17.133535
_cell_length_c 9.608388
_cell_angle_alpha 107.320859
_cell_angle_beta 119.314858
_cell_angle_gamma 32.502242
_cell_volume 655.027060
_symmetry_space_group_name_H-M "P -1"
_symmetry_group_IT_number 2
_symmetry_cell_setting 'triclinic'
loop_
_space_group_symop_operation_xyz
x,y,z
-x,-y,-z
loop_
_atom_site_type_symbol
_atom_site_label
_atom_site_fract_x
_atom_site_fract_y
_atom_site_fract_z
Si Si1 0.736348 0.521297 0.244799
Si Si2 0.783659 0.523398 0.595718
Si Si3 0.774161 0.795683 0.773702
Si Si4 0.998995 0.180645 0.883138
Si Si5 0.832285 0.768770 0.263907
Si Si6 0.768383 0.079122 0.068991
Si Si7 0.279334 0.846992 0.633655
Si Si8 0.500000 0.000000 0.500000
O O1 0.799910 0.499225 0.426610
O O2 0.360245 0.677762 0.143444
O O3 0.937303 0.518625 0.271171
O O4 0.876457 0.381555 0.178574
O O5 0.444194 0.700497 0.569788
O O6 0.877684 0.404385 0.653693
O O7 0.558607 0.804847 0.731274
O O8 0.644211 0.880932 0.617016
O O9 0.778582 0.864002 0.926256
O O10 0.038751 0.214803 0.778101
O O11 0.099905 0.048036 0.849568
O O12 0.665189 0.878429 0.379085
O O13 0.573133 0.813298 0.089407
O O14 0.796362 0.139510 0.229442
O O15 0.000000 0.000000 0.000000
O O16 0.000000 0.000000 0.500000
#
# Coordination Sequence:
#
# PCOD9033803 Si02
#       8
#     2   2   2   2   2   2   2   1
#     4  10  22  44  70 100 137 183 231 291 344 419
#     4  10  23  45  71 100 140 181 239 286 347 420
#     4  11  23  45  70 101 138 182 231 289 354 418
#     4  12  24  46  69 101 143 182 230 295 359 408
#     4  12  25  46  70 102 143 183 229 297 350 416
#     4  12  26  45  68 101 137 185 238 287 349 418
#     4  11  25  45  72 101 136 187 233 289 349 415
#     4  12  24  42  72  96 138 180 230 282 352 410
#
# _framework density 22.899816000000001
#
# number of rings (size 3 to 8) (size 9 to 14) (size 15 to 20)
#    0.000    0.800    4.000    3.200    1.867    1.067 
#    7.200    0.000    0.000    0.000    0.000    0.000 
#    0.000    0.000    0.000    0.000    0.000    0.000 
#
# Total GULP energy -83665.357942 kJ/mol
# GULP energy per Si atom -5577.690529 kJ/mol
# Density = 2.284770 g / cm^3
# Si number density = 22.899816 Si / 1000 Ang^3
#
#
#
# Elastic Constant Matrix: (Units=GPa)
#
#
# Indices 1 2 3 4 5 6 
#
# 1 59.1720 15.8447 23.5430 -1.2619 -24.5742 3.8237
# 2 15.8447 141.7751 21.3932 0.7232 -11.9201 6.5783
# 3 23.5430 21.3932 78.0995 17.4474 -18.4559 -9.3366
# 4 -1.2619 0.7232 17.4474 39.4559 -3.7729 -1.2196
# 5 -24.5742 -11.9201 -18.4559 -3.7729 38.9731 -7.6565
# 6 3.8237 6.5783 -9.3366 -1.2196 -7.6565 33.1426
#
#
#
# Elastic Compliance Matrix: (Units=1/GPa)
#
#
# Indices 1 2 3 4 5 6 
#
# 1 0.024825 -0.000857 -0.005230 0.004349 0.013145 -0.000971
# 2 -0.000857 0.007589 -0.002091 0.000749 0.000498 -0.001854
# 3 -0.005230 -0.002091 0.018913 -0.007717 0.005722 0.007384
# 4 0.004349 0.000749 -0.007717 0.029020 0.001866 -0.001325
# 5 0.013145 0.000498 0.005722 0.001866 0.038762 0.009020
# 6 -0.000971 -0.001854 0.007384 -0.001325 0.009020 0.034768
#
#
# Mechanical properties :
#
#
# Convention : Reuss Voigt Hill
#
# Bulk Modulus (GPa) = 28.59683 44.51205 36.55444
# Shear Modulus (GPa) = 27.48918 36.86537 32.17728
#
# Velocity S-wave (km/s) = 3.46845 4.01665 3.75258
# Velocity P-wave (km/s) = 5.34370 6.40244 5.89688
#
# Compressibility (1/GPa) = 0.03496892
#
# Stress axis : x y z
#
# Youngs Moduli (GPa) = 40.28234 131.77097 52.87482
#
# Poissons Ratio (x) = 0.11296 0.27654
# Poissons Ratio (y) = 0.03453 0.11059
# Poissons Ratio (z) = 0.21068 0.27559
#
# Static dielectric constant tensor:
#      x y z
#    x 1.841520 -0.035250 0.037620 
#    y -0.035250 1.876600 0.022730 
#    z 0.037620 0.022730 1.886990 
# 
# From -- ./inp_files/157726.got.cif
#   From: 2010.05.17/outbox.cif.g08.bks.cpg/sg2_79_cif.got.tgz:157726.got - 2010.06.03 11:33:40.
