data_PCOD9033519
_publ_section_title
;
Structure prediction by ZEFSAII (Michael W. Deem and Ramdas Pophale) SiO2 
 PCOD9033519
Probable space group: P -1
;
_chemical_formula_sum "Si O2"
_cell_formula_units_Z 12
_cell_length_a 15.409015
_cell_length_b 4.924400
_cell_length_c 19.404743
_cell_angle_alpha 113.239062
_cell_angle_beta 19.096881
_cell_angle_gamma 108.784808
_cell_volume 436.271135
_symmetry_space_group_name_H-M "P -1"
_symmetry_group_IT_number 2
_symmetry_cell_setting 'triclinic'
loop_
_space_group_symop_operation_xyz
x,y,z
-x,-y,-z
loop_
_atom_site_type_symbol
_atom_site_label
_atom_site_fract_x
_atom_site_fract_y
_atom_site_fract_z
Si Si1 0.753697 0.278407 0.714961
Si Si2 0.999518 0.443551 0.686372
Si Si3 0.431884 0.855687 0.964819
Si Si4 0.386936 0.588198 0.781504
Si Si5 0.067274 0.538802 0.789712
Si Si6 0.388729 0.926648 0.680310
O O1 0.821483 0.449127 0.751255
O O2 0.648955 0.545455 0.767128
O O3 0.504585 0.096780 0.881973
O O4 0.000000 0.000000 0.500000
O O5 0.306239 0.399217 0.426792
O O6 0.003505 0.655563 0.771360
O O7 0.873768 0.186630 0.797469
O O8 0.500000 0.000000 0.000000
O O9 0.318451 0.854064 0.804767
O O10 0.378073 0.279148 0.715263
O O11 0.185421 0.565904 0.993012
O O12 0.193552 0.781208 0.763096
O O13 0.313249 0.258853 0.572622
#
# Coordination Sequence:
#
# PCOD9033519 Si02
#       6
#     2   2   2   2   2   2
#     4  11  24  44  70  97 135 183 226 279 348 411
#     4  10  24  42  66 103 130 177 228 278 332 408
#     4  10  22  44  68  92 136 177 220 283 341 405
#     4  11  24  43  67  99 137 176 228 275 335 407
#     4  10  23  43  69  98 138 178 223 284 332 398
#     4  10  24  44  67  98 136 182 224 270 343 403
#
# _framework density 27.505828999999999
#
# number of rings (size 3 to 8) (size 9 to 14) (size 15 to 20)
#    0.000    1.667    0.000    3.500    2.333   16.667 
#    6.000    0.000    0.000    0.000    0.000    0.000 
#    0.000    0.000    0.000    0.000    0.000    0.000 
#
# Total GULP energy -67080.521852 kJ/mol
# GULP energy per Si atom -5590.043488 kJ/mol
# Density = 2.744322 g / cm^3
# Si number density = 27.505829 Si / 1000 Ang^3
#
#
#
# Elastic Constant Matrix: (Units=GPa)
#
#
# Indices 1 2 3 4 5 6 
#
# 1 143.0780 26.9862 66.0486 -23.5957 -10.8924 9.5676
# 2 26.9862 106.1176 43.1985 -16.4163 -15.9747 -14.3926
# 3 66.0486 43.1985 203.9247 -10.9709 -26.0274 11.7451
# 4 -23.5957 -16.4163 -10.9709 49.0732 3.1869 -17.2377
# 5 -10.8924 -15.9747 -26.0274 3.1869 46.9130 -2.4607
# 6 9.5676 -14.3926 11.7451 -17.2377 -2.4607 32.2732
#
#
#
# Elastic Compliance Matrix: (Units=1/GPa)
#
#
# Indices 1 2 3 4 5 6 
#
# 1 0.008864 -0.000716 -0.002501 0.003374 0.000186 -0.000221
# 2 -0.000716 0.013894 -0.002559 0.007615 0.003239 0.011654
# 3 -0.002501 -0.002559 0.006639 -0.002027 0.002173 -0.003733
# 4 0.003374 0.007615 -0.002027 0.030958 0.001185 0.019759
# 5 0.000186 0.003239 0.002173 0.001185 0.023747 0.003042
# 6 -0.000221 0.011654 -0.003733 0.019759 0.003042 0.048392
#
#
# Mechanical properties :
#
#
# Convention : Reuss Voigt Hill
#
# Bulk Modulus (GPa) = 56.04233 80.62076 68.33154
# Shear Modulus (GPa) = 33.33441 46.77768 40.05604
#
# Velocity S-wave (km/s) = 3.48502 4.12836 3.82026
# Velocity P-wave (km/s) = 6.05085 7.21793 6.66000
#
# Compressibility (1/GPa) = 0.01784366
#
# Stress axis : x y z
#
# Youngs Moduli (GPa) = 112.81265 71.97570 150.61488
#
# Poissons Ratio (x) = 0.05153 0.37675
# Poissons Ratio (y) = 0.08077 0.38549
# Poissons Ratio (z) = 0.28219 0.18422
#
# Static dielectric constant tensor:
#      x y z
#    x 2.137810 0.005310 -0.000520 
#    y 0.005310 2.166420 0.043390 
#    z -0.000520 0.043390 2.292330 
# 
# From -- ./inp_files/598861.got.cif
#   From: 2010.05.17/outbox.cif.g08.bks.cpg/sg2_300_cif.got.tgz:598861.got - 2010.06.03 11:33:40.
