data_PCOD9033687
_publ_section_title
;
Structure prediction by ZEFSAII (Michael W. Deem and Ramdas Pophale) SiO2 
 PCOD9033687
Probable space group: P -1
;
_chemical_formula_sum "Si O2"
_cell_formula_units_Z 16
_cell_length_a 13.123899
_cell_length_b 5.786831
_cell_length_c 15.706432
_cell_angle_alpha 79.876826
_cell_angle_beta 33.760371
_cell_angle_gamma 74.341456
_cell_volume 635.642191
_symmetry_space_group_name_H-M "P -1"
_symmetry_group_IT_number 2
_symmetry_cell_setting 'triclinic'
loop_
_space_group_symop_operation_xyz
x,y,z
-x,-y,-z
loop_
_atom_site_type_symbol
_atom_site_label
_atom_site_fract_x
_atom_site_fract_y
_atom_site_fract_z
Si Si1 0.626036 0.612388 0.342458
Si Si2 0.672671 0.417250 0.952285
Si Si3 0.377950 0.432379 0.393291
Si Si4 0.548514 0.937516 0.069617
Si Si5 0.910585 0.836674 0.338248
Si Si6 0.813268 0.094969 0.571000
Si Si7 0.044571 0.795862 0.868249
Si Si8 0.701275 0.030196 0.185749
O O1 0.500000 0.500000 0.500000
O O2 0.516666 0.576175 0.333358
O O3 0.842378 0.471976 0.214438
O O4 0.621615 0.890500 0.325429
O O5 0.650309 0.650351 0.015190
O O6 0.653150 0.148080 0.009009
O O7 0.500000 0.500000 0.000000
O O8 0.889082 0.351602 0.774635
O O9 0.249199 0.314808 0.553026
O O10 0.239518 0.615579 0.417948
O O11 0.523941 0.217385 0.261484
O O12 0.359886 0.966786 0.253578
O O13 0.500000 0.000000 0.000000
O O14 0.849650 0.988756 0.457230
O O15 0.926989 0.019245 0.237800
O O16 0.000000 0.000000 0.500000
O O17 0.158741 0.837150 0.871330
O O18 0.829241 0.844564 0.044550
#
# Coordination Sequence:
#
# PCOD9033687 Si02
#       8
#     2   2   2   2   2   2   2   2
#     4  11  21  42  71 101 144 184 235 299 378 447
#     4  10  24  46  74 103 144 194 250 316 380 453
#     4  11  26  42  68 102 142 188 240 308 372 453
#     4  10  24  48  74 102 139 195 249 312 386 445
#     4  12  27  44  71 105 146 192 256 309 380 456
#     4  12  28  46  71 103 144 194 255 316 383 449
#     4  10  23  42  70 104 143 188 241 299 375 452
#     4  10  22  44  69 106 145 187 238 300 375 459
#
# _framework density 25.171392999999998
#
# number of rings (size 3 to 8) (size 9 to 14) (size 15 to 20)
#    0.000    1.250    0.000    4.875    8.750    3.500 
#    0.000    0.000    0.000    0.000    0.000    0.000 
#    0.000    0.000    0.000    0.000    0.000    0.000 
#
# Total GULP energy -89416.958051 kJ/mol
# GULP energy per Si atom -5588.559878 kJ/mol
# Density = 2.511410 g / cm^3
# Si number density = 25.171393 Si / 1000 Ang^3
#
#
#
# Elastic Constant Matrix: (Units=GPa)
#
#
# Indices 1 2 3 4 5 6 
#
# 1 68.9615 31.3732 43.1508 20.0822 -1.0148 -18.0327
# 2 31.3732 139.0253 63.0840 17.2473 -20.4395 -8.8734
# 3 43.1508 63.0840 183.7108 21.6477 -13.3157 -5.0313
# 4 20.0822 17.2473 21.6477 50.2983 -9.4164 -9.8885
# 5 -1.0148 -20.4395 -13.3157 -9.4164 40.2385 4.8296
# 6 -18.0327 -8.8734 -5.0313 -9.8885 4.8296 41.2305
#
#
#
# Elastic Compliance Matrix: (Units=1/GPa)
#
#
# Indices 1 2 3 4 5 6 
#
# 1 0.021445 -0.002678 -0.003577 -0.005400 -0.004174 0.007560
# 2 -0.002678 0.009462 -0.002284 -0.000463 0.003872 0.000022
# 3 -0.003577 -0.002284 0.007222 -0.000996 0.001091 -0.001541
# 4 -0.005400 -0.000463 -0.000996 0.024004 0.004600 0.002635
# 5 -0.004174 0.003872 0.001091 0.004600 0.028523 -0.003097
# 6 0.007560 0.000022 -0.001541 0.002635 -0.003097 0.028372
#
#
# Mechanical properties :
#
#
# Convention : Reuss Voigt Hill
#
# Bulk Modulus (GPa) = 47.50284 74.10153 60.80218
# Shear Modulus (GPa) = 34.93518 43.29276 39.11397
#
# Velocity S-wave (km/s) = 3.72948 4.15169 3.94624
# Velocity P-wave (km/s) = 6.12030 7.24463 6.70607
#
# Compressibility (1/GPa) = 0.02105137
#
# Stress axis : x y z
#
# Youngs Moduli (GPa) = 46.63069 105.68823 138.46368
#
# Poissons Ratio (x) = 0.28299 0.49527
# Poissons Ratio (y) = 0.12486 0.31630
# Poissons Ratio (z) = 0.16679 0.24143
#
# Static dielectric constant tensor:
#      x y z
#    x 2.070950 -0.032110 0.041350 
#    y -0.032110 2.079550 0.069100 
#    z 0.041350 0.069100 2.030620 
# 
# From -- ./inp_files/571658.got.cif
#   From: 2010.05.17/outbox.cif.g08.bks.cpg/sg2_286_cif.got.tgz:571658.got - 2010.06.03 11:33:40.
