data_PCOD9033989
_publ_section_title
;
Structure prediction by ZEFSAII (Michael W. Deem and Ramdas Pophale) SiO2 
 PCOD9033989
Probable space group: P -1
;
_chemical_formula_sum "Si O2"
_cell_formula_units_Z 16
_cell_length_a 16.844723
_cell_length_b 18.963273
_cell_length_c 5.581265
_cell_angle_alpha 97.142476
_cell_angle_beta 108.757370
_cell_angle_gamma 145.896817
_cell_volume 641.059928
_symmetry_space_group_name_H-M "P -1"
_symmetry_group_IT_number 2
_symmetry_cell_setting 'triclinic'
loop_
_space_group_symop_operation_xyz
x,y,z
-x,-y,-z
loop_
_atom_site_type_symbol
_atom_site_label
_atom_site_fract_x
_atom_site_fract_y
_atom_site_fract_z
Si Si1 0.258443 0.990305 0.111401
Si Si2 0.050229 0.299497 0.944121
Si Si3 0.752922 0.181880 0.378317
Si Si4 0.162739 0.541019 0.647370
Si Si5 0.811957 0.846288 0.552019
Si Si6 0.288560 0.717064 0.347149
Si Si7 0.451235 0.664971 0.228592
Si Si8 0.997833 0.120030 0.541865
O O1 0.448388 0.082561 0.297165
O O2 0.365451 0.132195 0.453836
O O3 0.042507 0.785119 0.919073
O O4 0.188724 0.983462 0.821499
O O5 0.848400 0.181358 0.560952
O O6 0.093824 0.254690 0.865769
O O7 0.267043 0.514336 0.193352
O O8 0.794019 0.268528 0.675956
O O9 0.910858 0.326875 0.373137
O O10 0.500000 0.000000 0.000000
O O11 0.211400 0.615312 0.472265
O O12 0.229481 0.639822 0.994194
O O13 0.311405 0.586820 0.840517
O O14 0.574898 0.687243 0.337067
O O15 0.829783 0.782408 0.427744
O O16 0.881187 0.961991 0.483150
O O17 0.000000 0.000000 0.000000
#
# Coordination Sequence:
#
# PCOD9033989 Si02
#       8
#     2   2   2   2   2   2   2   2
#     4  11  23  45  71  93 144 184 229 290 352 416
#     4  11  25  47  64 104 138 177 238 288 352 422
#     4  11  25  44  69 105 143 185 234 302 356 418
#     4  10  24  48  71 103 140 191 244 289 351 435
#     4  11  21  41  73 101 133 178 230 280 353 429
#     4  11  24  45  74  98 141 191 241 294 353 417
#     4  10  22  44  70  98 139 186 229 285 358 413
#     4  11  22  41  71 100 135 179 229 286 348 425
#
# _framework density 24.958666999999998
#
# number of rings (size 3 to 8) (size 9 to 14) (size 15 to 20)
#    0.000    1.250    2.500    2.250    5.250    1.000 
#   24.750    2.500    0.000    0.000    0.000    0.000 
#    0.000    0.000    0.000    0.000    0.000    0.000 
#
# Total GULP energy -89480.113665 kJ/mol
# GULP energy per Si atom -5592.507104 kJ/mol
# Density = 2.490186 g / cm^3
# Si number density = 24.958667 Si / 1000 Ang^3
#
#
#
# Elastic Constant Matrix: (Units=GPa)
#
#
# Indices 1 2 3 4 5 6 
#
# 1 184.0807 20.8553 34.7693 2.2592 8.8139 21.4047
# 2 20.8553 89.1946 35.9741 -0.0394 -3.7419 1.1772
# 3 34.7693 35.9741 88.0861 1.5646 8.9276 9.6179
# 4 2.2592 -0.0394 1.5646 34.7340 8.0813 9.5084
# 5 8.8139 -3.7419 8.9276 8.0813 39.3956 2.3769
# 6 21.4047 1.1772 9.6179 9.5084 2.3769 32.7571
#
#
#
# Elastic Compliance Matrix: (Units=1/GPa)
#
#
# Indices 1 2 3 4 5 6 
#
# 1 0.006320 -0.000804 -0.001657 0.000958 -0.001081 -0.003814
# 2 -0.000804 0.013836 -0.005802 -0.000821 0.002871 0.001762
# 3 -0.001657 -0.005802 0.015074 0.001146 -0.003638 -0.003203
# 4 0.000958 -0.000821 0.001146 0.032980 -0.006713 -0.010019
# 5 -0.001081 0.002871 -0.003638 -0.006713 0.028004 0.001588
# 6 -0.003814 0.001762 -0.003203 -0.010019 0.001588 0.036690
#
#
# Mechanical properties :
#
#
# Convention : Reuss Voigt Hill
#
# Bulk Modulus (GPa) = 53.46447 60.50654 56.98551
# Shear Modulus (GPa) = 32.12006 39.36152 35.74079
#
# Velocity S-wave (km/s) = 3.59127 3.97554 3.78828
# Velocity P-wave (km/s) = 6.21804 6.73562 6.48200
#
# Compressibility (1/GPa) = 0.01870401
#
# Stress axis : x y z
#
# Youngs Moduli (GPa) = 158.22774 72.27321 66.33757
#
# Poissons Ratio (x) = 0.05810 0.10994
# Poissons Ratio (y) = 0.12720 0.38490
# Poissons Ratio (z) = 0.26223 0.41934
#
# Static dielectric constant tensor:
#      x y z
#    x 2.115840 0.039030 -0.070950 
#    y 0.039030 1.998760 -0.000300 
#    z -0.070950 -0.000300 1.999090 
# 
# From -- ./inp_files/112234.got.cif
#   From: 2010.05.17/outbox.cif.g08.bks.cpg/sg2_57_cif.got.tgz:112234.got - 2010.06.03 11:33:40.
