data_PCOD9033310
_publ_section_title
;
Structure prediction by ZEFSAII (Michael W. Deem and Ramdas Pophale) SiO2 
 PCOD9033310
Probable space group: P -1
;
_chemical_formula_sum "Si O2"
_cell_formula_units_Z 14
_cell_length_a 9.475770
_cell_length_b 14.453719
_cell_length_c 10.320034
_cell_angle_alpha 151.487647
_cell_angle_beta 84.292662
_cell_angle_gamma 105.784541
_cell_volume 618.557077
_symmetry_space_group_name_H-M "P -1"
_symmetry_group_IT_number 2
_symmetry_cell_setting 'triclinic'
loop_
_space_group_symop_operation_xyz
x,y,z
-x,-y,-z
loop_
_atom_site_type_symbol
_atom_site_label
_atom_site_fract_x
_atom_site_fract_y
_atom_site_fract_z
Si Si1 0.987629 0.556836 0.423310
Si Si2 0.506946 0.424595 0.196716
Si Si3 0.246316 0.222956 0.796276
Si Si4 0.312085 0.645303 0.382882
Si Si5 0.915464 0.112269 0.816747
Si Si6 0.560595 0.916920 0.018343
Si Si7 0.793305 0.817370 0.702408
O O1 0.914177 0.726118 0.627357
O O2 0.000000 0.500000 0.500000
O O3 0.153743 0.640873 0.446302
O O4 0.896612 0.333292 0.086295
O O5 0.390845 0.549749 0.368555
O O6 0.665062 0.618892 0.394383
O O7 0.405391 0.251414 0.888213
O O8 0.529476 0.298911 0.163312
O O9 0.095136 0.158389 0.824520
O O10 0.191460 0.054698 0.481635
O O11 0.280492 0.467343 0.056807
O O12 0.410521 0.887804 0.646573
O O13 0.867298 0.007515 0.831445
O O14 0.708808 0.881445 0.906232
O O15 0.500000 0.000000 0.000000
#
# Coordination Sequence:
#
# PCOD9033310 Si02
#       7
#     2   2   2   2   2   2   2
#     4  11  24  39  62  97 133 157 209 268 315 375
#     4  10  23  42  62  94 127 166 215 254 312 383
#     4   8  20  47  66  88 128 170 212 261 304 390
#     4   9  21  40  62  90 120 174 205 255 312 373
#     4  10  22  44  67  92 129 167 211 262 319 364
#     4  12  23  38  66  92 131 173 204 258 328 373
#     4  12  26  37  66 101 126 164 214 264 315 377
#
# _framework density 22.633320000000001
#
# number of rings (size 3 to 8) (size 9 to 14) (size 15 to 20)
#    0.857    0.857    1.429    2.143    6.000    1.714 
#    2.571    2.857    0.000    0.000    0.000    0.000 
#    0.000    0.000    0.000    0.000    0.000    0.000 
#
# Total GULP energy -78057.137575 kJ/mol
# GULP energy per Si atom -5575.509827 kJ/mol
# Density = 2.258181 g / cm^3
# Si number density = 22.633320 Si / 1000 Ang^3
#
#
#
# Elastic Constant Matrix: (Units=GPa)
#
#
# Indices 1 2 3 4 5 6 
#
# 1 76.7601 -1.8602 -2.9940 10.7412 -8.5824 -16.8963
# 2 -1.8602 28.7691 10.3199 20.8207 -3.4030 1.2681
# 3 -2.9940 10.3199 98.7517 15.9230 7.9450 -5.9280
# 4 10.7412 20.8207 15.9230 38.8934 -10.1866 -3.3750
# 5 -8.5824 -3.4030 7.9450 -10.1866 42.0051 2.5327
# 6 -16.8963 1.2681 -5.9280 -3.3750 2.5327 13.3280
#
#
#
# Elastic Compliance Matrix: (Units=1/GPa)
#
#
# Indices 1 2 3 4 5 6 
#
# 1 0.019375 0.003894 0.002525 -0.006194 0.000873 0.023581
# 2 0.003894 0.060432 -0.001098 -0.034294 -0.001836 -0.009637
# 3 0.002525 -0.001098 0.011929 -0.005239 -0.003580 0.007964
# 4 -0.006194 -0.034294 -0.005239 0.050640 0.008975 0.004198
# 5 0.000873 -0.001836 -0.003580 0.008975 0.026880 -0.003146
# 6 0.023581 -0.009637 0.007964 0.004198 -0.003146 0.111045
#
#
# Mechanical properties :
#
#
# Convention : Reuss Voigt Hill
#
# Bulk Modulus (GPa) = 9.76791 23.91249 16.84020
# Shear Modulus (GPa) = 16.45897 32.09964 24.27930
#
# Velocity S-wave (km/s) = 2.69959 3.77005 3.27880
# Velocity P-wave (km/s) = 3.74729 5.43499 4.66804
#
# Compressibility (1/GPa) = 0.10237608
#
# Stress axis : x y z
#
# Youngs Moduli (GPa) = 51.61200 16.54751 83.83156
#
# Poissons Ratio (x) = -0.06443 -0.21164
# Poissons Ratio (y) = -0.20097 0.09208
# Poissons Ratio (z) = -0.13030 0.01818
#
# Static dielectric constant tensor:
#      x y z
#    x 1.857550 -0.012580 0.061740 
#    y -0.012580 1.820570 -0.040630 
#    z 0.061740 -0.040630 1.818020 
# 
# From -- ./inp_files/400007.got.cif
#   From: 2010.05.17/outbox.cif.g08.bks.cpg/sg2_201_cif.got.tgz:400007.got - 2010.06.03 11:33:40.
