data_PCOD9033781
_publ_section_title
;
Structure prediction by ZEFSAII (Michael W. Deem and Ramdas Pophale) SiO2 
 PCOD9033781
Probable space group: P -1
;
_chemical_formula_sum "Si O2"
_cell_formula_units_Z 16
_cell_length_a 10.948450
_cell_length_b 11.622693
_cell_length_c 11.131308
_cell_angle_alpha 58.860471
_cell_angle_beta 109.491935
_cell_angle_gamma 146.161788
_cell_volume 661.311470
_symmetry_space_group_name_H-M "P -1"
_symmetry_group_IT_number 2
_symmetry_cell_setting 'triclinic'
loop_
_space_group_symop_operation_xyz
x,y,z
-x,-y,-z
loop_
_atom_site_type_symbol
_atom_site_label
_atom_site_fract_x
_atom_site_fract_y
_atom_site_fract_z
Si Si1 0.168092 0.070663 0.778107
Si Si2 0.942224 0.217703 0.789420
Si Si3 0.535612 0.822789 0.005779
Si Si4 0.277634 0.983825 0.400847
Si Si5 0.721956 0.597725 0.002196
Si Si6 0.892981 0.781994 0.515664
Si Si7 0.423880 0.712413 0.276989
Si Si8 0.708338 0.317853 0.486204
O O1 0.192827 0.232143 0.632119
O O2 0.308167 0.084780 0.732250
O O3 0.127788 0.299412 0.885039
O O4 0.911223 0.814291 0.854948
O O5 0.812283 0.025424 0.746217
O O6 0.072095 0.441706 0.637402
O O7 0.732346 0.081793 0.877288
O O8 0.367275 0.620078 0.962781
O O9 0.408404 0.768986 0.110964
O O10 0.688180 0.828705 0.107473
O O11 0.313527 0.858617 0.448324
O O12 0.089494 0.845594 0.513168
O O13 0.508173 0.226649 0.401386
O O14 0.500000 0.500000 0.000000
O O15 0.696319 0.534331 0.647508
O O16 0.000000 0.000000 0.500000
O O17 0.321974 0.680063 0.383878
#
# Coordination Sequence:
#
# PCOD9033781 Si02
#       8
#     2   2   2   2   2   2   2   2
#     4   9  23  39  60  97 136 176 223 276 341 412
#     4  11  23  43  68  98 138 181 234 283 342 404
#     4   9  23  41  61  97 135 176 224 275 342 409
#     4  11  26  43  72 106 135 179 240 288 337 411
#     4  11  24  39  66  97 143 186 228 280 343 418
#     4  12  23  39  69 101 141 181 227 282 353 412
#     4  10  22  44  69  98 142 180 227 285 349 407
#     4  11  24  46  75 100 136 182 235 289 343 402
#
# _framework density 24.194348999999999
#
# number of rings (size 3 to 8) (size 9 to 14) (size 15 to 20)
#    0.750    0.750    1.250    3.000    5.250    1.000 
#    0.000    0.625    0.000    2.250    0.000    0.000 
#    0.000    0.000    0.000    0.000    0.000    0.000 
#
# Total GULP energy -89247.343989 kJ/mol
# GULP energy per Si atom -5577.958999 kJ/mol
# Density = 2.413928 g / cm^3
# Si number density = 24.194349 Si / 1000 Ang^3
#
#
#
# Elastic Constant Matrix: (Units=GPa)
#
#
# Indices 1 2 3 4 5 6 
#
# 1 73.7671 44.3355 35.0957 0.3914 -27.8436 -5.1185
# 2 44.3355 122.7583 56.9260 9.5540 -12.2833 21.4690
# 3 35.0957 56.9260 155.0254 -15.0795 -29.1961 2.4587
# 4 0.3914 9.5540 -15.0795 50.2175 13.6428 -0.4524
# 5 -27.8436 -12.2833 -29.1961 13.6428 40.1752 4.4676
# 6 -5.1185 21.4690 2.4587 -0.4524 4.4676 39.5883
#
#
#
# Elastic Compliance Matrix: (Units=1/GPa)
#
#
# Indices 1 2 3 4 5 6 
#
# 1 0.024433 -0.008128 -0.000150 -0.002592 0.014563 0.005903
# 2 -0.008128 0.014519 -0.004077 -0.003444 -0.002045 -0.008480
# 3 -0.000150 -0.004077 0.008992 0.002330 0.004262 0.001179
# 4 -0.002592 -0.003444 0.002330 0.023917 -0.009583 0.002743
# 5 0.014563 -0.002045 0.004262 -0.009583 0.040934 -0.002002
# 6 0.005903 -0.008480 0.001179 0.002743 -0.002002 0.030806
#
#
# Mechanical properties :
#
#
# Convention : Reuss Voigt Hill
#
# Bulk Modulus (GPa) = 43.03955 69.36280 56.20117
# Shear Modulus (GPa) = 28.40037 40.34244 34.37141
#
# Velocity S-wave (km/s) = 3.42986 4.08785 3.77322
# Velocity P-wave (km/s) = 5.78904 7.14226 6.50096
#
# Compressibility (1/GPa) = 0.02323444
#
# Stress axis : x y z
#
# Youngs Moduli (GPa) = 40.92834 68.87666 111.20890
#
# Poissons Ratio (x) = 0.55985 0.01664
# Poissons Ratio (y) = 0.33268 0.45337
# Poissons Ratio (z) = 0.00612 0.28079
#
# Static dielectric constant tensor:
#      x y z
#    x 1.987600 0.020710 -0.010870 
#    y 0.020710 1.973360 0.035330 
#    z -0.010870 0.035330 1.991950 
# 
# From -- ./inp_files/425657.got.cif
#   From: 2010.05.17/outbox.cif.g08.bks.cpg/sg2_213_cif.got.tgz:425657.got - 2010.06.03 11:33:40.
