data_PCOD9033315
_publ_section_title
;
Structure prediction by ZEFSAII (Michael W. Deem and Ramdas Pophale) SiO2 
 PCOD9033315
Probable space group: P -1
;
_chemical_formula_sum "Si O2"
_cell_formula_units_Z 16
_cell_length_a 22.678990
_cell_length_b 10.229751
_cell_length_c 7.057583
_cell_angle_alpha 112.706099
_cell_angle_beta 125.394438
_cell_angle_gamma 31.311067
_cell_volume 670.364913
_symmetry_space_group_name_H-M "P -1"
_symmetry_group_IT_number 2
_symmetry_cell_setting 'triclinic'
loop_
_space_group_symop_operation_xyz
x,y,z
-x,-y,-z
loop_
_atom_site_type_symbol
_atom_site_label
_atom_site_fract_x
_atom_site_fract_y
_atom_site_fract_z
Si Si1 0.286277 0.863516 0.761508
Si Si2 0.038158 0.073205 0.736943
Si Si3 0.319651 0.037382 0.219088
Si Si4 0.593628 0.712779 0.468728
Si Si5 0.567866 0.255047 0.388293
Si Si6 0.999770 0.670511 0.537744
Si Si7 0.337824 0.519027 0.911560
Si Si8 0.840773 0.428619 0.907581
O O1 0.368890 0.798851 0.717209
O O2 0.358010 0.622803 0.872942
O O3 0.148188 0.035355 0.515840
O O4 0.255154 0.031743 0.955143
O O5 0.997883 0.278171 0.649316
O O6 0.961984 0.194225 0.861955
O O7 0.196390 0.788915 0.890518
O O8 0.000000 0.000000 0.500000
O O9 0.242187 0.308245 0.195971
O O10 0.478472 0.784213 0.326533
O O11 0.316822 0.993152 0.403787
O O12 0.647526 0.625432 0.302551
O O13 0.725673 0.497146 0.724741
O O14 0.500000 0.000000 0.500000
O O15 0.500000 0.500000 0.500000
O O16 0.456589 0.321017 0.170556
O O17 0.000000 0.500000 0.500000
O O18 0.105620 0.590685 0.808389
#
# Coordination Sequence:
#
# PCOD9033315 Si02
#       8
#     2   2   2   2   2   2   2   2
#     4  11  23  42  64  99 140 174 226 287 347 408
#     4  11  26  47  70 103 141 184 234 286 338 419
#     4  11  23  42  68 102 134 176 231 285 346 410
#     4  10  22  44  67  93 133 182 218 287 342 399
#     4  12  24  37  67 101 132 177 221 282 359 407
#     4  11  26  44  72 102 138 189 226 287 353 407
#     4  11  22  44  66  98 142 172 229 290 345 411
#     4  11  25  46  69  96 143 180 234 283 347 420
#
# _framework density 23.867597
#
# number of rings (size 3 to 8) (size 9 to 14) (size 15 to 20)
#    0.000    1.000    5.000    1.125    3.500    2.000 
#    0.000    1.250    0.000    0.000    0.000    0.000 
#    0.000    0.000    0.000    0.000    0.000    0.000 
#
# Total GULP energy -89325.660703 kJ/mol
# GULP energy per Si atom -5582.853794 kJ/mol
# Density = 2.381327 g / cm^3
# Si number density = 23.867597 Si / 1000 Ang^3
#
#
#
# Elastic Constant Matrix: (Units=GPa)
#
#
# Indices 1 2 3 4 5 6 
#
# 1 52.1572 15.6720 8.7704 -7.2111 -3.6545 -11.0566
# 2 15.6720 69.2058 27.1852 2.6273 -9.3962 -14.3230
# 3 8.7704 27.1852 110.7058 -13.4122 9.1904 -11.6896
# 4 -7.2111 2.6273 -13.4122 36.7084 1.1513 9.5202
# 5 -3.6545 -9.3962 9.1904 1.1513 33.9952 -6.1667
# 6 -11.0566 -14.3230 -11.6896 9.5202 -6.1667 43.4941
#
#
#
# Elastic Compliance Matrix: (Units=1/GPa)
#
#
# Indices 1 2 3 4 5 6 
#
# 1 0.021791 -0.004040 -0.000067 0.003537 0.001790 0.003671
# 2 -0.004040 0.020160 -0.005338 -0.006165 0.007998 0.006661
# 3 -0.000067 -0.005338 0.011273 0.004758 -0.004775 -0.000464
# 4 0.003537 -0.006165 0.004758 0.032256 -0.005087 -0.007634
# 5 0.001790 0.007998 -0.004775 -0.005087 0.034704 0.007839
# 6 0.003671 0.006661 -0.000464 -0.007634 0.007839 0.028776
#
#
# Mechanical properties :
#
#
# Convention : Reuss Voigt Hill
#
# Bulk Modulus (GPa) = 29.12569 37.25822 33.19195
# Shear Modulus (GPa) = 27.88729 34.86894 31.37812
#
# Velocity S-wave (km/s) = 3.42192 3.82636 3.62978
# Velocity P-wave (km/s) = 5.27657 5.93006 5.61284
#
# Compressibility (1/GPa) = 0.03433395
#
# Stress axis : x y z
#
# Youngs Moduli (GPa) = 45.89150 49.60360 88.70790
#
# Poissons Ratio (x) = 0.20040 0.00592
# Poissons Ratio (y) = 0.18540 0.47352
# Poissons Ratio (z) = 0.00306 0.26478
#
# Static dielectric constant tensor:
#      x y z
#    x 2.024960 0.017680 0.094840 
#    y 0.017680 1.895210 0.033710 
#    z 0.094840 0.033710 2.111410 
# 
# From -- ./inp_files/76988.got.cif
#   From: 2010.05.17/outbox.cif.g08.bks.cpg/sg2_39_cif.got.tgz:76988.got - 2010.06.03 11:33:40.
