data_PCOD9033300
_publ_section_title
;
Structure prediction by ZEFSAII (Michael W. Deem and Ramdas Pophale) SiO2 
 PCOD9033300
Probable space group: P -1
;
_chemical_formula_sum "Si O2"
_cell_formula_units_Z 16
_cell_length_a 8.841760
_cell_length_b 25.244841
_cell_length_c 8.339366
_cell_angle_alpha 148.847783
_cell_angle_beta 121.792155
_cell_angle_gamma 52.202604
_cell_volume 760.884337
_symmetry_space_group_name_H-M "P -1"
_symmetry_group_IT_number 2
_symmetry_cell_setting 'triclinic'
loop_
_space_group_symop_operation_xyz
x,y,z
-x,-y,-z
loop_
_atom_site_type_symbol
_atom_site_label
_atom_site_fract_x
_atom_site_fract_y
_atom_site_fract_z
Si Si1 0.862640 0.670765 0.870024
Si Si2 0.440458 0.929613 0.159554
Si Si3 0.359075 0.123460 0.187197
Si Si4 0.701272 0.452115 0.695994
Si Si5 0.336596 0.342245 0.610529
Si Si6 0.125536 0.140189 0.407766
Si Si7 0.749490 0.474886 0.418082
Si Si8 0.296763 0.743044 0.598020
O O1 0.785359 0.672473 0.648694
O O2 0.783316 0.588475 0.705202
O O3 0.092678 0.612777 0.831883
O O4 0.813436 0.781637 0.233185
O O5 0.500000 0.000000 0.500000
O O6 0.244519 0.014255 0.192810
O O7 0.611500 0.895148 0.035371
O O8 0.394947 0.826710 0.934479
O O9 0.386661 0.241923 0.507260
O O10 0.182894 0.148637 0.275693
O O11 0.500000 0.000000 0.000000
O O12 0.781255 0.439574 0.529240
O O13 0.469658 0.503918 0.688365
O O14 0.750469 0.335545 0.507051
O O15 0.760534 0.539318 0.055781
O O16 0.539844 0.332883 0.625426
O O17 0.898406 0.182273 0.401673
#
# Coordination Sequence:
#
# PCOD9033300 Si02
#       8
#     2   2   2   2   2   2   2   2
#     4  11  23  39  63  92 122 165 210 252 306 370
#     4  10  22  44  67  90 122 161 208 256 311 370
#     4   9  21  40  62  92 119 161 204 250 304 366
#     4  11  23  41  60  89 130 165 207 258 307 372
#     4  11  22  39  64  89 127 169 206 251 313 362
#     4  11  22  39  66  90 125 158 209 256 308 365
#     4  10  24  40  58  88 129 163 212 247 312 362
#     4  11  23  38  63  93 123 165 204 252 315 366
#
# _framework density 21.028164
#
# number of rings (size 3 to 8) (size 9 to 14) (size 15 to 20)
#    0.000    1.500    1.250    3.750    5.250    0.500 
#    2.250    0.625    0.000    0.000    0.000    0.000 
#    0.000    0.000    0.000    0.000    0.000    0.000 
#
# Total GULP energy -89149.741597 kJ/mol
# GULP energy per Si atom -5571.858850 kJ/mol
# Density = 2.098030 g / cm^3
# Si number density = 21.028164 Si / 1000 Ang^3
#
#
#
# Elastic Constant Matrix: (Units=GPa)
#
#
# Indices 1 2 3 4 5 6 
#
# 1 48.8693 18.5793 28.4699 7.9059 -0.7505 -3.7859
# 2 18.5793 61.6779 18.7936 12.6290 9.9915 14.8855
# 3 28.4699 18.7936 126.9318 13.8721 -3.7296 17.3375
# 4 7.9059 12.6290 13.8721 30.3328 -1.8126 18.2142
# 5 -0.7505 9.9915 -3.7296 -1.8126 21.2367 12.8319
# 6 -3.7859 14.8855 17.3375 18.2142 12.8319 36.1782
#
#
#
# Elastic Compliance Matrix: (Units=1/GPa)
#
#
# Indices 1 2 3 4 5 6 
#
# 1 0.031794 -0.007551 -0.007636 -0.015416 -0.011161 0.021813
# 2 -0.007551 0.022148 -0.000775 -0.005215 -0.009031 -0.003702
# 3 -0.007636 -0.000775 0.011031 0.004704 0.009353 -0.011452
# 4 -0.015416 -0.005215 0.004704 0.069961 0.039492 -0.050951
# 5 -0.011161 -0.009031 0.009353 0.039492 0.087997 -0.053028
# 6 0.021813 -0.003702 -0.011452 -0.050951 -0.053028 0.081395
#
#
# Mechanical properties :
#
#
# Convention : Reuss Voigt Hill
#
# Bulk Modulus (GPa) = 30.25752 41.01831 35.63791
# Shear Modulus (GPa) = 14.39816 28.99197 21.69507
#
# Velocity S-wave (km/s) = 2.61953 3.71714 3.21552
# Velocity P-wave (km/s) = 4.85485 6.16211 5.54712
#
# Compressibility (1/GPa) = 0.03304963
#
# Stress axis : x y z
#
# Youngs Moduli (GPa) = 31.45234 45.14979 90.65652
#
# Poissons Ratio (x) = 0.34091 0.69224
# Poissons Ratio (y) = 0.23748 0.07030
# Poissons Ratio (z) = 0.24016 0.03501
#
# Static dielectric constant tensor:
#      x y z
#    x 1.759550 -0.023320 -0.007120 
#    y -0.023320 1.834520 0.013410 
#    z -0.007120 0.013410 1.772520 
# 
# From -- ./inp_files/227686.got.cif
#   From: 2010.05.17/outbox.cif.g08.bks.cpg/sg2_114_cif.got.tgz:227686.got - 2010.06.03 11:33:40.
