data_PCOD9033827
_publ_section_title
;
Structure prediction by ZEFSAII (Michael W. Deem and Ramdas Pophale) SiO2 
 PCOD9033827
Probable space group: P -1
;
_chemical_formula_sum "Si O2"
_cell_formula_units_Z 16
_cell_length_a 13.228362
_cell_length_b 9.240518
_cell_length_c 12.019179
_cell_angle_alpha 31.056112
_cell_angle_beta 76.977201
_cell_angle_gamma 88.781531
_cell_volume 693.962809
_symmetry_space_group_name_H-M "P -1"
_symmetry_group_IT_number 2
_symmetry_cell_setting 'triclinic'
loop_
_space_group_symop_operation_xyz
x,y,z
-x,-y,-z
loop_
_atom_site_type_symbol
_atom_site_label
_atom_site_fract_x
_atom_site_fract_y
_atom_site_fract_z
Si Si1 0.089789 0.894312 0.108534
Si Si2 0.402419 0.312353 0.861168
Si Si3 0.626576 0.303767 0.827850
Si Si4 0.272048 0.148608 0.225297
Si Si5 0.230237 0.279367 0.653930
Si Si6 0.284009 0.728446 0.951031
Si Si7 0.467159 0.977088 0.392607
Si Si8 0.916030 0.325516 0.513574
O O1 0.080727 0.895251 0.242257
O O2 0.039647 0.545457 0.313802
O O3 0.205053 0.129286 0.882202
O O4 0.000000 0.000000 0.000000
O O5 0.522224 0.380859 0.844045
O O6 0.408077 0.629087 0.603847
O O7 0.314542 0.190316 0.060264
O O8 0.401697 0.047789 0.953259
O O9 0.663326 0.478575 0.587235
O O10 0.718537 0.386217 0.845797
O O11 0.375225 0.124743 0.287104
O O12 0.162830 0.854592 0.445837
O O13 0.244685 0.439417 0.074840
O O14 0.147675 0.468237 0.549132
O O15 0.223942 0.973911 0.791850
O O16 0.414960 0.891792 0.784614
O O17 0.500000 0.000000 0.500000
#
# Coordination Sequence:
#
# PCOD9033827 Si02
#       8
#     2   2   2   2   2   2   2   2
#     4   9  21  44  75  98 128 163 216 277 343 398
#     4  11  23  38  59  90 126 176 229 275 309 384
#     4  11  23  38  58  92 134 170 225 273 321 380
#     4  12  25  41  66  97 136 179 226 273 315 393
#     4  11  22  39  66  98 130 174 210 272 329 396
#     4  12  25  39  61  94 141 183 216 266 334 381
#     4  12  24  41  62  88 137 191 229 262 317 382
#     4  10  22  44  70 102 127 167 223 275 330 399
#
# _framework density 23.055990000000001
#
# number of rings (size 3 to 8) (size 9 to 14) (size 15 to 20)
#    0.000    1.000    5.000    1.875    1.750    1.500 
#    0.000    0.625    0.000    7.500    0.000    0.000 
#    0.000    0.000    0.000    0.000    0.000    0.000 
#
# Total GULP energy -89156.994770 kJ/mol
# GULP energy per Si atom -5572.312173 kJ/mol
# Density = 2.300351 g / cm^3
# Si number density = 23.055990 Si / 1000 Ang^3
#
#
#
# Elastic Constant Matrix: (Units=GPa)
#
#
# Indices 1 2 3 4 5 6 
#
# 1 61.0598 6.9683 10.1920 -10.8697 2.4334 6.2885
# 2 6.9683 73.5035 20.4245 -24.1439 2.5280 -0.8841
# 3 10.1920 20.4245 107.8673 -3.6093 -14.3960 1.5810
# 4 -10.8697 -24.1439 -3.6093 47.5385 -4.0612 9.5286
# 5 2.4334 2.5280 -14.3960 -4.0612 43.8118 -9.6808
# 6 6.2885 -0.8841 1.5810 9.5286 -9.6808 25.3023
#
#
#
# Elastic Compliance Matrix: (Units=1/GPa)
#
#
# Indices 1 2 3 4 5 6 
#
# 1 0.018562 0.000679 -0.001963 0.005743 -0.002892 -0.007736
# 2 0.000679 0.017568 -0.003300 0.009387 -0.002079 -0.003679
# 3 -0.001963 -0.003300 0.010549 -0.001332 0.004030 0.001757
# 4 0.005743 0.009387 -0.001332 0.029428 -0.001359 -0.012618
# 5 -0.002892 -0.002079 0.004030 -0.001359 0.026767 0.011147
# 6 -0.007736 -0.003679 0.001757 -0.012618 0.011147 0.050224
#
#
# Mechanical properties :
#
#
# Convention : Reuss Voigt Hill
#
# Bulk Modulus (GPa) = 26.65933 35.28892 30.97412
# Shear Modulus (GPa) = 28.60920 36.98690 32.79805
#
# Velocity S-wave (km/s) = 3.52640 4.00962 3.77575
# Velocity P-wave (km/s) = 5.30741 6.06424 5.69841
#
# Compressibility (1/GPa) = 0.03751033
#
# Stress axis : x y z
#
# Youngs Moduli (GPa) = 53.87345 56.92166 94.79991
#
# Poissons Ratio (x) = -0.03863 0.18607
# Poissons Ratio (y) = -0.03656 0.31284
# Poissons Ratio (z) = 0.10574 0.18784
#
# Static dielectric constant tensor:
#      x y z
#    x 1.947410 0.011520 -0.012260 
#    y 0.011520 1.857940 0.009830 
#    z -0.012260 0.009830 1.948720 
# 
# From -- ./inp_files/446535.got.cif
#   From: 2010.05.17/outbox.cif.g08.bks.cpg/sg2_224_cif.got.tgz:446535.got - 2010.06.03 11:33:40.
