data_PCOD9033604
_publ_section_title
;
Structure prediction by ZEFSAII (Michael W. Deem and Ramdas Pophale) SiO2 
 PCOD9033604
Probable space group: P -1
;
_chemical_formula_sum "Si O2"
_cell_formula_units_Z 15
_cell_length_a 5.410900
_cell_length_b 8.731976
_cell_length_c 19.849049
_cell_angle_alpha 41.056537
_cell_angle_beta 67.118730
_cell_angle_gamma 72.506965
_cell_volume 567.455392
_symmetry_space_group_name_H-M "P -1"
_symmetry_group_IT_number 2
_symmetry_cell_setting 'triclinic'
loop_
_space_group_symop_operation_xyz
x,y,z
-x,-y,-z
loop_
_atom_site_type_symbol
_atom_site_label
_atom_site_fract_x
_atom_site_fract_y
_atom_site_fract_z
Si Si1 0.108979 0.090541 0.794878
Si Si2 0.540940 0.737145 0.816261
Si Si3 0.320603 0.248429 0.009201
Si Si4 0.216808 0.373059 0.566082
Si Si5 0.000000 0.000000 0.500000
Si Si6 0.938622 0.066698 0.347211
Si Si7 0.702707 0.817480 0.116901
Si Si8 0.467849 0.349423 0.313996
O O1 0.101060 0.305139 0.673800
O O2 0.093076 0.177693 0.844638
O O3 0.390258 0.956173 0.793484
O O4 0.891893 0.887731 0.878270
O O5 0.859185 0.783857 0.768134
O O6 0.492614 0.698806 0.753974
O O7 0.418712 0.500220 0.937184
O O8 0.574640 0.072932 0.038118
O O9 0.204057 0.259698 0.941377
O O10 0.500000 0.500000 0.500000
O O11 0.000000 0.500000 0.500000
O O12 0.230423 0.119664 0.612828
O O13 0.106538 0.946434 0.428790
O O14 0.216407 0.214745 0.411993
O O15 0.736593 0.231871 0.357552
O O16 0.484200 0.626842 0.226459
#
# Coordination Sequence:
#
# PCOD9033604 Si02
#       8
#     2   2   2   2   1   2   2   2
#     4  12  25  45  75 106 149 203 254 315 396 459
#     4  10  23  44  71 106 146 193 248 316 381 472
#     4  10  24  46  71 109 150 197 253 324 384 461
#     4  12  30  49  77 112 160 201 258 328 392 468
#     4  10  24  40  72 102 134 194 262 312 376 448
#     4  11  24  46  71 102 147 193 260 312 387 456
#     4  10  25  43  70 108 150 191 256 312 390 466
#     4  10  22  44  68  98 144 190 246 313 374 453
#
# _framework density 26.433796000000001
#
# number of rings (size 3 to 8) (size 9 to 14) (size 15 to 20)
#    0.000    1.333    1.333    2.000    7.467    8.000 
#    0.000    0.000    0.000    0.000    0.000    0.000 
#    0.000    0.000    0.000    0.000    0.000    0.000 
#
# Total GULP energy -83724.000484 kJ/mol
# GULP energy per Si atom -5581.600032 kJ/mol
# Density = 2.637363 g / cm^3
# Si number density = 26.433796 Si / 1000 Ang^3
#
#
#
# Elastic Constant Matrix: (Units=GPa)
#
#
# Indices 1 2 3 4 5 6 
#
# 1 114.3978 32.8511 85.8331 -13.5503 -29.9809 7.4690
# 2 32.8511 61.4798 25.2309 -8.2162 10.0639 15.1676
# 3 85.8331 25.2309 194.2625 -8.6987 -37.2190 10.8738
# 4 -13.5503 -8.2162 -8.6987 44.3901 7.3365 5.2137
# 5 -29.9809 10.0639 -37.2190 7.3365 53.0251 -0.4109
# 6 7.4690 15.1676 10.8738 5.2137 -0.4109 34.6148
#
#
#
# Elastic Compliance Matrix: (Units=1/GPa)
#
#
# Indices 1 2 3 4 5 6 
#
# 1 0.016903 -0.008440 -0.004962 0.001204 0.007521 0.001518
# 2 -0.008440 0.026271 -0.001038 0.005154 -0.011280 -0.010275
# 3 -0.004962 -0.001038 0.008105 -0.000533 0.003147 -0.000903
# 4 0.001204 0.005154 -0.000533 0.025166 -0.004201 -0.006191
# 5 0.007521 -0.011280 0.003147 -0.004201 0.028068 0.003297
# 6 0.001518 -0.010275 -0.000903 -0.006191 0.003297 0.034319
#
#
# Mechanical properties :
#
#
# Convention : Reuss Voigt Hill
#
# Bulk Modulus (GPa) = 44.64722 73.10781 58.87751
# Shear Modulus (GPa) = 28.54217 41.48766 35.01491
#
# Velocity S-wave (km/s) = 3.28954 3.96598 3.64349
# Velocity P-wave (km/s) = 5.59955 6.97775 6.32629
#
# Compressibility (1/GPa) = 0.02239781
#
# Stress axis : x y z
#
# Youngs Moduli (GPa) = 59.16120 38.06412 123.38649
#
# Poissons Ratio (x) = 0.32127 0.61228
# Poissons Ratio (y) = 0.49933 0.12809
# Poissons Ratio (z) = 0.29358 0.03952
#
# Static dielectric constant tensor:
#      x y z
#    x 3.238380 -0.335020 0.608100 
#    y -0.335020 2.197280 -0.148250 
#    z 0.608100 -0.148250 2.288130 
# 
# From -- ./inp_files/582153.got.cif
#   From: 2010.05.17/outbox.cif.g08.bks.cpg/sg2_292_cif.got.tgz:582153.got - 2010.06.03 11:33:40.
