data_PCOD9033051
_publ_section_title
;
Structure prediction by ZEFSAII (Michael W. Deem and Ramdas Pophale) SiO2 
 PCOD9033051
Probable space group: P -1
;
_chemical_formula_sum "Si O2"
_cell_formula_units_Z 16
_cell_length_a 12.402240
_cell_length_b 17.135886
_cell_length_c 8.868191
_cell_angle_alpha 83.712472
_cell_angle_beta 122.129738
_cell_angle_gamma 48.027377
_cell_volume 799.579849
_symmetry_space_group_name_H-M "P -1"
_symmetry_group_IT_number 2
_symmetry_cell_setting 'triclinic'
loop_
_space_group_symop_operation_xyz
x,y,z
-x,-y,-z
loop_
_atom_site_type_symbol
_atom_site_label
_atom_site_fract_x
_atom_site_fract_y
_atom_site_fract_z
Si Si1 0.296648 0.625914 0.949135
Si Si2 0.737565 0.457292 0.485790
Si Si3 0.122910 0.444899 0.365414
Si Si4 0.907505 0.352042 0.962430
Si Si5 0.715247 0.700626 0.798642
Si Si6 0.662778 0.991751 0.650608
Si Si7 0.448960 0.133566 0.788510
Si Si8 0.131105 0.150461 0.636270
O O1 0.048317 0.786375 0.642135
O O2 0.500000 0.500000 0.000000
O O3 0.456618 0.595656 0.185390
O O4 0.237904 0.575812 0.004505
O O5 0.829150 0.498088 0.531259
O O6 0.744419 0.438026 0.673177
O O7 0.942848 0.291164 0.590837
O O8 0.263563 0.363712 0.322115
O O9 0.242572 0.312440 0.582608
O O10 0.833344 0.598431 0.056594
O O11 0.100125 0.322510 0.096749
O O12 0.057725 0.189409 0.114469
O O13 0.441034 0.885876 0.563280
O O14 0.596218 0.053875 0.756328
O O15 0.500000 0.000000 0.500000
O O16 0.295643 0.134154 0.693090
O O17 0.665711 0.016120 0.102170
#
# Coordination Sequence:
#
# PCOD9033051 Si02
#       8
#     2   2   2   2   2   2   2   2
#     4  10  21  35  52  77 106 138 178 220 258 301
#     4  10  20  34  54  78 103 139 181 218 249 312
#     4   9  17  31  49  78 109 140 167 210 268 312
#     4  10  17  32  55  81 100 132 183 223 257 297
#     4   8  16  28  50  80 112 131 162 218 274 311
#     4   9  15  26  50  80 102 131 164 218 259 303
#     4  10  19  33  54  78 110 138 165 216 271 314
#     4  10  20  35  53  79 107 140 174 212 264 308
#
# _framework density 20.01051
#
# number of rings (size 3 to 8) (size 9 to 14) (size 15 to 20)
#    0.000    2.500    1.250    2.625    0.000    0.500 
#    0.000    0.625    0.000    3.000    6.500    0.000 
#    0.000    0.000    0.000    0.000    0.000    0.000 
#
# Total GULP energy -89097.208956 kJ/mol
# GULP energy per Si atom -5568.575560 kJ/mol
# Density = 1.996497 g / cm^3
# Si number density = 20.010510 Si / 1000 Ang^3
#
#
#
# Elastic Constant Matrix: (Units=GPa)
#
#
# Indices 1 2 3 4 5 6 
#
# 1 44.3100 16.6357 34.5083 -7.2316 -18.9801 -9.3278
# 2 16.6357 38.6287 33.3883 -7.3988 -13.7406 7.6825
# 3 34.5083 33.3883 174.5759 -5.8092 -27.9176 10.8357
# 4 -7.2316 -7.3988 -5.8092 32.7234 10.4556 -7.0989
# 5 -18.9801 -13.7406 -27.9176 10.4556 33.8238 -8.0792
# 6 -9.3278 7.6825 10.8357 -7.0989 -8.0792 24.7609
#
#
#
# Elastic Compliance Matrix: (Units=1/GPa)
#
#
# Indices 1 2 3 4 5 6 
#
# 1 0.052186 -0.014661 -0.005505 0.007140 0.025404 0.036954
# 2 -0.014661 0.038681 -0.003405 0.001369 0.000560 -0.015459
# 3 -0.005505 -0.003405 0.007943 -0.002089 0.001641 -0.004557
# 4 0.007140 0.001369 -0.002089 0.036425 -0.005604 0.011794
# 5 0.025404 0.000560 0.001641 -0.005604 0.052951 0.024348
# 6 0.036954 -0.015459 -0.004557 0.011794 0.024348 0.072424
#
#
# Mechanical properties :
#
#
# Convention : Reuss Voigt Hill
#
# Bulk Modulus (GPa) = 19.35463 47.39768 33.37616
# Shear Modulus (GPa) = 15.38579 29.79376 22.58978
#
# Velocity S-wave (km/s) = 2.77589 3.86282 3.36355
# Velocity P-wave (km/s) = 4.46848 6.60553 5.63916
#
# Compressibility (1/GPa) = 0.05166722
#
# Stress axis : x y z
#
# Youngs Moduli (GPa) = 19.16212 25.85281 125.89105
#
# Poissons Ratio (x) = 0.37904 0.69305
# Poissons Ratio (y) = 0.28094 0.42866
# Poissons Ratio (z) = 0.10549 0.08803
#
# Static dielectric constant tensor:
#      x y z
#    x 1.738210 -0.027280 -0.013620 
#    y -0.027280 1.770830 -0.017530 
#    z -0.013620 -0.017530 1.778790 
# 
# From -- ./inp_files/277867.got.cif
#   From: 2010.05.17/outbox.cif.g08.bks.cpg/sg2_139_cif.got.tgz:277867.got - 2010.06.03 11:33:40.
