data_PCOD9033890
_publ_section_title
;
Structure prediction by ZEFSAII (Michael W. Deem and Ramdas Pophale) SiO2 
 PCOD9033890
Probable space group: P -1
;
_chemical_formula_sum "Si O2"
_cell_formula_units_Z 16
_cell_length_a 5.579714
_cell_length_b 5.794098
_cell_length_c 20.451753
_cell_angle_alpha 87.054519
_cell_angle_beta 100.142123
_cell_angle_gamma 78.975674
_cell_volume 636.370022
_symmetry_space_group_name_H-M "P -1"
_symmetry_group_IT_number 2
_symmetry_cell_setting 'triclinic'
loop_
_space_group_symop_operation_xyz
x,y,z
-x,-y,-z
loop_
_atom_site_type_symbol
_atom_site_label
_atom_site_fract_x
_atom_site_fract_y
_atom_site_fract_z
Si Si1 0.326401 0.857424 0.144235
Si Si2 0.908594 0.450007 0.642361
Si Si3 0.766955 0.370906 0.989272
Si Si4 0.629665 0.142310 0.711651
Si Si5 0.772951 0.990287 0.376230
Si Si6 0.892513 0.258435 0.258805
Si Si7 0.500503 0.743249 0.535848
Si Si8 0.769196 0.105672 0.123475
O O1 0.462419 0.794441 0.220287
O O2 0.505667 0.024143 0.118980
O O3 0.292231 0.686857 0.086457
O O4 0.035066 0.931933 0.152014
O O5 0.760566 0.352323 0.693862
O O6 0.748039 0.665450 0.592721
O O7 0.999227 0.227420 0.602337
O O8 0.121276 0.530199 0.693925
O O9 0.819031 0.167737 0.049812
O O10 0.500000 0.500000 0.000000
O O11 0.000000 0.500000 0.000000
O O12 0.464681 0.126854 0.640002
O O13 0.820200 0.885676 0.729230
O O14 0.771900 0.082007 0.300122
O O15 0.729721 0.190581 0.425246
O O16 0.778364 0.293269 0.180320
O O17 0.500000 0.500000 0.500000
O O18 0.500000 0.000000 0.500000
#
# Coordination Sequence:
#
# PCOD9033890 Si02
#       8
#     2   2   2   2   2   2   2   2
#     4  11  23  44  70  99 146 197 254 314 396 469
#     4  11  26  44  76 107 146 195 250 323 384 474
#     4  12  26  42  64 101 149 192 258 321 385 474
#     4  10  22  44  70 106 145 188 249 315 388 462
#     4  11  24  47  74 105 149 193 249 317 395 460
#     4  10  23  42  72 107 138 186 255 311 385 468
#     4  12  29  51  76 111 156 203 256 317 397 493
#     4  11  23  44  70 102 140 203 251 314 396 469
#
# _framework density 25.142605
#
# number of rings (size 3 to 8) (size 9 to 14) (size 15 to 20)
#    0.000    1.000    2.500    3.000    7.000    2.000 
#    0.000    0.000    0.000    0.000    0.000    0.000 
#    0.000    0.000    0.000    0.000    0.000    0.000 
#
# Total GULP energy -89156.823599 kJ/mol
# GULP energy per Si atom -5572.301475 kJ/mol
# Density = 2.508538 g / cm^3
# Si number density = 25.142605 Si / 1000 Ang^3
#
#
#
# Elastic Constant Matrix: (Units=GPa)
#
#
# Indices 1 2 3 4 5 6 
#
# 1 78.7915 29.3778 24.2632 10.7108 -4.3924 9.7067
# 2 29.3778 101.9789 73.6118 21.1048 -2.0704 -4.6512
# 3 24.2632 73.6118 143.8173 30.0251 -7.3161 -10.9761
# 4 10.7108 21.1048 30.0251 56.8080 -7.3150 -2.2637
# 5 -4.3924 -2.0704 -7.3161 -7.3150 31.7204 8.3394
# 6 9.7067 -4.6512 -10.9761 -2.2637 8.3394 39.4976
#
#
#
# Elastic Compliance Matrix: (Units=1/GPa)
#
#
# Indices 1 2 3 4 5 6 
#
# 1 0.015249 -0.003937 -0.000604 -0.000930 0.002823 -0.005028
# 2 -0.003937 0.016772 -0.007579 -0.001681 -0.001885 0.001138
# 3 -0.000604 -0.007579 0.011792 -0.003107 0.000853 0.002175
# 4 -0.000930 -0.001681 -0.003107 0.020529 0.003905 -0.000481
# 5 0.002823 -0.001885 0.000853 0.003905 0.034950 -0.007834
# 6 -0.005028 0.001138 0.002175 -0.000481 -0.007834 0.028918
#
#
# Mechanical properties :
#
#
# Convention : Reuss Voigt Hill
#
# Bulk Modulus (GPa) = 51.08519 64.34370 57.71445
# Shear Modulus (GPa) = 31.45196 38.76087 35.10641
#
# Velocity S-wave (km/s) = 3.54070 3.93063 3.74075
# Velocity P-wave (km/s) = 6.08915 6.80051 6.45463
#
# Compressibility (1/GPa) = 0.01957514
#
# Stress axis : x y z
#
# Youngs Moduli (GPa) = 65.57974 59.62345 84.80237
#
# Poissons Ratio (x) = 0.23471 0.05118
# Poissons Ratio (y) = 0.25816 0.64269
# Poissons Ratio (z) = 0.03958 0.45186
#
# Static dielectric constant tensor:
#      x y z
#    x 2.471660 -0.141880 0.450410 
#    y -0.141880 2.119080 -0.166700 
#    z 0.450410 -0.166700 2.587310 
# 
# From -- ./inp_files/581097.got.cif
#   From: 2010.05.17/outbox.cif.g08.bks.cpg/sg2_291_cif.got.tgz:581097.got - 2010.06.03 11:33:40.
