data_PCOD9033986
_publ_section_title
;
Structure prediction by ZEFSAII (Michael W. Deem and Ramdas Pophale) SiO2 
 PCOD9033986
Probable space group: P -1
;
_chemical_formula_sum "Si O2"
_cell_formula_units_Z 14
_cell_length_a 24.865035
_cell_length_b 13.045798
_cell_length_c 14.773253
_cell_angle_alpha 150.266280
_cell_angle_beta 22.224429
_cell_angle_gamma 160.621871
_cell_volume 600.953545
_symmetry_space_group_name_H-M "P -1"
_symmetry_group_IT_number 2
_symmetry_cell_setting 'triclinic'
loop_
_space_group_symop_operation_xyz
x,y,z
-x,-y,-z
loop_
_atom_site_type_symbol
_atom_site_label
_atom_site_fract_x
_atom_site_fract_y
_atom_site_fract_z
Si Si1 0.183897 0.695358 0.482709
Si Si2 0.257738 0.666985 0.137122
Si Si3 0.054685 0.371523 0.885361
Si Si4 0.389666 0.370240 0.669976
Si Si5 0.689646 0.712958 0.637244
Si Si6 0.596074 0.952349 0.102430
Si Si7 0.393098 0.108780 0.757605
O O1 0.214013 0.649637 0.298018
O O2 0.346705 0.730697 0.311914
O O3 0.932924 0.418124 0.681345
O O4 0.269834 0.023730 0.604048
O O5 0.240481 0.408746 0.940190
O O6 0.500000 0.000000 0.000000
O O7 0.101092 0.199972 0.637077
O O8 0.849029 0.143321 0.094182
O O9 0.000000 0.500000 0.000000
O O10 0.277820 0.693373 0.823451
O O11 0.500000 0.500000 0.500000
O O12 0.568478 0.598685 0.643445
O O13 0.537882 0.417280 0.713188
O O14 0.698373 0.935214 0.848178
O O15 0.624295 0.869393 0.091103
O O16 0.500000 0.000000 0.500000
#
# Coordination Sequence:
#
# PCOD9033986 Si02
#       7
#     2   2   2   2   2   2   2
#     4  11  23  46  69  99 138 176 220 287 338 401
#     4  11  24  46  70  98 136 174 230 281 339 402
#     4  10  22  44  70  98 139 179 222 275 341 401
#     4  12  24  46  71  97 135 184 227 281 343 399
#     4  12  24  46  67 100 139 174 233 277 333 408
#     4  11  23  45  71 103 136 179 224 278 339 402
#     4  11  22  46  70  99 139 178 221 278 341 402
#
# _framework density 23.296309000000001
#
# number of rings (size 3 to 8) (size 9 to 14) (size 15 to 20)
#    0.000    0.857    7.143    0.857    0.000    2.286 
#   18.000    0.000    0.000    0.000    0.000    0.000 
#    0.000    0.000    0.000    0.000    0.000    0.000 
#
# Total GULP energy -78287.101608 kJ/mol
# GULP energy per Si atom -5591.935829 kJ/mol
# Density = 2.324329 g / cm^3
# Si number density = 23.296309 Si / 1000 Ang^3
#
#
#
# Elastic Constant Matrix: (Units=GPa)
#
#
# Indices 1 2 3 4 5 6 
#
# 1 81.6593 7.2732 27.5540 -4.0431 7.3680 14.3584
# 2 7.2732 54.7168 35.7774 -7.5360 5.0334 2.3244
# 3 27.5540 35.7774 157.7475 1.3325 -11.3529 15.3670
# 4 -4.0431 -7.5360 1.3325 53.5648 13.9621 -0.8477
# 5 7.3680 5.0334 -11.3529 13.9621 37.7298 -3.0821
# 6 14.3584 2.3244 15.3670 -0.8477 -3.0821 28.2135
#
#
#
# Elastic Compliance Matrix: (Units=1/GPa)
#
#
# Indices 1 2 3 4 5 6 
#
# 1 0.014805 0.000793 -0.002509 0.002552 -0.005246 -0.006730
# 2 0.000793 0.023506 -0.006058 0.005366 -0.007071 0.000348
# 3 -0.002509 -0.006058 0.008757 -0.002513 0.004654 -0.002561
# 4 0.002552 0.005366 -0.002513 0.022353 -0.010310 -0.000827
# 5 -0.005246 -0.007071 0.004654 -0.010310 0.034025 0.004125
# 6 -0.006730 0.000348 -0.002561 -0.000827 0.004125 0.040661
#
#
# Mechanical properties :
#
#
# Convention : Reuss Voigt Hill
#
# Bulk Modulus (GPa) = 31.72619 48.37031 40.04825
# Shear Modulus (GPa) = 29.38362 38.80291 34.09326
#
# Velocity S-wave (km/s) = 3.55533 4.08563 3.82967
# Velocity P-wave (km/s) = 5.52286 6.56237 6.06493
#
# Compressibility (1/GPa) = 0.03151970
#
# Stress axis : x y z
#
# Youngs Moduli (GPa) = 67.54406 42.54178 114.19260
#
# Poissons Ratio (x) = -0.03373 0.28656
# Poissons Ratio (y) = -0.05356 0.69177
# Poissons Ratio (z) = 0.16950 0.25771
#
# Static dielectric constant tensor:
#      x y z
#    x -5.697420 5.366430 14.628650 
#    y 5.366430 -1.799970 -10.286210 
#    z 14.628650 -10.286210 -26.453450 
# 
# From -- ./inp_files/40066.got.cif
#   From: 2010.05.17/outbox.cif.g08.bks.cpg/sg2_21_cif.got.tgz:40066.got - 2010.06.03 11:33:40.
