data_PCOD9033945
_publ_section_title
;
Structure prediction by ZEFSAII (Michael W. Deem and Ramdas Pophale) SiO2 
 PCOD9033945
Probable space group: P -1
;
_chemical_formula_sum "Si O2"
_cell_formula_units_Z 12
_cell_length_a 4.810420
_cell_length_b 5.578990
_cell_length_c 17.177038
_cell_angle_alpha 76.425605
_cell_angle_beta 80.069477
_cell_angle_gamma 99.627971
_cell_volume 430.881743
_symmetry_space_group_name_H-M "P -1"
_symmetry_group_IT_number 2
_symmetry_cell_setting 'triclinic'
loop_
_space_group_symop_operation_xyz
x,y,z
-x,-y,-z
loop_
_atom_site_type_symbol
_atom_site_label
_atom_site_fract_x
_atom_site_fract_y
_atom_site_fract_z
Si Si1 0.497789 0.325764 0.130455
Si Si2 0.753629 0.246523 0.977120
Si Si3 0.988933 0.840656 0.178348
Si Si4 0.194232 0.100719 0.558099
Si Si5 0.416292 0.587256 0.263597
Si Si6 0.318657 0.600679 0.592754
O O1 0.373321 0.540163 0.075765
O O2 0.542074 0.411251 0.210117
O O3 0.232592 0.088218 0.159785
O O4 0.766996 0.293334 0.065440
O O5 0.010628 0.207776 0.911388
O O6 0.500000 0.000000 0.000000
O O7 0.123140 0.638799 0.238027
O O8 0.672457 0.839753 0.225157
O O9 0.117298 0.333690 0.593406
O O10 0.507975 0.248839 0.500183
O O11 0.200675 0.833697 0.619292
O O12 0.000000 0.000000 0.500000
O O13 0.446882 0.477039 0.355005
#
# Coordination Sequence:
#
# PCOD9033945 Si02
#       6
#     2   2   2   2   2   2
#     4   9  19  38  63  88 128 168 217 268 332 379
#     4   8  16  37  62  89 121 170 217 270 314 394
#     4  10  23  40  60  92 129 168 222 264 333 388
#     4  10  22  44  70  96 131 173 222 270 336 399
#     4  11  25  40  62  96 130 169 214 272 330 394
#     4  10  24  41  66 101 131 171 225 272 331 407
#
# _framework density 27.849865000000001
#
# number of rings (size 3 to 8) (size 9 to 14) (size 15 to 20)
#    0.000    2.333    0.000    0.500    4.667    4.667 
#    0.000   28.333    0.000    0.000    0.000    0.000 
#    0.000    0.000    0.000    0.000    0.000    0.000 
#
# Total GULP energy -67110.064082 kJ/mol
# GULP energy per Si atom -5592.505340 kJ/mol
# Density = 2.778648 g / cm^3
# Si number density = 27.849865 Si / 1000 Ang^3
#
#
#
# Elastic Constant Matrix: (Units=GPa)
#
#
# Indices 1 2 3 4 5 6 
#
# 1 124.9268 30.8632 19.2221 -4.4516 22.9729 3.4093
# 2 30.8632 202.4710 50.0453 -10.5147 22.1056 -2.6965
# 3 19.2221 50.0453 106.0196 5.2329 14.8817 0.3711
# 4 -4.4516 -10.5147 5.2329 46.8525 2.0070 5.4361
# 5 22.9729 22.1056 14.8817 2.0070 40.4941 2.0791
# 6 3.4093 -2.6965 0.3711 5.4361 2.0791 33.9813
#
#
#
# Elastic Compliance Matrix: (Units=1/GPa)
#
#
# Indices 1 2 3 4 5 6 
#
# 1 0.009192 -0.000667 -0.000760 0.001105 -0.004582 -0.000863
# 2 -0.000667 0.005970 -0.002487 0.001592 -0.002068 0.000440
# 3 -0.000760 -0.002487 0.011145 -0.001801 -0.002227 0.000182
# 4 0.001105 0.001592 -0.001801 0.022483 -0.001771 -0.003453
# 5 -0.004582 -0.002068 -0.002227 -0.001771 0.029391 -0.001195
# 6 -0.000863 0.000440 0.000182 -0.003453 -0.001195 0.030173
#
#
# Mechanical properties :
#
#
# Convention : Reuss Voigt Hill
#
# Bulk Modulus (GPa) = 54.11752 70.40872 62.26312
# Shear Modulus (GPa) = 40.86950 46.48470 43.67710
#
# Velocity S-wave (km/s) = 3.83494 4.08992 3.96448
# Velocity P-wave (km/s) = 6.25165 6.90215 6.58494
#
# Compressibility (1/GPa) = 0.01847831
#
# Stress axis : x y z
#
# Youngs Moduli (GPa) = 108.79130 167.51492 89.72857
#
# Poissons Ratio (x) = 0.11176 0.06820
# Poissons Ratio (y) = 0.07258 0.22313
# Poissons Ratio (z) = 0.08268 0.41657
#
# Static dielectric constant tensor:
#      x y z
#    x 2.228470 -0.081200 -0.069090 
#    y -0.081200 2.346510 0.022710 
#    z -0.069090 0.022710 2.157080 
# 
# From -- ./inp_files/4985.got.cif
#   From: 2010.05.17/outbox.cif.g08.bks.cpg/sg2_3_cif.got.tgz:4985.got - 2010.06.03 11:33:40.
