data_PCOD9033955
_publ_section_title
;
Structure prediction by ZEFSAII (Michael W. Deem and Ramdas Pophale) SiO2 
 PCOD9033955
Probable space group: P -1
;
_chemical_formula_sum "Si O2"
_cell_formula_units_Z 10
_cell_length_a 10.851820
_cell_length_b 4.874126
_cell_length_c 8.197744
_cell_angle_alpha 61.513681
_cell_angle_beta 108.235000
_cell_angle_gamma 100.697237
_cell_volume 361.625725
_symmetry_space_group_name_H-M "P -1"
_symmetry_group_IT_number 2
_symmetry_cell_setting 'triclinic'
loop_
_space_group_symop_operation_xyz
x,y,z
-x,-y,-z
loop_
_atom_site_type_symbol
_atom_site_label
_atom_site_fract_x
_atom_site_fract_y
_atom_site_fract_z
Si Si1 0.879037 0.704652 0.446666
Si Si2 0.588153 0.327902 0.926134
Si Si3 0.726178 0.939618 0.832880
Si Si4 0.019090 0.173022 0.184241
Si Si5 0.401065 0.633895 0.556078
O O1 0.910135 0.797345 0.618925
O O2 0.000000 0.500000 0.500000
O O3 0.735773 0.555525 0.431729
O O4 0.889153 0.981212 0.238889
O O5 0.690027 0.587468 0.976116
O O6 0.475028 0.570860 0.772079
O O7 0.680234 0.207684 0.855345
O O8 0.500000 0.000000 0.000000
O O9 0.644544 0.024840 0.609744
O O10 0.877308 0.991051 0.840095
O O11 0.000000 0.500000 0.000000
O O12 0.500000 0.500000 0.500000
#
# Coordination Sequence:
#
# PCOD9033955 Si02
#       5
#     2   2   2   2   2
#     4  11  24  47  69 105 142 192 245 294 370 433
#     4  11  25  42  70 105 140 185 240 300 361 433
#     4  11  23  46  67 101 140 188 240 294 363 429
#     4  11  26  44  72 102 145 192 243 305 358 436
#     4  10  22  44  70  96 140 185 232 295 355 433
#
# _framework density 27.652901
#
# number of rings (size 3 to 8) (size 9 to 14) (size 15 to 20)
#    0.000    1.200    2.000    3.600    2.800    4.000 
#    0.000    0.000    0.000    0.000    0.000    0.000 
#    0.000    0.000    0.000    0.000    0.000    0.000 
#
# Total GULP energy -55864.103666 kJ/mol
# GULP energy per Si atom -5586.410367 kJ/mol
# Density = 2.758996 g / cm^3
# Si number density = 27.652901 Si / 1000 Ang^3
#
#
#
# Elastic Constant Matrix: (Units=GPa)
#
#
# Indices 1 2 3 4 5 6 
#
# 1 174.1741 35.3612 57.9929 -21.4382 -46.3376 -3.2278
# 2 35.3612 102.5412 22.7673 -16.1798 -30.1125 -3.0784
# 3 57.9929 22.7673 143.3860 -49.5813 -42.7776 0.9977
# 4 -21.4382 -16.1798 -49.5813 55.4729 3.9099 -13.0770
# 5 -46.3376 -30.1125 -42.7776 3.9099 68.0315 -11.6857
# 6 -3.2278 -3.0784 0.9977 -13.0770 -11.6857 61.1927
#
#
#
# Elastic Compliance Matrix: (Units=1/GPa)
#
#
# Indices 1 2 3 4 5 6 
#
# 1 0.007677 -0.000774 -0.001016 0.001907 0.004419 0.001634
# 2 -0.000774 0.012410 0.002171 0.005501 0.006524 0.002970
# 3 -0.001016 0.002171 0.014524 0.013626 0.009395 0.004525
# 4 0.001907 0.005501 0.013626 0.033990 0.012017 0.009714
# 5 0.004419 0.006524 0.009395 0.012017 0.027218 0.008174
# 6 0.001634 0.002970 0.004525 0.009714 0.008174 0.020140
#
#
# Mechanical properties :
#
#
# Convention : Reuss Voigt Hill
#
# Bulk Modulus (GPa) = 28.27107 72.48266 50.37686
# Shear Modulus (GPa) = 39.37331 57.20475 48.28903
#
# Velocity S-wave (km/s) = 3.77747 4.55320 4.18336
# Velocity P-wave (km/s) = 5.41031 7.34239 6.44911
#
# Compressibility (1/GPa) = 0.03537185
#
# Stress axis : x y z
#
# Youngs Moduli (GPa) = 130.25217 80.57776 68.85318
#
# Poissons Ratio (x) = 0.06240 0.06995
# Poissons Ratio (y) = 0.10087 -0.14945
# Poissons Ratio (z) = 0.13232 -0.17490
#
# Static dielectric constant tensor:
#      x y z
#    x 2.263040 0.170160 0.110170 
#    y 0.170160 2.181720 0.075240 
#    z 0.110170 0.075240 2.403000 
# 
# From -- ./inp_files/45910.got.cif
#   From: 2010.05.17/outbox.cif.g08.bks.cpg/sg2_23_cif.got.tgz:45910.got - 2010.06.03 11:33:40.
