data_PCOD9033286
_publ_section_title
;
Structure prediction by ZEFSAII (Michael W. Deem and Ramdas Pophale) SiO2 
 PCOD9033286
Probable space group: P -1
;
_chemical_formula_sum "Si O2"
_cell_formula_units_Z 14
_cell_length_a 6.810709
_cell_length_b 14.710137
_cell_length_c 10.244812
_cell_angle_alpha 131.560064
_cell_angle_beta 118.101270
_cell_angle_gamma 44.312841
_cell_volume 536.498821
_symmetry_space_group_name_H-M "P -1"
_symmetry_group_IT_number 2
_symmetry_cell_setting 'triclinic'
loop_
_space_group_symop_operation_xyz
x,y,z
-x,-y,-z
loop_
_atom_site_type_symbol
_atom_site_label
_atom_site_fract_x
_atom_site_fract_y
_atom_site_fract_z
Si Si1 0.927745 0.405746 0.632451
Si Si2 0.969273 0.631599 0.741827
Si Si3 0.231673 0.675632 0.086714
Si Si4 0.790015 0.926556 0.339569
Si Si5 0.475052 0.843729 0.282632
Si Si6 0.685681 0.298939 0.260911
Si Si7 0.618333 0.088322 0.173815
O O1 0.793663 0.329241 0.456663
O O2 0.645023 0.568427 0.748597
O O3 0.043821 0.465518 0.619631
O O4 0.206385 0.286261 0.688602
O O5 0.152088 0.669151 0.758876
O O6 0.652111 0.746564 0.707933
O O7 0.995262 0.678172 0.940948
O O8 0.332856 0.764294 0.131672
O O9 0.096296 0.760879 0.263768
O O10 0.500000 0.500000 0.000000
O O11 0.536699 0.912617 0.248214
O O12 0.705667 0.030469 0.540222
O O13 0.778868 0.006061 0.278740
O O14 0.749290 0.135927 0.152928
O O15 0.500000 0.000000 0.000000
#
# Coordination Sequence:
#
# PCOD9033286 Si02
#       7
#     2   2   2   2   2   2   2
#     4  10  22  44  67 104 135 177 241 287 340 414
#     4  11  23  43  70 103 138 180 232 290 349 410
#     4  12  26  44  70 106 141 185 228 292 352 416
#     4  11  27  48  69 100 145 184 240 282 347 418
#     4  11  26  46  73 101 140 192 229 290 345 419
#     4  10  24  40  71 102 135 187 227 289 355 402
#     4  11  24  45  68 102 142 181 233 293 336 421
#
# _framework density 26.095116999999998
#
# number of rings (size 3 to 8) (size 9 to 14) (size 15 to 20)
#    0.000    1.143    2.857    1.714    4.000    8.000 
#    0.000    0.000    0.000    0.000    0.000    0.000 
#    0.000    0.000    0.000    0.000    0.000    0.000 
#
# Total GULP energy -78199.948327 kJ/mol
# GULP energy per Si atom -5585.710595 kJ/mol
# Density = 2.603572 g / cm^3
# Si number density = 26.095117 Si / 1000 Ang^3
#
#
#
# Elastic Constant Matrix: (Units=GPa)
#
#
# Indices 1 2 3 4 5 6 
#
# 1 168.9157 38.2800 46.3004 12.2632 25.8971 13.6974
# 2 38.2800 98.1103 23.3854 12.7965 -10.4655 -10.7414
# 3 46.3004 23.3854 66.1666 18.1676 17.0363 2.9190
# 4 12.2632 12.7965 18.1676 28.9134 -0.7856 11.4131
# 5 25.8971 -10.4655 17.0363 -0.7856 55.2288 9.9625
# 6 13.6974 -10.7414 2.9190 11.4131 9.9625 47.0240
#
#
#
# Elastic Compliance Matrix: (Units=1/GPa)
#
#
# Indices 1 2 3 4 5 6 
#
# 1 0.008295 -0.002953 -0.004393 0.001519 -0.002597 -0.002637
# 2 -0.002953 0.013477 -0.002591 -0.004726 0.003872 0.004426
# 3 -0.004393 -0.002591 0.024639 -0.014280 -0.006974 0.004102
# 4 0.001519 -0.004726 -0.014280 0.050799 0.006091 -0.014255
# 5 -0.002597 0.003872 -0.006974 0.006091 0.023070 -0.004292
# 6 -0.002637 0.004426 0.004102 -0.014255 -0.004292 0.027159
#
#
# Mechanical properties :
#
#
# Convention : Reuss Voigt Hill
#
# Bulk Modulus (GPa) = 37.68502 61.01381 49.34942
# Shear Modulus (GPa) = 28.38339 41.24837 34.81588
#
# Velocity S-wave (km/s) = 3.30159 3.98011 3.65662
# Velocity P-wave (km/s) = 5.38579 6.67486 6.06467
#
# Compressibility (1/GPa) = 0.02653574
#
# Stress axis : x y z
#
# Youngs Moduli (GPa) = 120.55169 74.20310 40.58599
#
# Poissons Ratio (x) = 0.21915 0.17829
# Poissons Ratio (y) = 0.35603 0.10517
# Poissons Ratio (z) = 0.52959 0.19227
#
# Static dielectric constant tensor:
#      x y z
#    x 2.125720 0.056020 -0.042060 
#    y 0.056020 2.145380 0.048090 
#    z -0.042060 0.048090 2.106340 
# 
# From -- ./inp_files/365410.got.cif
#   From: 2010.05.17/outbox.cif.g08.bks.cpg/sg2_183_cif.got.tgz:365410.got - 2010.06.03 11:33:40.
