data_PCOD9033485
_publ_section_title
;
Structure prediction by ZEFSAII (Michael W. Deem and Ramdas Pophale) SiO2 
 PCOD9033485
Probable space group: P -1
;
_chemical_formula_sum "Si O2"
_cell_formula_units_Z 16
_cell_length_a 12.299198
_cell_length_b 5.424946
_cell_length_c 15.307227
_cell_angle_alpha 75.509872
_cell_angle_beta 130.816340
_cell_angle_gamma 76.575580
_cell_volume 629.853732
_symmetry_space_group_name_H-M "P -1"
_symmetry_group_IT_number 2
_symmetry_cell_setting 'triclinic'
loop_
_space_group_symop_operation_xyz
x,y,z
-x,-y,-z
loop_
_atom_site_type_symbol
_atom_site_label
_atom_site_fract_x
_atom_site_fract_y
_atom_site_fract_z
Si Si1 0.610380 0.949798 0.221446
Si Si2 0.924765 0.994573 0.365794
Si Si3 0.272635 0.572191 0.920487
Si Si4 0.744920 0.268382 0.551943
Si Si5 0.071724 0.389647 0.951277
Si Si6 0.259438 0.316637 0.339332
Si Si7 0.641985 0.212371 0.907815
Si Si8 0.485108 0.243334 0.308159
O O1 0.799623 0.869471 0.311701
O O2 0.592267 0.996845 0.313200
O O3 0.544016 0.731626 0.185991
O O4 0.460179 0.262276 0.064065
O O5 0.802273 0.320883 0.224632
O O6 0.000000 0.000000 0.500000
O O7 0.085888 0.808034 0.403177
O O8 0.130958 0.558771 0.903389
O O9 0.285436 0.833453 0.952513
O O10 0.697736 0.522034 0.577103
O O11 0.591779 0.369742 0.395391
O O12 0.766135 0.953274 0.623225
O O13 0.916504 0.407463 0.817152
O O14 0.000000 0.500000 0.000000
O O15 0.242355 0.061698 0.070811
O O16 0.397473 0.182625 0.346158
O O17 0.650719 0.482099 0.847344
#
# Coordination Sequence:
#
# PCOD9033485 Si02
#       8
#     2   2   2   2   2   2   2   2
#     4  10  23  44  73 107 145 199 250 315 380 453
#     4  12  24  47  74 104 153 199 261 318 378 454
#     4  10  22  44  68 104 146 190 253 312 383 452
#     4  12  28  49  73 111 153 204 253 314 386 456
#     4  11  23  41  72 108 146 193 248 320 379 455
#     4  12  27  47  77 108 155 198 252 318 388 455
#     4  10  23  42  71 105 147 189 257 308 380 457
#     4  11  25  45  73 109 148 199 252 309 383 464
#
# _framework density 25.402723000000002
#
# number of rings (size 3 to 8) (size 9 to 14) (size 15 to 20)
#    0.000    1.000    2.500    4.125    5.250    1.500 
#    4.500    1.250    0.000    0.000    0.000    0.000 
#    0.000    0.000    0.000    0.000    0.000    0.000 
#
# Total GULP energy -89429.204060 kJ/mol
# GULP energy per Si atom -5589.325254 kJ/mol
# Density = 2.534491 g / cm^3
# Si number density = 25.402723 Si / 1000 Ang^3
#
#
#
# Elastic Constant Matrix: (Units=GPa)
#
#
# Indices 1 2 3 4 5 6 
#
# 1 182.6983 44.3118 36.8559 8.3199 1.1783 -2.3222
# 2 44.3118 73.4696 13.0069 9.7354 -14.8477 -1.4548
# 3 36.8559 13.0069 126.4846 19.0551 -7.6846 1.2201
# 4 8.3199 9.7354 19.0551 27.1191 5.7121 -4.2013
# 5 1.1783 -14.8477 -7.6846 5.7121 43.8037 8.0668
# 6 -2.3222 -1.4548 1.2201 -4.2013 8.0668 28.5374
#
#
#
# Elastic Compliance Matrix: (Units=1/GPa)
#
#
# Indices 1 2 3 4 5 6 
#
# 1 0.006929 -0.004531 -0.001965 0.001628 -0.002532 0.001372
# 2 -0.004531 0.018895 0.001196 -0.008482 0.008410 -0.003083
# 3 -0.001965 0.001196 0.009801 -0.007918 0.003714 -0.002733
# 4 0.001628 -0.008482 -0.007918 0.049360 -0.012754 0.010911
# 5 -0.002532 0.008410 0.003714 -0.012754 0.029956 -0.010282
# 6 0.001372 -0.003083 -0.002733 0.010911 -0.010282 0.039626
#
#
# Mechanical properties :
#
#
# Convention : Reuss Voigt Hill
#
# Bulk Modulus (GPa) = 39.96341 63.44462 51.70401
# Shear Modulus (GPa) = 28.81707 39.12390 33.97048
#
# Velocity S-wave (km/s) = 3.37175 3.92873 3.66085
# Velocity P-wave (km/s) = 5.56097 6.75349 6.18603
#
# Compressibility (1/GPa) = 0.02502289
#
# Stress axis : x y z
#
# Youngs Moduli (GPa) = 144.32967 52.92479 102.03380
#
# Poissons Ratio (x) = 0.23981 0.20052
# Poissons Ratio (y) = 0.65398 -0.12201
# Poissons Ratio (z) = 0.28364 -0.06329
#
# Static dielectric constant tensor:
#      x y z
#    x 1.974390 0.039130 -0.016040 
#    y 0.039130 2.032690 -0.056640 
#    z -0.016040 -0.056640 2.108800 
# 
# From -- ./inp_files/510839.got.cif
#   From: 2010.05.17/outbox.cif.g08.bks.cpg/sg2_256_cif.got.tgz:510839.got - 2010.06.03 11:33:40.
