data_PCOD9033122
_publ_section_title
;
Structure prediction by ZEFSAII (Michael W. Deem and Ramdas Pophale) SiO2 
 PCOD9033122
Probable space group: P -1
;
_chemical_formula_sum "Si O2"
_cell_formula_units_Z 16
_cell_length_a 9.306928
_cell_length_b 27.156735
_cell_length_c 19.306835
_cell_angle_alpha 162.264288
_cell_angle_beta 150.749877
_cell_angle_gamma 33.743341
_cell_volume 726.330983
_symmetry_space_group_name_H-M "P -1"
_symmetry_group_IT_number 2
_symmetry_cell_setting 'triclinic'
loop_
_space_group_symop_operation_xyz
x,y,z
-x,-y,-z
loop_
_atom_site_type_symbol
_atom_site_label
_atom_site_fract_x
_atom_site_fract_y
_atom_site_fract_z
Si Si1 0.661915 0.907065 0.504970
Si Si2 0.431044 0.788017 0.783865
Si Si3 0.248872 0.745807 0.797255
Si Si4 0.858421 0.318730 0.626576
Si Si5 0.463484 0.359764 0.087561
Si Si6 0.349429 0.170440 0.281911
Si Si7 0.986815 0.773653 0.919383
Si Si8 0.680306 0.969397 0.355358
O O1 0.809462 0.743377 0.321434
O O2 0.500000 0.000000 0.500000
O O3 0.911743 0.041967 0.805652
O O4 0.459983 0.894720 0.471733
O O5 0.330803 0.698995 0.691673
O O6 0.264999 0.734881 0.573258
O O7 0.779518 0.766808 0.888866
O O8 0.366667 0.978254 0.022654
O O9 0.367029 0.624795 0.745283
O O10 0.901514 0.782608 0.705881
O O11 0.437719 0.908132 0.115124
O O12 0.771794 0.504525 0.844160
O O13 0.683147 0.231413 0.498613
O O14 0.727795 0.338441 0.115429
O O15 0.307167 0.187756 0.800536
O O16 0.214168 0.258673 0.275048
O O17 0.000000 0.000000 0.500000
#
# Coordination Sequence:
#
# PCOD9033122 Si02
#       8
#     2   2   2   2   2   2   2   2
#     4  11  21  35  59  83 102 146 203 236 267 326
#     4  11  18  29  58  85 118 145 186 226 270 338
#     4   9  20  33  53  86 118 146 192 215 283 344
#     4  11  20  36  58  83 119 145 184 240 277 325
#     4   8  20  37  54  80 118 149 187 219 295 329
#     4  10  17  32  55  81 118 146 182 225 285 325
#     4   9  17  35  50  81 111 145 190 223 272 334
#     4   9  20  40  56  75 116 155 183 226 278 331
#
# _framework density 22.028524000000001
#
# number of rings (size 3 to 8) (size 9 to 14) (size 15 to 20)
#    0.750    1.500    3.750    1.125    1.750    5.000 
#    0.000    3.125    0.000    0.000    0.000    0.000 
#    0.000    0.000    0.000    0.000    0.000    0.000 
#
# Total GULP energy -89179.265264 kJ/mol
# GULP energy per Si atom -5573.704079 kJ/mol
# Density = 2.197839 g / cm^3
# Si number density = 22.028524 Si / 1000 Ang^3
#
#
#
# Elastic Constant Matrix: (Units=GPa)
#
#
# Indices 1 2 3 4 5 6 
#
# 1 157.2816 52.7474 11.2085 -9.2802 13.6276 -41.3988
# 2 52.7474 122.0626 18.5246 16.6142 -6.6460 -31.5253
# 3 11.2085 18.5246 24.7835 9.0142 -1.1879 -11.0449
# 4 -9.2802 16.6142 9.0142 32.7946 -10.0322 -9.3399
# 5 13.6276 -6.6460 -1.1879 -10.0322 13.4169 -3.3391
# 6 -41.3988 -31.5253 -11.0449 -9.3399 -3.3391 40.2029
#
#
#
# Elastic Compliance Matrix: (Units=1/GPa)
#
#
# Indices 1 2 3 4 5 6 
#
# 1 0.010780 -0.003301 -0.000685 0.005618 -0.006175 0.009116
# 2 -0.003301 0.012436 -0.004283 -0.001623 0.009306 0.005571
# 3 -0.000685 -0.004283 0.050858 -0.011039 -0.003420 0.007060
# 4 0.005618 -0.001623 -0.011039 0.051248 0.034884 0.016283
# 5 -0.006175 0.009306 -0.003420 0.034884 0.115602 0.017705
# 6 0.009116 0.005571 0.007060 0.016283 0.017705 0.045823
#
#
# Mechanical properties :
#
#
# Convention : Reuss Voigt Hill
#
# Bulk Modulus (GPa) = 17.38027 52.12096 34.75061
# Shear Modulus (GPa) = 15.50569 32.05935 23.78252
#
# Velocity S-wave (km/s) = 2.65597 3.81905 3.28933
# Velocity P-wave (km/s) = 4.16084 6.56954 5.49871
#
# Compressibility (1/GPa) = 0.05753651
#
# Stress axis : x y z
#
# Youngs Moduli (GPa) = 92.76459 80.41486 19.66275
#
# Poissons Ratio (x) = 0.26544 0.01346
# Poissons Ratio (y) = 0.30621 0.08421
# Poissons Ratio (z) = 0.06352 0.34439
#
# Static dielectric constant tensor:
#      x y z
#    x 1.846370 -0.009550 0.003350 
#    y -0.009550 1.918160 -0.113520 
#    z 0.003350 -0.113520 1.971880 
# 
# From -- ./inp_files/592110.got.cif
#   From: 2010.05.17/outbox.cif.g08.bks.cpg/sg2_297_cif.got.tgz:592110.got - 2010.06.03 11:33:40.
