data_PCOD9033651
_publ_section_title
;
Structure prediction by ZEFSAII (Michael W. Deem and Ramdas Pophale) SiO2 
 PCOD9033651
Probable space group: P -1
;
_chemical_formula_sum "Si O2"
_cell_formula_units_Z 13
_cell_length_a 13.252328
_cell_length_b 11.634249
_cell_length_c 8.936440
_cell_angle_alpha 110.161003
_cell_angle_beta 88.736415
_cell_angle_gamma 31.425629
_cell_volume 514.801862
_symmetry_space_group_name_H-M "P -1"
_symmetry_group_IT_number 2
_symmetry_cell_setting 'triclinic'
loop_
_space_group_symop_operation_xyz
x,y,z
-x,-y,-z
loop_
_atom_site_type_symbol
_atom_site_label
_atom_site_fract_x
_atom_site_fract_y
_atom_site_fract_z
Si Si1 0.868854 0.842526 0.643180
Si Si2 0.412103 0.458589 0.126897
Si Si3 0.596693 0.263217 0.608795
Si Si4 0.777346 0.696387 0.422888
Si Si5 0.641471 0.107728 0.224348
Si Si6 0.095294 0.780607 0.998704
Si Si7 0.000000 0.500000 0.000000
O O1 0.774099 0.811444 0.593838
O O2 0.119435 0.537022 0.593437
O O3 0.856456 0.922568 0.518171
O O4 0.663637 0.149608 0.881809
O O5 0.430307 0.568592 0.257501
O O6 0.433322 0.337205 0.204823
O O7 0.173584 0.724597 0.142545
O O8 0.567728 0.274955 0.440878
O O9 0.364429 0.445757 0.769569
O O10 0.500000 0.000000 0.500000
O O11 0.962349 0.518627 0.195918
O O12 0.891325 0.901362 0.063531
O O13 0.739554 0.869650 0.170809
O O14 0.000000 0.000000 0.000000
#
# Coordination Sequence:
#
# PCOD9033651 Si02
#       7
#     2   2   2   2   2   2   1
#     4  10  22  44  69 102 136 178 237 285 349 419
#     4  11  24  44  71 104 144 176 232 295 347 421
#     4  11  24  47  70 104 144 183 227 300 352 418
#     4  11  25  47  72  96 136 190 238 285 349 412
#     4  12  26  48  68 103 147 181 241 289 350 418
#     4  11  25  44  73 103 138 189 231 280 359 421
#     4  12  26  46  70 102 142 186 234 300 328 418
#
# _framework density 25.252434000000001
#
# number of rings (size 3 to 8) (size 9 to 14) (size 15 to 20)
#    0.000    0.923    4.615    2.308    4.308    0.615 
#    2.769    3.846    0.000    0.000    0.000    0.000 
#    0.000    0.000    0.000    0.000    0.000    0.000 
#
# Total GULP energy -72439.149753 kJ/mol
# GULP energy per Si atom -5572.242289 kJ/mol
# Density = 2.519496 g / cm^3
# Si number density = 25.252434 Si / 1000 Ang^3
#
#
#
# Elastic Constant Matrix: (Units=GPa)
#
#
# Indices 1 2 3 4 5 6 
#
# 1 26.5393 18.1339 15.4578 6.1170 2.6404 -11.5102
# 2 18.1339 229.1220 17.3812 -5.0012 7.5206 4.1860
# 3 15.4578 17.3812 82.9754 -9.9795 10.0140 -6.9164
# 4 6.1170 -5.0012 -9.9795 50.9911 3.6673 4.0237
# 5 2.6404 7.5206 10.0140 3.6673 37.7550 0.6564
# 6 -11.5102 4.1860 -6.9164 4.0237 0.6564 47.2734
#
#
#
# Elastic Compliance Matrix: (Units=1/GPa)
#
#
# Indices 1 2 3 4 5 6 
#
# 1 0.053588 -0.003992 -0.009263 -0.009664 0.000219 0.012865
# 2 -0.003992 0.004767 -0.000165 0.001083 -0.000706 -0.001501
# 3 -0.009263 -0.000165 0.014731 0.004271 -0.003635 -0.000399
# 4 -0.009664 0.001083 0.004271 0.022202 -0.002765 -0.003675
# 5 0.000219 -0.000706 -0.003635 -0.002765 0.027854 -0.000567
# 6 0.012865 -0.001501 -0.000399 -0.003675 -0.000567 0.024681
#
#
# Mechanical properties :
#
#
# Convention : Reuss Voigt Hill
#
# Bulk Modulus (GPa) = 21.62299 48.95362 35.28830
# Shear Modulus (GPa) = 26.30492 46.38149 36.34320
#
# Velocity S-wave (km/s) = 3.23101 4.29034 3.79779
# Velocity P-wave (km/s) = 4.74347 6.63102 5.76502
#
# Compressibility (1/GPa) = 0.04624708
#
# Stress axis : x y z
#
# Youngs Moduli (GPa) = 18.66083 209.76985 67.88404
#
# Poissons Ratio (x) = 0.83735 0.62883
# Poissons Ratio (y) = 0.07449 0.01117
# Poissons Ratio (z) = 0.17286 0.03451
#
# Static dielectric constant tensor:
#      x y z
#    x 2.005240 0.007190 -0.006300 
#    y 0.007190 2.098340 -0.042310 
#    z -0.006300 -0.042310 2.032450 
# 
# From -- ./inp_files/305563.got.cif
#   From: 2010.05.17/outbox.cif.g08.bks.cpg/sg2_153_cif.got.tgz:305563.got - 2010.06.03 11:33:40.
