data_PCOD9033616
_publ_section_title
;
Structure prediction by ZEFSAII (Michael W. Deem and Ramdas Pophale) SiO2 
 PCOD9033616
Probable space group: P -1
;
_chemical_formula_sum "Si O2"
_cell_formula_units_Z 16
_cell_length_a 16.004620
_cell_length_b 15.816176
_cell_length_c 8.017846
_cell_angle_alpha 102.207488
_cell_angle_beta 118.598272
_cell_angle_gamma 27.356658
_cell_volume 694.589021
_symmetry_space_group_name_H-M "P -1"
_symmetry_group_IT_number 2
_symmetry_cell_setting 'triclinic'
loop_
_space_group_symop_operation_xyz
x,y,z
-x,-y,-z
loop_
_atom_site_type_symbol
_atom_site_label
_atom_site_fract_x
_atom_site_fract_y
_atom_site_fract_z
Si Si1 0.093261 0.082821 0.658460
Si Si2 0.597329 0.477558 0.232494
Si Si3 0.949828 0.271576 0.960676
Si Si4 0.159364 0.311902 0.698055
Si Si5 0.092944 0.516838 0.145796
Si Si6 0.403508 0.689423 0.654972
Si Si7 0.798790 0.094961 0.806929
Si Si8 0.525322 0.105387 0.205416
O O1 0.873051 0.271520 0.398144
O O2 0.989388 0.195037 0.785044
O O3 0.221594 0.882702 0.695538
O O4 0.299904 0.974567 0.751668
O O5 0.588572 0.419438 0.357282
O O6 0.423713 0.701190 0.198115
O O7 0.500000 0.500000 0.000000
O O8 0.009211 0.322305 0.002745
O O9 0.674443 0.496058 0.846743
O O10 0.101137 0.084572 0.148048
O O11 0.000000 0.500000 0.500000
O O12 0.993102 0.401218 0.712779
O O13 0.321836 0.104511 0.677726
O O14 0.338371 0.223791 0.938883
O O15 0.374445 0.276795 0.278332
O O16 0.000000 0.500000 0.000000
O O17 0.295062 0.809007 0.426857
O O18 0.000000 0.000000 0.000000
#
# Coordination Sequence:
#
# PCOD9033616 Si02
#       8
#     2   2   2   2   2   2   2   2
#     4  12  24  44  69 102 142 189 240 294 350 424
#     4  12  25  46  71 102 145 195 242 295 361 425
#     4  12  24  46  71 102 140 186 240 300 355 428
#     4  10  22  45  73 104 136 177 230 291 358 431
#     4  10  22  46  71  99 140 185 228 288 360 424
#     4  12  25  47  68 100 145 182 240 299 351 429
#     4  12  24  44  72 101 138 190 238 297 362 414
#     4  10  22  44  68  99 142 177 228 292 353 419
#
# _framework density 23.035205000000001
#
# number of rings (size 3 to 8) (size 9 to 14) (size 15 to 20)
#    0.000    0.750    5.000    3.000    0.000    0.500 
#   11.250    0.000    0.000    0.000    0.000    0.000 
#    0.000    0.000    0.000    0.000    0.000    0.000 
#
# Total GULP energy -89543.340775 kJ/mol
# GULP energy per Si atom -5596.458798 kJ/mol
# Density = 2.298278 g / cm^3
# Si number density = 23.035205 Si / 1000 Ang^3
#
#
#
# Elastic Constant Matrix: (Units=GPa)
#
#
# Indices 1 2 3 4 5 6 
#
# 1 111.4381 17.6404 33.9049 -21.8680 -11.6466 14.0997
# 2 17.6404 125.8762 30.0069 -29.8595 -5.3190 3.4492
# 3 33.9049 30.0069 95.0213 -29.5904 -24.5404 6.9887
# 4 -21.8680 -29.8595 -29.5904 37.4438 4.2786 -6.0476
# 5 -11.6466 -5.3190 -24.5404 4.2786 36.2914 -17.9705
# 6 14.0997 3.4492 6.9887 -6.0476 -17.9705 43.5928
#
#
#
# Elastic Compliance Matrix: (Units=1/GPa)
#
#
# Indices 1 2 3 4 5 6 
#
# 1 0.010820 0.000098 -0.002399 0.004082 0.000147 -0.002496
# 2 0.000098 0.009861 -0.000839 0.007299 0.000270 0.000446
# 3 -0.002399 -0.000839 0.018063 0.011548 0.012233 0.004592
# 4 0.004082 0.007299 0.011548 0.044049 0.007746 0.005555
# 5 0.000147 0.000270 0.012233 0.007746 0.043383 0.016928
# 6 -0.002496 0.000446 0.004592 0.005555 0.016928 0.030725
#
#
# Mechanical properties :
#
#
# Convention : Reuss Voigt Hill
#
# Bulk Modulus (GPa) = 30.80305 55.04888 42.92597
# Shear Modulus (GPa) = 28.73524 40.18448 34.45986
#
# Velocity S-wave (km/s) = 3.53576 4.18123 3.87197
# Velocity P-wave (km/s) = 5.48361 6.87458 6.21811
#
# Compressibility (1/GPa) = 0.03246432
#
# Stress axis : x y z
#
# Youngs Moduli (GPa) = 92.42042 101.40683 55.36250
#
# Poissons Ratio (x) = -0.00998 0.13282
# Poissons Ratio (y) = -0.00910 0.04647
# Poissons Ratio (z) = 0.22172 0.08511
#
# Static dielectric constant tensor:
#      x y z
#    x 1.887740 0.003080 0.003100 
#    y 0.003080 1.959280 0.022220 
#    z 0.003100 0.022220 1.860670 
# 
# From -- ./inp_files/315278.got.cif
#   From: 2010.05.17/outbox.cif.g08.bks.cpg/sg2_158_cif.got.tgz:315278.got - 2010.06.03 11:33:40.
