data_PCOD9033047
_publ_section_title
;
Structure prediction by ZEFSAII (Michael W. Deem and Ramdas Pophale) SiO2 
 PCOD9033047
Probable space group: P -1
;
_chemical_formula_sum "Si O2"
_cell_formula_units_Z 12
_cell_length_a 4.971391
_cell_length_b 9.675986
_cell_length_c 14.788541
_cell_angle_alpha 40.568452
_cell_angle_beta 79.897415
_cell_angle_gamma 76.061902
_cell_volume 448.992746
_symmetry_space_group_name_H-M "P -1"
_symmetry_group_IT_number 2
_symmetry_cell_setting 'triclinic'
loop_
_space_group_symop_operation_xyz
x,y,z
-x,-y,-z
loop_
_atom_site_type_symbol
_atom_site_label
_atom_site_fract_x
_atom_site_fract_y
_atom_site_fract_z
Si Si1 0.458198 0.748789 0.128105
Si Si2 0.426488 0.208737 0.085326
Si Si3 0.797587 0.851232 0.481274
Si Si4 0.733063 0.541191 0.397000
Si Si5 0.737890 0.866686 0.682253
Si Si6 0.991614 0.079291 0.814288
O O1 0.590484 0.618032 0.271342
O O2 0.130049 0.800889 0.145266
O O3 0.602048 0.653196 0.074172
O O4 0.500000 0.000000 0.000000
O O5 0.327370 0.280555 0.156151
O O6 0.251692 0.013313 0.176380
O O7 0.752655 0.115912 0.103925
O O8 0.513422 0.927770 0.406242
O O9 0.026705 0.655746 0.536434
O O10 0.965921 0.054081 0.368337
O O11 0.720063 0.788429 0.619392
O O12 0.500000 0.500000 0.500000
O O13 0.878580 0.732609 0.331362
#
# Coordination Sequence:
#
# PCOD9033047 Si02
#       6
#     2   2   2   2   2   2
#     4  10  23  41  61  95 132 174 208 257 322 394
#     4  11  22  38  70  89 125 172 222 253 314 388
#     4  10  24  42  64  91 131 168 214 268 314 380
#     4  12  26  41  65 101 137 167 211 270 332 380
#     4  10  22  44  65  90 122 175 222 257 315 380
#     4  11  22  40  59  97 130 165 206 264 318 383
#
# _framework density 26.726489000000001
#
# number of rings (size 3 to 8) (size 9 to 14) (size 15 to 20)
#    0.000    1.333    3.333    2.500    7.000    0.667 
#    0.000    1.667    0.000    1.000    0.000    0.000 
#    0.000    0.000    0.000    0.000    0.000    0.000 
#
# Total GULP energy -67087.785130 kJ/mol
# GULP energy per Si atom -5590.648761 kJ/mol
# Density = 2.666566 g / cm^3
# Si number density = 26.726489 Si / 1000 Ang^3
#
#
#
# Elastic Constant Matrix: (Units=GPa)
#
#
# Indices 1 2 3 4 5 6 
#
# 1 134.3671 14.1532 37.3541 13.4396 -7.4180 -16.6823
# 2 14.1532 65.9807 45.2268 38.5750 -1.2598 -21.9635
# 3 37.3541 45.2268 191.1012 75.1648 -1.2199 -13.0239
# 4 13.4396 38.5750 75.1648 61.5197 -6.4735 -9.4056
# 5 -7.4180 -1.2598 -1.2199 -6.4735 41.2523 8.7575
# 6 -16.6823 -21.9635 -13.0239 -9.4056 8.7575 34.6651
#
#
#
# Elastic Compliance Matrix: (Units=1/GPa)
#
#
# Indices 1 2 3 4 5 6 
#
# 1 0.008304 0.000025 -0.001757 0.000926 0.000869 0.003383
# 2 0.000025 0.030520 0.001191 -0.018705 -0.005377 0.016080
# 3 -0.001757 0.001191 0.010632 -0.013465 -0.002252 0.000819
# 4 0.000926 -0.018705 -0.013465 0.044039 0.007467 -0.006402
# 5 0.000869 -0.005377 -0.002252 0.007467 0.027180 -0.008675
# 6 0.003383 0.016080 0.000819 -0.006402 -0.008675 0.041426
#
#
# Mechanical properties :
#
#
# Convention : Reuss Voigt Hill
#
# Bulk Modulus (GPa) = 20.67302 64.99080 42.83191
# Shear Modulus (GPa) = 27.88504 47.13510 37.51007
#
# Velocity S-wave (km/s) = 3.23359 4.20409 3.75037
# Velocity P-wave (km/s) = 4.65761 6.92356 5.90038
#
# Compressibility (1/GPa) = 0.04837222
#
# Stress axis : x y z
#
# Youngs Moduli (GPa) = 120.43041 32.76548 94.05713
#
# Poissons Ratio (x) = -0.00081 0.16526
# Poissons Ratio (y) = -0.00296 -0.11201
# Poissons Ratio (z) = 0.21159 -0.03902
#
# Static dielectric constant tensor:
#      x y z
#    x 2.099310 0.067810 0.036520 
#    y 0.067810 2.268460 0.071450 
#    z 0.036520 0.071450 2.221630 
# 
# From -- ./inp_files/480946.got.cif
#   From: 2010.05.17/outbox.cif.g08.bks.cpg/sg2_241_cif.got.tgz:480946.got - 2010.06.03 11:33:40.
