data_PCOD9033569
_publ_section_title
;
Structure prediction by ZEFSAII (Michael W. Deem and Ramdas Pophale) SiO2 
 PCOD9033569
Probable space group: P -1
;
_chemical_formula_sum "Si O2"
_cell_formula_units_Z 16
_cell_length_a 13.492720
_cell_length_b 19.226648
_cell_length_c 14.790971
_cell_angle_alpha 153.458360
_cell_angle_beta 45.315784
_cell_angle_gamma 151.850672
_cell_volume 739.210901
_symmetry_space_group_name_H-M "P -1"
_symmetry_group_IT_number 2
_symmetry_cell_setting 'triclinic'
loop_
_space_group_symop_operation_xyz
x,y,z
-x,-y,-z
loop_
_atom_site_type_symbol
_atom_site_label
_atom_site_fract_x
_atom_site_fract_y
_atom_site_fract_z
Si Si1 0.635993 0.306058 0.532884
Si Si2 0.468375 0.817234 0.863293
Si Si3 0.766634 0.892866 0.024621
Si Si4 0.207997 0.755078 0.108668
Si Si5 0.130575 0.762363 0.787073
Si Si6 0.483884 0.515034 0.920066
Si Si7 0.029256 0.899693 0.287213
Si Si8 0.481184 0.431647 0.535181
O O1 0.761882 0.314941 0.383569
O O2 0.542127 0.399798 0.699310
O O3 0.860844 0.517764 0.698929
O O4 0.406245 0.998150 0.330858
O O5 0.384557 0.612538 0.609651
O O6 0.308070 0.710482 0.927227
O O7 0.500000 0.000000 0.000000
O O8 0.719601 0.014414 0.975869
O O9 0.655312 0.786153 0.072398
O O10 0.584473 0.642812 0.785411
O O11 0.826220 0.106657 0.183216
O O12 0.000000 0.000000 0.000000
O O13 0.127989 0.827653 0.181451
O O14 0.000000 0.500000 0.000000
O O15 0.224270 0.342187 0.871169
O O16 0.500000 0.500000 0.000000
O O17 0.222323 0.153684 0.398887
O O18 0.000000 0.000000 0.500000
O O19 0.500000 0.500000 0.500000
#
# Coordination Sequence:
#
# PCOD9033569 Si02
#       8
#     2   2   2   2   2   2   2   2
#     4  10  22  44  68  97 136 180 226 284 348 408
#     4  11  24  43  71 105 138 178 236 288 343 417
#     4  12  25  45  71 103 140 185 233 286 348 417
#     4  11  25  44  71 102 137 182 235 284 354 420
#     4  10  23  42  73  99 136 179 232 285 348 407
#     4  12  28  45  68 102 144 184 231 283 355 419
#     4  12  25  45  70  97 142 187 225 289 356 407
#     4  12  26  43  72 109 137 178 240 292 345 414
#
# _framework density 21.644703
#
# number of rings (size 3 to 8) (size 9 to 14) (size 15 to 20)
#    0.000    0.750    6.250    0.000   10.500    0.000 
#    0.000    0.625    0.000    0.000    0.000    0.000 
#    0.000    0.000    0.000    0.000    0.000    0.000 
#
# Total GULP energy -89190.035536 kJ/mol
# GULP energy per Si atom -5574.377221 kJ/mol
# Density = 2.159544 g / cm^3
# Si number density = 21.644703 Si / 1000 Ang^3
#
#
#
# Elastic Constant Matrix: (Units=GPa)
#
#
# Indices 1 2 3 4 5 6 
#
# 1 98.3310 41.5688 15.2181 21.0029 5.6590 -7.2700
# 2 41.5688 138.4370 40.4728 34.0218 11.4042 -5.9453
# 3 15.2181 40.4728 65.8283 8.3788 -6.3603 3.4116
# 4 21.0029 34.0218 8.3788 51.2392 7.3503 -1.8496
# 5 5.6590 11.4042 -6.3603 7.3503 29.6583 3.9523
# 6 -7.2700 -5.9453 3.4116 -1.8496 3.9523 45.2574
#
#
#
# Elastic Compliance Matrix: (Units=1/GPa)
#
#
# Indices 1 2 3 4 5 6 
#
# 1 0.012201 -0.002432 -0.001144 -0.002976 -0.001128 0.001704
# 2 -0.002432 0.011446 -0.006364 -0.004877 -0.004329 0.001771
# 3 -0.001144 -0.006364 0.020218 0.000216 0.007371 -0.003179
# 4 -0.002976 -0.004877 0.000216 0.024462 -0.003597 0.000179
# 5 -0.001128 -0.004329 0.007371 -0.003597 0.038713 -0.004833
# 6 0.001704 0.001771 -0.003179 0.000179 -0.004833 0.023271
#
#
# Mechanical properties :
#
#
# Convention : Reuss Voigt Hill
#
# Bulk Modulus (GPa) = 41.69298 55.23508 48.46403
# Shear Modulus (GPa) = 31.60841 38.92010 35.26426
#
# Velocity S-wave (km/s) = 3.82557 4.24504 4.04075
# Velocity P-wave (km/s) = 6.23038 7.04284 6.64903
#
# Compressibility (1/GPa) = 0.02398485
#
# Stress axis : x y z
#
# Youngs Moduli (GPa) = 81.95794 87.36977 49.46157
#
# Poissons Ratio (x) = 0.21246 0.05658
# Poissons Ratio (y) = 0.19930 0.31478
# Poissons Ratio (z) = 0.09376 0.55604
#
# Static dielectric constant tensor:
#      x y z
#    x 1.882960 0.050810 0.001890 
#    y 0.050810 1.853670 -0.011360 
#    z 0.001890 -0.011360 1.891580 
# 
# From -- ./inp_files/523477.got.cif
#   From: 2010.05.17/outbox.cif.g08.bks.cpg/sg2_262_cif.got.tgz:523477.got - 2010.06.03 11:33:40.
