data_PCOD9033921
_publ_section_title
;
Structure prediction by ZEFSAII (Michael W. Deem and Ramdas Pophale) SiO2 
 PCOD9033921
Probable space group: P -1
;
_chemical_formula_sum "Si O2"
_cell_formula_units_Z 16
_cell_length_a 14.481354
_cell_length_b 14.782462
_cell_length_c 15.042952
_cell_angle_alpha 27.164147
_cell_angle_beta 30.366785
_cell_angle_gamma 32.487022
_cell_volume 701.915340
_symmetry_space_group_name_H-M "P -1"
_symmetry_group_IT_number 2
_symmetry_cell_setting 'triclinic'
loop_
_space_group_symop_operation_xyz
x,y,z
-x,-y,-z
loop_
_atom_site_type_symbol
_atom_site_label
_atom_site_fract_x
_atom_site_fract_y
_atom_site_fract_z
Si Si1 0.728950 0.829291 0.704624
Si Si2 0.685825 0.881755 0.894436
Si Si3 0.590648 0.078699 0.439498
Si Si4 0.235506 0.437408 0.457146
Si Si5 0.279594 0.550392 0.672389
Si Si6 0.033989 0.152025 0.763741
Si Si7 0.973777 0.111013 0.284933
Si Si8 0.054760 0.436647 0.800319
O O1 0.642032 0.894839 0.816116
O O2 0.582930 0.934999 0.655964
O O3 0.838363 0.582146 0.826483
O O4 0.901873 0.928572 0.468823
O O5 0.853305 0.960997 0.724504
O O6 0.744313 0.641129 0.083682
O O7 0.500000 0.000000 0.000000
O O8 0.814917 0.008334 0.287805
O O9 0.500000 0.000000 0.500000
O O10 0.465025 0.318222 0.356162
O O11 0.136249 0.301505 0.598001
O O12 0.178478 0.409450 0.631018
O O13 0.145509 0.678811 0.286981
O O14 0.500000 0.500000 0.500000
O O15 0.203967 0.736868 0.642686
O O16 0.145122 0.556928 0.692738
O O17 0.000000 0.000000 0.000000
O O18 0.040463 0.235076 0.042154
#
# Coordination Sequence:
#
# PCOD9033921 Si02
#       8
#     2   2   2   2   2   2   2   2
#     4  12  23  42  69  91 132 182 223 274 339 399
#     4  11  23  40  63  97 134 172 220 277 330 396
#     4  10  24  45  65  98 134 171 227 283 331 401
#     4  10  23  42  66  94 132 168 212 276 340 391
#     4  11  23  41  60  92 137 173 220 271 325 397
#     4  10  22  44  70  94 126 170 218 276 340 396
#     4  11  24  41  62  94 131 174 220 270 332 396
#     4  11  23  42  63  94 130 173 218 272 335 403
#
# _framework density 22.794772999999999
#
# number of rings (size 3 to 8) (size 9 to 14) (size 15 to 20)
#    0.000    1.250    3.750    1.875    8.750    0.500 
#    0.000    5.000    0.000    0.000    0.000    0.000 
#    0.000    0.000    0.000    0.000    0.000    0.000 
#
# Total GULP energy -89381.566084 kJ/mol
# GULP energy per Si atom -5586.347880 kJ/mol
# Density = 2.274289 g / cm^3
# Si number density = 22.794773 Si / 1000 Ang^3
#
#
#
# Elastic Constant Matrix: (Units=GPa)
#
#
# Indices 1 2 3 4 5 6 
#
# 1 111.2270 25.9398 27.9575 5.8516 46.2062 -7.5609
# 2 25.9398 138.3874 39.3908 19.6117 36.5689 -14.2120
# 3 27.9575 39.3908 90.1787 0.5156 36.7090 -2.0854
# 4 5.8516 19.6117 0.5156 37.5239 4.1364 11.2364
# 5 46.2062 36.5689 36.7090 4.1364 48.6263 -0.3187
# 6 -7.5609 -14.2120 -2.0854 11.2364 -0.3187 28.9029
#
#
#
# Elastic Compliance Matrix: (Units=1/GPa)
#
#
# Indices 1 2 3 4 5 6 
#
# 1 0.016205 0.002626 0.001339 -0.004029 -0.017996 0.006995
# 2 0.002626 0.011911 -0.002026 -0.008471 -0.009140 0.009590
# 3 0.001339 -0.002026 0.016616 0.002119 -0.012475 -0.000409
# 4 -0.004029 -0.008471 0.002119 0.036881 0.005335 -0.019346
# 5 -0.017996 -0.009140 -0.012475 0.005335 0.053427 -0.011587
# 6 0.006995 0.009590 -0.000409 -0.019346 -0.011587 0.048508
#
#
# Mechanical properties :
#
#
# Convention : Reuss Voigt Hill
#
# Bulk Modulus (GPa) = 20.57195 58.48548 39.52871
# Shear Modulus (GPa) = 25.52681 39.44428 32.48555
#
# Velocity S-wave (km/s) = 3.35005 4.16433 3.77919
# Velocity P-wave (km/s) = 4.89982 6.98823 6.03505
#
# Compressibility (1/GPa) = 0.04860988
#
# Stress axis : x y z
#
# Youngs Moduli (GPa) = 61.71003 83.95437 60.18386
#
# Poissons Ratio (x) = -0.22046 -0.08061
# Poissons Ratio (y) = -0.16204 0.12195
# Poissons Ratio (z) = -0.08265 0.17011
#
# Static dielectric constant tensor:
#      x y z
#    x 1.865930 -0.020900 0.004660 
#    y -0.020900 1.860430 0.013140 
#    z 0.004660 0.013140 1.863230 
# 
# From -- ./inp_files/492486.got.cif
#   From: 2010.05.17/outbox.cif.g08.bks.cpg/sg2_247_cif.got.tgz:492486.got - 2010.06.03 11:33:40.
