data_PCOD9033753
_publ_section_title
;
Structure prediction by ZEFSAII (Michael W. Deem and Ramdas Pophale) SiO2 
 PCOD9033753
Probable space group: P -1
;
_chemical_formula_sum "Si O2"
_cell_formula_units_Z 16
_cell_length_a 7.656077
_cell_length_b 19.978064
_cell_length_c 5.907330
_cell_angle_alpha 113.285884
_cell_angle_beta 114.804145
_cell_angle_gamma 54.905413
_cell_volume 656.476422
_symmetry_space_group_name_H-M "P -1"
_symmetry_group_IT_number 2
_symmetry_cell_setting 'triclinic'
loop_
_space_group_symop_operation_xyz
x,y,z
-x,-y,-z
loop_
_atom_site_type_symbol
_atom_site_label
_atom_site_fract_x
_atom_site_fract_y
_atom_site_fract_z
Si Si1 0.761677 0.934501 0.585939
Si Si2 0.577792 0.400732 0.416525
Si Si3 0.062344 0.760233 0.429423
Si Si4 0.366082 0.829378 0.559544
Si Si5 0.459068 0.296604 0.895920
Si Si6 0.188344 0.264189 0.088363
Si Si7 0.178260 0.405980 0.491654
Si Si8 0.252676 0.013069 0.853601
O O1 0.847104 0.835634 0.528960
O O2 0.500000 0.000000 0.500000
O O3 0.841060 0.937608 0.371736
O O4 0.837183 0.957773 0.897467
O O5 0.500000 0.500000 0.500000
O O6 0.821485 0.336032 0.557363
O O7 0.396913 0.394472 0.468946
O O8 0.566360 0.351051 0.122350
O O9 0.245795 0.789476 0.589059
O O10 0.982377 0.761045 0.131766
O O11 0.380617 0.787673 0.267691
O O12 0.261180 0.926310 0.682738
O O13 0.620454 0.795140 0.719239
O O14 0.333309 0.269625 0.969466
O O15 0.266499 0.363968 0.722305
O O16 0.071902 0.355268 0.251199
O O17 0.000000 0.500000 0.500000
O O18 0.500000 0.000000 0.000000
#
# Coordination Sequence:
#
# PCOD9033753 Si02
#       8
#     2   2   2   2   2   2   2   2
#     4  10  24  45  69 110 146 191 254 302 379 455
#     4  11  26  45  66 107 144 185 250 303 363 444
#     4  12  25  46  72 105 143 197 241 310 378 438
#     4  11  24  46  71 105 145 188 248 305 367 452
#     4  10  22  44  69  96 148 189 239 310 365 448
#     4  10  23  43  66 100 139 187 244 291 372 446
#     4  10  23  43  65  99 136 187 239 305 372 431
#     4  10  23  43  73 105 148 192 246 311 372 452
#
# _framework density 24.372544999999999
#
# number of rings (size 3 to 8) (size 9 to 14) (size 15 to 20)
#    0.000    1.500    3.750    1.500    8.750    4.500 
#    2.250    0.000    0.000    0.000    0.000    0.000 
#    0.000    0.000    0.000    0.000    0.000    0.000 
#
# Total GULP energy -89200.437632 kJ/mol
# GULP energy per Si atom -5575.027352 kJ/mol
# Density = 2.431707 g / cm^3
# Si number density = 24.372545 Si / 1000 Ang^3
#
#
#
# Elastic Constant Matrix: (Units=GPa)
#
#
# Indices 1 2 3 4 5 6 
#
# 1 70.9646 34.6462 39.2769 -10.4557 10.1988 8.5021
# 2 34.6462 153.2145 61.0962 27.8826 6.2940 -6.3614
# 3 39.2769 61.0962 165.9753 16.0915 1.8421 3.2486
# 4 -10.4557 27.8826 16.0915 26.0490 6.2416 -1.9841
# 5 10.1988 6.2940 1.8421 6.2416 42.8057 -1.8765
# 6 8.5021 -6.3614 3.2486 -1.9841 -1.8765 35.3089
#
#
#
# Elastic Compliance Matrix: (Units=1/GPa)
#
#
# Indices 1 2 3 4 5 6 
#
# 1 0.026838 -0.008280 -0.005465 0.024627 -0.008819 -0.006536
# 2 -0.008280 0.011632 -0.000907 -0.015605 0.002728 0.003441
# 3 -0.005465 -0.000907 0.008289 -0.006833 0.002080 0.000116
# 4 0.024627 -0.015605 -0.006833 0.072191 -0.014016 -0.004801
# 5 -0.008819 0.002728 0.002080 -0.014016 0.027151 0.003079
# 6 -0.006536 0.003441 0.000116 -0.004801 0.003079 0.030398
#
#
# Mechanical properties :
#
#
# Convention : Reuss Voigt Hill
#
# Bulk Modulus (GPa) = 57.29167 73.35479 65.32323
# Shear Modulus (GPa) = 23.62717 37.84171 30.73444
#
# Velocity S-wave (km/s) = 3.11692 3.94463 3.55495
# Velocity P-wave (km/s) = 6.04246 7.13508 6.61138
#
# Compressibility (1/GPa) = 0.01745454
#
# Stress axis : x y z
#
# Youngs Moduli (GPa) = 37.26104 85.97282 120.64119
#
# Poissons Ratio (x) = 0.71189 0.65926
# Poissons Ratio (y) = 0.30854 0.10940
# Poissons Ratio (z) = 0.20362 0.07796
#
# Static dielectric constant tensor:
#      x y z
#    x 1.978430 -0.027650 -0.058270 
#    y -0.027650 1.812160 -0.025540 
#    z -0.058270 -0.025540 1.974380 
# 
# From -- ./inp_files/53860.got.cif
#   From: 2010.05.17/outbox.cif.g08.bks.cpg/sg2_27_cif.got.tgz:53860.got - 2010.06.03 11:33:40.
