data_PCOD9033975
_publ_section_title
;
Structure prediction by ZEFSAII (Michael W. Deem and Ramdas Pophale) SiO2 
 PCOD9033975
Probable space group: P -1
;
_chemical_formula_sum "Si O2"
_cell_formula_units_Z 14
_cell_length_a 5.426168
_cell_length_b 21.215495
_cell_length_c 8.141828
_cell_angle_alpha 40.356998
_cell_angle_beta 76.084288
_cell_angle_gamma 75.342581
_cell_volume 585.478009
_symmetry_space_group_name_H-M "P -1"
_symmetry_group_IT_number 2
_symmetry_cell_setting 'triclinic'
loop_
_space_group_symop_operation_xyz
x,y,z
-x,-y,-z
loop_
_atom_site_type_symbol
_atom_site_label
_atom_site_fract_x
_atom_site_fract_y
_atom_site_fract_z
Si Si1 0.075431 0.099196 0.210337
Si Si2 0.894190 0.703542 0.996482
Si Si3 0.445807 0.382623 0.399339
Si Si4 0.627963 0.388234 0.685416
Si Si5 0.136882 0.559867 0.998029
Si Si6 0.401815 0.172437 0.762356
Si Si7 0.054696 0.888873 0.156987
O O1 0.903416 0.124341 0.022367
O O2 0.343071 0.097549 0.067564
O O3 0.000000 0.000000 0.500000
O O4 0.079037 0.184525 0.176336
O O5 0.119631 0.644583 0.188173
O O6 0.964022 0.653118 0.909676
O O7 0.604206 0.678350 0.116335
O O8 0.671526 0.376064 0.508679
O O9 0.233254 0.473269 0.281873
O O10 0.327806 0.281760 0.617919
O O11 0.595864 0.400926 0.173527
O O12 0.500000 0.500000 0.500000
O O13 0.000000 0.500000 0.000000
O O14 0.695891 0.159100 0.698727
O O15 0.210096 0.154592 0.683958
O O16 0.000000 0.000000 0.000000
#
# Coordination Sequence:
#
# PCOD9033975 Si02
#       7
#     2   2   2   2   2   2   2
#     4  10  25  45  69 102 137 179 230 290 340 402
#     4  12  26  46  67 106 137 186 233 282 347 408
#     4  11  24  44  66 100 140 181 228 283 346 420
#     4  12  23  42  74  99 133 182 232 280 341 423
#     4  11  27  43  66 102 144 183 227 288 348 412
#     4  10  23  42  70  99 131 176 228 274 343 406
#     4  10  22  44  70  98 130 173 229 281 338 401
#
# _framework density 23.912084
#
# number of rings (size 3 to 8) (size 9 to 14) (size 15 to 20)
#    0.857    0.286    2.857    2.571    6.000    1.714 
#    0.000    0.000    0.000    0.000    0.000    0.000 
#    0.000    0.000    0.000    0.000    0.000    0.000 
#
# Total GULP energy -78045.048133 kJ/mol
# GULP energy per Si atom -5574.646295 kJ/mol
# Density = 2.385766 g / cm^3
# Si number density = 23.912084 Si / 1000 Ang^3
#
#
#
# Elastic Constant Matrix: (Units=GPa)
#
#
# Indices 1 2 3 4 5 6 
#
# 1 134.8628 18.0155 17.2367 -5.0327 -0.6894 14.7417
# 2 18.0155 102.6132 14.1839 -30.0054 -12.4486 12.3166
# 3 17.2367 14.1839 76.6475 -26.7942 -16.3570 9.3470
# 4 -5.0327 -30.0054 -26.7942 25.0966 6.3042 -0.8155
# 5 -0.6894 -12.4486 -16.3570 6.3042 31.3458 -4.0722
# 6 14.7417 12.3166 9.3470 -0.8155 -4.0722 33.0565
#
#
#
# Elastic Compliance Matrix: (Units=1/GPa)
#
#
# Indices 1 2 3 4 5 6 
#
# 1 0.008144 -0.001853 -0.002586 -0.003017 -0.001622 -0.002484
# 2 -0.001853 0.019870 0.010383 0.032794 0.005632 -0.008010
# 3 -0.002586 0.010383 0.028837 0.039897 0.009965 -0.008657
# 4 -0.003017 0.032794 0.039897 0.118553 0.007556 -0.018299
# 5 -0.001622 0.005632 0.009965 0.007556 0.037869 0.000659
# 6 -0.002484 -0.008010 -0.008657 -0.018299 0.000659 0.036421
#
#
# Mechanical properties :
#
#
# Convention : Reuss Voigt Hill
#
# Bulk Modulus (GPa) = 14.54840 45.88839 30.21840
# Shear Modulus (GPa) = 19.17770 35.54560 27.36165
#
# Velocity S-wave (km/s) = 2.83505 3.85971 3.38636
# Velocity P-wave (km/s) = 4.10049 6.25262 5.28722
#
# Compressibility (1/GPa) = 0.06873609
#
# Stress axis : x y z
#
# Youngs Moduli (GPa) = 122.79382 50.32796 34.67817
#
# Poissons Ratio (x) = 0.09326 0.08969
# Poissons Ratio (y) = 0.22755 -0.36005
# Poissons Ratio (z) = 0.31760 -0.52254
#
# Static dielectric constant tensor:
#      x y z
#    x 1.951030 0.019990 -0.024790 
#    y 0.019990 2.029020 0.045860 
#    z -0.024790 0.045860 1.961220 
# 
# From -- ./inp_files/140439.got.cif
#   From: 2010.05.17/outbox.cif.g08.bks.cpg/sg2_71_cif.got.tgz:140439.got - 2010.06.03 11:33:40.
