data_PCOD9033686
_publ_section_title
;
Structure prediction by ZEFSAII (Michael W. Deem and Ramdas Pophale) SiO2 
 PCOD9033686
Probable space group: P -1
;
_chemical_formula_sum "Si O2"
_cell_formula_units_Z 16
_cell_length_a 9.316486
_cell_length_b 8.694241
_cell_length_c 14.425325
_cell_angle_alpha 46.924885
_cell_angle_beta 72.710526
_cell_angle_gamma 93.329019
_cell_volume 755.704484
_symmetry_space_group_name_H-M "P -1"
_symmetry_group_IT_number 2
_symmetry_cell_setting 'triclinic'
loop_
_space_group_symop_operation_xyz
x,y,z
-x,-y,-z
loop_
_atom_site_type_symbol
_atom_site_label
_atom_site_fract_x
_atom_site_fract_y
_atom_site_fract_z
Si Si1 0.656110 0.008702 0.906863
Si Si2 0.839323 0.297976 0.084837
Si Si3 0.753683 0.468216 0.382353
Si Si4 0.944167 0.208748 0.907399
Si Si5 0.435558 0.512902 0.903268
Si Si6 0.160741 0.146363 0.633055
Si Si7 0.546963 0.773485 0.587291
Si Si8 0.861737 0.248509 0.605527
O O1 0.819942 0.143693 0.874484
O O2 0.702809 0.144392 0.744523
O O3 0.500000 0.000000 0.000000
O O4 0.637447 0.749034 0.005936
O O5 0.694398 0.373088 0.106072
O O6 0.831753 0.074938 0.230215
O O7 0.850140 0.252837 0.993564
O O8 0.000000 0.500000 0.000000
O O9 0.774707 0.654275 0.383234
O O10 0.587726 0.393399 0.388728
O O11 0.791134 0.269958 0.510015
O O12 0.896618 0.579099 0.235959
O O13 0.000000 0.000000 0.000000
O O14 0.539903 0.661115 0.736375
O O15 0.500000 0.500000 0.000000
O O16 0.280592 0.194037 0.503686
O O17 0.976699 0.106092 0.655065
O O18 0.500000 0.000000 0.500000
O O19 0.000000 0.500000 0.500000
#
# Coordination Sequence:
#
# PCOD9033686 Si02
#       8
#     2   2   2   2   2   2   2   2
#     4  12  26  45  74 105 140 186 247 310 359 436
#     4  12  24  43  70 101 149 193 236 301 374 435
#     4  11  24  44  75 104 145 190 246 306 360 440
#     4  12  22  42  70 106 138 187 248 298 362 433
#     4  12  29  49  67 105 148 190 243 303 373 439
#     4  11  23  45  74 103 147 191 243 302 362 441
#     4  12  27  47  72 107 146 193 249 298 377 442
#     4  10  22  44  69 106 145 178 237 301 368 419
#
# _framework density 21.172298000000001
#
# number of rings (size 3 to 8) (size 9 to 14) (size 15 to 20)
#    0.000    0.500    5.000    4.125    5.250    2.000 
#    0.000    0.625    0.000    0.000    0.000    0.000 
#    0.000    0.000    0.000    0.000    0.000    0.000 
#
# Total GULP energy -89390.045026 kJ/mol
# GULP energy per Si atom -5586.877814 kJ/mol
# Density = 2.112411 g / cm^3
# Si number density = 21.172298 Si / 1000 Ang^3
#
#
#
# Elastic Constant Matrix: (Units=GPa)
#
#
# Indices 1 2 3 4 5 6 
#
# 1 67.0231 6.0463 21.5160 8.6754 8.7443 -11.1345
# 2 6.0463 82.1137 33.7169 3.4786 -0.7630 -20.8738
# 3 21.5160 33.7169 152.5323 24.6918 2.8305 -12.8876
# 4 8.6754 3.4786 24.6918 39.1219 -7.6362 -3.9139
# 5 8.7443 -0.7630 2.8305 -7.6362 38.6497 8.4214
# 6 -11.1345 -20.8738 -12.8876 -3.9139 8.4214 36.9540
#
#
#
# Elastic Compliance Matrix: (Units=1/GPa)
#
#
# Indices 1 2 3 4 5 6 
#
# 1 0.017595 0.001020 -0.001482 -0.003583 -0.005940 0.006335
# 2 0.001020 0.015395 -0.002949 0.000837 -0.001371 0.008376
# 3 -0.001482 -0.002949 0.008278 -0.004852 -0.001415 0.000583
# 4 -0.003583 0.000837 -0.004852 0.030716 0.007411 -0.000734
# 5 -0.005940 -0.001371 -0.001415 0.007411 0.030782 -0.009287
# 6 0.006335 0.008376 0.000583 -0.000734 -0.009287 0.035943
#
#
# Mechanical properties :
#
#
# Convention : Reuss Voigt Hill
#
# Bulk Modulus (GPa) = 29.03130 47.13639 38.08385
# Shear Modulus (GPa) = 31.84440 38.97110 35.40775
#
# Velocity S-wave (km/s) = 3.88243 4.29495 4.09389
# Velocity P-wave (km/s) = 5.81716 6.84887 6.35399
#
# Compressibility (1/GPa) = 0.03444558
#
# Stress axis : x y z
#
# Youngs Moduli (GPa) = 56.83373 64.95558 120.80463
#
# Poissons Ratio (x) = -0.06625 0.17902
# Poissons Ratio (y) = -0.05797 0.35629
# Poissons Ratio (z) = 0.08422 0.19157
#
# Static dielectric constant tensor:
#      x y z
#    x 1.721760 -0.008570 -0.020780 
#    y -0.008570 1.761250 -0.035340 
#    z -0.020780 -0.035340 1.703390 
# 
# From -- ./inp_files/494225.got.cif
#   From: 2010.05.17/outbox.cif.g08.bks.cpg/sg2_248_cif.got.tgz:494225.got - 2010.06.03 11:33:40.
