data_PCOD9033927
_publ_section_title
;
Structure prediction by ZEFSAII (Michael W. Deem and Ramdas Pophale) SiO2 
 PCOD9033927
Probable space group: P -1
;
_chemical_formula_sum "Si O2"
_cell_formula_units_Z 12
_cell_length_a 9.770246
_cell_length_b 14.837531
_cell_length_c 12.113781
_cell_angle_alpha 150.538362
_cell_angle_beta 139.605819
_cell_angle_gamma 59.049819
_cell_volume 494.963138
_symmetry_space_group_name_H-M "P -1"
_symmetry_group_IT_number 2
_symmetry_cell_setting 'triclinic'
loop_
_space_group_symop_operation_xyz
x,y,z
-x,-y,-z
loop_
_atom_site_type_symbol
_atom_site_label
_atom_site_fract_x
_atom_site_fract_y
_atom_site_fract_z
Si Si1 0.024520 0.824723 0.178627
Si Si2 0.072508 0.828747 0.448430
Si Si3 0.594630 0.840127 0.368793
Si Si4 0.837020 0.757217 0.616408
Si Si5 0.497135 0.597853 0.838090
Si Si6 0.849348 0.365299 0.490208
O O1 0.166042 0.822508 0.375493
O O2 0.870307 0.932114 0.245897
O O3 0.150081 0.003230 0.355780
O O4 0.949027 0.604641 0.843791
O O5 0.162331 0.755319 0.532090
O O6 0.780925 0.667906 0.088320
O O7 0.620964 0.732346 0.377600
O O8 0.500000 0.000000 0.500000
O O9 0.456886 0.688696 0.024909
O O10 0.701726 0.640309 0.520190
O O11 0.991962 0.676053 0.550145
O O12 0.000000 0.000000 0.000000
O O13 0.399984 0.684679 0.773447
#
# Coordination Sequence:
#
# PCOD9033927 Si02
#       6
#     2   2   2   2   2   2
#     4  10  22  44  70  94 137 173 217 277 326 391
#     4  10  24  46  67  97 134 175 220 271 330 389
#     4  11  22  41  67  99 131 173 221 272 332 395
#     4  12  24  42  66  98 138 173 217 283 329 384
#     4  11  24  40  66  98 129 173 224 266 330 400
#     4  12  23  43  67  98 133 173 220 274 332 383
#
# _framework density 24.244230000000002
#
# number of rings (size 3 to 8) (size 9 to 14) (size 15 to 20)
#    0.000    1.000    3.333    4.500    2.333    0.667 
#    0.000    7.500    0.000    0.000    0.000    0.000 
#    0.000    0.000    0.000    0.000    0.000    0.000 
#
# Total GULP energy -66865.008206 kJ/mol
# GULP energy per Si atom -5572.084017 kJ/mol
# Density = 2.418905 g / cm^3
# Si number density = 24.244230 Si / 1000 Ang^3
#
#
#
# Elastic Constant Matrix: (Units=GPa)
#
#
# Indices 1 2 3 4 5 6 
#
# 1 40.1076 13.6967 18.9181 3.8071 -0.7375 4.3823
# 2 13.6967 168.6603 33.4072 -21.8313 8.0939 26.6144
# 3 18.9181 33.4072 97.0761 15.1940 -13.6520 -12.0944
# 4 3.8071 -21.8313 15.1940 52.2564 -0.1715 -5.5274
# 5 -0.7375 8.0939 -13.6520 -0.1715 33.6662 4.6384
# 6 4.3823 26.6144 -12.0944 -5.5274 4.6384 32.1489
#
#
#
# Elastic Compliance Matrix: (Units=1/GPa)
#
#
# Indices 1 2 3 4 5 6 
#
# 1 0.028709 -0.000201 -0.006278 -0.001002 -0.001029 -0.006133
# 2 -0.000201 0.008982 -0.005197 0.004405 -0.003125 -0.008155
# 3 -0.006278 -0.005197 0.016229 -0.005416 0.006368 0.009413
# 4 -0.001002 0.004405 -0.005416 0.022482 -0.002990 -0.001251
# 5 -0.001029 -0.003125 0.006368 -0.002990 0.033021 -0.000155
# 6 -0.006133 -0.008155 0.009413 -0.001251 -0.000155 0.042041
#
#
# Mechanical properties :
#
#
# Convention : Reuss Voigt Hill
#
# Bulk Modulus (GPa) = 32.71226 48.65423 40.68324
# Shear Modulus (GPa) = 27.02656 39.60244 33.31450
#
# Velocity S-wave (km/s) = 3.34243 4.04602 3.71093
# Velocity P-wave (km/s) = 5.33084 6.47603 5.93114
#
# Compressibility (1/GPa) = 0.03056958
#
# Stress axis : x y z
#
# Youngs Moduli (GPa) = 34.83252 111.33743 61.61816
#
# Poissons Ratio (x) = 0.02233 0.38681
# Poissons Ratio (y) = 0.00699 0.32022
# Poissons Ratio (z) = 0.21867 0.57859
#
# Static dielectric constant tensor:
#      x y z
#    x 1.635550 -0.031560 -0.008740 
#    y -0.031560 1.977130 0.051840 
#    z -0.008740 0.051840 2.060710 
# 
# From -- ./inp_files/170113.got.cif
#   From: 2010.05.17/outbox.cif.g08.bks.cpg/sg2_86_cif.got.tgz:170113.got - 2010.06.03 11:33:40.
