data_PCOD9033554
_publ_section_title
;
Structure prediction by ZEFSAII (Michael W. Deem and Ramdas Pophale) SiO2 
 PCOD9033554
Probable space group: P -1
;
_chemical_formula_sum "Si O2"
_cell_formula_units_Z 16
_cell_length_a 11.273581
_cell_length_b 12.370425
_cell_length_c 5.639720
_cell_angle_alpha 70.523337
_cell_angle_beta 100.180676
_cell_angle_gamma 112.170178
_cell_volume 685.512549
_symmetry_space_group_name_H-M "P -1"
_symmetry_group_IT_number 2
_symmetry_cell_setting 'triclinic'
loop_
_space_group_symop_operation_xyz
x,y,z
-x,-y,-z
loop_
_atom_site_type_symbol
_atom_site_label
_atom_site_fract_x
_atom_site_fract_y
_atom_site_fract_z
Si Si1 0.036591 0.072473 0.708559
Si Si2 0.268469 0.473257 0.299556
Si Si3 0.421456 0.724836 0.411412
Si Si4 0.895647 0.496686 0.159541
Si Si5 0.997739 0.679734 0.438955
Si Si6 0.322067 0.173438 0.893302
Si Si7 0.419719 0.973285 0.241477
Si Si8 0.577344 0.635451 0.843899
O O1 0.973648 0.178884 0.615468
O O2 0.191763 0.131727 0.729234
O O3 0.000000 0.000000 0.500000
O O4 0.000000 0.000000 0.000000
O O5 0.336227 0.591337 0.392639
O O6 0.132865 0.390457 0.412782
O O7 0.354025 0.390275 0.347125
O O8 0.237342 0.520046 0.999889
O O9 0.545915 0.776732 0.245666
O O10 0.354698 0.826442 0.321518
O O11 0.482841 0.708173 0.694574
O O12 0.951479 0.629697 0.198686
O O13 0.899760 0.385811 0.408696
O O14 0.000000 0.500000 0.000000
O O15 0.324204 0.282263 0.992049
O O16 0.331379 0.056614 0.128491
O O17 0.500000 0.000000 0.500000
O O18 0.500000 0.000000 0.000000
O O19 0.500000 0.500000 0.000000
#
# Coordination Sequence:
#
# PCOD9033554 Si02
#       8
#     2   2   2   2   2   2   2   2
#     4  12  31  49  73 103 138 195 252 295 353 421
#     4  11  23  37  68 108 138 178 223 289 365 434
#     4  11  24  41  67 103 138 177 233 280 364 429
#     4   9  21  42  72  97 136 180 227 291 369 411
#     4  10  23  46  70  99 142 178 235 304 356 419
#     4  11  25  47  71  96 144 188 231 302 350 414
#     4  10  22  44  68  96 136 185 230 278 340 419
#     4  12  24  38  67 104 144 180 228 279 360 436
#
# _framework density 23.340199999999999
#
# number of rings (size 3 to 8) (size 9 to 14) (size 15 to 20)
#    0.000    1.250    2.500    1.875   10.500    1.000 
#    4.500    0.000    0.000    0.000    0.000    0.000 
#    0.000    0.000    0.000    0.000    0.000    0.000 
#
# Total GULP energy -89384.897040 kJ/mol
# GULP energy per Si atom -5586.556065 kJ/mol
# Density = 2.328708 g / cm^3
# Si number density = 23.340200 Si / 1000 Ang^3
#
#
#
# Elastic Constant Matrix: (Units=GPa)
#
#
# Indices 1 2 3 4 5 6 
#
# 1 49.4598 31.1724 18.8569 -7.8749 4.7903 -10.1703
# 2 31.1724 175.6403 53.9657 9.1383 10.4980 -18.4200
# 3 18.8569 53.9657 89.6499 14.3734 10.0845 5.3353
# 4 -7.8749 9.1383 14.3734 45.7139 0.9646 1.7485
# 5 4.7903 10.4980 10.0845 0.9646 46.8178 -1.9191
# 6 -10.1703 -18.4200 5.3353 1.7485 -1.9191 33.7969
#
#
#
# Elastic Compliance Matrix: (Units=1/GPa)
#
#
# Indices 1 2 3 4 5 6 
#
# 1 0.026464 -0.002602 -0.005370 0.006517 -0.000814 0.007010
# 2 -0.002602 0.008009 -0.004350 -0.000837 -0.000400 0.004289
# 3 -0.005370 -0.004350 0.016312 -0.004893 -0.002151 -0.006431
# 4 0.006517 -0.000837 -0.004893 0.024663 0.000108 0.001007
# 5 -0.000814 -0.000400 -0.002151 0.000108 0.022040 0.001123
# 6 0.007010 0.004289 -0.006431 0.001007 0.001123 0.035063
#
#
# Mechanical properties :
#
#
# Convention : Reuss Voigt Hill
#
# Bulk Modulus (GPa) = 38.25559 58.08222 48.16890
# Shear Modulus (GPa) = 30.13728 39.31605 34.72667
#
# Velocity S-wave (km/s) = 3.59725 4.10869 3.86145
# Velocity P-wave (km/s) = 5.80341 6.88822 6.36895
#
# Compressibility (1/GPa) = 0.02613997
#
# Stress axis : x y z
#
# Youngs Moduli (GPa) = 37.78767 124.85864 61.30512
#
# Poissons Ratio (x) = 0.32487 0.32924
# Poissons Ratio (y) = 0.09832 0.26668
# Poissons Ratio (z) = 0.20294 0.54313
#
# Static dielectric constant tensor:
#      x y z
#    x 1.775340 -0.009050 0.135700 
#    y -0.009050 1.847480 -0.047940 
#    z 0.135700 -0.047940 1.887480 
# 
# From -- ./inp_files/69258.got.cif
#   From: 2010.05.17/outbox.cif.g08.bks.cpg/sg2_35_cif.got.tgz:69258.got - 2010.06.03 11:33:40.
