data_PCOD9033120
_publ_section_title
;
Structure prediction by ZEFSAII (Michael W. Deem and Ramdas Pophale) SiO2 
 PCOD9033120
Probable space group: P -1
;
_chemical_formula_sum "Si O2"
_cell_formula_units_Z 15
_cell_length_a 9.522819
_cell_length_b 21.146582
_cell_length_c 6.318809
_cell_angle_alpha 117.718928
_cell_angle_beta 131.887459
_cell_angle_gamma 39.911307
_cell_volume 604.830668
_symmetry_space_group_name_H-M "P -1"
_symmetry_group_IT_number 2
_symmetry_cell_setting 'triclinic'
loop_
_space_group_symop_operation_xyz
x,y,z
-x,-y,-z
loop_
_atom_site_type_symbol
_atom_site_label
_atom_site_fract_x
_atom_site_fract_y
_atom_site_fract_z
Si Si1 0.718106 0.562913 0.908890
Si Si2 0.793813 0.046704 0.057438
Si Si3 0.523929 0.666109 0.292149
Si Si4 0.944743 0.133162 0.645246
Si Si5 0.939245 0.639291 0.893248
Si Si6 0.805546 0.808762 0.300845
Si Si7 0.500000 0.500000 0.500000
Si Si8 0.154805 0.652656 0.737667
O O1 0.649240 0.637189 0.135685
O O2 0.773591 0.465364 0.908624
O O3 0.469238 0.599993 0.593460
O O4 0.000000 0.500000 0.000000
O O5 0.815328 0.115813 0.312313
O O6 0.876946 0.963267 0.176880
O O7 0.493902 0.108014 0.793571
O O8 0.000000 0.000000 0.000000
O O9 0.749370 0.623133 0.621477
O O10 0.287552 0.778008 0.299660
O O11 0.389896 0.624875 0.065580
O O12 0.102721 0.154580 0.716271
O O13 0.961921 0.670714 0.741445
O O14 0.832115 0.724235 0.081722
O O15 0.998941 0.754125 0.610005
O O16 0.272630 0.563338 0.562216
#
# Coordination Sequence:
#
# PCOD9033120 Si02
#       8
#     2   2   2   2   2   2   1   2
#     4  11  25  42  67 105 142 196 240 290 345 411
#     4  11  28  49  78 103 142 180 233 300 365 433
#     4  11  25  44  72 100 148 185 241 291 354 416
#     4  11  26  48  72 112 134 186 235 293 363 425
#     4  12  25  44  71 103 143 190 238 290 347 417
#     4  12  26  47  76 104 146 182 238 294 355 433
#     4  10  22  44  66 100 146 182 246 280 342 412
#     4  11  26  42  69 105 142 192 233 291 349 412
#
# _framework density 24.800332000000001
#
# number of rings (size 3 to 8) (size 9 to 14) (size 15 to 20)
#    0.000    0.800    4.000    1.600    3.733    6.933 
#    0.000    0.000    0.000    0.000    0.000    0.000 
#    0.000    0.000    0.000    0.000    0.000    0.000 
#
# Total GULP energy -83700.451329 kJ/mol
# GULP energy per Si atom -5580.030089 kJ/mol
# Density = 2.474388 g / cm^3
# Si number density = 24.800332 Si / 1000 Ang^3
#
#
#
# Elastic Constant Matrix: (Units=GPa)
#
#
# Indices 1 2 3 4 5 6 
#
# 1 145.7744 44.8858 35.1979 -14.9788 7.5808 -17.0257
# 2 44.8858 104.7119 37.6397 10.1233 -1.5927 -27.5460
# 3 35.1979 37.6397 129.9301 5.9165 18.1945 1.1665
# 4 -14.9788 10.1233 5.9165 50.0150 -3.4588 -2.5670
# 5 7.5808 -1.5927 18.1945 -3.4588 32.4910 -0.5272
# 6 -17.0257 -27.5460 1.1665 -2.5670 -0.5272 41.9370
#
#
#
# Elastic Compliance Matrix: (Units=1/GPa)
#
#
# Indices 1 2 3 4 5 6 
#
# 1 0.008798 -0.003107 -0.001524 0.003469 -0.000954 0.001774
# 2 -0.003107 0.014828 -0.003888 -0.002798 0.003468 0.008459
# 3 -0.001524 -0.003888 0.010136 -0.001450 -0.005724 -0.003615
# 4 0.003469 -0.002798 -0.001450 0.021975 0.002221 0.000984
# 5 -0.000954 0.003468 -0.005724 0.002221 0.034655 0.002622
# 6 0.001774 0.008459 -0.003615 0.000984 0.002622 0.030315
#
#
# Mechanical properties :
#
#
# Convention : Reuss Voigt Hill
#
# Bulk Modulus (GPa) = 59.79432 68.42923 64.11178
# Shear Modulus (GPa) = 34.88769 42.40147 38.64458
#
# Velocity S-wave (km/s) = 3.75473 4.13935 3.95172
# Velocity P-wave (km/s) = 6.55438 7.10617 6.83585
#
# Compressibility (1/GPa) = 0.01672400
#
# Stress axis : x y z
#
# Youngs Moduli (GPa) = 113.66726 67.44085 98.66273
#
# Poissons Ratio (x) = 0.20952 0.15032
# Poissons Ratio (y) = 0.35314 0.38361
# Poissons Ratio (z) = 0.17318 0.26222
#
# Static dielectric constant tensor:
#      x y z
#    x 2.330500 -0.019260 0.095050 
#    y -0.019260 1.932350 -0.009120 
#    z 0.095050 -0.009120 2.296770 
# 
# From -- ./inp_files/55073.got.cif
#   From: 2010.05.17/outbox.cif.g08.bks.cpg/sg2_28_cif.got.tgz:55073.got - 2010.06.03 11:33:40.
