data_PCOD9033350
_publ_section_title
;
Structure prediction by ZEFSAII (Michael W. Deem and Ramdas Pophale) SiO2 
 PCOD9033350
Probable space group: P -1
;
_chemical_formula_sum "Si O2"
_cell_formula_units_Z 16
_cell_length_a 10.307046
_cell_length_b 13.953475
_cell_length_c 13.508580
_cell_angle_alpha 146.208480
_cell_angle_beta 137.905167
_cell_angle_gamma 40.501032
_cell_volume 668.368922
_symmetry_space_group_name_H-M "P -1"
_symmetry_group_IT_number 2
_symmetry_cell_setting 'triclinic'
loop_
_space_group_symop_operation_xyz
x,y,z
-x,-y,-z
loop_
_atom_site_type_symbol
_atom_site_label
_atom_site_fract_x
_atom_site_fract_y
_atom_site_fract_z
Si Si1 0.784726 0.761026 0.451529
Si Si2 0.906524 0.203217 0.172871
Si Si3 0.247313 0.102065 0.938391
Si Si4 0.943453 0.209487 0.684580
Si Si5 0.667106 0.290265 0.292945
Si Si6 0.754038 0.417031 0.073737
Si Si7 0.668884 0.167499 0.657671
Si Si8 0.206871 0.470787 0.286706
O O1 0.825541 0.590823 0.250646
O O2 0.574430 0.769122 0.396817
O O3 0.937314 0.766543 0.632146
O O4 0.744660 0.945165 0.521784
O O5 0.693556 0.253083 0.159250
O O6 0.847902 0.344195 0.170878
O O7 0.000000 0.000000 0.000000
O O8 0.134669 0.195387 0.853251
O O9 0.198427 0.917558 0.767855
O O10 0.169926 0.279631 0.120186
O O11 0.500000 0.000000 0.000000
O O12 0.730746 0.243328 0.656589
O O13 0.910869 0.365146 0.717314
O O14 0.000000 0.000000 0.500000
O O15 0.434180 0.374132 0.276104
O O16 0.761414 0.433604 0.512911
O O17 0.500000 0.500000 0.000000
O O18 0.789101 0.245831 0.872629
#
# Coordination Sequence:
#
# PCOD9033350 Si02
#       8
#     2   2   2   2   2   2   2   2
#     4  10  22  44  67  96 132 178 225 273 336 395
#     4  12  24  43  69 103 137 176 228 283 345 402
#     4  10  22  45  66  98 134 173 228 281 335 405
#     4  12  24  43  69 101 137 179 224 281 339 403
#     4  10  23  45  67  97 141 177 220 291 333 398
#     4  10  23  43  65  93 132 171 222 274 330 398
#     4  10  23  45  65  96 140 173 220 283 331 395
#     4  10  23  44  70  97 136 181 227 272 343 404
#
# _framework density 23.938876
#
# number of rings (size 3 to 8) (size 9 to 14) (size 15 to 20)
#    0.000    1.500    2.500    1.500    3.500    1.000 
#    9.000    0.000    0.000    0.000    0.000    0.000 
#    0.000    0.000    0.000    0.000    0.000    0.000 
#
# Total GULP energy -89271.346285 kJ/mol
# GULP energy per Si atom -5579.459143 kJ/mol
# Density = 2.388439 g / cm^3
# Si number density = 23.938876 Si / 1000 Ang^3
#
#
#
# Elastic Constant Matrix: (Units=GPa)
#
#
# Indices 1 2 3 4 5 6 
#
# 1 100.4835 15.4468 10.4695 2.0264 -4.7533 3.1284
# 2 15.4468 97.8535 38.9384 29.9836 -6.1555 5.9274
# 3 10.4695 38.9384 156.7239 37.6249 -11.8817 -14.4038
# 4 2.0264 29.9836 37.6249 48.6448 -13.7139 2.0094
# 5 -4.7533 -6.1555 -11.8817 -13.7139 46.4021 -2.9392
# 6 3.1284 5.9274 -14.4038 2.0094 -2.9392 33.7795
#
#
#
# Elastic Compliance Matrix: (Units=1/GPa)
#
#
# Indices 1 2 3 4 5 6 
#
# 1 0.010326 -0.001701 -0.000614 0.001424 0.001038 -0.000914
# 2 -0.001701 0.013469 -0.001891 -0.006968 -0.001102 -0.002694
# 3 -0.000614 -0.001891 0.008676 -0.005548 0.000551 0.004466
# 4 0.001424 -0.006968 -0.005548 0.031116 0.006837 -0.002531
# 5 0.001038 -0.001102 0.000551 0.006837 0.023799 0.001996
# 6 -0.000914 -0.002694 0.004466 -0.002531 0.001996 0.032390
#
#
# Mechanical properties :
#
#
# Convention : Reuss Voigt Hill
#
# Bulk Modulus (GPa) = 41.56629 53.86336 47.71482
# Shear Modulus (GPa) = 36.70831 45.11237 40.91034
#
# Velocity S-wave (km/s) = 3.92014 4.34577 4.13843
# Velocity P-wave (km/s) = 6.15558 6.90870 6.54299
#
# Compressibility (1/GPa) = 0.02405796
#
# Stress axis : x y z
#
# Youngs Moduli (GPa) = 96.84054 74.24237 115.26376
#
# Poissons Ratio (x) = 0.12631 0.07081
# Poissons Ratio (y) = 0.16475 0.21798
# Poissons Ratio (z) = 0.05949 0.14040
#
# Static dielectric constant tensor:
#      x y z
#    x 2.119840 -0.099440 0.042710 
#    y -0.099440 1.949170 0.029330 
#    z 0.042710 0.029330 1.966240 
# 
# From -- ./inp_files/521960.got.cif
#   From: 2010.05.17/outbox.cif.g08.bks.cpg/sg2_261_cif.got.tgz:521960.got - 2010.06.03 11:33:40.
