data_PCOD9033384
_publ_section_title
;
Structure prediction by ZEFSAII (Michael W. Deem and Ramdas Pophale) SiO2 
 PCOD9033384
Probable space group: P -1
;
_chemical_formula_sum "Si O2"
_cell_formula_units_Z 14
_cell_length_a 19.850946
_cell_length_b 17.446390
_cell_length_c 8.618872
_cell_angle_alpha 139.613648
_cell_angle_beta 140.241634
_cell_angle_gamma 20.153859
_cell_volume 646.805788
_symmetry_space_group_name_H-M "P -1"
_symmetry_group_IT_number 2
_symmetry_cell_setting 'triclinic'
loop_
_space_group_symop_operation_xyz
x,y,z
-x,-y,-z
loop_
_atom_site_type_symbol
_atom_site_label
_atom_site_fract_x
_atom_site_fract_y
_atom_site_fract_z
Si Si1 0.696283 0.479065 0.497571
Si Si2 0.715884 0.033858 0.405312
Si Si3 0.664979 0.446297 0.742497
Si Si4 0.790748 0.715739 0.548267
Si Si5 0.993523 0.986253 0.784500
Si Si6 0.447315 0.884014 0.084681
Si Si7 0.934485 0.455948 0.704760
O O1 0.460912 0.734630 0.454856
O O2 0.724848 0.444415 0.679879
O O3 0.813088 0.474901 0.617313
O O4 0.786564 0.268195 0.272302
O O5 0.852274 0.007874 0.538774
O O6 0.628185 0.051990 0.127087
O O7 0.863820 0.802978 0.398338
O O8 0.500000 0.500000 0.500000
O O9 0.867899 0.208255 0.818381
O O10 0.548966 0.661011 0.959342
O O11 0.615910 0.823597 0.304526
O O12 0.807864 0.626459 0.601333
O O13 0.000000 0.500000 0.500000
O O14 0.728141 0.906828 0.786870
O O15 0.000000 0.000000 0.000000
O O16 0.000000 0.500000 0.000000
#
# Coordination Sequence:
#
# PCOD9033384 Si02
#       7
#     2   2   2   2   2   2   2
#     4  10  24  43  69  95 132 181 226 265 342 402
#     4  10  22  44  67  98 132 177 228 269 339 409
#     4  11  22  46  72  97 134 183 226 275 335 412
#     4  11  26  45  66 101 135 181 226 285 335 393
#     4  11  24  43  67 102 137 170 226 282 335 403
#     4  10  23  43  69  99 137 171 235 273 333 407
#     4  11  24  42  68  97 136 171 226 279 332 400
#
# _framework density 21.644828
#
# number of rings (size 3 to 8) (size 9 to 14) (size 15 to 20)
#    0.000    1.429    4.286    0.429    8.000    3.429 
#    2.571    0.000    0.000    0.000    0.000    0.000 
#    0.000    0.000    0.000    0.000    0.000    0.000 
#
# Total GULP energy -78171.236401 kJ/mol
# GULP energy per Si atom -5583.659743 kJ/mol
# Density = 2.159556 g / cm^3
# Si number density = 21.644828 Si / 1000 Ang^3
#
#
#
# Elastic Constant Matrix: (Units=GPa)
#
#
# Indices 1 2 3 4 5 6 
#
# 1 67.1509 15.1136 9.4041 7.2452 -7.8296 2.6068
# 2 15.1136 145.7806 28.8104 47.6287 -10.1518 -6.4663
# 3 9.4041 28.8104 67.3839 17.7498 -16.4403 0.2576
# 4 7.2452 47.6287 17.7498 54.7067 1.1653 -7.2184
# 5 -7.8296 -10.1518 -16.4403 1.1653 19.3756 5.6294
# 6 2.6068 -6.4663 0.2576 -7.2184 5.6294 39.6009
#
#
#
# Elastic Compliance Matrix: (Units=1/GPa)
#
#
# Indices 1 2 3 4 5 6 
#
# 1 0.016190 -0.000626 0.000438 -0.002250 0.007491 -0.002646
# 2 -0.000626 0.010291 -0.000695 -0.008847 0.005266 -0.000635
# 3 0.000438 -0.000695 0.022067 -0.007649 0.020325 -0.004569
# 4 -0.002250 -0.008847 -0.007649 0.029946 -0.015708 0.006445
# 5 0.007491 0.005266 0.020325 -0.015708 0.079641 -0.013950
# 6 -0.002646 -0.000635 -0.004569 0.006445 -0.013950 0.028510
#
#
# Mechanical properties :
#
#
# Convention : Reuss Voigt Hill
#
# Bulk Modulus (GPa) = 21.37475 42.99685 32.18580
# Shear Modulus (GPa) = 24.50929 37.86913 31.18921
#
# Velocity S-wave (km/s) = 3.36868 4.18732 3.80011
# Velocity P-wave (km/s) = 5.00273 6.57922 5.84437
#
# Compressibility (1/GPa) = 0.04678417
#
# Stress axis : x y z
#
# Youngs Moduli (GPa) = 61.76592 97.17410 45.31571
#
# Poissons Ratio (x) = 0.06080 -0.01987
# Poissons Ratio (y) = 0.03864 0.03149
# Poissons Ratio (z) = -0.02708 0.06753
#
# Static dielectric constant tensor:
#      x y z
#    x 1.760230 -0.021750 0.011560 
#    y -0.021750 1.866910 0.040760 
#    z 0.011560 0.040760 1.776250 
# 
# From -- ./inp_files/348725.got.cif
#   From: 2010.05.17/outbox.cif.g08.bks.cpg/sg2_175_cif.got.tgz:348725.got - 2010.06.03 11:33:40.
