data_PCOD9033978
_publ_section_title
;
Structure prediction by ZEFSAII (Michael W. Deem and Ramdas Pophale) SiO2 
 PCOD9033978
Probable space group: P -1
;
_chemical_formula_sum "Si O2"
_cell_formula_units_Z 13
_cell_length_a 11.090580
_cell_length_b 9.349214
_cell_length_c 7.546438
_cell_angle_alpha 74.227399
_cell_angle_beta 119.162691
_cell_angle_gamma 64.755020
_cell_volume 491.022705
_symmetry_space_group_name_H-M "P -1"
_symmetry_group_IT_number 2
_symmetry_cell_setting 'triclinic'
loop_
_space_group_symop_operation_xyz
x,y,z
-x,-y,-z
loop_
_atom_site_type_symbol
_atom_site_label
_atom_site_fract_x
_atom_site_fract_y
_atom_site_fract_z
Si Si1 0.073218 0.710817 0.708383
Si Si2 0.554600 0.617076 0.743958
Si Si3 0.947868 0.989676 0.176522
Si Si4 0.730490 0.406494 0.562233
Si Si5 0.248382 0.275192 0.584596
Si Si6 0.500000 0.000000 0.500000
Si Si7 0.334801 0.042822 0.085041
O O1 0.020663 0.834363 0.448604
O O2 0.929294 0.679576 0.630722
O O3 0.283896 0.509659 0.953572
O O4 0.044067 0.854395 0.790547
O O5 0.640570 0.517663 0.646322
O O6 0.404991 0.592389 0.658949
O O7 0.468507 0.841729 0.599580
O O8 0.098972 0.825099 0.199673
O O9 0.747193 0.060752 0.969138
O O10 0.785219 0.527261 0.483572
O O11 0.439226 0.116991 0.657820
O O12 0.296990 0.165795 0.844423
O O13 0.712775 0.849085 0.801437
#
# Coordination Sequence:
#
# PCOD9033978 Si02
#       7
#     2   2   2   2   2   1   2
#     4  10  24  44  70 104 133 176 226 279 330 408
#     4  11  27  46  66  97 142 175 231 278 335 397
#     4  10  24  44  70 101 138 175 225 275 341 395
#     4  11  25  44  66 100 137 181 222 277 340 395
#     4  10  22  44  70  98 133 178 226 275 337 395
#     4  12  26  44  70 100 130 184 224 282 328 408
#     4  10  23  43  70  95 140 175 222 279 331 400
#
# _framework density 26.475352999999998
#
# number of rings (size 3 to 8) (size 9 to 14) (size 15 to 20)
#    0.000    1.538    1.538    0.923    8.615    5.538 
#    0.000    0.000    0.000    0.000    0.000    0.000 
#    0.000    0.000    0.000    0.000    0.000    0.000 
#
# Total GULP energy -72640.906681 kJ/mol
# GULP energy per Si atom -5587.762052 kJ/mol
# Density = 2.641509 g / cm^3
# Si number density = 26.475353 Si / 1000 Ang^3
#
#
#
# Elastic Constant Matrix: (Units=GPa)
#
#
# Indices 1 2 3 4 5 6 
#
# 1 73.7014 45.9818 20.6684 6.2274 24.5341 37.0715
# 2 45.9818 178.7110 37.7351 -0.3030 27.4239 47.8248
# 3 20.6684 37.7351 115.5076 19.0832 35.6200 25.9500
# 4 6.2274 -0.3030 19.0832 54.4673 5.5601 4.0492
# 5 24.5341 27.4239 35.6200 5.5601 39.0682 13.0803
# 6 37.0715 47.8248 25.9500 4.0492 13.0803 60.7178
#
#
#
# Elastic Compliance Matrix: (Units=1/GPa)
#
#
# Indices 1 2 3 4 5 6 
#
# 1 0.024027 -0.001763 0.003036 -0.001675 -0.012434 -0.011788
# 2 -0.001763 0.007701 -0.000675 0.001043 -0.002408 -0.004251
# 3 0.003036 -0.000675 0.013542 -0.003567 -0.011824 -0.004325
# 4 -0.001675 0.001043 -0.003567 0.019718 0.000677 0.000265
# 5 -0.012434 -0.002408 -0.011824 0.000677 0.044106 0.004994
# 6 -0.011788 -0.004251 -0.004325 0.000265 0.004994 0.027770
#
#
# Mechanical properties :
#
#
# Convention : Reuss Voigt Hill
#
# Bulk Modulus (GPa) = 21.52154 64.07674 42.79914
# Shear Modulus (GPa) = 33.07837 48.41963 40.74900
#
# Velocity S-wave (km/s) = 3.53852 4.28115 3.92743
# Velocity P-wave (km/s) = 4.98412 6.97801 6.06358
#
# Compressibility (1/GPa) = 0.04646507
#
# Stress axis : x y z
#
# Youngs Moduli (GPa) = 41.62022 129.85644 73.84587
#
# Poissons Ratio (x) = 0.22898 -0.22420
# Poissons Ratio (y) = 0.07339 0.04984
# Poissons Ratio (z) = -0.12636 0.08763
#
# Static dielectric constant tensor:
#      x y z
#    x 2.354940 -0.246550 -0.140060 
#    y -0.246550 2.321350 0.134790 
#    z -0.140060 0.134790 2.157610 
# 
# From -- ./inp_files/156196.got.cif
#   From: 2010.05.17/outbox.cif.g08.bks.cpg/sg2_79_cif.got.tgz:156196.got - 2010.06.03 11:33:40.
