data_PCOD9033165
_publ_section_title
;
Structure prediction by ZEFSAII (Michael W. Deem and Ramdas Pophale) SiO2 
 PCOD9033165
Probable space group: P -1
;
_chemical_formula_sum "Si O2"
_cell_formula_units_Z 16
_cell_length_a 17.554456
_cell_length_b 9.071874
_cell_length_c 8.293339
_cell_angle_alpha 49.642702
_cell_angle_beta 131.952957
_cell_angle_gamma 108.143847
_cell_volume 731.067566
_symmetry_space_group_name_H-M "P -1"
_symmetry_group_IT_number 2
_symmetry_cell_setting 'triclinic'
loop_
_space_group_symop_operation_xyz
x,y,z
-x,-y,-z
loop_
_atom_site_type_symbol
_atom_site_label
_atom_site_fract_x
_atom_site_fract_y
_atom_site_fract_z
Si Si1 0.242353 0.165997 0.691753
Si Si2 0.371933 0.675235 0.848958
Si Si3 0.951510 0.811882 0.119321
Si Si4 0.088449 0.978353 0.775906
Si Si5 0.623133 0.504964 0.684891
Si Si6 0.927456 0.435492 0.804165
Si Si7 0.622053 0.567769 0.277331
Si Si8 0.723307 0.875708 0.604158
O O1 0.198291 0.004662 0.840659
O O2 0.167628 0.378303 0.474816
O O3 0.354643 0.211833 0.856588
O O4 0.237807 0.127225 0.523661
O O5 0.334756 0.558381 0.729839
O O6 0.341418 0.906309 0.605166
O O7 0.332730 0.636129 0.001679
O O8 0.496955 0.596288 0.085515
O O9 0.953568 0.837871 0.294226
O O10 0.014783 0.626547 0.240027
O O11 0.829457 0.832768 0.887668
O O12 0.000000 0.000000 0.000000
O O13 0.000000 0.000000 0.500000
O O14 0.100282 0.767739 0.027838
O O15 0.500000 0.500000 0.500000
O O16 0.662472 0.476965 0.574433
O O17 0.651688 0.713562 0.628060
O O18 0.000000 0.500000 0.000000
#
# Coordination Sequence:
#
# PCOD9033165 Si02
#       8
#     2   2   2   2   2   2   2   2
#     4  11  23  40  62  91 124 164 210 256 321 375
#     4  10  22  44  66  90 133 167 208 269 321 373
#     4  10  23  41  63  92 127 165 213 262 314 383
#     4  11  23  41  62  92 125 166 215 255 320 386
#     4   9  21  42  66  95 127 168 216 258 321 386
#     4  11  21  43  62  84 129 163 202 271 309 368
#     4   9  22  42  64  95 127 165 216 265 314 384
#     4  11  23  42  65  94 127 167 215 263 316 384
#
# _framework density 21.885802999999999
#
# number of rings (size 3 to 8) (size 9 to 14) (size 15 to 20)
#    0.000    1.750    2.500    0.750    5.250    7.000 
#    0.000    6.875    0.000    0.000    0.000    0.000 
#    0.000    0.000    0.000    0.000    0.000    0.000 
#
# Total GULP energy -89285.561019 kJ/mol
# GULP energy per Si atom -5580.347564 kJ/mol
# Density = 2.183599 g / cm^3
# Si number density = 21.885803 Si / 1000 Ang^3
#
#
#
# Elastic Constant Matrix: (Units=GPa)
#
#
# Indices 1 2 3 4 5 6 
#
# 1 75.3349 42.9103 11.3430 10.2715 -21.4837 1.8963
# 2 42.9103 139.8889 38.5320 23.3817 -10.2044 -4.3052
# 3 11.3430 38.5320 44.7285 -1.6836 -5.3505 -5.0481
# 4 10.2715 23.3817 -1.6836 39.1363 -6.1065 -9.6789
# 5 -21.4837 -10.2044 -5.3505 -6.1065 20.2240 -8.7506
# 6 1.8963 -4.3052 -5.0481 -9.6789 -8.7506 50.0941
#
#
#
# Elastic Compliance Matrix: (Units=1/GPa)
#
#
# Indices 1 2 3 4 5 6 
#
# 1 0.022985 -0.006489 0.003196 0.002697 0.024393 0.003676
# 2 -0.006489 0.012935 -0.010903 -0.008177 -0.006806 -0.002510
# 3 0.003196 -0.010903 0.033648 0.010794 0.012945 0.006680
# 4 0.002697 -0.008177 0.010794 0.035246 0.016558 0.009986
# 5 0.024393 -0.006806 0.012945 0.016558 0.088321 0.018424
# 6 0.003676 -0.002510 0.006680 0.009986 0.018424 0.025428
#
#
# Mechanical properties :
#
#
# Convention : Reuss Voigt Hill
#
# Bulk Modulus (GPa) = 24.28633 49.50255 36.89444
# Shear Modulus (GPa) = 19.18052 33.03532 26.10792
#
# Velocity S-wave (km/s) = 2.96360 3.88937 3.45761
# Velocity P-wave (km/s) = 4.77823 6.54502 5.73013
#
# Compressibility (1/GPa) = 0.04117543
#
# Stress axis : x y z
#
# Youngs Moduli (GPa) = 43.50638 77.30895 29.71966
#
# Poissons Ratio (x) = 0.50166 -0.09497
# Poissons Ratio (y) = 0.28231 0.32403
# Poissons Ratio (z) = -0.13903 0.84288
#
# Static dielectric constant tensor:
#      x y z
#    x 1.862650 0.022570 -0.008010 
#    y 0.022570 1.800340 0.025300 
#    z -0.008010 0.025300 1.796150 
# 
# From -- ./inp_files/327204.got.cif
#   From: 2010.05.17/outbox.cif.g08.bks.cpg/sg2_164_cif.got.tgz:327204.got - 2010.06.03 11:33:40.
