data_PCOD9033240
_publ_section_title
;
Structure prediction by ZEFSAII (Michael W. Deem and Ramdas Pophale) SiO2 
 PCOD9033240
Probable space group: P -1
;
_chemical_formula_sum "Si O2"
_cell_formula_units_Z 16
_cell_length_a 10.707219
_cell_length_b 9.914547
_cell_length_c 17.154005
_cell_angle_alpha 43.224754
_cell_angle_beta 47.270368
_cell_angle_gamma 81.178498
_cell_volume 673.411056
_symmetry_space_group_name_H-M "P -1"
_symmetry_group_IT_number 2
_symmetry_cell_setting 'triclinic'
loop_
_space_group_symop_operation_xyz
x,y,z
-x,-y,-z
loop_
_atom_site_type_symbol
_atom_site_label
_atom_site_fract_x
_atom_site_fract_y
_atom_site_fract_z
Si Si1 0.145731 0.938403 0.260546
Si Si2 0.913558 0.490595 0.297866
Si Si3 0.447913 0.801047 0.677051
Si Si4 0.938989 0.063302 0.418649
Si Si5 0.262335 0.112019 0.869439
Si Si6 0.257579 0.630886 0.398682
Si Si7 0.401226 0.141513 0.628986
Si Si8 0.094346 0.183530 0.051091
O O1 0.312413 0.897285 0.236761
O O2 0.096283 0.074751 0.284213
O O3 0.916707 0.627183 0.473071
O O4 0.206678 0.093928 0.089441
O O5 0.847179 0.434390 0.441744
O O6 0.127999 0.801517 0.064886
O O7 0.974527 0.322893 0.310522
O O8 0.676873 0.379242 0.402071
O O9 0.674865 0.857238 0.583507
O O10 0.380978 0.888322 0.741409
O O11 0.500000 0.000000 0.500000
O O12 0.235583 0.492430 0.876784
O O13 0.000000 0.000000 0.500000
O O14 0.109597 0.141471 0.971524
O O15 0.344713 0.198561 0.710021
O O16 0.508055 0.304926 0.726451
O O17 0.177834 0.026790 0.720601
#
# Coordination Sequence:
#
# PCOD9033240 Si02
#       8
#     2   2   2   2   2   2   2   2
#     4  11  23  42  67  99 136 178 227 281 332 410
#     4  10  22  44  66  98 139 177 217 284 343 394
#     4  11  26  47  70 100 139 182 226 287 347 402
#     4  11  23  42  70  98 135 181 229 278 341 406
#     4  11  24  43  68 101 135 179 226 276 342 404
#     4  10  22  45  66  96 142 176 220 281 344 391
#     4  10  25  43  68  97 137 174 224 281 341 401
#     4  12  25  43  69 101 130 180 237 272 334 415
#
# _framework density 23.759633000000001
#
# number of rings (size 3 to 8) (size 9 to 14) (size 15 to 20)
#    0.000    1.250    2.500    2.250    5.250    2.000 
#    0.000    1.250    0.000    0.000    0.000    0.000 
#    0.000    0.000    0.000    0.000    0.000    0.000 
#
# Total GULP energy -89344.594759 kJ/mol
# GULP energy per Si atom -5584.037172 kJ/mol
# Density = 2.370556 g / cm^3
# Si number density = 23.759633 Si / 1000 Ang^3
#
#
#
# Elastic Constant Matrix: (Units=GPa)
#
#
# Indices 1 2 3 4 5 6 
#
# 1 84.8002 -8.7983 20.1512 2.3520 9.7998 -1.5873
# 2 -8.7983 120.3863 19.6735 -3.6435 8.3180 -0.2821
# 3 20.1512 19.6735 64.5524 -27.9465 10.6988 -3.7542
# 4 2.3520 -3.6435 -27.9465 39.0989 0.4171 -0.1658
# 5 9.7998 8.3180 10.6988 0.4171 38.5000 -0.0788
# 6 -1.5873 -0.2821 -3.7542 -0.1658 -0.0788 32.1906
#
#
#
# Elastic Compliance Matrix: (Units=1/GPa)
#
#
# Indices 1 2 3 4 5 6 
#
# 1 0.014138 0.002184 -0.007286 -0.005834 -0.001983 -0.000168
# 2 0.002184 0.009187 -0.004289 -0.002328 -0.001324 -0.000327
# 3 -0.007286 -0.004289 0.029291 0.021048 -0.005580 0.003114
# 4 -0.005834 -0.002328 0.021048 0.040810 -0.004298 0.002346
# 5 -0.001983 -0.001324 -0.005580 -0.004298 0.028361 -0.000713
# 6 -0.000168 -0.000327 0.003114 0.002346 -0.000713 0.031427
#
#
# Mechanical properties :
#
#
# Convention : Reuss Voigt Hill
#
# Bulk Modulus (GPa) = 29.55634 36.86574 33.21104
# Shear Modulus (GPa) = 27.28131 37.87206 32.57669
#
# Velocity S-wave (km/s) = 3.39222 3.99678 3.70685
# Velocity P-wave (km/s) = 5.27348 6.07032 5.68588
#
# Compressibility (1/GPa) = 0.03383369
#
# Stress axis : x y z
#
# Youngs Moduli (GPa) = 70.72996 108.84413 34.14016
#
# Poissons Ratio (x) = -0.23772 0.24875
# Poissons Ratio (y) = -0.15448 0.14644
# Poissons Ratio (z) = 0.51535 0.46687
#
# Static dielectric constant tensor:
#      x y z
#    x 2.019430 0.039720 -0.009400 
#    y 0.039720 1.900040 0.009870 
#    z -0.009400 0.009870 1.888560 
# 
# From -- ./inp_files/566529.got.cif
#   From: 2010.05.17/outbox.cif.g08.bks.cpg/sg2_284_cif.got.tgz:566529.got - 2010.06.03 11:33:40.
