data_PCOD9033717
_publ_section_title
;
Structure prediction by ZEFSAII (Michael W. Deem and Ramdas Pophale) SiO2 
 PCOD9033717
Probable space group: P -1
;
_chemical_formula_sum "Si O2"
_cell_formula_units_Z 16
_cell_length_a 7.602614
_cell_length_b 8.334585
_cell_length_c 13.432464
_cell_angle_alpha 100.746923
_cell_angle_beta 51.254947
_cell_angle_gamma 109.273107
_cell_volume 626.401389
_symmetry_space_group_name_H-M "P -1"
_symmetry_group_IT_number 2
_symmetry_cell_setting 'triclinic'
loop_
_space_group_symop_operation_xyz
x,y,z
-x,-y,-z
loop_
_atom_site_type_symbol
_atom_site_label
_atom_site_fract_x
_atom_site_fract_y
_atom_site_fract_z
Si Si1 0.735501 0.086985 0.231699
Si Si2 0.158258 0.755507 0.142687
Si Si3 0.011488 0.993914 0.667307
Si Si4 0.278925 0.207745 0.427691
Si Si5 0.498477 0.596457 0.908165
Si Si6 0.258641 0.571788 0.465673
Si Si7 0.991465 0.608094 0.751835
Si Si8 0.674159 0.730228 0.202000
O O1 0.484567 0.120769 0.326352
O O2 0.916136 0.273679 0.170882
O O3 0.834191 0.048571 0.301733
O O4 0.721606 0.915998 0.155322
O O5 0.195547 0.933618 0.206245
O O6 0.108346 0.591917 0.214168
O O7 0.913089 0.735076 0.172789
O O8 0.356078 0.732149 0.994058
O O9 0.175144 0.153740 0.566917
O O10 0.919860 0.863145 0.594180
O O11 0.361629 0.410268 0.416140
O O12 0.227979 0.332493 0.206211
O O13 0.500000 0.500000 0.000000
O O14 0.384395 0.442671 0.858587
O O15 0.200733 0.628216 0.601539
O O16 0.444831 0.710497 0.351360
O O17 0.000000 0.500000 0.500000
#
# Coordination Sequence:
#
# PCOD9033717 Si02
#       8
#     2   2   2   2   2   2   2   2
#     4  11  26  41  65 101 140 173 221 279 335 403
#     4  10  22  44  69  94 132 177 231 272 326 403
#     4  10  23  40  62 100 134 176 222 270 337 389
#     4  11  24  39  65  96 143 177 213 274 335 402
#     4  10  23  43  72  90 128 178 226 277 327 400
#     4  12  24  39  69 101 139 174 225 274 334 418
#     4  11  23  42  65 101 134 174 220 271 342 389
#     4  11  25  42  68 101 129 177 222 279 339 395
#
# _framework density 25.542725000000001
#
# number of rings (size 3 to 8) (size 9 to 14) (size 15 to 20)
#    0.000    1.250    2.500    2.250   12.250    1.000 
#    0.000    5.000    2.750    0.000    0.000    0.000 
#    0.000    0.000    0.000    0.000    0.000    0.000 
#
# Total GULP energy -89481.657050 kJ/mol
# GULP energy per Si atom -5592.603566 kJ/mol
# Density = 2.548459 g / cm^3
# Si number density = 25.542725 Si / 1000 Ang^3
#
#
#
# Elastic Constant Matrix: (Units=GPa)
#
#
# Indices 1 2 3 4 5 6 
#
# 1 82.2017 -7.9616 14.8679 4.1238 -23.6959 -4.1872
# 2 -7.9616 83.4571 17.9672 24.1051 -11.8003 -4.5008
# 3 14.8679 17.9672 84.2140 22.8227 -21.6764 -4.7475
# 4 4.1238 24.1051 22.8227 46.3672 -11.2106 -3.1037
# 5 -23.6959 -11.8003 -21.6764 -11.2106 30.9515 8.3012
# 6 -4.1872 -4.5008 -4.7475 -3.1037 8.3012 35.8709
#
#
#
# Elastic Compliance Matrix: (Units=1/GPa)
#
#
# Indices 1 2 3 4 5 6 
#
# 1 0.016585 0.003535 -0.000094 0.000122 0.014272 -0.000925
# 2 0.003535 0.015143 -0.000636 -0.006500 0.005580 0.000375
# 3 -0.000094 -0.000636 0.015726 -0.005278 0.008930 -0.000533
# 4 0.000122 -0.006500 -0.005278 0.028564 0.004269 -0.000016
# 5 0.014272 0.005580 0.008930 0.004269 0.055560 -0.008940
# 6 -0.000925 0.000375 -0.000533 -0.000016 -0.008940 0.029814
#
#
# Mechanical properties :
#
#
# Convention : Reuss Voigt Hill
#
# Bulk Modulus (GPa) = 18.84524 33.29110 26.06817
# Shear Modulus (GPa) = 28.82346 37.63788 33.23067
#
# Velocity S-wave (km/s) = 3.36287 3.84282 3.61083
# Velocity P-wave (km/s) = 4.74052 5.72289 5.25471
#
# Compressibility (1/GPa) = 0.05306380
#
# Stress axis : x y z
#
# Youngs Moduli (GPa) = 60.29392 66.03788 63.59021
#
# Poissons Ratio (x) = -0.23346 0.00599
# Poissons Ratio (y) = -0.21315 0.04046
# Poissons Ratio (z) = 0.00568 0.04201
#
# Static dielectric constant tensor:
#      x y z
#    x 2.039010 0.080300 0.053120 
#    y 0.080300 2.261570 0.042150 
#    z 0.053120 0.042150 2.043480 
# 
# From -- ./inp_files/493318.got.cif
#   From: 2010.05.17/outbox.cif.g08.bks.cpg/sg2_247_cif.got.tgz:493318.got - 2010.06.03 11:33:40.
