data_PCOD9033609
_publ_section_title
;
Structure prediction by ZEFSAII (Michael W. Deem and Ramdas Pophale) SiO2 
 PCOD9033609
Probable space group: P -1
;
_chemical_formula_sum "Si O2"
_cell_formula_units_Z 16
_cell_length_a 14.384152
_cell_length_b 12.467751
_cell_length_c 14.512023
_cell_angle_alpha 116.303732
_cell_angle_beta 30.687752
_cell_angle_gamma 140.244112
_cell_volume 632.199501
_symmetry_space_group_name_H-M "P -1"
_symmetry_group_IT_number 2
_symmetry_cell_setting 'triclinic'
loop_
_space_group_symop_operation_xyz
x,y,z
-x,-y,-z
loop_
_atom_site_type_symbol
_atom_site_label
_atom_site_fract_x
_atom_site_fract_y
_atom_site_fract_z
Si Si1 0.247288 0.539969 0.256853
Si Si2 0.765752 0.453654 0.421418
Si Si3 0.766501 0.085389 0.737402
Si Si4 0.982720 0.412401 0.072554
Si Si5 0.665434 0.848420 0.170835
Si Si6 0.763710 0.054528 0.515157
Si Si7 0.168465 0.037004 0.204130
Si Si8 0.854859 0.738669 0.197940
O O1 0.530145 0.674918 0.147870
O O2 0.000000 0.500000 0.500000
O O3 0.023879 0.296596 0.343121
O O4 0.455217 0.718142 0.063979
O O5 0.031745 0.529533 0.160357
O O6 0.615287 0.282382 0.562605
O O7 0.452478 0.338857 0.586885
O O8 0.911437 0.647208 0.426452
O O9 0.665800 0.030037 0.695615
O O10 0.830046 0.997057 0.703400
O O11 0.500000 0.000000 0.000000
O O12 0.584700 0.152243 0.323478
O O13 0.000000 0.500000 0.000000
O O14 0.214247 0.427015 0.854421
O O15 0.000000 0.000000 0.000000
O O16 0.799602 0.026852 0.059396
O O17 0.950327 0.031634 0.360673
O O18 0.978882 0.821192 0.229169
#
# Coordination Sequence:
#
# PCOD9033609 Si02
#       8
#     2   2   2   2   2   2   2   2
#     4  11  22  43  70 101 137 182 227 285 350 411
#     4  11  23  44  71  94 135 177 224 283 345 401
#     4  12  25  44  65  99 137 180 226 287 342 404
#     4  12  26  43  69  99 133 182 232 277 340 417
#     4   9  20  41  69  97 132 177 224 281 344 408
#     4  12  24  45  68 102 136 180 232 278 347 414
#     4  11  24  42  69  98 137 180 225 280 343 413
#     4  10  22  44  68  99 134 173 225 282 342 401
#
# _framework density 25.308465000000002
#
# number of rings (size 3 to 8) (size 9 to 14) (size 15 to 20)
#    0.000    1.000    2.500    5.250    1.750    1.500 
#    2.250    0.000    0.000    0.000    0.000    0.000 
#    0.000    0.000    0.000    0.000    0.000    0.000 
#
# Total GULP energy -89461.205477 kJ/mol
# GULP energy per Si atom -5591.325342 kJ/mol
# Density = 2.525086 g / cm^3
# Si number density = 25.308465 Si / 1000 Ang^3
#
#
#
# Elastic Constant Matrix: (Units=GPa)
#
#
# Indices 1 2 3 4 5 6 
#
# 1 73.2473 17.4908 6.7586 2.0259 10.0515 4.8750
# 2 17.4908 95.8000 22.2936 4.8867 -6.1673 -5.9530
# 3 6.7586 22.2936 76.2068 20.0717 8.2983 -2.3804
# 4 2.0259 4.8867 20.0717 47.1296 -3.0676 -6.8066
# 5 10.0515 -6.1673 8.2983 -3.0676 50.3365 -1.6976
# 6 4.8750 -5.9530 -2.3804 -6.8066 -1.6976 32.4273
#
#
#
# Elastic Compliance Matrix: (Units=1/GPa)
#
#
# Indices 1 2 3 4 5 6 
#
# 1 0.015142 -0.003184 0.000171 -0.001101 -0.003619 -0.003269
# 2 -0.003184 0.012214 -0.003808 0.001090 0.002922 0.002823
# 3 0.000171 -0.003808 0.016434 -0.007022 -0.003678 -0.001185
# 4 -0.001101 0.001090 -0.007022 0.025117 0.003220 0.005291
# 5 -0.003619 0.002922 -0.003678 0.003220 0.021838 0.002630
# 6 -0.003269 0.002823 -0.001185 0.005291 0.002630 0.033009
#
#
# Mechanical properties :
#
#
# Convention : Reuss Voigt Hill
#
# Bulk Modulus (GPa) = 33.17097 37.59335 35.38216
# Shear Modulus (GPa) = 33.91103 39.22610 36.56856
#
# Velocity S-wave (km/s) = 3.66445 3.94117 3.80533
# Velocity P-wave (km/s) = 5.57130 5.96630 5.77218
#
# Compressibility (1/GPa) = 0.03014684
#
# Stress axis : x y z
#
# Youngs Moduli (GPa) = 66.04296 81.87485 60.84989
#
# Poissons Ratio (x) = 0.26070 -0.01038
# Poissons Ratio (y) = 0.21029 0.23170
# Poissons Ratio (z) = -0.01127 0.31175
#
# Static dielectric constant tensor:
#      x y z
#    x 2.036130 0.011890 -0.039350 
#    y 0.011890 2.085000 -0.020830 
#    z -0.039350 -0.020830 2.047620 
# 
# From -- ./inp_files/522619.got.cif
#   From: 2010.05.17/outbox.cif.g08.bks.cpg/sg2_262_cif.got.tgz:522619.got - 2010.06.03 11:33:40.
