data_PCOD9033292
_publ_section_title
;
Structure prediction by ZEFSAII (Michael W. Deem and Ramdas Pophale) SiO2 
 PCOD9033292
Probable space group: P -1
;
_chemical_formula_sum "Si O2"
_cell_formula_units_Z 16
_cell_length_a 13.123215
_cell_length_b 8.240026
_cell_length_c 21.212318
_cell_angle_alpha 131.819920
_cell_angle_beta 155.194153
_cell_angle_gamma 50.686925
_cell_volume 714.248089
_symmetry_space_group_name_H-M "P -1"
_symmetry_group_IT_number 2
_symmetry_cell_setting 'triclinic'
loop_
_space_group_symop_operation_xyz
x,y,z
-x,-y,-z
loop_
_atom_site_type_symbol
_atom_site_label
_atom_site_fract_x
_atom_site_fract_y
_atom_site_fract_z
Si Si1 0.353478 0.644674 0.741779
Si Si2 0.656347 0.153497 0.482075
Si Si3 0.983884 0.456269 0.572673
Si Si4 0.782794 0.473359 0.008483
Si Si5 0.443882 0.191320 0.568398
Si Si6 0.220483 0.094506 0.794840
Si Si7 0.666176 0.519323 0.693748
Si Si8 0.433568 0.308623 0.866582
O O1 0.223596 0.677157 0.609808
O O2 0.189517 0.477085 0.640687
O O3 0.304884 0.862780 0.812436
O O4 0.627517 0.545703 0.878225
O O5 0.648443 0.338027 0.580925
O O6 0.522676 0.276205 0.379683
O O7 0.941587 0.087680 0.614102
O O8 0.540794 0.940589 0.390945
O O9 0.829622 0.687544 0.560462
O O10 0.154259 0.365236 0.701222
O O11 0.778960 0.695102 0.106039
O O12 0.063215 0.404244 0.134902
O O13 0.631200 0.308926 0.921942
O O14 0.608323 0.382561 0.688198
O O15 0.500000 0.000000 0.500000
O O16 0.413298 0.107774 0.849642
O O17 0.500000 0.500000 0.000000
#
# Coordination Sequence:
#
# PCOD9033292 Si02
#       8
#     2   2   2   2   2   2   2   2
#     4  10  20  34  56  78 112 150 174 233 279 336
#     4   9  17  31  52  80 108 137 185 234 273 328
#     4  10  20  36  54  80 111 144 185 225 285 332
#     4   9  19  35  51  80 115 145 183 227 283 330
#     4  10  19  33  55  83 105 144 190 234 272 331
#     4  10  17  32  55  84 106 139 189 232 279 329
#     4   9  18  32  51  77 110 145 178 231 281 318
#     4   9  19  33  53  81 112 143 175 236 285 328
#
# _framework density 22.40118
#
# number of rings (size 3 to 8) (size 9 to 14) (size 15 to 20)
#    0.000    2.500    1.250    1.125    0.000    3.500 
#    2.250    0.625    0.000    0.750    3.250    0.000 
#    0.000    0.000    0.000    0.000    0.000    0.000 
#
# Total GULP energy -89086.127936 kJ/mol
# GULP energy per Si atom -5567.882996 kJ/mol
# Density = 2.235019 g / cm^3
# Si number density = 22.401180 Si / 1000 Ang^3
#
#
#
# Elastic Constant Matrix: (Units=GPa)
#
#
# Indices 1 2 3 4 5 6 
#
# 1 70.8059 27.9441 38.1361 5.8502 14.1890 16.2723
# 2 27.9441 51.0947 14.0920 0.6762 11.2827 9.0816
# 3 38.1361 14.0920 100.6869 -15.1018 13.0480 14.5057
# 4 5.8502 0.6762 -15.1018 25.7845 -1.9425 4.2782
# 5 14.1890 11.2827 13.0480 -1.9425 29.9333 4.1680
# 6 16.2723 9.0816 14.5057 4.2782 4.1680 37.6250
#
#
#
# Elastic Compliance Matrix: (Units=1/GPa)
#
#
# Indices 1 2 3 4 5 6 
#
# 1 0.025142 -0.009566 -0.008595 -0.010254 -0.004735 -0.003560
# 2 -0.009566 0.026001 0.001356 0.002262 -0.005387 -0.002322
# 3 -0.008595 0.001356 0.015495 0.011453 -0.001937 -0.003672
# 4 -0.010254 0.002262 0.011453 0.049062 0.003097 -0.006449
# 5 -0.004735 -0.005387 -0.001937 0.003097 0.038805 -0.000556
# 6 -0.003560 -0.002322 -0.003672 -0.006449 -0.000556 0.030889
#
#
# Mechanical properties :
#
#
# Convention : Reuss Voigt Hill
#
# Bulk Modulus (GPa) = 30.27664 42.54802 36.41233
# Shear Modulus (GPa) = 21.73775 28.16292 24.95034
#
# Velocity S-wave (km/s) = 3.11848 3.54956 3.34098
# Velocity P-wave (km/s) = 5.14893 5.98615 5.58326
#
# Compressibility (1/GPa) = 0.03302877
#
# Stress axis : x y z
#
# Youngs Moduli (GPa) = 39.77396 38.45933 64.53527
#
# Poissons Ratio (x) = 0.36789 0.55470
# Poissons Ratio (y) = 0.38046 -0.08750
# Poissons Ratio (z) = 0.34187 -0.05215
#
# Static dielectric constant tensor:
#      x y z
#    x 1.904470 0.035200 -0.040370 
#    y 0.035200 1.837430 0.020280 
#    z -0.040370 0.020280 1.844670 
# 
# From -- ./inp_files/185861.got.cif
#   From: 2010.05.17/outbox.cif.g08.bks.cpg/sg2_93_cif.got.tgz:185861.got - 2010.06.03 11:33:40.
