data_PCOD9033239
_publ_section_title
;
Structure prediction by ZEFSAII (Michael W. Deem and Ramdas Pophale) SiO2 
 PCOD9033239
Probable space group: P -1
;
_chemical_formula_sum "Si O2"
_cell_formula_units_Z 14
_cell_length_a 10.468512
_cell_length_b 9.153832
_cell_length_c 11.444838
_cell_angle_alpha 88.153880
_cell_angle_beta 50.191903
_cell_angle_gamma 112.472603
_cell_volume 716.830706
_symmetry_space_group_name_H-M "P -1"
_symmetry_group_IT_number 2
_symmetry_cell_setting 'triclinic'
loop_
_space_group_symop_operation_xyz
x,y,z
-x,-y,-z
loop_
_atom_site_type_symbol
_atom_site_label
_atom_site_fract_x
_atom_site_fract_y
_atom_site_fract_z
Si Si1 0.775068 0.260514 0.436819
Si Si2 0.946664 0.821995 0.595898
Si Si3 0.448302 0.788316 0.216368
Si Si4 0.153608 0.908720 0.056375
Si Si5 0.240148 0.260668 0.056595
Si Si6 0.969298 0.344286 0.651323
Si Si7 0.955018 0.327351 0.094732
O O1 0.584499 0.210175 0.625480
O O2 0.780644 0.256705 0.293947
O O3 0.869687 0.156594 0.437413
O O4 0.922859 0.459910 0.378721
O O5 0.775411 0.750835 0.793867
O O6 0.914330 0.689883 0.515729
O O7 0.000000 0.000000 0.500000
O O8 0.242152 0.717139 0.277462
O O9 0.549182 0.683952 0.119506
O O10 0.609643 0.981809 0.078205
O O11 0.061402 0.773894 0.217457
O O12 0.111055 0.060907 0.094569
O O13 0.089222 0.811030 0.975110
O O14 0.142333 0.359139 0.058734
O O15 0.000000 0.500000 0.000000
#
# Coordination Sequence:
#
# PCOD9033239 Si02
#       7
#     2   2   2   2   2   2   2
#     4  10  22  37  59  82 115 154 186 228 283 335
#     4  10  17  32  55  83 111 143 186 225 274 340
#     4   9  20  36  58  84 118 140 188 234 287 327
#     4  10  20  35  63  80 114 149 192 227 279 328
#     4   9  21  36  58  85 112 149 187 236 277 330
#     4  11  19  37  60  84 115 154 181 228 288 340
#     4  11  21  39  61  81 111 153 198 225 277 339
#
# _framework density 19.530414
#
# number of rings (size 3 to 8) (size 9 to 14) (size 15 to 20)
#    0.857    1.143    2.857    2.571    0.000    0.571 
#    0.000    7.143   12.571    0.000    0.000    0.000 
#    0.000    0.000    0.000    0.000    0.000    0.000 
#
# Total GULP energy -78017.601634 kJ/mol
# GULP energy per Si atom -5572.685831 kJ/mol
# Density = 1.948596 g / cm^3
# Si number density = 19.530414 Si / 1000 Ang^3
#
#
#
# Elastic Constant Matrix: (Units=GPa)
#
#
# Indices 1 2 3 4 5 6 
#
# 1 31.6922 21.4053 28.7310 0.8301 16.0378 -16.4391
# 2 21.4053 78.0367 32.4552 7.2655 16.9402 -13.2421
# 3 28.7310 32.4552 148.3829 30.7420 22.2320 -17.2571
# 4 0.8301 7.2655 30.7420 45.8180 -4.3637 7.4591
# 5 16.0378 16.9402 22.2320 -4.3637 32.7544 1.2427
# 6 -16.4391 -13.2421 -17.2571 7.4591 1.2427 31.2927
#
#
#
# Elastic Compliance Matrix: (Units=1/GPa)
#
#
# Indices 1 2 3 4 5 6 
#
# 1 0.076095 -0.004347 -0.001378 -0.009998 -0.036972 0.041227
# 2 -0.004347 0.017130 -0.000218 -0.004193 -0.007375 0.006138
# 3 -0.001378 -0.000218 0.011228 -0.009576 -0.008413 0.007993
# 4 -0.009998 -0.004193 -0.009576 0.034361 0.018948 -0.021251
# 5 -0.036972 -0.007375 -0.008413 0.018948 0.061978 -0.034161
# 6 0.041227 0.006138 0.007993 -0.021251 -0.034161 0.067042
#
#
# Mechanical properties :
#
#
# Convention : Reuss Voigt Hill
#
# Bulk Modulus (GPa) = 10.80282 47.03276 28.91779
# Shear Modulus (GPa) = 16.09919 33.67439 24.88679
#
# Velocity S-wave (km/s) = 2.87420 4.15686 3.57355
# Velocity P-wave (km/s) = 4.06915 6.86829 5.64497
#
# Compressibility (1/GPa) = 0.09256841
#
# Stress axis : x y z
#
# Youngs Moduli (GPa) = 13.14142 58.37637 89.06525
#
# Poissons Ratio (x) = 0.25377 0.12270
# Poissons Ratio (y) = 0.05713 0.01938
# Poissons Ratio (z) = 0.01810 0.01270
#
# Static dielectric constant tensor:
#      x y z
#    x 1.681310 -0.008390 -0.005880 
#    y -0.008390 1.691880 0.030360 
#    z -0.005880 0.030360 1.722010 
# 
# From -- ./inp_files/414637.got.cif
#   From: 2010.05.17/outbox.cif.g08.bks.cpg/sg2_208_cif.got.tgz:414637.got - 2010.06.03 11:33:40.
