data_PCOD9033948
_publ_section_title
;
Structure prediction by ZEFSAII (Michael W. Deem and Ramdas Pophale) SiO2 
 PCOD9033948
Probable space group: P -1
;
_chemical_formula_sum "Si O2"
_cell_formula_units_Z 15
_cell_length_a 15.091326
_cell_length_b 6.750341
_cell_length_c 14.222187
_cell_angle_alpha 96.025482
_cell_angle_beta 149.468374
_cell_angle_gamma 70.026033
_cell_volume 635.087613
_symmetry_space_group_name_H-M "P -1"
_symmetry_group_IT_number 2
_symmetry_cell_setting 'triclinic'
loop_
_space_group_symop_operation_xyz
x,y,z
-x,-y,-z
loop_
_atom_site_type_symbol
_atom_site_label
_atom_site_fract_x
_atom_site_fract_y
_atom_site_fract_z
Si Si1 0.607362 0.760010 0.140822
Si Si2 0.299632 0.486358 0.301755
Si Si3 0.295883 0.108068 0.152060
Si Si4 0.767615 0.285504 0.209405
Si Si5 0.945855 0.473567 0.733819
Si Si6 0.000000 0.000000 0.000000
Si Si7 0.708752 0.884114 0.431538
Si Si8 0.834674 0.183449 0.485992
O O1 0.744163 0.536758 0.191005
O O2 0.726385 0.784896 0.337855
O O3 0.427229 0.717358 0.007647
O O4 0.500000 0.000000 0.000000
O O5 0.500000 0.500000 0.500000
O O6 0.341540 0.258109 0.274959
O O7 0.197305 0.488366 0.306899
O O8 0.136868 0.717017 0.112306
O O9 0.506261 0.914079 0.293631
O O10 0.165642 0.285979 0.959180
O O11 0.163416 0.016551 0.077688
O O12 0.771358 0.246207 0.323801
O O13 0.964304 0.065637 0.341389
O O14 0.892596 0.722238 0.659395
O O15 0.880161 0.364570 0.584791
O O16 0.683938 0.134547 0.406530
#
# Coordination Sequence:
#
# PCOD9033948 Si02
#       8
#     2   2   2   2   2   1   2   2
#     4  11  22  43  66  95 132 180 225 281 340 402
#     4  11  24  44  70  99 134 179 223 279 345 410
#     4  11  26  44  69 101 137 180 229 277 344 411
#     4  10  23  41  65  91 131 172 227 276 339 404
#     4  11  24  43  63  98 138 168 229 280 332 409
#     4  10  22  44  70  96 132 180 218 278 338 400
#     4  12  25  42  67 101 135 177 229 280 337 404
#     4  11  23  41  63  96 129 176 224 283 335 397
#
# _framework density 23.618790000000001
#
# number of rings (size 3 to 8) (size 9 to 14) (size 15 to 20)
#    0.000    1.067    2.667    4.000    0.000   10.133 
#    0.000    0.000    0.000    0.000    0.000    0.000 
#    0.000    0.000    0.000    0.000    0.000    0.000 
#
# Total GULP energy -83693.262556 kJ/mol
# GULP energy per Si atom -5579.550837 kJ/mol
# Density = 2.356503 g / cm^3
# Si number density = 23.618790 Si / 1000 Ang^3
#
#
#
# Elastic Constant Matrix: (Units=GPa)
#
#
# Indices 1 2 3 4 5 6 
#
# 1 53.5100 19.2739 2.6728 -9.3908 -3.8685 13.7219
# 2 19.2739 79.2580 -8.5600 -14.7736 -16.3728 11.2595
# 3 2.6728 -8.5600 52.5486 -5.1113 -5.6541 5.1482
# 4 -9.3908 -14.7736 -5.1113 36.8098 1.8298 -3.3358
# 5 -3.8685 -16.3728 -5.6541 1.8298 26.8405 -6.1952
# 6 13.7219 11.2595 5.1482 -3.3358 -6.1952 35.5914
#
#
#
# Elastic Compliance Matrix: (Units=1/GPa)
#
#
# Indices 1 2 3 4 5 6 
#
# 1 0.022587 -0.004251 -0.000968 0.003344 -0.001421 -0.007158
# 2 -0.004251 0.017791 0.005045 0.006029 0.010349 -0.002353
# 3 -0.000968 0.005045 0.021277 0.004157 0.006495 -0.002780
# 4 0.003344 0.006029 0.004157 0.030838 0.002838 -0.000414
# 5 -0.001421 0.010349 0.006495 0.002838 0.045587 0.004536
# 6 -0.007158 -0.002353 -0.002780 -0.000414 0.004536 0.032753
#
#
# Mechanical properties :
#
#
# Convention : Reuss Voigt Hill
#
# Bulk Modulus (GPa) = 16.31115 23.56557 19.93836
# Shear Modulus (GPa) = 26.09378 31.31035 28.70207
#
# Velocity S-wave (km/s) = 3.32744 3.64490 3.48978
# Velocity P-wave (km/s) = 4.65655 5.26430 4.96973
#
# Compressibility (1/GPa) = 0.06130776
#
# Stress axis : x y z
#
# Youngs Moduli (GPa) = 44.27318 56.20688 47.00002
#
# Poissons Ratio (x) = 0.23892 0.04548
# Poissons Ratio (y) = 0.18819 -0.23711
# Poissons Ratio (z) = 0.04284 -0.28355
#
# Static dielectric constant tensor:
#      x y z
#    x 1.903530 0.052600 0.024120 
#    y 0.052600 1.968110 0.032400 
#    z 0.024120 0.032400 1.908920 
# 
# From -- ./inp_files/201186.got.cif
#   From: 2010.05.17/outbox.cif.g08.bks.cpg/sg2_101_cif.got.tgz:201186.got - 2010.06.03 11:33:40.
