data_PCOD9033438
_publ_section_title
;
Structure prediction by ZEFSAII (Michael W. Deem and Ramdas Pophale) SiO2 
 PCOD9033438
Probable space group: P -1
;
_chemical_formula_sum "Si O2"
_cell_formula_units_Z 16
_cell_length_a 10.761366
_cell_length_b 7.756666
_cell_length_c 13.828409
_cell_angle_alpha 96.515220
_cell_angle_beta 83.968967
_cell_angle_gamma 39.572293
_cell_volume 695.971937
_symmetry_space_group_name_H-M "P -1"
_symmetry_group_IT_number 2
_symmetry_cell_setting 'triclinic'
loop_
_space_group_symop_operation_xyz
x,y,z
-x,-y,-z
loop_
_atom_site_type_symbol
_atom_site_label
_atom_site_fract_x
_atom_site_fract_y
_atom_site_fract_z
Si Si1 0.141622 0.678040 0.484418
Si Si2 0.467503 0.661904 0.192920
Si Si3 0.397226 0.238070 0.160634
Si Si4 0.550614 0.263875 0.314069
Si Si5 0.929833 0.224338 0.097419
Si Si6 0.020737 0.247150 0.294684
Si Si7 0.016849 0.312096 0.689580
Si Si8 0.325148 0.954827 0.042442
O O1 0.372916 0.466938 0.421255
O O2 0.109151 0.654529 0.594497
O O3 0.056339 0.633330 0.411025
O O4 0.000000 0.000000 0.500000
O O5 0.520379 0.448348 0.248497
O O6 0.685038 0.512009 0.138681
O O7 0.377931 0.739128 0.096393
O O8 0.266028 0.972119 0.278020
O O9 0.512543 0.129804 0.246271
O O10 0.369567 0.078454 0.108574
O O11 0.168761 0.556628 0.221367
O O12 0.531211 0.194746 0.070431
O O13 0.773053 0.014175 0.325805
O O14 0.974269 0.166234 0.205666
O O15 0.085210 0.207553 0.052670
O O16 0.000000 0.000000 0.000000
O O17 0.965180 0.502488 0.282570
#
# Coordination Sequence:
#
# PCOD9033438 Si02
#       8
#     2   2   2   2   2   2   2   2
#     4  11  25  47  73 103 142 184 233 294 354 417
#     4  11  24  44  71  98 143 187 236 285 351 416
#     4  10  22  44  68 100 143 183 230 295 346 413
#     4  11  26  42  73 107 137 181 237 294 357 412
#     4  11  25  41  70 109 139 182 238 288 341 418
#     4  11  25  48  71 102 142 190 231 287 356 417
#     4  11  25  45  72 103 143 179 236 290 356 418
#     4  10  23  43  69  99 140 190 234 283 351 413
#
# _framework density 22.989431
#
# number of rings (size 3 to 8) (size 9 to 14) (size 15 to 20)
#    0.000    1.250    3.750    1.125    3.500    9.500 
#    0.000    2.500    0.000    0.000    0.000    0.000 
#    0.000    0.000    0.000    0.000    0.000    0.000 
#
# Total GULP energy -89266.661154 kJ/mol
# GULP energy per Si atom -5579.166322 kJ/mol
# Density = 2.293711 g / cm^3
# Si number density = 22.989431 Si / 1000 Ang^3
#
#
#
# Elastic Constant Matrix: (Units=GPa)
#
#
# Indices 1 2 3 4 5 6 
#
# 1 58.1866 20.6164 38.5149 16.4932 -7.0556 -15.0859
# 2 20.6164 108.3567 45.7025 24.4956 -14.8609 -24.6203
# 3 38.5149 45.7025 196.2023 23.7619 -26.2477 -18.4527
# 4 16.4932 24.4956 23.7619 21.7866 -9.7537 -11.1964
# 5 -7.0556 -14.8609 -26.2477 -9.7537 40.2605 7.6341
# 6 -15.0859 -24.6203 -18.4527 -11.1964 7.6341 40.8593
#
#
#
# Elastic Compliance Matrix: (Units=1/GPa)
#
#
# Indices 1 2 3 4 5 6 
#
# 1 0.023810 0.000638 -0.002943 -0.014099 -0.001743 0.004309
# 2 0.000638 0.013359 -0.001356 -0.011517 0.000531 0.004418
# 3 -0.002943 -0.001356 0.006630 -0.002264 0.002767 -0.000047
# 4 -0.014099 -0.011517 -0.002264 0.079952 0.009863 0.006898
# 5 -0.001743 0.000531 0.002767 0.009863 0.029271 -0.001840
# 6 0.004309 0.004418 -0.000047 0.006898 -0.001840 0.030940
#
#
# Mechanical properties :
#
#
# Convention : Reuss Voigt Hill
#
# Bulk Modulus (GPa) = 27.41324 63.60145 45.50735
# Shear Modulus (GPa) = 24.57676 37.77542 31.17609
#
# Velocity S-wave (km/s) = 3.27317 4.05799 3.68653
# Velocity P-wave (km/s) = 5.12202 7.04855 6.16105
#
# Compressibility (1/GPa) = 0.03647872
#
# Stress axis : x y z
#
# Youngs Moduli (GPa) = 41.99881 74.85357 150.82261
#
# Poissons Ratio (x) = -0.04778 0.44389
# Poissons Ratio (y) = -0.02681 0.20449
# Poissons Ratio (z) = 0.12361 0.10149
#
# Static dielectric constant tensor:
#      x y z
#    x 1.951010 0.016360 0.014500 
#    y 0.016360 1.873700 0.015340 
#    z 0.014500 0.015340 1.871280 
# 
# From -- ./inp_files/515653.got.cif
#   From: 2010.05.17/outbox.cif.g08.bks.cpg/sg2_258_cif.got.tgz:515653.got - 2010.06.03 11:33:40.
