data_PCOD9033583
_publ_section_title
;
Structure prediction by ZEFSAII (Michael W. Deem and Ramdas Pophale) SiO2 
 PCOD9033583
Probable space group: P -1
;
_chemical_formula_sum "Si O2"
_cell_formula_units_Z 16
_cell_length_a 8.077410
_cell_length_b 18.738593
_cell_length_c 8.147717
_cell_angle_alpha 95.139355
_cell_angle_beta 114.818561
_cell_angle_gamma 43.675645
_cell_volume 726.532414
_symmetry_space_group_name_H-M "P -1"
_symmetry_group_IT_number 2
_symmetry_cell_setting 'triclinic'
loop_
_space_group_symop_operation_xyz
x,y,z
-x,-y,-z
loop_
_atom_site_type_symbol
_atom_site_label
_atom_site_fract_x
_atom_site_fract_y
_atom_site_fract_z
Si Si1 0.193160 0.098511 0.321998
Si Si2 0.173482 0.097871 0.932659
Si Si3 0.760482 0.351267 0.842976
Si Si4 0.106809 0.887816 0.495323
Si Si5 0.435108 0.341424 0.246546
Si Si6 0.146082 0.532765 0.548532
Si Si7 0.035640 0.408077 0.848873
Si Si8 0.180275 0.664235 0.770907
O O1 0.004529 0.117539 0.385831
O O2 0.109591 0.206909 0.307765
O O3 0.500000 0.000000 0.500000
O O4 0.155575 0.082371 0.115755
O O5 0.010946 0.222427 0.878343
O O6 0.022352 0.096574 0.729589
O O7 0.500000 0.000000 0.000000
O O8 0.480303 0.423632 0.635339
O O9 0.876176 0.397035 0.888455
O O10 0.676224 0.365289 0.000138
O O11 0.424507 0.761786 0.605398
O O12 0.000000 0.000000 0.500000
O O13 0.147380 0.464453 0.210111
O O14 0.640170 0.347106 0.293772
O O15 0.337060 0.333949 0.033398
O O16 0.984238 0.616816 0.346459
O O17 0.137805 0.594323 0.699630
O O18 0.000000 0.500000 0.500000
#
# Coordination Sequence:
#
# PCOD9033583 Si02
#       8
#     2   2   2   2   2   2   2   2
#     4  10  22  44  68  98 129 175 235 276 337 410
#     4  11  24  43  72  99 135 182 229 281 346 407
#     4  11  24  42  69  96 132 176 226 273 339 411
#     4  11  25  44  70  98 139 175 228 289 342 398
#     4  10  23  43  64  93 137 175 219 274 337 402
#     4  12  25  40  63 100 134 172 224 274 338 405
#     4  11  24  38  68  95 132 174 223 268 334 411
#     4  10  23  42  65  91 134 177 210 279 338 396
#
# _framework density 22.022417000000001
#
# number of rings (size 3 to 8) (size 9 to 14) (size 15 to 20)
#    0.000    1.250    2.500    2.250    8.750    0.500 
#    2.250    0.000    0.000    0.000    0.000    0.000 
#    0.000    0.000    0.000    0.000    0.000    0.000 
#
# Total GULP energy -89253.955705 kJ/mol
# GULP energy per Si atom -5578.372232 kJ/mol
# Density = 2.197229 g / cm^3
# Si number density = 22.022417 Si / 1000 Ang^3
#
#
#
# Elastic Constant Matrix: (Units=GPa)
#
#
# Indices 1 2 3 4 5 6 
#
# 1 64.6546 20.0560 18.1606 1.6597 0.5992 13.7190
# 2 20.0560 137.5341 58.4841 -6.5327 8.1817 20.5993
# 3 18.1606 58.4841 161.6130 -4.7647 6.9199 4.1001
# 4 1.6597 -6.5327 -4.7647 31.8918 -7.1988 -7.1777
# 5 0.5992 8.1817 6.9199 -7.1988 36.6284 3.8994
# 6 13.7190 20.5993 4.1001 -7.1777 3.8994 28.5954
#
#
#
# Elastic Compliance Matrix: (Units=1/GPa)
#
#
# Indices 1 2 3 4 5 6 
#
# 1 0.018112 -0.000820 -0.001633 -0.003209 0.000495 -0.008737
# 2 -0.000820 0.009722 -0.003235 -0.000010 -0.000908 -0.006025
# 3 -0.001633 -0.003235 0.007541 0.000912 -0.000748 0.002363
# 4 -0.003209 -0.000010 0.000912 0.035084 0.005773 0.009435
# 5 0.000495 -0.000908 -0.000748 0.005773 0.028982 -0.001979
# 6 -0.008737 -0.006025 0.002363 0.009435 -0.001979 0.045802
#
#
# Mechanical properties :
#
#
# Convention : Reuss Voigt Hill
#
# Bulk Modulus (GPa) = 41.66754 61.91145 51.78950
# Shear Modulus (GPa) = 30.37359 37.22986 33.80172
#
# Velocity S-wave (km/s) = 3.71780 4.11608 3.92200
# Velocity P-wave (km/s) = 6.11482 7.12485 6.63907
#
# Compressibility (1/GPa) = 0.02399949
#
# Stress axis : x y z
#
# Youngs Moduli (GPa) = 55.21337 102.86114 132.61665
#
# Poissons Ratio (x) = 0.08436 0.21650
# Poissons Ratio (y) = 0.04528 0.42895
# Poissons Ratio (z) = 0.09014 0.33271
#
# Static dielectric constant tensor:
#      x y z
#    x 1.378900 0.423290 0.483540 
#    y 0.423290 1.387200 -0.565730 
#    z 0.483540 -0.565730 1.266560 
# 
# From -- ./inp_files/217914.got.cif
#   From: 2010.05.17/outbox.cif.g08.bks.cpg/sg2_109_cif.got.tgz:217914.got - 2010.06.03 11:33:40.
