data_PCOD9033127
_publ_section_title
;
Structure prediction by ZEFSAII (Michael W. Deem and Ramdas Pophale) SiO2 
 PCOD9033127
Probable space group: P -1
;
_chemical_formula_sum "Si O2"
_cell_formula_units_Z 14
_cell_length_a 20.374036
_cell_length_b 5.402455
_cell_length_c 8.566903
_cell_angle_alpha 71.263829
_cell_angle_beta 133.198156
_cell_angle_gamma 82.995257
_cell_volume 565.578146
_symmetry_space_group_name_H-M "P -1"
_symmetry_group_IT_number 2
_symmetry_cell_setting 'triclinic'
loop_
_space_group_symop_operation_xyz
x,y,z
-x,-y,-z
loop_
_atom_site_type_symbol
_atom_site_label
_atom_site_fract_x
_atom_site_fract_y
_atom_site_fract_z
Si Si1 0.634661 0.425298 0.579486
Si Si2 0.190994 0.235691 0.455849
Si Si3 0.429128 0.964661 0.265228
Si Si4 0.150949 0.744691 0.939143
Si Si5 0.115055 0.912066 0.160424
Si Si6 0.386413 0.234158 0.825799
Si Si7 0.963308 0.698518 0.554859
O O1 0.515983 0.673108 0.371780
O O2 0.645214 0.125198 0.740290
O O3 0.643698 0.476658 0.396689
O O4 0.724808 0.466435 0.805529
O O5 0.169078 0.556080 0.293509
O O6 0.313042 0.086071 0.708829
O O7 0.117427 0.344874 0.464640
O O8 0.158876 0.044537 0.332613
O O9 0.500000 0.000000 0.500000
O O10 0.384444 0.239515 0.011414
O O11 0.065188 0.638016 0.829685
O O12 0.108019 0.945538 0.672820
O O13 0.127450 0.990286 0.988388
O O14 0.000000 0.000000 0.000000
O O15 0.500000 0.000000 0.000000
O O16 0.000000 0.500000 0.500000
#
# Coordination Sequence:
#
# PCOD9033127 Si02
#       7
#     2   2   2   2   2   2   2
#     4  10  22  44  66 101 139 183 242 299 368 440
#     4  12  26  47  71 108 143 197 242 306 375 439
#     4  10  23  44  69  99 142 187 238 305 369 437
#     4  11  24  42  66 102 139 189 239 301 369 440
#     4  12  25  45  73 102 145 187 244 302 362 444
#     4  10  23  46  70 107 142 189 251 302 375 446
#     4  11  26  43  68 100 145 190 241 303 371 446
#
# _framework density 24.753430999999999
#
# number of rings (size 3 to 8) (size 9 to 14) (size 15 to 20)
#    0.000    1.143    2.857    2.143    4.000    5.143 
#    7.714    0.000    0.000    0.000    0.000    0.000 
#    0.000    0.000    0.000    0.000    0.000    0.000 
#
# Total GULP energy -77974.239813 kJ/mol
# GULP energy per Si atom -5569.588558 kJ/mol
# Density = 2.469709 g / cm^3
# Si number density = 24.753431 Si / 1000 Ang^3
#
#
#
# Elastic Constant Matrix: (Units=GPa)
#
#
# Indices 1 2 3 4 5 6 
#
# 1 157.3331 26.1499 61.8779 18.7180 -0.2963 22.5929
# 2 26.1499 53.2198 31.3012 25.4190 2.6684 -9.7565
# 3 61.8779 31.3012 126.2918 21.0303 6.3488 14.2542
# 4 18.7180 25.4190 21.0303 44.1514 11.4428 -4.5069
# 5 -0.2963 2.6684 6.3488 11.4428 64.1278 1.4046
# 6 22.5929 -9.7565 14.2542 -4.5069 1.4046 27.3754
#
#
#
# Elastic Compliance Matrix: (Units=1/GPa)
#
#
# Indices 1 2 3 4 5 6 
#
# 1 0.009334 -0.003905 -0.002469 -0.001598 0.000913 -0.008119
# 2 -0.003905 0.033581 -0.006038 -0.013484 0.001237 0.016052
# 3 -0.002469 -0.006038 0.011628 -0.001540 -0.000496 -0.006397
# 4 -0.001598 -0.013484 -0.001540 0.033526 -0.005344 0.003109
# 5 0.000913 0.001237 -0.000496 -0.005344 0.016588 -0.001785
# 6 -0.008119 0.016052 -0.006397 0.003109 -0.001785 0.052885
#
#
# Mechanical properties :
#
#
# Convention : Reuss Voigt Hill
#
# Bulk Modulus (GPa) = 33.64911 63.94476 48.79693
# Shear Modulus (GPa) = 26.00485 41.63196 33.81841
#
# Velocity S-wave (km/s) = 3.24474 4.10551 3.70024
# Velocity P-wave (km/s) = 5.25938 6.95430 6.16536
#
# Compressibility (1/GPa) = 0.02971847
#
# Stress axis : x y z
#
# Youngs Moduli (GPa) = 107.13856 29.77884 86.00189
#
# Poissons Ratio (x) = 0.11629 0.21230
# Poissons Ratio (y) = 0.41839 0.51929
# Poissons Ratio (z) = 0.26448 0.17981
#
# Static dielectric constant tensor:
#      x y z
#    x 2.099790 0.099250 -0.066070 
#    y 0.099250 2.148320 -0.236450 
#    z -0.066070 -0.236450 2.315450 
# 
# From -- ./inp_files/139497.got.cif
#   From: 2010.05.17/outbox.cif.g08.bks.cpg/sg2_70_cif.got.tgz:139497.got - 2010.06.03 11:33:40.
