data_PCOD9033503
_publ_section_title
;
Structure prediction by ZEFSAII (Michael W. Deem and Ramdas Pophale) SiO2 
 PCOD9033503
Probable space group: P -1
;
_chemical_formula_sum "Si O2"
_cell_formula_units_Z 16
_cell_length_a 11.783563
_cell_length_b 16.341954
_cell_length_c 10.248931
_cell_angle_alpha 113.558642
_cell_angle_beta 134.508131
_cell_angle_gamma 31.401490
_cell_volume 619.739527
_symmetry_space_group_name_H-M "P -1"
_symmetry_group_IT_number 2
_symmetry_cell_setting 'triclinic'
loop_
_space_group_symop_operation_xyz
x,y,z
-x,-y,-z
loop_
_atom_site_type_symbol
_atom_site_label
_atom_site_fract_x
_atom_site_fract_y
_atom_site_fract_z
Si Si1 0.085109 0.573813 0.838647
Si Si2 0.110401 0.232963 0.627336
Si Si3 0.697492 0.371953 0.801214
Si Si4 0.310556 0.277118 0.602208
Si Si5 0.003633 0.098375 0.400619
Si Si6 0.696241 0.239599 0.511577
Si Si7 0.698059 0.252284 0.970258
Si Si8 0.049312 0.420268 0.856727
O O1 0.351112 0.468972 0.876045
O O2 0.731829 0.740057 0.589373
O O3 0.197337 0.420492 0.878594
O O4 0.126237 0.622333 0.019051
O O5 0.707020 0.422184 0.397485
O O6 0.223282 0.074870 0.608847
O O7 0.194323 0.251324 0.835485
O O8 0.258103 0.222189 0.624540
O O9 0.818712 0.268930 0.698536
O O10 0.801746 0.254488 0.927430
O O11 0.618972 0.188997 0.825147
O O12 0.000000 0.500000 0.500000
O O13 0.719902 0.236847 0.373798
O O14 0.907995 0.157417 0.210728
O O15 0.134063 0.934504 0.419016
O O16 0.329360 0.409366 0.377817
O O17 0.000000 0.500000 0.000000
#
# Coordination Sequence:
#
# PCOD9033503 Si02
#       8
#     2   2   2   2   2   2   2   2
#     4  11  19  34  60  94 123 150 190 260 307 345
#     4  11  20  35  63  92 115 158 200 251 294 362
#     4  11  21  36  65  96 120 151 211 256 295 346
#     4  10  17  32  55  94 124 147 186 254 305 344
#     4  11  24  43  63  82 125 168 207 237 307 369
#     4  10  26  45  57  87 127 164 197 258 299 357
#     4  11  19  36  65  94 119 160 199 248 303 362
#     4  11  23  37  61  91 120 152 202 254 304 350
#
# _framework density 25.817297
#
# number of rings (size 3 to 8) (size 9 to 14) (size 15 to 20)
#    0.000    1.250    6.250    2.625    1.750    1.500 
#    0.000    1.875    0.000    3.000    0.000    0.000 
#    0.000    0.000    0.000    0.000    0.000    0.000 
#
# Total GULP energy -89389.137697 kJ/mol
# GULP energy per Si atom -5586.821106 kJ/mol
# Density = 2.575854 g / cm^3
# Si number density = 25.817297 Si / 1000 Ang^3
#
#
#
# Elastic Constant Matrix: (Units=GPa)
#
#
# Indices 1 2 3 4 5 6 
#
# 1 56.8704 15.0270 2.2975 0.2232 9.0013 19.0151
# 2 15.0270 65.3549 44.5238 35.3071 13.3706 10.2040
# 3 2.2975 44.5238 136.9879 48.1020 5.5847 7.3128
# 4 0.2232 35.3071 48.1020 45.9424 14.8044 5.0004
# 5 9.0013 13.3706 5.5847 14.8044 37.7526 12.4494
# 6 19.0151 10.2040 7.3128 5.0004 12.4494 34.1794
#
#
#
# Elastic Compliance Matrix: (Units=1/GPa)
#
#
# Indices 1 2 3 4 5 6 
#
# 1 0.023559 -0.007187 0.000080 0.007266 -0.002230 -0.011229
# 2 -0.007187 0.029665 -0.002398 -0.020065 -0.000119 -0.001366
# 3 0.000080 -0.002398 0.012298 -0.012259 0.004402 -0.001769
# 4 0.007266 -0.020065 -0.012259 0.054560 -0.014869 0.002005
# 5 -0.002230 -0.000119 0.004402 -0.014869 0.035702 -0.010494
# 6 -0.011229 -0.001366 -0.001769 0.002005 -0.010494 0.039820
#
#
# Mechanical properties :
#
#
# Convention : Reuss Voigt Hill
#
# Bulk Modulus (GPa) = 21.50047 42.54554 32.02300
# Shear Modulus (GPa) = 21.72811 36.73254 29.23033
#
# Velocity S-wave (km/s) = 2.90420 3.77608 3.36847
# Velocity P-wave (km/s) = 4.42627 5.96045 5.24970
#
# Compressibility (1/GPa) = 0.04651061
#
# Stress axis : x y z
#
# Youngs Moduli (GPa) = 42.44741 33.71028 81.31677
#
# Poissons Ratio (x) = 0.24228 -0.00649
# Poissons Ratio (y) = 0.30508 0.19496
# Poissons Ratio (z) = -0.00339 0.08082
#
# Static dielectric constant tensor:
#      x y z
#    x 2.007210 -0.009440 0.062060 
#    y -0.009440 2.154620 0.084710 
#    z 0.062060 0.084710 2.171800 
# 
# From -- ./inp_files/225368.got.cif
#   From: 2010.05.17/outbox.cif.g08.bks.cpg/sg2_113_cif.got.tgz:225368.got - 2010.06.03 11:33:40.
