data_PCOD9033755
_publ_section_title
;
Structure prediction by ZEFSAII (Michael W. Deem and Ramdas Pophale) SiO2 
 PCOD9033755
Probable space group: P -1
;
_chemical_formula_sum "Si O2"
_cell_formula_units_Z 14
_cell_length_a 10.562632
_cell_length_b 8.960959
_cell_length_c 10.695314
_cell_angle_alpha 82.507956
_cell_angle_beta 38.254899
_cell_angle_gamma 80.473373
_cell_volume 618.148194
_symmetry_space_group_name_H-M "P -1"
_symmetry_group_IT_number 2
_symmetry_cell_setting 'triclinic'
loop_
_space_group_symop_operation_xyz
x,y,z
-x,-y,-z
loop_
_atom_site_type_symbol
_atom_site_label
_atom_site_fract_x
_atom_site_fract_y
_atom_site_fract_z
Si Si1 0.287894 0.884922 0.792022
Si Si2 0.086638 0.624830 0.004742
Si Si3 0.735582 0.818109 0.842888
Si Si4 0.685086 0.776834 0.355557
Si Si5 0.306534 0.843565 0.070479
Si Si6 0.561169 0.620171 0.215322
Si Si7 0.118255 0.638801 0.438105
O O1 0.516779 0.814442 0.587633
O O2 0.264828 0.057168 0.747705
O O3 0.137188 0.768735 0.866894
O O4 0.245163 0.871040 0.972784
O O5 0.898357 0.680764 0.235153
O O6 0.298395 0.538134 0.898742
O O7 0.000000 0.500000 0.000000
O O8 0.953162 0.744081 0.635350
O O9 0.736780 0.996042 0.843751
O O10 0.551464 0.796923 0.891341
O O11 0.657580 0.740415 0.037067
O O12 0.586216 0.685705 0.328816
O O13 0.191254 0.724557 0.249723
O O14 0.327432 0.604141 0.360042
O O15 0.000000 0.500000 0.500000
#
# Coordination Sequence:
#
# PCOD9033755 Si02
#       7
#     2   2   2   2   2   2   2
#     4  11  23  42  71  99 135 170 232 274 326 402
#     4  10  24  42  66  95 136 178 220 272 333 390
#     4  10  22  44  69  97 134 171 226 277 335 394
#     4  10  23  46  68  99 130 179 225 279 328 388
#     4  10  23  44  68  98 133 177 221 279 327 401
#     4  10  23  44  69  97 136 175 219 279 332 400
#     4  11  26  42  70 103 135 174 222 270 344 404
#
# _framework density 22.648292000000001
#
# number of rings (size 3 to 8) (size 9 to 14) (size 15 to 20)
#    0.000    1.714    1.429    0.857    4.000    8.000 
#    5.143    0.000    0.000    0.000    0.000    0.000 
#    0.000    0.000    0.000    0.000    0.000    0.000 
#
# Total GULP energy -78275.889806 kJ/mol
# GULP energy per Si atom -5591.134986 kJ/mol
# Density = 2.259674 g / cm^3
# Si number density = 22.648292 Si / 1000 Ang^3
#
#
#
# Elastic Constant Matrix: (Units=GPa)
#
#
# Indices 1 2 3 4 5 6 
#
# 1 87.6233 31.2890 49.9342 0.1601 -23.0728 7.9387
# 2 31.2890 109.3438 59.1678 -9.0460 -32.5700 11.3735
# 3 49.9342 59.1678 134.0956 12.4927 -40.1501 -0.6872
# 4 0.1601 -9.0460 12.4927 53.1009 -10.1951 -14.8052
# 5 -23.0728 -32.5700 -40.1501 -10.1951 37.4583 4.7522
# 6 7.9387 11.3735 -0.6872 -14.8052 4.7522 24.0634
#
#
#
# Elastic Compliance Matrix: (Units=1/GPa)
#
#
# Indices 1 2 3 4 5 6 
#
# 1 0.016033 0.000417 -0.004235 0.000444 0.006664 -0.006650
# 2 0.000417 0.015786 -0.004010 0.003718 0.011677 -0.007732
# 3 -0.004235 -0.004010 0.013214 -0.002107 0.007378 0.000916
# 4 0.000444 0.003718 -0.002107 0.024491 0.006412 0.011838
# 5 0.006664 0.011677 0.007378 0.006412 0.052372 -0.013905
# 6 -0.006650 -0.007732 0.000916 0.011838 -0.013905 0.057461
#
#
# Mechanical properties :
#
#
# Convention : Reuss Voigt Hill
#
# Bulk Modulus (GPa) = 34.03951 67.98273 51.01112
# Shear Modulus (GPa) = 24.41319 35.63598 30.02458
#
# Velocity S-wave (km/s) = 3.28674 3.97098 3.64495
# Velocity P-wave (km/s) = 5.42824 7.14890 6.34715
#
# Compressibility (1/GPa) = 0.02937762
#
# Stress axis : x y z
#
# Youngs Moduli (GPa) = 62.37043 63.34564 75.67767
#
# Poissons Ratio (x) = -0.02641 0.32046
# Poissons Ratio (y) = -0.02600 0.30350
# Poissons Ratio (z) = 0.26411 0.25404
#
# Static dielectric constant tensor:
#      x y z
#    x 1.889460 0.025860 -0.033840 
#    y 0.025860 1.885510 -0.013170 
#    z -0.033840 -0.013170 1.807970 
# 
# From -- ./inp_files/26961.got.cif
#   From: 2010.05.17/outbox.cif.g08.bks.cpg/sg2_14_cif.got.tgz:26961.got - 2010.06.03 11:33:40.
