data_PCOD9033132
_publ_section_title
;
Structure prediction by ZEFSAII (Michael W. Deem and Ramdas Pophale) SiO2 
 PCOD9033132
Probable space group: P -1
;
_chemical_formula_sum "Si O2"
_cell_formula_units_Z 10
_cell_length_a 5.299282
_cell_length_b 12.902773
_cell_length_c 12.344032
_cell_angle_alpha 36.705345
_cell_angle_beta 126.907438
_cell_angle_gamma 110.792481
_cell_volume 389.002935
_symmetry_space_group_name_H-M "P -1"
_symmetry_group_IT_number 2
_symmetry_cell_setting 'triclinic'
loop_
_space_group_symop_operation_xyz
x,y,z
-x,-y,-z
loop_
_atom_site_type_symbol
_atom_site_label
_atom_site_fract_x
_atom_site_fract_y
_atom_site_fract_z
Si Si1 0.118512 0.406446 0.992638
Si Si2 0.134855 0.491436 0.383030
Si Si3 0.102239 0.937149 0.859206
Si Si4 0.872662 0.802974 0.196174
Si Si5 0.754429 0.111994 0.432513
O O1 0.512096 0.306583 0.175960
O O2 0.974766 0.235965 0.070302
O O3 0.000000 0.500000 0.000000
O O4 0.958725 0.534230 0.743573
O O5 0.500000 0.500000 0.500000
O O6 0.045569 0.354166 0.559314
O O7 0.952267 0.696123 0.194783
O O8 0.960547 0.045514 0.842509
O O9 0.485414 0.878266 0.027107
O O10 0.991099 0.093778 0.610723
O O11 0.500000 0.000000 0.500000
O O12 0.000000 0.000000 0.500000
#
# Coordination Sequence:
#
# PCOD9033132 Si02
#       5
#     2   2   2   2   2
#     4  11  25  44  73 107 145 189 240 302 366 440
#     4  11  23  43  68 100 140 179 235 295 361 427
#     4  10  22  44  66 102 137 185 240 294 361 430
#     4  10  23  42  71 100 135 182 242 294 356 435
#     4  10  23  44  69 100 147 191 243 297 368 441
#
# _framework density 25.706745999999999
#
# number of rings (size 3 to 8) (size 9 to 14) (size 15 to 20)
#    0.000    1.600    2.000    1.200    2.800    4.000 
#    3.600    6.000    0.000    0.000    0.000    0.000 
#    0.000    0.000    0.000    0.000    0.000    0.000 
#
# Total GULP energy -55763.693467 kJ/mol
# GULP energy per Si atom -5576.369347 kJ/mol
# Density = 2.564824 g / cm^3
# Si number density = 25.706746 Si / 1000 Ang^3
#
#
#
# Elastic Constant Matrix: (Units=GPa)
#
#
# Indices 1 2 3 4 5 6 
#
# 1 47.7894 61.2010 3.9835 -41.0437 -26.7746 -43.3132
# 2 61.2010 221.4615 64.9542 27.4371 7.2765 -25.6218
# 3 3.9835 64.9542 149.2694 -24.5817 -34.6194 -29.2668
# 4 -41.0437 27.4371 -24.5817 -6.3832 -55.7706 -45.5156
# 5 -26.7746 7.2765 -34.6194 -55.7706 1.4193 -25.8723
# 6 -43.3132 -25.6218 -29.2668 -45.5156 -25.8723 46.0115
#
#
#
# Elastic Compliance Matrix: (Units=1/GPa)
#
#
# Indices 1 2 3 4 5 6 
#
# 1 0.013778 -0.002135 -0.002525 -0.005404 -0.009185 -0.000335
# 2 -0.002135 0.005527 -0.001066 0.001152 0.002316 0.002833
# 3 -0.002525 -0.001066 0.006533 -0.002387 -0.000215 -0.001296
# 4 -0.005404 0.001152 -0.002387 0.006257 -0.009072 -0.004875
# 5 -0.009185 0.002316 -0.000215 -0.009072 0.015403 -0.007806
# 6 -0.000335 0.002833 -0.001296 -0.004875 -0.007806 0.012959
#
#
# Mechanical properties :
#
#
# Convention : Reuss Voigt Hill
#
# Bulk Modulus (GPa) = 69.50152 75.42198 72.46175
# Shear Modulus (GPa) = 65.18634 27.43495 46.31064
#
# Velocity S-wave (km/s) = 5.04110 3.27039 4.24901
# Velocity P-wave (km/s) = 7.80888 6.60785 7.23334
#
# Compressibility (1/GPa) = 0.01438817
#
# Stress axis : x y z
#
# Youngs Moduli (GPa) = 72.57926 180.93776 153.05961
#
# Poissons Ratio (x) = 0.38622 0.38644
# Poissons Ratio (y) = 0.15492 0.16312
# Poissons Ratio (z) = 0.18325 0.19283
#
# Static dielectric constant tensor:
#      x y z
#    x 1.568110 0.522890 -0.402420 
#    y 0.522890 1.541080 0.263480 
#    z -0.402420 0.263480 1.906810 
# 
# From -- ./inp_files/17751.got.cif
#   From: 2010.05.17/outbox.cif.g08.bks.cpg/sg2_9_cif.got.tgz:17751.got - 2010.06.03 11:33:40.
