data_PCOD9033194
_publ_section_title
;
Structure prediction by ZEFSAII (Michael W. Deem and Ramdas Pophale) SiO2 
 PCOD9033194
Probable space group: P -1
;
_chemical_formula_sum "Si O2"
_cell_formula_units_Z 16
_cell_length_a 8.917577
_cell_length_b 14.293584
_cell_length_c 11.880422
_cell_angle_alpha 139.839537
_cell_angle_beta 71.904571
_cell_angle_gamma 130.162355
_cell_volume 693.432934
_symmetry_space_group_name_H-M "P -1"
_symmetry_group_IT_number 2
_symmetry_cell_setting 'triclinic'
loop_
_space_group_symop_operation_xyz
x,y,z
-x,-y,-z
loop_
_atom_site_type_symbol
_atom_site_label
_atom_site_fract_x
_atom_site_fract_y
_atom_site_fract_z
Si Si1 0.348300 0.265144 0.303706
Si Si2 0.640110 0.214474 0.305833
Si Si3 0.049316 0.203619 0.479007
Si Si4 0.722460 0.534290 0.914569
Si Si5 0.392609 0.083285 0.642261
Si Si6 0.031761 0.520471 0.335201
Si Si7 0.557845 0.842786 0.041760
Si Si8 0.355063 0.461370 0.822732
O O1 0.500000 0.500000 0.500000
O O2 0.459791 0.210732 0.302346
O O3 0.118123 0.162047 0.311668
O O4 0.343819 0.201250 0.118247
O O5 0.834715 0.349560 0.298100
O O6 0.754996 0.331540 0.503091
O O7 0.550037 0.997209 0.132914
O O8 0.016784 0.351904 0.587512
O O9 0.251479 0.307623 0.607656
O O10 0.847600 0.043575 0.455368
O O11 0.547753 0.303741 0.769686
O O12 0.597253 0.567044 0.892305
O O13 0.918346 0.574020 0.852110
O O14 0.764136 0.625991 0.111438
O O15 0.352627 0.068551 0.772921
O O16 0.500000 0.000000 0.500000
O O17 0.353171 0.625501 0.928282
#
# Coordination Sequence:
#
# PCOD9033194 Si02
#       8
#     2   2   2   2   2   2   2   2
#     4  12  24  42  67 100 144 173 224 284 339 406
#     4  11  23  42  67 101 135 178 226 279 340 411
#     4  12  23  42  66 103 130 183 223 278 342 400
#     4  10  22  44  66  95 135 182 225 281 340 404
#     4  11  23  45  69  98 136 177 232 283 334 403
#     4  11  22  40  69  97 136 183 224 270 353 404
#     4  11  23  44  70 100 134 183 223 280 340 404
#     4  10  23  42  68  95 137 176 229 281 341 394
#
# _framework density 23.073608
#
# number of rings (size 3 to 8) (size 9 to 14) (size 15 to 20)
#    0.000    1.000    5.000    1.125    0.000    1.500 
#    9.000    0.000    0.000    0.000    0.000    0.000 
#    0.000    0.000    0.000    0.000    0.000    0.000 
#
# Total GULP energy -89329.925599 kJ/mol
# GULP energy per Si atom -5583.120350 kJ/mol
# Density = 2.302109 g / cm^3
# Si number density = 23.073608 Si / 1000 Ang^3
#
#
#
# Elastic Constant Matrix: (Units=GPa)
#
#
# Indices 1 2 3 4 5 6 
#
# 1 77.3871 35.9123 31.2355 -13.6360 -18.5552 6.0111
# 2 35.9123 67.8976 23.2192 -8.8209 -8.9455 2.0642
# 3 31.2355 23.2192 87.9525 -23.5663 -18.1610 -2.5380
# 4 -13.6360 -8.8209 -23.5663 44.1593 0.3614 -17.7970
# 5 -18.5552 -8.9455 -18.1610 0.3614 35.0672 -1.4962
# 6 6.0111 2.0642 -2.5380 -17.7970 -1.4962 34.3481
#
#
#
# Elastic Compliance Matrix: (Units=1/GPa)
#
#
# Indices 1 2 3 4 5 6 
#
# 1 0.020220 -0.008421 -0.003009 0.002160 0.006892 -0.001836
# 2 -0.008421 0.019924 -0.002321 0.000225 -0.000569 0.000197
# 3 -0.003009 -0.002321 0.017838 0.011369 0.007287 0.008192
# 4 0.002160 0.000225 0.011369 0.037508 0.007564 0.020213
# 5 0.006892 -0.000569 0.007287 0.007564 0.035921 0.004850
# 6 -0.001836 0.000197 0.008192 0.020213 0.004850 0.040713
#
#
# Mechanical properties :
#
#
# Convention : Reuss Voigt Hill
#
# Bulk Modulus (GPa) = 32.80811 45.99681 39.40246
# Shear Modulus (GPa) = 23.83366 32.23959 28.03663
#
# Velocity S-wave (km/s) = 3.21743 3.74204 3.48960
# Velocity P-wave (km/s) = 5.29643 6.21679 5.77498
#
# Compressibility (1/GPa) = 0.03048027
#
# Stress axis : x y z
#
# Youngs Moduli (GPa) = 49.45532 50.19019 56.05922
#
# Poissons Ratio (x) = 0.42268 0.16868
# Poissons Ratio (y) = 0.41649 0.13010
# Poissons Ratio (z) = 0.14881 0.11648
#
# Static dielectric constant tensor:
#      x y z
#    x 1.897110 -0.000760 0.065690 
#    y -0.000760 1.885700 0.031770 
#    z 0.065690 0.031770 1.971020 
# 
# From -- ./inp_files/399793.got.cif
#   From: 2010.05.17/outbox.cif.g08.bks.cpg/sg2_200_cif.got.tgz:399793.got - 2010.06.03 11:33:40.
