data_PCOD9033345
_publ_section_title
;
Structure prediction by ZEFSAII (Michael W. Deem and Ramdas Pophale) SiO2 
 PCOD9033345
Probable space group: P -1
;
_chemical_formula_sum "Si O2"
_cell_formula_units_Z 12
_cell_length_a 9.306620
_cell_length_b 5.388082
_cell_length_c 11.452232
_cell_angle_alpha 88.803769
_cell_angle_beta 64.524610
_cell_angle_gamma 104.831588
_cell_volume 495.484346
_symmetry_space_group_name_H-M "P -1"
_symmetry_group_IT_number 2
_symmetry_cell_setting 'triclinic'
loop_
_space_group_symop_operation_xyz
x,y,z
-x,-y,-z
loop_
_atom_site_type_symbol
_atom_site_label
_atom_site_fract_x
_atom_site_fract_y
_atom_site_fract_z
Si Si1 0.276084 0.526084 0.767766
Si Si2 0.300524 0.886781 0.569113
Si Si3 0.954283 0.370904 0.742861
Si Si4 0.346742 0.404503 0.423333
Si Si5 0.310173 0.461156 0.030406
Si Si6 0.864041 0.836325 0.714739
O O1 0.265964 0.803756 0.718471
O O2 0.451179 0.506283 0.653364
O O3 0.101853 0.350758 0.776939
O O4 0.287554 0.491380 0.901268
O O5 0.282989 0.632400 0.496276
O O6 0.500000 0.000000 0.500000
O O7 0.263534 0.137369 0.524960
O O8 0.783306 0.356750 0.871428
O O9 0.993789 0.666101 0.673203
O O10 0.919655 0.138800 0.665077
O O11 0.281382 0.325310 0.316570
O O12 0.203857 0.189468 0.128188
O O13 0.500000 0.500000 0.000000
#
# Coordination Sequence:
#
# PCOD9033345 Si02
#       6
#     2   2   2   2   2   2
#     4  11  21  43  66  97 128 168 210 272 314 374
#     4  10  23  40  65  99 125 169 216 262 310 372
#     4  10  24  41  62 101 130 163 210 262 329 368
#     4  11  22  44  67  94 127 171 221 255 306 386
#     4  10  22  44  67  96 125 170 212 260 321 387
#     4  10  23  44  63  94 132 166 212 258 317 381
#
# _framework density 24.218729
#
# number of rings (size 3 to 8) (size 9 to 14) (size 15 to 20)
#    1.000    0.667    1.667    3.500    0.000    5.333 
#    9.000    5.000    0.000    0.000    0.000    0.000 
#    0.000    0.000    0.000    0.000    0.000    0.000 
#
# Total GULP energy -66867.662359 kJ/mol
# GULP energy per Si atom -5572.305197 kJ/mol
# Density = 2.416361 g / cm^3
# Si number density = 24.218729 Si / 1000 Ang^3
#
#
#
# Elastic Constant Matrix: (Units=GPa)
#
#
# Indices 1 2 3 4 5 6 
#
# 1 166.4729 42.3850 43.4173 22.6782 -6.6901 -9.1107
# 2 42.3850 175.3349 45.5227 8.7330 5.2133 -13.7739
# 3 43.4173 45.5227 114.1078 -6.3468 9.8663 -13.7150
# 4 22.6782 8.7330 -6.3468 26.4193 -14.6622 4.2485
# 5 -6.6901 5.2133 9.8663 -14.6622 49.6672 13.8023
# 6 -9.1107 -13.7739 -13.7150 4.2485 13.8023 22.1380
#
#
#
# Elastic Compliance Matrix: (Units=1/GPa)
#
#
# Indices 1 2 3 4 5 6 
#
# 1 0.008348 -0.000320 -0.002759 -0.010034 -0.002680 0.005123
# 2 -0.000320 0.007237 -0.001916 -0.005954 -0.004091 0.006877
# 3 -0.002759 -0.001916 0.011846 0.002797 -0.003557 0.006692
# 4 -0.010034 -0.005954 0.002797 0.072756 0.031173 -0.039499
# 5 -0.002680 -0.004091 -0.003557 0.031173 0.040400 -0.037022
# 6 0.005123 0.006877 0.006692 -0.039499 -0.037022 0.086366
#
#
# Mechanical properties :
#
#
# Convention : Reuss Voigt Hill
#
# Bulk Modulus (GPa) = 57.34163 79.84061 68.59112
# Shear Modulus (GPa) = 20.59683 41.28430 30.94056
#
# Velocity S-wave (km/s) = 2.91941 4.13321 3.57816
# Velocity P-wave (km/s) = 5.92384 7.47101 6.74195
#
# Compressibility (1/GPa) = 0.01743934
#
# Stress axis : x y z
#
# Youngs Moduli (GPa) = 119.79490 138.18629 84.42007
#
# Poissons Ratio (x) = 0.04416 0.23294
# Poissons Ratio (y) = 0.03829 0.16178
# Poissons Ratio (z) = 0.33055 0.26481
#
# Static dielectric constant tensor:
#      x y z
#    x 2.240450 0.128900 -0.216450 
#    y 0.128900 2.097250 -0.166060 
#    z -0.216450 -0.166060 2.090450 
# 
# From -- ./inp_files/372471.got.cif
#   From: 2010.05.17/outbox.cif.g08.bks.cpg/sg2_187_cif.got.tgz:372471.got - 2010.06.03 11:33:40.
