data_PCOD9033383
_publ_section_title
;
Structure prediction by ZEFSAII (Michael W. Deem and Ramdas Pophale) SiO2 
 PCOD9033383
Probable space group: P -1
;
_chemical_formula_sum "Si O2"
_cell_formula_units_Z 16
_cell_length_a 16.065744
_cell_length_b 11.533089
_cell_length_c 14.398414
_cell_angle_alpha 147.612424
_cell_angle_beta 31.633935
_cell_angle_gamma 125.046115
_cell_volume 642.381851
_symmetry_space_group_name_H-M "P -1"
_symmetry_group_IT_number 2
_symmetry_cell_setting 'triclinic'
loop_
_space_group_symop_operation_xyz
x,y,z
-x,-y,-z
loop_
_atom_site_type_symbol
_atom_site_label
_atom_site_fract_x
_atom_site_fract_y
_atom_site_fract_z
Si Si1 0.885927 0.223351 0.184647
Si Si2 0.624589 0.215814 0.070486
Si Si3 0.911383 0.687368 0.519445
Si Si4 0.275391 0.663535 0.138456
Si Si5 0.838607 0.885895 0.315385
Si Si6 0.485872 0.186236 0.720843
Si Si7 0.652437 0.644608 0.429852
Si Si8 0.282518 0.034983 0.934174
O O1 0.851398 0.479464 0.437088
O O2 0.737072 0.156335 0.243807
O O3 0.000000 0.000000 0.000000
O O4 0.989928 0.216991 0.985824
O O5 0.641780 0.294376 0.004525
O O6 0.770183 0.922590 0.749267
O O7 0.683609 0.375796 0.188913
O O8 0.418908 0.296552 0.356319
O O9 0.120896 0.584504 0.216075
O O10 0.882334 0.805703 0.730182
O O11 0.170470 0.922973 0.469508
O O12 0.438676 0.448750 0.899591
O O13 0.666340 0.047800 0.518829
O O14 0.808617 0.686066 0.266063
O O15 0.315372 0.225580 0.971955
O O16 0.500000 0.000000 0.500000
O O17 0.467017 0.861071 0.700500
#
# Coordination Sequence:
#
# PCOD9033383 Si02
#       8
#     2   2   2   2   2   2   2   2
#     4  12  25  42  70 100 135 175 224 272 341 399
#     4  10  22  44  68  92 131 182 221 272 333 385
#     4  11  24  44  67  99 136 176 222 277 326 399
#     4  12  23  40  68  98 139 173 222 277 333 398
#     4  11  24  43  65 103 130 173 225 276 338 395
#     4  11  23  43  67  95 134 176 219 279 337 395
#     4   9  21  46  69  91 135 171 225 277 324 398
#     4  10  22  44  67  98 132 173 220 276 335 391
#
# _framework density 24.907304
#
# number of rings (size 3 to 8) (size 9 to 14) (size 15 to 20)
#    0.000    1.250    1.250    5.250    1.750    1.500 
#   22.500    1.250    0.000    0.000    0.000    0.000 
#    0.000    0.000    0.000    0.000    0.000    0.000 
#
# Total GULP energy -89623.465149 kJ/mol
# GULP energy per Si atom -5601.466572 kJ/mol
# Density = 2.485061 g / cm^3
# Si number density = 24.907304 Si / 1000 Ang^3
#
#
#
# Elastic Constant Matrix: (Units=GPa)
#
#
# Indices 1 2 3 4 5 6 
#
# 1 71.1034 30.4101 21.5053 -7.2961 5.6994 -8.6767
# 2 30.4101 126.9432 28.4861 1.6832 -4.9453 -31.5468
# 3 21.5053 28.4861 72.2216 3.6788 1.6654 -15.0635
# 4 -7.2961 1.6832 3.6788 50.2237 -3.5240 9.2893
# 5 5.6994 -4.9453 1.6654 -3.5240 33.5136 3.7004
# 6 -8.6767 -31.5468 -15.0635 9.2893 3.7004 36.9523
#
#
#
# Elastic Compliance Matrix: (Units=1/GPa)
#
#
# Indices 1 2 3 4 5 6 
#
# 1 0.017232 -0.003669 -0.004014 0.002939 -0.002833 -0.001178
# 2 -0.003669 0.011317 -0.001472 -0.002326 0.001165 0.008668
# 3 -0.004014 -0.001472 0.016962 -0.002898 -0.001298 0.005574
# 4 0.002939 -0.002326 -0.002898 0.022354 0.002574 -0.008354
# 5 -0.002833 0.001165 -0.001298 0.002574 0.031267 -0.003977
# 6 -0.001178 0.008668 0.005574 -0.008354 -0.003977 0.038956
#
#
# Mechanical properties :
#
#
# Convention : Reuss Voigt Hill
#
# Bulk Modulus (GPa) = 36.76241 47.89680 42.32960
# Shear Modulus (GPa) = 30.21763 36.79571 33.50667
#
# Velocity S-wave (km/s) = 3.48689 3.84774 3.67175
# Velocity P-wave (km/s) = 5.56802 6.24595 5.91671
#
# Compressibility (1/GPa) = 0.02720170
#
# Stress axis : x y z
#
# Youngs Moduli (GPa) = 58.02996 88.36109 58.95472
#
# Poissons Ratio (x) = 0.32424 0.23665
# Poissons Ratio (y) = 0.21294 0.08676
# Poissons Ratio (z) = 0.23293 0.13003
#
# Static dielectric constant tensor:
#      x y z
#    x 1.965380 0.012560 -0.014530 
#    y 0.012560 1.993350 -0.047310 
#    z -0.014530 -0.047310 1.950620 
# 
# From -- ./inp_files/186393.got.cif
#   From: 2010.05.17/outbox.cif.g08.bks.cpg/sg2_94_cif.got.tgz:186393.got - 2010.06.03 11:33:40.
