data_PCOD9033313
_publ_section_title
;
Structure prediction by ZEFSAII (Michael W. Deem and Ramdas Pophale) SiO2 
 PCOD9033313
Probable space group: P -1
;
_chemical_formula_sum "Si O2"
_cell_formula_units_Z 14
_cell_length_a 13.505734
_cell_length_b 14.507831
_cell_length_c 6.772003
_cell_angle_alpha 111.764995
_cell_angle_beta 95.996797
_cell_angle_gamma 33.466993
_cell_volume 622.835124
_symmetry_space_group_name_H-M "P -1"
_symmetry_group_IT_number 2
_symmetry_cell_setting 'triclinic'
loop_
_space_group_symop_operation_xyz
x,y,z
-x,-y,-z
loop_
_atom_site_type_symbol
_atom_site_label
_atom_site_fract_x
_atom_site_fract_y
_atom_site_fract_z
Si Si1 0.102971 0.010513 0.606347
Si Si2 0.405202 0.975174 0.495547
Si Si3 0.660805 0.301476 0.257396
Si Si4 0.743678 0.614549 0.506064
Si Si5 0.079722 0.741108 0.886480
Si Si6 0.969382 0.584419 0.262098
Si Si7 0.690707 0.100787 0.838922
O O1 0.241947 0.852039 0.681853
O O2 0.218985 0.951010 0.397034
O O3 0.000000 0.000000 0.500000
O O4 0.959678 0.208800 0.849350
O O5 0.514309 0.833552 0.594236
O O6 0.446124 0.872658 0.229505
O O7 0.500000 0.000000 0.500000
O O8 0.176141 0.198508 0.635086
O O9 0.500000 0.500000 0.500000
O O10 0.813929 0.249629 0.159676
O O11 0.596563 0.279870 0.056179
O O12 0.796194 0.461704 0.307504
O O13 0.858751 0.599840 0.392606
O O14 0.834951 0.547511 0.689487
O O15 0.872566 0.910912 0.862439
O O16 0.000000 0.500000 0.000000
#
# Coordination Sequence:
#
# PCOD9033313 Si02
#       7
#     2   2   2   2   2   2   2
#     4  11  21  40  66  89 124 179 215 258 329 390
#     4  10  23  44  65  95 134 172 219 278 328 388
#     4  11  25  41  61  97 135 167 216 276 327 391
#     4  10  23  41  65  94 130 167 218 273 328 390
#     4  11  22  41  65  94 131 169 220 271 324 402
#     4  10  22  44  67  93 127 173 217 272 332 389
#     4  11  22  44  66  90 134 176 222 268 328 397
#
# _framework density 22.477858000000001
#
# number of rings (size 3 to 8) (size 9 to 14) (size 15 to 20)
#    0.000    1.429    4.286    0.857    4.000    2.286 
#    5.143    0.000    0.000    0.000    0.000    0.000 
#    0.000    0.000    0.000    0.000    0.000    0.000 
#
# Total GULP energy -78205.608164 kJ/mol
# GULP energy per Si atom -5586.114869 kJ/mol
# Density = 2.242670 g / cm^3
# Si number density = 22.477858 Si / 1000 Ang^3
#
#
#
# Elastic Constant Matrix: (Units=GPa)
#
#
# Indices 1 2 3 4 5 6 
#
# 1 85.7500 14.8107 39.5610 -0.9382 36.5306 5.4306
# 2 14.8107 131.3309 56.1432 -0.3166 27.1157 2.3591
# 3 39.5610 56.1432 168.1626 -5.2601 38.9124 1.2707
# 4 -0.9382 -0.3166 -5.2601 25.9684 3.5861 13.4588
# 5 36.5306 27.1157 38.9124 3.5861 49.6022 -1.8916
# 6 5.4306 2.3591 1.2707 13.4588 -1.8916 28.5602
#
#
#
# Elastic Compliance Matrix: (Units=1/GPa)
#
#
# Indices 1 2 3 4 5 6 
#
# 1 0.018637 0.001573 -0.001356 0.006285 -0.014263 -0.007520
# 2 0.001573 0.009453 -0.002406 0.001301 -0.004605 -0.001891
# 3 -0.001356 -0.002406 0.008193 0.003032 -0.004395 -0.001628
# 4 0.006285 0.001301 0.003032 0.056006 -0.012861 -0.028682
# 5 -0.014263 -0.004605 -0.004395 -0.012861 0.038012 0.011866
# 6 -0.007520 -0.001891 -0.001628 -0.028682 0.011866 0.050974
#
#
# Mechanical properties :
#
#
# Convention : Reuss Voigt Hill
#
# Bulk Modulus (GPa) = 31.34193 67.36368 49.35281
# Shear Modulus (GPa) = 25.47285 39.14141 32.30713
#
# Velocity S-wave (km/s) = 3.37002 4.17745 3.79527
# Velocity P-wave (km/s) = 5.39596 7.30083 6.41945
#
# Compressibility (1/GPa) = 0.03190613
#
# Stress axis : x y z
#
# Youngs Moduli (GPa) = 53.65742 105.78377 122.05848
#
# Poissons Ratio (x) = -0.16639 0.16548
# Poissons Ratio (y) = -0.08440 0.29361
# Poissons Ratio (z) = 0.07274 0.25446
#
# Static dielectric constant tensor:
#      x y z
#    x 1.982970 0.060680 0.051890 
#    y 0.060680 1.833700 0.014330 
#    z 0.051890 0.014330 1.869950 
# 
# From -- ./inp_files/40337.got.cif
#   From: 2010.05.17/outbox.cif.g08.bks.cpg/sg2_21_cif.got.tgz:40337.got - 2010.06.03 11:33:40.
