data_PCOD9033246
_publ_section_title
;
Structure prediction by ZEFSAII (Michael W. Deem and Ramdas Pophale) SiO2 
 PCOD9033246
Probable space group: P -1
;
_chemical_formula_sum "Si O2"
_cell_formula_units_Z 14
_cell_length_a 7.685467
_cell_length_b 8.493900
_cell_length_c 14.420077
_cell_angle_alpha 36.944155
_cell_angle_beta 67.608978
_cell_angle_gamma 75.655162
_cell_volume 520.392473
_symmetry_space_group_name_H-M "P -1"
_symmetry_group_IT_number 2
_symmetry_cell_setting 'triclinic'
loop_
_space_group_symop_operation_xyz
x,y,z
-x,-y,-z
loop_
_atom_site_type_symbol
_atom_site_label
_atom_site_fract_x
_atom_site_fract_y
_atom_site_fract_z
Si Si1 0.629099 0.426215 0.798163
Si Si2 0.300295 0.180004 0.745078
Si Si3 0.795393 0.016185 0.482785
Si Si4 0.984541 0.865095 0.791848
Si Si5 0.703743 0.396223 0.002379
Si Si6 0.725325 0.281022 0.559717
Si Si7 0.237689 0.113812 0.003904
O O1 0.684127 0.729347 0.619103
O O2 0.741201 0.407267 0.880518
O O3 0.694196 0.172345 0.852537
O O4 0.405312 0.336360 0.896128
O O5 0.525924 0.271763 0.657796
O O6 0.202432 0.410219 0.606293
O O7 0.224461 0.151175 0.878793
O O8 0.309996 0.902992 0.822519
O O9 0.695015 0.176440 0.507850
O O10 0.000000 0.000000 0.500000
O O11 0.843309 0.139079 0.314051
O O12 0.855239 0.595731 0.925086
O O13 0.952966 0.883546 0.900674
O O14 0.868438 0.100444 0.663640
O O15 0.500000 0.500000 0.000000
#
# Coordination Sequence:
#
# PCOD9033246 Si02
#       7
#     2   2   2   2   2   2   2
#     4  10  17  32  55  83 112 142 198 230 273 320
#     4  10  21  35  58  85 118 142 188 242 291 315
#     4  10  20  34  58  86 112 151 192 234 268 344
#     4  11  20  35  62  85 112 147 200 223 282 336
#     4  11  16  31  59  84 105 149 195 233 260 339
#     4  10  19  36  57  84 115 147 189 243 272 335
#     4  10  21  33  57  89 113 146 185 243 281 334
#
# _framework density 26.902771000000001
#
# number of rings (size 3 to 8) (size 9 to 14) (size 15 to 20)
#    0.000    1.714    5.714    1.714    0.000    0.571 
#    0.000    2.143    3.143    0.000    0.000    0.000 
#    0.000    0.000    0.000    0.000    0.000    0.000 
#
# Total GULP energy -78282.531971 kJ/mol
# GULP energy per Si atom -5591.609427 kJ/mol
# Density = 2.684154 g / cm^3
# Si number density = 26.902771 Si / 1000 Ang^3
#
#
#
# Elastic Constant Matrix: (Units=GPa)
#
#
# Indices 1 2 3 4 5 6 
#
# 1 75.7037 30.0381 24.5805 -4.0238 -0.1997 0.4030
# 2 30.0381 132.3833 86.7494 22.9306 7.7139 -0.2278
# 3 24.5805 86.7494 155.2505 -25.3046 -21.0177 -1.1803
# 4 -4.0238 22.9306 -25.3046 73.9290 5.1404 9.7709
# 5 -0.1997 7.7139 -21.0177 5.1404 39.6605 -0.3487
# 6 0.4030 -0.2278 -1.1803 9.7709 -0.3487 38.0105
#
#
#
# Elastic Compliance Matrix: (Units=1/GPa)
#
#
# Indices 1 2 3 4 5 6 
#
# 1 0.014815 -0.004036 0.000370 0.002229 0.000760 -0.000736
# 2 -0.004036 0.019492 -0.013215 -0.010443 -0.009440 0.002347
# 3 0.000370 -0.013215 0.016655 0.009361 0.010168 -0.001879
# 4 0.002229 -0.010443 0.009361 0.020454 0.004308 -0.005014
# 5 0.000760 -0.009440 0.010168 0.004308 0.031879 -0.000564
# 6 -0.000736 0.002347 -0.001879 -0.005014 -0.000564 0.027556
#
#
# Mechanical properties :
#
#
# Convention : Reuss Voigt Hill
#
# Bulk Modulus (GPa) = 58.13710 71.78594 64.96152
# Shear Modulus (GPa) = 29.35213 45.11797 37.23505
#
# Velocity S-wave (km/s) = 3.30668 4.09965 3.72433
# Velocity P-wave (km/s) = 6.01962 7.01077 6.53402
#
# Compressibility (1/GPa) = 0.01720072
#
# Stress axis : x y z
#
# Youngs Moduli (GPa) = 67.49928 51.30298 60.04299
#
# Poissons Ratio (x) = 0.20705 -0.02223
# Poissons Ratio (y) = 0.27242 0.79346
# Poissons Ratio (z) = -0.02499 0.67796
#
# Static dielectric constant tensor:
#      x y z
#    x 2.263100 0.128280 0.028900 
#    y 0.128280 2.259430 -0.019840 
#    z 0.028900 -0.019840 2.104140 
# 
# From -- ./inp_files/335815.got.cif
#   From: 2010.05.17/outbox.cif.g08.bks.cpg/sg2_168_cif.got.tgz:335815.got - 2010.06.03 11:33:40.
