data_PCOD9033819
_publ_section_title
;
Structure prediction by ZEFSAII (Michael W. Deem and Ramdas Pophale) SiO2 
 PCOD9033819
Probable space group: P -1
;
_chemical_formula_sum "Si O2"
_cell_formula_units_Z 16
_cell_length_a 12.214492
_cell_length_b 12.492099
_cell_length_c 6.594036
_cell_angle_alpha 117.748880
_cell_angle_beta 67.050150
_cell_angle_gamma 131.290368
_cell_volume 663.860101
_symmetry_space_group_name_H-M "P -1"
_symmetry_group_IT_number 2
_symmetry_cell_setting 'triclinic'
loop_
_space_group_symop_operation_xyz
x,y,z
-x,-y,-z
loop_
_atom_site_type_symbol
_atom_site_label
_atom_site_fract_x
_atom_site_fract_y
_atom_site_fract_z
Si Si1 0.728895 0.621406 0.278139
Si Si2 0.164222 0.846085 0.632719
Si Si3 0.322731 0.104818 0.026034
Si Si4 0.577346 0.303312 0.297091
Si Si5 0.043702 0.385844 0.113246
Si Si6 0.061837 0.113640 0.368455
Si Si7 0.475318 0.350938 0.791750
Si Si8 0.189373 0.713004 0.127139
O O1 0.615365 0.453101 0.288990
O O2 0.837231 0.718512 0.467663
O O3 0.649344 0.693366 0.323251
O O4 0.821845 0.625175 0.026254
O O5 0.241894 0.832831 0.371546
O O6 0.043160 0.686358 0.681904
O O7 0.070516 0.906133 0.677684
O O8 0.276218 0.952981 0.820086
O O9 0.421335 0.233949 0.905050
O O10 0.421072 0.159291 0.204775
O O11 0.174721 0.093325 0.155153
O O12 0.589794 0.345934 0.563260
O O13 0.695703 0.280701 0.101313
O O14 0.107434 0.554780 0.164183
O O15 0.929526 0.291200 0.930004
O O16 0.000000 0.000000 0.500000
O O17 0.500000 0.500000 0.000000
#
# Coordination Sequence:
#
# PCOD9033819 Si02
#       8
#     2   2   2   2   2   2   2   2
#     4  11  20  42  70  96 134 175 222 282 350 392
#     4  12  25  43  71 100 137 183 229 279 342 405
#     4  12  26  42  66 102 139 177 228 276 341 413
#     4  11  25  43  66 100 137 178 224 280 336 402
#     4  10  22  44  70 101 134 173 232 292 332 399
#     4  12  24  43  72 100 142 175 221 287 349 405
#     4  12  23  42  69 100 135 176 223 279 342 406
#     4  10  24  45  69  99 136 182 231 278 340 397
#
# _framework density 24.101464
#
# number of rings (size 3 to 8) (size 9 to 14) (size 15 to 20)
#    0.000    0.750    3.750    4.125    0.000    1.500 
#    0.000    1.250    0.000    0.000    0.000    0.000 
#    0.000    0.000    0.000    0.000    0.000    0.000 
#
# Total GULP energy -89519.868050 kJ/mol
# GULP energy per Si atom -5594.991753 kJ/mol
# Density = 2.404661 g / cm^3
# Si number density = 24.101464 Si / 1000 Ang^3
#
#
#
# Elastic Constant Matrix: (Units=GPa)
#
#
# Indices 1 2 3 4 5 6 
#
# 1 35.9437 8.7391 15.2856 -2.0824 4.8471 -3.7143
# 2 8.7391 76.6343 45.9120 -2.3014 1.1811 4.0577
# 3 15.2856 45.9120 184.2006 -0.6509 -28.8639 13.2388
# 4 -2.0824 -2.3014 -0.6509 42.8044 8.5474 14.9800
# 5 4.8471 1.1811 -28.8639 8.5474 24.4894 2.7840
# 6 -3.7143 4.0577 13.2388 14.9800 2.7840 17.6506
#
#
#
# Elastic Compliance Matrix: (Units=1/GPa)
#
#
# Indices 1 2 3 4 5 6 
#
# 1 0.034219 -0.000796 -0.006140 -0.000618 -0.015455 0.014951
# 2 -0.000796 0.016460 -0.005107 0.002686 -0.007454 -0.001224
# 3 -0.006140 -0.005107 0.010246 0.000287 0.014615 -0.010352
# 4 -0.000618 0.002686 0.000287 0.035674 -0.008725 -0.029863
# 5 -0.015455 -0.007454 0.014615 -0.008725 0.066291 -0.015551
# 6 0.014951 -0.001224 -0.010352 -0.029863 -0.015551 0.095645
#
#
# Mechanical properties :
#
#
# Convention : Reuss Voigt Hill
#
# Bulk Modulus (GPa) = 27.14439 48.51690 37.83064
# Shear Modulus (GPa) = 16.95485 32.11167 24.53326
#
# Velocity S-wave (km/s) = 2.65519 3.65410 3.19394
# Velocity P-wave (km/s) = 4.54830 6.16257 5.41592
#
# Compressibility (1/GPa) = 0.03684003
#
# Stress axis : x y z
#
# Youngs Moduli (GPa) = 29.22346 60.75421 97.59471
#
# Poissons Ratio (x) = 0.04835 0.59920
# Poissons Ratio (y) = 0.02326 0.49842
# Poissons Ratio (z) = 0.17942 0.31027
#
# Static dielectric constant tensor:
#      x y z
#    x 1.888400 0.032740 -0.014150 
#    y 0.032740 1.927630 0.016900 
#    z -0.014150 0.016900 1.977750 
# 
# From -- ./inp_files/98569.got.cif
#   From: 2010.05.17/outbox.cif.g08.bks.cpg/sg2_50_cif.got.tgz:98569.got - 2010.06.03 11:33:40.
