data_PCOD9033678
_publ_section_title
;
Structure prediction by ZEFSAII (Michael W. Deem and Ramdas Pophale) SiO2 
 PCOD9033678
Probable space group: P -1
;
_chemical_formula_sum "Si O2"
_cell_formula_units_Z 16
_cell_length_a 5.503596
_cell_length_b 13.829681
_cell_length_c 13.626094
_cell_angle_alpha 138.489031
_cell_angle_beta 114.966145
_cell_angle_gamma 83.432377
_cell_volume 586.979068
_symmetry_space_group_name_H-M "P -1"
_symmetry_group_IT_number 2
_symmetry_cell_setting 'triclinic'
loop_
_space_group_symop_operation_xyz
x,y,z
-x,-y,-z
loop_
_atom_site_type_symbol
_atom_site_label
_atom_site_fract_x
_atom_site_fract_y
_atom_site_fract_z
Si Si1 0.171881 0.305261 0.016466
Si Si2 0.880462 0.686013 0.457172
Si Si3 0.619763 0.394028 0.823480
Si Si4 0.421285 0.860818 0.771785
Si Si5 0.082132 0.021532 0.200731
Si Si6 0.368068 0.173130 0.787386
Si Si7 0.729371 0.114253 0.551685
Si Si8 0.467056 0.567548 0.651041
O O1 0.175701 0.432166 0.030593
O O2 0.267929 0.398674 0.203615
O O3 0.935798 0.143873 0.882659
O O4 0.397356 0.236849 0.950320
O O5 0.697354 0.618313 0.278488
O O6 0.782269 0.557390 0.427268
O O7 0.218898 0.749808 0.568076
O O8 0.808708 0.838909 0.595941
O O9 0.570295 0.306228 0.852545
O O10 0.706656 0.281753 0.679669
O O11 0.435357 0.734002 0.756635
O O12 0.767665 0.037916 0.143707
O O13 0.723314 0.943600 0.835706
O O14 0.046235 0.144519 0.670136
O O15 0.346256 0.994704 0.639242
O O16 0.500000 0.000000 0.500000
O O17 0.500000 0.500000 0.500000
#
# Coordination Sequence:
#
# PCOD9033678 Si02
#       8
#     2   2   2   2   2   2   2   2
#     4  11  26  44  68 109 148 187 248 306 371 435
#     4   9  22  39  72 105 139 187 247 296 364 444
#     4  10  22  45  69 105 144 191 240 298 368 441
#     4  10  22  45  76 100 148 189 249 305 369 438
#     4  10  24  43  70 106 148 189 243 304 370 441
#     4  10  22  44  69 105 142 189 239 302 362 441
#     4   9  21  39  73  97 140 185 238 290 365 440
#     4  11  21  47  74 105 144 195 249 308 370 441
#
# _framework density 27.258213999999999
#
# number of rings (size 3 to 8) (size 9 to 14) (size 15 to 20)
#    0.750    1.250    1.250    0.750    5.250    3.500 
#    4.500    1.250    0.000    0.000    0.000    0.000 
#    0.000    0.000    0.000    0.000    0.000    0.000 
#
# Total GULP energy -89446.025561 kJ/mol
# GULP energy per Si atom -5590.376598 kJ/mol
# Density = 2.719617 g / cm^3
# Si number density = 27.258214 Si / 1000 Ang^3
#
#
#
# Elastic Constant Matrix: (Units=GPa)
#
#
# Indices 1 2 3 4 5 6 
#
# 1 102.6292 42.7263 32.7294 19.6806 16.1237 19.4564
# 2 42.7263 192.3961 47.6609 51.2139 6.9212 28.7724
# 3 32.7294 47.6609 143.3366 27.1469 -6.5052 13.8948
# 4 19.6806 51.2139 27.1469 59.8673 8.9999 4.5522
# 5 16.1237 6.9212 -6.5052 8.9999 45.6528 6.5750
# 6 19.4564 28.7724 13.8948 4.5522 6.5750 45.8436
#
#
#
# Elastic Compliance Matrix: (Units=1/GPa)
#
#
# Indices 1 2 3 4 5 6 
#
# 1 0.012355 -0.001313 -0.002019 -0.001218 -0.003759 -0.003147
# 2 -0.001313 0.007696 -0.000808 -0.005635 0.000809 -0.003585
# 3 -0.002019 -0.000808 0.008495 -0.002816 0.002793 -0.001332
# 4 -0.001218 -0.005635 -0.002816 0.023595 -0.004225 0.003170
# 5 -0.003759 0.000809 0.002793 -0.004225 0.024757 -0.002890
# 6 -0.003147 -0.003585 -0.001332 0.003170 -0.002890 0.025902
#
#
# Mechanical properties :
#
#
# Convention : Reuss Voigt Hill
#
# Bulk Modulus (GPa) = 49.34359 76.06611 62.70485
# Shear Modulus (GPa) = 42.43120 51.28910 46.86015
#
# Velocity S-wave (km/s) = 3.94971 4.34245 4.15073
# Velocity P-wave (km/s) = 6.24034 7.28758 6.78420
#
# Compressibility (1/GPa) = 0.02026606
#
# Stress axis : x y z
#
# Youngs Moduli (GPa) = 80.93632 129.93246 117.70951
#
# Poissons Ratio (x) = 0.17066 0.23769
# Poissons Ratio (y) = 0.10631 0.09508
# Poissons Ratio (z) = 0.16343 0.10496
#
# Static dielectric constant tensor:
#      x y z
#    x 2.253670 -0.057360 0.042670 
#    y -0.057360 2.111610 -0.061100 
#    z 0.042670 -0.061100 2.122680 
# 
# From -- ./inp_files/480395.got.cif
#   From: 2010.05.17/outbox.cif.g08.bks.cpg/sg2_241_cif.got.tgz:480395.got - 2010.06.03 11:33:40.
