data_PCOD9033393
_publ_section_title
;
Structure prediction by ZEFSAII (Michael W. Deem and Ramdas Pophale) SiO2 
 PCOD9033393
Probable space group: P -1
;
_chemical_formula_sum "Si O2"
_cell_formula_units_Z 16
_cell_length_a 15.620895
_cell_length_b 9.083363
_cell_length_c 8.209777
_cell_angle_alpha 81.074929
_cell_angle_beta 39.344869
_cell_angle_gamma 69.992817
_cell_volume 682.140776
_symmetry_space_group_name_H-M "P -1"
_symmetry_group_IT_number 2
_symmetry_cell_setting 'triclinic'
loop_
_space_group_symop_operation_xyz
x,y,z
-x,-y,-z
loop_
_atom_site_type_symbol
_atom_site_label
_atom_site_fract_x
_atom_site_fract_y
_atom_site_fract_z
Si Si1 0.238425 0.694170 0.073051
Si Si2 0.012909 0.652352 0.675376
Si Si3 0.274767 0.374502 0.923509
Si Si4 0.273094 0.829131 0.510685
Si Si5 0.249013 0.489688 0.584885
Si Si6 0.519197 0.241730 0.087514
Si Si7 0.524716 0.049903 0.636478
Si Si8 0.019147 0.011448 0.273598
O O1 0.136572 0.665048 0.370177
O O2 0.133360 0.838687 0.094923
O O3 0.307757 0.527050 0.909892
O O4 0.361251 0.748460 0.960931
O O5 0.099524 0.525206 0.703967
O O6 0.941305 0.829690 0.828183
O O7 0.885325 0.610560 0.788905
O O8 0.270077 0.383402 0.732643
O O9 0.389867 0.210905 0.841588
O O10 0.251066 0.662615 0.602918
O O11 0.332378 0.907977 0.554339
O O12 0.128358 0.948053 0.617334
O O13 0.400607 0.784452 0.196782
O O14 0.380463 0.401074 0.285054
O O15 0.473956 0.092223 0.223297
O O16 0.500000 0.000000 0.500000
O O17 0.000000 0.000000 0.500000
#
# Coordination Sequence:
#
# PCOD9033393 Si02
#       8
#     2   2   2   2   2   2   2   2
#     4  11  23  41  73 102 129 183 222 280 337 400
#     4  10  22  44  67  98 136 177 227 280 330 403
#     4  12  26  43  65  99 143 179 220 279 342 403
#     4  11  24  44  73 100 134 179 230 279 335 405
#     4  11  24  43  69 101 136 177 227 275 348 401
#     4  12  23  45  72  98 135 175 229 284 334 403
#     4  12  28  46  65 103 139 180 225 281 344 401
#     4   9  18  42  70  99 131 171 224 278 332 392
#
# _framework density 23.455568
#
# number of rings (size 3 to 8) (size 9 to 14) (size 15 to 20)
#    0.000    1.000    5.000    3.000    5.250    2.000 
#    2.250    1.250    0.000    0.000    0.000    0.000 
#    0.000    0.000    0.000    0.000    0.000    0.000 
#
# Total GULP energy -89572.702268 kJ/mol
# GULP energy per Si atom -5598.293892 kJ/mol
# Density = 2.340218 g / cm^3
# Si number density = 23.455568 Si / 1000 Ang^3
#
#
#
# Elastic Constant Matrix: (Units=GPa)
#
#
# Indices 1 2 3 4 5 6 
#
# 1 111.2260 40.0978 12.1373 11.9736 -32.8632 0.1373
# 2 40.0978 98.2325 19.2099 22.1528 -17.1401 -2.0224
# 3 12.1373 19.2099 56.2821 1.6009 -8.6414 -2.4297
# 4 11.9736 22.1528 1.6009 33.3521 3.0901 4.3746
# 5 -32.8632 -17.1401 -8.6414 3.0901 33.3921 1.7919
# 6 0.1373 -2.0224 -2.4297 4.3746 1.7919 31.6938
#
#
#
# Elastic Compliance Matrix: (Units=1/GPa)
#
#
# Indices 1 2 3 4 5 6 
#
# 1 0.014305 -0.002462 -0.000093 -0.004679 0.013241 -0.000329
# 2 -0.002462 0.014955 -0.003434 -0.009590 0.005159 0.001734
# 3 -0.000093 -0.003434 0.019440 0.000973 0.003035 0.000966
# 4 -0.004679 -0.009590 0.000973 0.039856 -0.012680 -0.005301
# 5 0.013241 0.005159 0.003035 -0.012680 0.047609 -0.000437
# 6 -0.000329 0.001734 0.000966 -0.005301 -0.000437 0.032494
#
#
# Mechanical properties :
#
#
# Convention : Reuss Voigt Hill
#
# Bulk Modulus (GPa) = 27.23109 45.40338 36.31723
# Shear Modulus (GPa) = 25.92325 32.64062 29.28194
#
# Velocity S-wave (km/s) = 3.32807 3.73445 3.53710
# Velocity P-wave (km/s) = 5.13838 6.16393 5.67437
#
# Compressibility (1/GPa) = 0.03672273
#
# Stress axis : x y z
#
# Youngs Moduli (GPa) = 69.90616 66.86739 51.44140
#
# Poissons Ratio (x) = 0.16464 0.00476
# Poissons Ratio (y) = 0.17212 0.17663
# Poissons Ratio (z) = 0.00647 0.22960
#
# Static dielectric constant tensor:
#      x y z
#    x 1.905740 0.023590 0.062090 
#    y 0.023590 1.850380 0.016340 
#    z 0.062090 0.016340 1.913240 
# 
# From -- ./inp_files/272388.got.cif
#   From: 2010.05.17/outbox.cif.g08.bks.cpg/sg2_137_cif.got.tgz:272388.got - 2010.06.03 11:33:40.
