data_PCOD9033084
_publ_section_title
;
Structure prediction by ZEFSAII (Michael W. Deem and Ramdas Pophale) SiO2 
 PCOD9033084
Probable space group: P -1
;
_chemical_formula_sum "Si O2"
_cell_formula_units_Z 10
_cell_length_a 7.622359
_cell_length_b 8.904781
_cell_length_c 6.836728
_cell_angle_alpha 108.809799
_cell_angle_beta 120.395736
_cell_angle_gamma 88.596095
_cell_volume 373.385091
_symmetry_space_group_name_H-M "P -1"
_symmetry_group_IT_number 2
_symmetry_cell_setting 'triclinic'
loop_
_space_group_symop_operation_xyz
x,y,z
-x,-y,-z
loop_
_atom_site_type_symbol
_atom_site_label
_atom_site_fract_x
_atom_site_fract_y
_atom_site_fract_z
Si Si1 0.848866 0.259964 0.803381
Si Si2 0.904410 0.616465 0.349996
Si Si3 0.475464 0.311557 0.349563
Si Si4 0.506887 0.287695 0.900176
Si Si5 0.189280 0.103760 0.387407
O O1 0.667867 0.257257 0.541582
O O2 0.738363 0.315759 0.957846
O O3 0.033833 0.368811 0.837029
O O4 0.888406 0.079864 0.779511
O O5 0.654867 0.596688 0.215230
O O6 0.966135 0.799129 0.547646
O O7 0.000000 0.500000 0.500000
O O8 0.500000 0.500000 0.500000
O O9 0.272105 0.211125 0.291505
O O10 0.487283 0.276358 0.114269
O O11 0.387880 0.125203 0.656729
#
# Coordination Sequence:
#
# PCOD9033084 Si02
#       5
#     2   2   2   2   2
#     4  11  22  42  68  95 133 171 214 268 326 389
#     4  10  22  44  65  96 135 172 213 271 320 389
#     4  11  22  42  68  95 131 172 219 269 322 385
#     4   9  23  41  68  96 130 169 220 263 329 381
#     4   9  22  41  65  96 134 168 216 265 324 389
#
# _framework density 26.781998000000002
#
# number of rings (size 3 to 8) (size 9 to 14) (size 15 to 20)
#    1.200    0.800    0.000    4.200    0.000    6.400 
#    3.600    3.000    0.000    0.000    0.000    0.000 
#    0.000    0.000    0.000    0.000    0.000    0.000 
#
# Total GULP energy -55963.954848 kJ/mol
# GULP energy per Si atom -5596.395485 kJ/mol
# Density = 2.672104 g / cm^3
# Si number density = 26.781998 Si / 1000 Ang^3
#
#
#
# Elastic Constant Matrix: (Units=GPa)
#
#
# Indices 1 2 3 4 5 6 
#
# 1 113.7387 48.6210 42.2935 13.0908 -36.4331 6.5380
# 2 48.6210 163.3491 44.8757 11.2526 -22.1727 -3.6280
# 3 42.2935 44.8757 167.1026 -16.2276 -37.8721 18.4577
# 4 13.0908 11.2526 -16.2276 34.2259 5.7793 -4.6213
# 5 -36.4331 -22.1727 -37.8721 5.7793 69.3403 -8.5307
# 6 6.5380 -3.6280 18.4577 -4.6213 -8.5307 46.1788
#
#
#
# Elastic Compliance Matrix: (Units=1/GPa)
#
#
# Indices 1 2 3 4 5 6 
#
# 1 0.012963 -0.002166 -0.001975 -0.006216 0.005456 -0.000830
# 2 -0.002166 0.007529 -0.001705 -0.002377 0.000718 0.001474
# 3 -0.001975 -0.001705 0.008126 0.004493 0.002205 -0.002245
# 4 -0.006216 -0.002377 0.004493 0.035460 -0.004325 0.001647
# 5 0.005456 0.000718 0.002205 -0.004325 0.019271 0.001530
# 6 -0.000830 0.001474 -0.002245 0.001647 0.001530 0.023233
#
#
# Mechanical properties :
#
#
# Convention : Reuss Voigt Hill
#
# Bulk Modulus (GPa) = 59.07512 79.53008 69.30260
# Shear Modulus (GPa) = 40.35059 50.50902 45.42980
#
# Velocity S-wave (km/s) = 3.88575 4.34744 4.12306
# Velocity P-wave (km/s) = 6.49905 7.41351 6.97129
#
# Compressibility (1/GPa) = 0.01692760
#
# Stress axis : x y z
#
# Youngs Moduli (GPa) = 77.14317 132.82408 123.06175
#
# Poissons Ratio (x) = 0.28765 0.24301
# Poissons Ratio (y) = 0.16706 0.20979
# Poissons Ratio (z) = 0.15233 0.22643
#
# Static dielectric constant tensor:
#      x y z
#    x 2.176840 0.005320 -0.013050 
#    y 0.005320 2.167850 0.107710 
#    z -0.013050 0.107710 2.141530 
# 
# From -- ./inp_files/17755.got.cif
#   From: 2010.05.17/outbox.cif.g08.bks.cpg/sg2_9_cif.got.tgz:17755.got - 2010.06.03 11:33:40.
