data_PCOD9033946
_publ_section_title
;
Structure prediction by ZEFSAII (Michael W. Deem and Ramdas Pophale) SiO2 
 PCOD9033946
Probable space group: P -1
;
_chemical_formula_sum "Si O2"
_cell_formula_units_Z 14
_cell_length_a 17.734922
_cell_length_b 11.812029
_cell_length_c 15.459070
_cell_angle_alpha 48.166679
_cell_angle_beta 26.467603
_cell_angle_gamma 29.273451
_cell_volume 601.702348
_symmetry_space_group_name_H-M "P -1"
_symmetry_group_IT_number 2
_symmetry_cell_setting 'triclinic'
loop_
_space_group_symop_operation_xyz
x,y,z
-x,-y,-z
loop_
_atom_site_type_symbol
_atom_site_label
_atom_site_fract_x
_atom_site_fract_y
_atom_site_fract_z
Si Si1 0.859052 0.316529 0.467661
Si Si2 0.875862 0.632347 0.290834
Si Si3 0.406113 0.577713 0.956985
Si Si4 0.434553 0.930837 0.193284
Si Si5 0.408711 0.644214 0.430713
Si Si6 0.130010 0.451080 0.299765
Si Si7 0.952946 0.907105 0.022576
O O1 0.847226 0.230762 0.434592
O O2 0.736511 0.575630 0.433729
O O3 0.652119 0.411060 0.711712
O O4 0.189784 0.082271 0.291429
O O5 0.879689 0.618771 0.397236
O O6 0.226707 0.349681 0.043842
O O7 0.791022 0.866497 0.231346
O O8 0.237946 0.543091 0.133117
O O9 0.206871 0.878615 0.997750
O O10 0.500000 0.500000 0.000000
O O11 0.361832 0.859154 0.377292
O O12 0.382699 0.137077 0.177764
O O13 0.500000 0.500000 0.500000
O O14 0.709461 0.392074 0.194786
O O15 0.000000 0.500000 0.500000
O O16 0.000000 0.000000 0.000000
#
# Coordination Sequence:
#
# PCOD9033946 Si02
#       7
#     2   2   2   2   2   2   2
#     4  11  22  42  70 100 130 180 222 273 329 401
#     4  10  22  44  70  96 131 179 220 274 339 387
#     4  12  25  42  67 103 131 174 231 271 332 400
#     4  10  23  44  67  95 133 175 223 272 332 393
#     4  11  25  42  66  98 132 177 218 276 336 393
#     4  11  22  39  65  96 133 170 215 277 326 386
#     4  11  22  47  67  89 140 175 217 279 331 399
#
# _framework density 23.267316999999998
#
# number of rings (size 3 to 8) (size 9 to 14) (size 15 to 20)
#    0.000    1.143    2.857    4.714    4.000    1.714 
#    2.571    1.429    0.000    0.000    0.000    0.000 
#    0.000    0.000    0.000    0.000    0.000    0.000 
#
# Total GULP energy -78182.762928 kJ/mol
# GULP energy per Si atom -5584.483066 kJ/mol
# Density = 2.321436 g / cm^3
# Si number density = 23.267317 Si / 1000 Ang^3
#
#
#
# Elastic Constant Matrix: (Units=GPa)
#
#
# Indices 1 2 3 4 5 6 
#
# 1 63.9631 20.0673 15.7952 -19.4592 11.7075 -3.5596
# 2 20.0673 182.3162 29.7815 -41.3577 -1.7023 5.4945
# 3 15.7952 29.7815 81.1386 -23.8163 6.3762 6.7174
# 4 -19.4592 -41.3577 -23.8163 56.6588 -0.2269 -4.5513
# 5 11.7075 -1.7023 6.3762 -0.2269 21.9584 -7.2025
# 6 -3.5596 5.4945 6.7174 -4.5513 -7.2025 38.5771
#
#
#
# Elastic Compliance Matrix: (Units=1/GPa)
#
#
# Indices 1 2 3 4 5 6 
#
# 1 0.019792 -0.000803 -0.001171 0.005758 -0.009895 0.000976
# 2 -0.000803 0.006719 -0.001194 0.004125 0.001308 -0.000092
# 3 -0.001171 -0.001194 0.015003 0.004783 -0.004715 -0.002866
# 4 0.005758 0.004125 0.004783 0.024746 -0.003427 0.001391
# 5 -0.009895 0.001308 -0.004715 -0.003427 0.055422 0.009665
# 6 0.000976 -0.000092 -0.002866 0.001391 0.009665 0.028493
#
#
# Mechanical properties :
#
#
# Convention : Reuss Voigt Hill
#
# Bulk Modulus (GPa) = 28.42768 50.96733 39.69750
# Shear Modulus (GPa) = 29.71974 40.89045 35.30510
#
# Velocity S-wave (km/s) = 3.57783 4.19671 3.89957
# Velocity P-wave (km/s) = 5.41408 6.74061 6.11343
#
# Compressibility (1/GPa) = 0.03517698
#
# Stress axis : x y z
#
# Youngs Moduli (GPa) = 50.52459 148.82962 66.65400
#
# Poissons Ratio (x) = 0.11948 0.07808
# Poissons Ratio (y) = 0.04056 0.07961
# Poissons Ratio (z) = 0.05919 0.17776
#
# Static dielectric constant tensor:
#      x y z
#    x 1.929940 0.016270 -0.071210 
#    y 0.016270 1.985240 0.006330 
#    z -0.071210 0.006330 1.977120 
# 
# From -- ./inp_files/538208.got.cif
#   From: 2010.05.17/outbox.cif.g08.bks.cpg/sg2_270_cif.got.tgz:538208.got - 2010.06.03 11:33:40.
