data_PCOD9033466
_publ_section_title
;
Structure prediction by ZEFSAII (Michael W. Deem and Ramdas Pophale) SiO2 
 PCOD9033466
Probable space group: P -1
;
_chemical_formula_sum "Si O2"
_cell_formula_units_Z 14
_cell_length_a 18.614715
_cell_length_b 6.416279
_cell_length_c 5.670086
_cell_angle_alpha 103.060640
_cell_angle_beta 113.569357
_cell_angle_gamma 78.159325
_cell_volume 599.644688
_symmetry_space_group_name_H-M "P -1"
_symmetry_group_IT_number 2
_symmetry_cell_setting 'triclinic'
loop_
_space_group_symop_operation_xyz
x,y,z
-x,-y,-z
loop_
_atom_site_type_symbol
_atom_site_label
_atom_site_fract_x
_atom_site_fract_y
_atom_site_fract_z
Si Si1 0.744903 0.188644 0.106915
Si Si2 0.378047 0.563621 0.301439
Si Si3 0.877440 0.395954 0.107282
Si Si4 0.231720 0.468064 0.378110
Si Si5 0.023391 0.095512 0.303879
Si Si6 0.805413 0.821445 0.387798
Si Si7 0.497027 0.861629 0.713082
O O1 0.819922 0.213516 0.041335
O O2 0.758456 0.340162 0.382652
O O3 0.752090 0.950797 0.156913
O O4 0.660775 0.283369 0.918332
O O5 0.301136 0.480674 0.289879
O O6 0.421089 0.727620 0.561121
O O7 0.434241 0.345474 0.251245
O O8 0.843788 0.595153 0.275096
O O9 0.967472 0.322487 0.266752
O O10 0.854771 0.481702 0.838656
O O11 0.241308 0.239273 0.461682
O O12 0.117615 0.070212 0.423166
O O13 0.000000 0.000000 0.500000
O O14 0.000000 0.000000 0.000000
O O15 0.500000 0.000000 0.500000
O O16 0.500000 0.000000 0.000000
#
# Coordination Sequence:
#
# PCOD9033466 Si02
#       7
#     2   2   2   2   2   2   2
#     4  10  22  44  68 102 146 189 240 305 367 440
#     4  10  26  49  76 110 158 191 251 311 368 451
#     4  10  23  43  64 102 139 187 251 306 365 436
#     4  10  24  42  70 104 144 191 246 305 372 437
#     4  12  26  44  74  97 144 198 248 310 379 424
#     4  11  24  42  72 102 143 191 256 300 375 442
#     4  11  28  50  84 117 153 199 252 297 379 456
#
# _framework density 23.347159000000001
#
# number of rings (size 3 to 8) (size 9 to 14) (size 15 to 20)
#    0.000    1.429    1.429    1.286    8.000    8.571 
#    0.000    0.000    0.000    0.000    0.000    0.000 
#    0.000    0.000    0.000    0.000    0.000    0.000 
#
# Total GULP energy -78127.570536 kJ/mol
# GULP energy per Si atom -5580.540753 kJ/mol
# Density = 2.329402 g / cm^3
# Si number density = 23.347159 Si / 1000 Ang^3
#
#
#
# Elastic Constant Matrix: (Units=GPa)
#
#
# Indices 1 2 3 4 5 6 
#
# 1 55.8571 43.1833 41.0401 -12.1953 4.7246 -0.0263
# 2 43.1833 122.5208 63.0003 -27.3427 2.1502 -8.0855
# 3 41.0401 63.0003 142.9557 -3.0578 -0.8913 -9.4285
# 4 -12.1953 -27.3427 -3.0578 51.2300 -1.1462 4.5640
# 5 4.7246 2.1502 -0.8913 -1.1462 29.4972 -9.2759
# 6 -0.0263 -8.0855 -9.4285 4.5640 -9.2759 33.9562
#
#
#
# Elastic Compliance Matrix: (Units=1/GPa)
#
#
# Indices 1 2 3 4 5 6 
#
# 1 0.028248 -0.006672 -0.005471 0.003161 -0.005672 -0.005060
# 2 -0.006672 0.013864 -0.003965 0.005443 0.000667 0.001646
# 3 -0.005471 -0.003965 0.010460 -0.003009 0.002305 0.002990
# 4 0.003161 0.005443 -0.003009 0.023237 -0.001015 -0.002937
# 5 -0.005672 0.000667 0.002305 -0.001015 0.038381 0.011416
# 6 -0.005060 0.001646 0.002990 -0.002937 0.011416 0.034181
#
#
# Mechanical properties :
#
#
# Convention : Reuss Voigt Hill
#
# Bulk Modulus (GPa) = 49.12486 68.42012 58.77249
# Shear Modulus (GPa) = 26.68472 34.54400 30.61436
#
# Velocity S-wave (km/s) = 3.38443 3.85070 3.62507
# Velocity P-wave (km/s) = 6.02986 7.00997 6.53831
#
# Compressibility (1/GPa) = 0.02035629
#
# Stress axis : x y z
#
# Youngs Moduli (GPa) = 35.40074 72.12878 95.59892
#
# Poissons Ratio (x) = 0.48126 0.52298
# Poissons Ratio (y) = 0.23620 0.37907
# Poissons Ratio (z) = 0.19366 0.28601
#
# Static dielectric constant tensor:
#      x y z
#    x 1.969390 0.037450 -0.029000 
#    y 0.037450 1.946100 -0.034310 
#    z -0.029000 -0.034310 1.917020 
# 
# From -- ./inp_files/7599.got.cif
#   From: 2010.05.17/outbox.cif.g08.bks.cpg/sg2_4_cif.got.tgz:7599.got - 2010.06.03 11:33:40.
