data_PCOD9033060
_publ_section_title
;
Structure prediction by ZEFSAII (Michael W. Deem and Ramdas Pophale) SiO2 
 PCOD9033060
Probable space group: P -1
;
_chemical_formula_sum "Si O2"
_cell_formula_units_Z 10
_cell_length_a 12.043421
_cell_length_b 5.751673
_cell_length_c 9.231459
_cell_angle_alpha 91.896497
_cell_angle_beta 143.481648
_cell_angle_gamma 88.512947
_cell_volume 380.322234
_symmetry_space_group_name_H-M "P -1"
_symmetry_group_IT_number 2
_symmetry_cell_setting 'triclinic'
loop_
_space_group_symop_operation_xyz
x,y,z
-x,-y,-z
loop_
_atom_site_type_symbol
_atom_site_label
_atom_site_fract_x
_atom_site_fract_y
_atom_site_fract_z
Si Si1 0.425683 0.343157 0.050519
Si Si2 0.197317 0.479448 0.289269
Si Si3 0.837761 0.034440 0.175368
Si Si4 0.566682 0.270832 0.687487
Si Si5 0.811941 0.215656 0.452799
O O1 0.406729 0.507490 0.172509
O O2 0.594546 0.159206 0.242179
O O3 0.500000 0.500000 0.000000
O O4 0.239745 0.197940 0.831932
O O5 0.341946 0.260427 0.431878
O O6 0.328311 0.669726 0.349475
O O7 0.161708 0.553352 0.419242
O O8 0.000000 0.500000 0.000000
O O9 0.043215 0.971591 0.337716
O O10 0.842977 0.223590 0.312472
O O11 0.692010 0.083115 0.897320
#
# Coordination Sequence:
#
# PCOD9033060 Si02
#       5
#     2   2   2   2   2
#     4  11  22  41  67  94 128 168 211 266 323 369
#     4  10  22  44  65  93 133 172 211 261 319 383
#     4  11  23  42  66 100 129 161 219 269 313 385
#     4  10  23  42  67  95 126 168 219 257 321 382
#     4  10  23  41  64  99 129 164 213 263 325 375
#
# _framework density 26.293491
#
# number of rings (size 3 to 8) (size 9 to 14) (size 15 to 20)
#    0.000    1.600    2.000    1.800    0.000    3.200 
#   10.800   14.000    0.000    0.000    0.000    0.000 
#    0.000    0.000    0.000    0.000    0.000    0.000 
#
# Total GULP energy -55870.165480 kJ/mol
# GULP energy per Si atom -5587.016548 kJ/mol
# Density = 2.623365 g / cm^3
# Si number density = 26.293491 Si / 1000 Ang^3
#
#
#
# Elastic Constant Matrix: (Units=GPa)
#
#
# Indices 1 2 3 4 5 6 
#
# 1 100.8289 40.1333 37.2948 -1.9893 2.7731 -5.8019
# 2 40.1333 55.5797 27.7174 -1.4725 -1.9857 -9.1012
# 3 37.2948 27.7174 177.7018 -15.0040 18.3218 3.2304
# 4 -1.9893 -1.4725 -15.0040 41.0363 -11.3326 -4.9015
# 5 2.7731 -1.9857 18.3218 -11.3326 55.7921 -8.3008
# 6 -5.8019 -9.1012 3.2304 -4.9015 -8.3008 34.8179
#
#
#
# Elastic Compliance Matrix: (Units=1/GPa)
#
#
# Indices 1 2 3 4 5 6 
#
# 1 0.014305 -0.009680 -0.001450 -0.000405 -0.000696 -0.000235
# 2 -0.009680 0.027607 -0.002659 0.001382 0.003646 0.006914
# 3 -0.001450 -0.002659 0.006733 0.001458 -0.002218 -0.001885
# 4 -0.000405 0.001382 0.001458 0.027212 0.005921 0.005401
# 5 -0.000696 0.003646 -0.002218 0.005921 0.021045 0.006894
# 6 -0.000235 0.006914 -0.001885 0.005401 0.006894 0.033068
#
#
# Mechanical properties :
#
#
# Convention : Reuss Voigt Hill
#
# Bulk Modulus (GPa) = 47.47236 60.48903 53.98069
# Shear Modulus (GPa) = 30.38195 41.59361 35.98778
#
# Velocity S-wave (km/s) = 3.40294 3.98162 3.70360
# Velocity P-wave (km/s) = 5.79086 6.64778 6.23406
#
# Compressibility (1/GPa) = 0.02106489
#
# Stress axis : x y z
#
# Youngs Moduli (GPa) = 69.90584 36.22214 148.52911
#
# Poissons Ratio (x) = 0.35064 0.21543
# Poissons Ratio (y) = 0.67670 0.39501
# Poissons Ratio (z) = 0.10139 0.09633
#
# Static dielectric constant tensor:
#      x y z
#    x 1.981530 -0.003140 -0.018890 
#    y -0.003140 2.095170 -0.108570 
#    z -0.018890 -0.108570 2.150580 
# 
# From -- ./inp_files/16296.got.cif
#   From: 2010.05.17/outbox.cif.g08.bks.cpg/sg2_9_cif.got.tgz:16296.got - 2010.06.03 11:33:40.
