data_PCOD9033725
_publ_section_title
;
Structure prediction by ZEFSAII (Michael W. Deem and Ramdas Pophale) SiO2 
 PCOD9033725
Probable space group: P -1
;
_chemical_formula_sum "Si O2"
_cell_formula_units_Z 16
_cell_length_a 10.841694
_cell_length_b 13.923364
_cell_length_c 12.767934
_cell_angle_alpha 129.248531
_cell_angle_beta 145.607897
_cell_angle_gamma 72.976402
_cell_volume 717.935799
_symmetry_space_group_name_H-M "P -1"
_symmetry_group_IT_number 2
_symmetry_cell_setting 'triclinic'
loop_
_space_group_symop_operation_xyz
x,y,z
-x,-y,-z
loop_
_atom_site_type_symbol
_atom_site_label
_atom_site_fract_x
_atom_site_fract_y
_atom_site_fract_z
Si Si1 0.747440 0.915345 0.554138
Si Si2 0.262464 0.605891 0.064529
Si Si3 0.948633 0.123442 0.009924
Si Si4 0.261294 0.426408 0.357729
Si Si5 0.880723 0.553643 0.366174
Si Si6 0.791169 0.129310 0.130521
Si Si7 0.468805 0.428780 0.150085
Si Si8 0.713245 0.899706 0.271017
O O1 0.695666 0.910099 0.391229
O O2 0.034038 0.938222 0.771915
O O3 0.523933 0.765113 0.348315
O O4 0.775901 0.048198 0.734811
O O5 0.200140 0.538170 0.857572
O O6 0.003375 0.607556 0.904142
O O7 0.280395 0.490508 0.072879
O O8 0.198045 0.271246 0.250649
O O9 0.838602 0.163233 0.061259
O O10 0.000000 0.000000 0.000000
O O11 0.500000 0.500000 0.500000
O O12 0.352797 0.531013 0.595588
O O13 0.631878 0.527712 0.234318
O O14 0.000000 0.500000 0.500000
O O15 0.072440 0.723833 0.604658
O O16 0.489573 0.059543 0.888012
O O17 0.367628 0.264380 0.931815
O O18 0.000000 0.000000 0.500000
#
# Coordination Sequence:
#
# PCOD9033725 Si02
#       8
#     2   2   2   2   2   2   2   2
#     4  11  23  40  68  96 123 168 222 267 321 381
#     4  12  23  41  72 100 125 168 222 276 327 384
#     4  10  22  44  69  95 126 174 226 269 319 386
#     4  12  27  45  67  97 137 177 215 270 335 391
#     4  12  17  36  71  97 121 158 216 276 322 369
#     4  11  21  41  66  92 126 165 216 273 315 378
#     4  12  23  43  66  97 129 165 219 272 327 393
#     4  12  27  41  60  96 136 172 209 262 329 393
#
# _framework density 22.286116
#
# number of rings (size 3 to 8) (size 9 to 14) (size 15 to 20)
#    0.000    0.500    6.250    2.625    1.750    3.000 
#    4.500    0.000    0.000    0.000    0.000    0.000 
#    0.000    0.000    0.000    0.000    0.000    0.000 
#
# Total GULP energy -89292.231673 kJ/mol
# GULP energy per Si atom -5580.764480 kJ/mol
# Density = 2.223539 g / cm^3
# Si number density = 22.286116 Si / 1000 Ang^3
#
#
#
# Elastic Constant Matrix: (Units=GPa)
#
#
# Indices 1 2 3 4 5 6 
#
# 1 58.2916 -3.8092 41.1743 10.3910 6.5966 0.3742
# 2 -3.8092 48.9701 19.9742 -25.1173 8.1678 -4.9441
# 3 41.1743 19.9742 127.1068 -3.2317 5.1555 -4.0013
# 4 10.3910 -25.1173 -3.2317 38.0488 -18.0220 2.3608
# 5 6.5966 8.1678 5.1555 -18.0220 55.1789 -0.2789
# 6 0.3742 -4.9441 -4.0013 2.3608 -0.2789 13.7448
#
#
#
# Elastic Compliance Matrix: (Units=1/GPa)
#
#
# Indices 1 2 3 4 5 6 
#
# 1 0.025596 0.001563 -0.008585 -0.009225 -0.005508 -0.001161
# 2 0.001563 0.034666 -0.005260 0.022839 0.002668 0.007027
# 3 -0.008585 -0.005260 0.011499 0.000111 0.000775 0.001686
# 4 -0.009225 0.022839 0.000111 0.050630 0.014249 0.000092
# 5 -0.005508 0.002668 0.000775 0.014249 0.022964 -0.000646
# 6 -0.001161 0.007027 0.001686 0.000092 -0.000646 0.075776
#
#
# Mechanical properties :
#
#
# Convention : Reuss Voigt Hill
#
# Bulk Modulus (GPa) = 21.18762 38.78301 29.98531
# Shear Modulus (GPa) = 19.12558 33.19644 26.16101
#
# Velocity S-wave (km/s) = 2.93265 3.86366 3.42990
# Velocity P-wave (km/s) = 4.58203 6.11097 5.40088
#
# Compressibility (1/GPa) = 0.04719738
#
# Stress axis : x y z
#
# Youngs Moduli (GPa) = 39.06822 28.84646 86.96134
#
# Poissons Ratio (x) = -0.04508 0.74654
# Poissons Ratio (y) = -0.06105 0.45743
# Poissons Ratio (z) = 0.33539 0.15174
#
# Static dielectric constant tensor:
#      x y z
#    x 1.998610 0.259280 -0.051460 
#    y 0.259280 2.588240 -0.254270 
#    z -0.051460 -0.254270 1.912980 
# 
# From -- ./inp_files/471652.got.cif
#   From: 2010.05.17/outbox.cif.g08.bks.cpg/sg2_236_cif.got.tgz:471652.got - 2010.06.03 11:33:40.
