data_PCOD9033889
_publ_section_title
;
Structure prediction by ZEFSAII (Michael W. Deem and Ramdas Pophale) SiO2 
 PCOD9033889
Probable space group: P -1
;
_chemical_formula_sum "Si O2"
_cell_formula_units_Z 14
_cell_length_a 21.476757
_cell_length_b 5.239378
_cell_length_c 9.089125
_cell_angle_alpha 116.485342
_cell_angle_beta 40.470900
_cell_angle_gamma 108.920307
_cell_volume 593.961170
_symmetry_space_group_name_H-M "P -1"
_symmetry_group_IT_number 2
_symmetry_cell_setting 'triclinic'
loop_
_space_group_symop_operation_xyz
x,y,z
-x,-y,-z
loop_
_atom_site_type_symbol
_atom_site_label
_atom_site_fract_x
_atom_site_fract_y
_atom_site_fract_z
Si Si1 0.846784 0.325251 0.175870
Si Si2 0.515743 0.835709 0.081436
Si Si3 0.333266 0.995458 0.634498
Si Si4 0.107551 0.339841 0.547212
Si Si5 0.293819 0.031202 0.056598
Si Si6 0.812550 0.496113 0.952082
Si Si7 0.013851 0.157963 0.258156
O O1 0.873475 0.587185 0.295789
O O2 0.853812 0.371284 0.999725
O O3 0.736773 0.237501 0.369757
O O4 0.919295 0.061181 0.013708
O O5 0.436674 0.959754 0.369680
O O6 0.500000 0.500000 0.000000
O O7 0.620577 0.897998 0.971693
O O8 0.500000 0.000000 0.000000
O O9 0.273913 0.289047 0.790023
O O10 0.333729 0.980256 0.806853
O O11 0.211497 0.275704 0.274037
O O12 0.051667 0.617247 0.655520
O O13 0.047373 0.049969 0.583381
O O14 0.235886 0.745079 0.118706
O O15 0.902472 0.662504 0.767186
#
# Coordination Sequence:
#
# PCOD9033889 Si02
#       7
#     2   2   2   2   2   2   2
#     4  10  22  44  70 106 144 197 248 299 360 418
#     4  12  30  52  83 114 141 183 245 307 369 437
#     4  10  25  48  77 104 154 190 239 298 370 442
#     4  12  26  39  73 103 151 191 252 300 351 425
#     4  11  28  48  72 111 149 196 238 298 373 438
#     4  10  24  45  72 104 147 200 239 290 369 429
#     4  11  24  43  67 107 146 199 247 301 355 416
#
# _framework density 23.570564000000001
#
# number of rings (size 3 to 8) (size 9 to 14) (size 15 to 20)
#    0.000    1.143    1.429    2.143   14.000    1.714 
#    0.000    0.000    0.000    0.000    0.000    0.000 
#    0.000    0.000    0.000    0.000    0.000    0.000 
#
# Total GULP energy -78356.812674 kJ/mol
# GULP energy per Si atom -5596.915191 kJ/mol
# Density = 2.351692 g / cm^3
# Si number density = 23.570564 Si / 1000 Ang^3
#
#
#
# Elastic Constant Matrix: (Units=GPa)
#
#
# Indices 1 2 3 4 5 6 
#
# 1 176.9311 93.9113 68.1731 2.3588 -22.0590 17.8144
# 2 93.9113 154.3413 41.8919 2.5979 -6.2599 2.4968
# 3 68.1731 41.8919 101.7612 -11.2726 -23.0619 13.2677
# 4 2.3588 2.5979 -11.2726 21.3627 -1.0461 4.3545
# 5 -22.0590 -6.2599 -23.0619 -1.0461 36.4968 7.3210
# 6 17.8144 2.4968 13.2677 4.3545 7.3210 40.9045
#
#
#
# Elastic Compliance Matrix: (Units=1/GPa)
#
#
# Indices 1 2 3 4 5 6 
#
# 1 0.010838 -0.005285 -0.003930 -0.001700 0.003840 -0.003629
# 2 -0.005285 0.010127 -0.002156 -0.002633 -0.003557 0.003300
# 3 -0.003930 -0.002156 0.017981 0.012150 0.010398 -0.007144
# 4 -0.001700 -0.002633 0.012150 0.056428 0.009989 -0.010835
# 5 0.003840 -0.003557 0.010398 0.009989 0.038532 -0.012788
# 6 -0.003629 0.003300 -0.007144 -0.010835 -0.012788 0.031586
#
#
# Mechanical properties :
#
#
# Convention : Reuss Voigt Hill
#
# Bulk Modulus (GPa) = 61.71506 93.44292 77.57899
# Shear Modulus (GPa) = 25.82169 35.02328 30.42248
#
# Velocity S-wave (km/s) = 3.31343 3.85891 3.59653
# Velocity P-wave (km/s) = 6.39362 7.71912 7.08743
#
# Compressibility (1/GPa) = 0.01620350
#
# Stress axis : x y z
#
# Youngs Moduli (GPa) = 92.26701 98.74845 55.61300
#
# Poissons Ratio (x) = 0.52187 0.21856
# Poissons Ratio (y) = 0.48761 0.11993
# Poissons Ratio (z) = 0.36262 0.21295
#
# Static dielectric constant tensor:
#      x y z
#    x 1.896300 -0.029170 0.053900 
#    y -0.029170 1.939420 -0.025560 
#    z 0.053900 -0.025560 1.899200 
# 
# From -- ./inp_files/340596.got.cif
#   From: 2010.05.17/outbox.cif.g08.bks.cpg/sg2_171_cif.got.tgz:340596.got - 2010.06.03 11:33:40.
