data_PCOD9033382
_publ_section_title
;
Structure prediction by ZEFSAII (Michael W. Deem and Ramdas Pophale) SiO2 
 PCOD9033382
Probable space group: P -1
;
_chemical_formula_sum "Si O2"
_cell_formula_units_Z 16
_cell_length_a 19.371739
_cell_length_b 11.485151
_cell_length_c 14.048025
_cell_angle_alpha 129.038418
_cell_angle_beta 31.129868
_cell_angle_gamma 152.404549
_cell_volume 631.058194
_symmetry_space_group_name_H-M "P -1"
_symmetry_group_IT_number 2
_symmetry_cell_setting 'triclinic'
loop_
_space_group_symop_operation_xyz
x,y,z
-x,-y,-z
loop_
_atom_site_type_symbol
_atom_site_label
_atom_site_fract_x
_atom_site_fract_y
_atom_site_fract_z
Si Si1 0.612481 0.945833 0.121240
Si Si2 0.360927 0.525540 0.581590
Si Si3 0.670467 0.037327 0.737761
Si Si4 0.887889 0.008263 0.325783
Si Si5 0.116451 0.587430 0.604020
Si Si6 0.641377 0.460056 0.628669
Si Si7 0.850698 0.429685 0.005174
Si Si8 0.496641 0.650658 0.914703
O O1 0.391698 0.859141 0.363410
O O2 0.605121 0.837939 0.168874
O O3 0.866218 0.289551 0.972740
O O4 0.531367 0.765900 0.034894
O O5 0.661633 0.787707 0.398009
O O6 0.187575 0.206410 0.630220
O O7 0.378312 0.589322 0.484807
O O8 0.222799 0.503235 0.808053
O O9 0.868254 0.355313 0.707638
O O10 0.835503 0.102359 0.500424
O O11 0.407698 0.843264 0.898102
O O12 0.578125 0.836702 0.827680
O O13 0.188336 0.303548 0.087838
O O14 0.128080 0.424461 0.542851
O O15 0.086806 0.662956 0.769689
O O16 0.663132 0.657769 0.721374
#
# Coordination Sequence:
#
# PCOD9033382 Si02
#       8
#     2   2   2   2   2   2   2   2
#     4  10  24  41  64 100 128 167 215 259 330 387
#     4  10  23  45  65  93 134 172 217 262 309 398
#     4  11  22  41  70 102 126 161 221 275 327 375
#     4  10  22  44  67  98 127 166 218 272 327 360
#     4  10  23  42  63  98 131 171 209 265 320 388
#     4  10  24  43  63  97 130 174 219 255 319 390
#     4  11  24  43  66  94 134 173 214 262 323 382
#     4  12  22  42  72  99 126 164 213 283 328 368
#
# _framework density 25.354237000000001
#
# number of rings (size 3 to 8) (size 9 to 14) (size 15 to 20)
#    0.750    0.750    3.750    0.750    0.000    5.500 
#    4.500    0.000    0.000    0.000    0.000    0.000 
#    0.000    0.000    0.000    0.000    0.000    0.000 
#
# Total GULP energy -89563.722568 kJ/mol
# GULP energy per Si atom -5597.732660 kJ/mol
# Density = 2.529653 g / cm^3
# Si number density = 25.354237 Si / 1000 Ang^3
#
#
#
# Elastic Constant Matrix: (Units=GPa)
#
#
# Indices 1 2 3 4 5 6 
#
# 1 105.5562 21.5422 23.8834 -12.6033 14.6437 -4.7156
# 2 21.5422 72.2760 24.9218 2.1349 6.3431 0.5886
# 3 23.8834 24.9218 110.0023 10.3682 10.3359 7.9322
# 4 -12.6033 2.1349 10.3682 44.0673 0.9485 -1.5073
# 5 14.6437 6.3431 10.3359 0.9485 42.0092 -2.1546
# 6 -4.7156 0.5886 7.9322 -1.5073 -2.1546 34.6764
#
#
#
# Elastic Compliance Matrix: (Units=1/GPa)
#
#
# Indices 1 2 3 4 5 6 
#
# 1 0.011485 -0.002545 -0.002161 0.004054 -0.003072 0.002085
# 2 -0.002545 0.015667 -0.002846 -0.000802 -0.000762 -0.000043
# 3 -0.002161 -0.002846 0.010858 -0.003102 -0.001570 -0.002962
# 4 0.004054 -0.000802 -0.003102 0.024720 -0.000969 0.002289
# 5 -0.003072 -0.000762 -0.001570 -0.000969 0.025475 0.001495
# 6 0.002085 -0.000043 -0.002962 0.002289 0.001495 0.029992
#
#
# Mechanical properties :
#
#
# Convention : Reuss Voigt Hill
#
# Bulk Modulus (GPa) = 43.65767 47.61436 45.63602
# Shear Modulus (GPa) = 35.47652 38.64971 37.06311
#
# Velocity S-wave (km/s) = 3.74469 3.90858 3.82751
# Velocity P-wave (km/s) = 5.99612 6.26017 6.12957
#
# Compressibility (1/GPa) = 0.02290548
#
# Stress axis : x y z
#
# Youngs Moduli (GPa) = 87.06735 63.82865 92.09549
#
# Poissons Ratio (x) = 0.16246 0.19900
# Poissons Ratio (y) = 0.22161 0.26215
# Poissons Ratio (z) = 0.18813 0.18169
#
# Static dielectric constant tensor:
#      x y z
#    x 2.007860 0.006860 -0.020240 
#    y 0.006860 1.946930 -0.011960 
#    z -0.020240 -0.011960 1.992570 
# 
# From -- ./inp_files/540979.got.cif
#   From: 2010.05.17/outbox.cif.g08.bks.cpg/sg2_271_cif.got.tgz:540979.got - 2010.06.03 11:33:40.
