data_PCOD9033182
_publ_section_title
;
Structure prediction by ZEFSAII (Michael W. Deem and Ramdas Pophale) SiO2 
 PCOD9033182
Probable space group: P -1
;
_chemical_formula_sum "Si O2"
_cell_formula_units_Z 14
_cell_length_a 11.989094
_cell_length_b 12.666075
_cell_length_c 11.161652
_cell_angle_alpha 112.091051
_cell_angle_beta 88.798570
_cell_angle_gamma 148.809407
_cell_volume 633.789300
_symmetry_space_group_name_H-M "P -1"
_symmetry_group_IT_number 2
_symmetry_cell_setting 'triclinic'
loop_
_space_group_symop_operation_xyz
x,y,z
-x,-y,-z
loop_
_atom_site_type_symbol
_atom_site_label
_atom_site_fract_x
_atom_site_fract_y
_atom_site_fract_z
Si Si1 0.455353 0.634105 0.258097
Si Si2 0.469952 0.426483 0.333567
Si Si3 0.036059 0.275925 0.534721
Si Si4 0.929130 0.154457 0.923534
Si Si5 0.768550 0.396258 0.552078
Si Si6 0.813504 0.216609 0.734213
Si Si7 0.803802 0.236401 0.116204
O O1 0.440367 0.502238 0.274585
O O2 0.347447 0.628983 0.351991
O O3 0.767343 0.958413 0.358111
O O4 0.251722 0.443613 0.068688
O O5 0.500000 0.500000 0.500000
O O6 0.742002 0.607450 0.374238
O O7 0.215019 0.101144 0.196898
O O8 0.177275 0.479680 0.513539
O O9 0.936382 0.266636 0.637297
O O10 0.862721 0.174771 0.822890
O O11 0.803766 0.105520 0.019243
O O12 0.058388 0.622672 0.695503
O O13 0.516006 0.073676 0.397176
O O14 0.981247 0.490616 0.853827
O O15 0.500000 0.000000 0.000000
#
# Coordination Sequence:
#
# PCOD9033182 Si02
#       7
#     2   2   2   2   2   2   2
#     4  10  23  40  66  97 131 169 209 268 321 372
#     4  12  21  43  70  94 129 172 213 263 322 380
#     4  11  22  42  68  97 127 169 222 256 312 393
#     4  11  24  44  64  95 138 164 212 272 319 380
#     4  10  22  44  66  94 132 167 218 264 310 387
#     4  11  23  44  65  94 129 178 211 262 321 376
#     4  11  25  42  68  96 129 173 214 266 326 376
#
# _framework density 22.089362000000001
#
# number of rings (size 3 to 8) (size 9 to 14) (size 15 to 20)
#    0.000    1.143    2.857    3.429    2.000    0.571 
#    2.571    1.429    0.000    0.000    0.000    0.000 
#    0.000    0.000    0.000    0.000    0.000    0.000 
#
# Total GULP energy -78344.070723 kJ/mol
# GULP energy per Si atom -5596.005052 kJ/mol
# Density = 2.203909 g / cm^3
# Si number density = 22.089362 Si / 1000 Ang^3
#
#
#
# Elastic Constant Matrix: (Units=GPa)
#
#
# Indices 1 2 3 4 5 6 
#
# 1 61.0728 3.8824 23.7172 7.9020 7.8917 -14.1194
# 2 3.8824 58.9096 34.1367 15.8983 0.3338 -8.4034
# 3 23.7172 34.1367 121.2836 25.1145 8.9050 -7.0247
# 4 7.9020 15.8983 25.1145 32.6103 -8.9719 -1.7607
# 5 7.8917 0.3338 8.9050 -8.9719 46.7173 2.0781
# 6 -14.1194 -8.4034 -7.0247 -1.7607 2.0781 29.0236
#
#
#
# Elastic Compliance Matrix: (Units=1/GPa)
#
#
# Indices 1 2 3 4 5 6 
#
# 1 0.020973 0.003238 -0.003062 -0.004950 -0.004396 0.010414
# 2 0.003238 0.022735 -0.004815 -0.008263 -0.001673 0.006611
# 3 -0.003062 -0.004815 0.011828 -0.006860 -0.003010 -0.000222
# 4 -0.004950 -0.008263 -0.006860 0.043911 0.010839 -0.004573
# 5 -0.004396 -0.001673 -0.003010 0.010839 0.025015 -0.004485
# 6 0.010414 0.006611 -0.000222 -0.004573 -0.004485 0.041425
#
#
# Mechanical properties :
#
#
# Convention : Reuss Voigt Hill
#
# Bulk Modulus (GPa) = 21.61776 40.52649 31.07213
# Shear Modulus (GPa) = 26.23509 33.63890 29.93699
#
# Velocity S-wave (km/s) = 3.45001 3.90661 3.68539
# Velocity P-wave (km/s) = 5.06733 6.22377 5.67508
#
# Compressibility (1/GPa) = 0.04625825
#
# Stress axis : x y z
#
# Youngs Moduli (GPa) = 47.67969 43.98559 84.54563
#
# Poissons Ratio (x) = -0.14245 0.25887
# Poissons Ratio (y) = -0.15441 0.40713
# Poissons Ratio (z) = 0.14599 0.21181
#
# Static dielectric constant tensor:
#      x y z
#    x 1.806150 0.015030 0.006710 
#    y 0.015030 1.775570 -0.003510 
#    z 0.006710 -0.003510 1.852640 
# 
# From -- ./inp_files/27172.got.cif
#   From: 2010.05.17/outbox.cif.g08.bks.cpg/sg2_14_cif.got.tgz:27172.got - 2010.06.03 11:33:40.
