data_PCOD9033531
_publ_section_title
;
Structure prediction by ZEFSAII (Michael W. Deem and Ramdas Pophale) SiO2 
 PCOD9033531
Probable space group: P -1
;
_chemical_formula_sum "Si O2"
_cell_formula_units_Z 15
_cell_length_a 13.217758
_cell_length_b 18.343620
_cell_length_c 6.782298
_cell_angle_alpha 85.362984
_cell_angle_beta 83.097977
_cell_angle_gamma 20.699525
_cell_volume 574.705040
_symmetry_space_group_name_H-M "P -1"
_symmetry_group_IT_number 2
_symmetry_cell_setting 'triclinic'
loop_
_space_group_symop_operation_xyz
x,y,z
-x,-y,-z
loop_
_atom_site_type_symbol
_atom_site_label
_atom_site_fract_x
_atom_site_fract_y
_atom_site_fract_z
Si Si1 0.721779 0.721578 0.921590
Si Si2 0.696565 0.236443 0.754141
Si Si3 0.841598 0.824481 0.328200
Si Si4 0.160026 0.735053 0.020389
Si Si5 0.870668 0.452784 0.327151
Si Si6 0.970874 0.126025 0.388170
Si Si7 0.472219 0.193372 0.455772
Si Si8 0.500000 0.000000 0.000000
O O1 0.617442 0.739015 0.768001
O O2 0.831730 0.730093 0.820083
O O3 0.000000 0.500000 0.000000
O O4 0.468276 0.926843 0.059212
O O5 0.850650 0.176499 0.905810
O O6 0.374920 0.416834 0.784189
O O7 0.701342 0.287842 0.553064
O O8 0.912165 0.026327 0.702624
O O9 0.012857 0.774862 0.187597
O O10 0.047389 0.649037 0.479340
O O11 0.562665 0.047329 0.457187
O O12 0.722631 0.855325 0.174008
O O13 0.500000 0.500000 0.000000
O O14 0.079254 0.786293 0.798843
O O15 0.762638 0.605194 0.402259
O O16 0.231598 0.971267 0.504935
#
# Coordination Sequence:
#
# PCOD9033531 Si02
#       8
#     2   2   2   2   2   2   2   1
#     4  11  25  45  70  99 135 172 228 280 338 411
#     4  10  23  44  65 100 132 181 226 276 334 397
#     4  11  25  44  67  97 140 174 227 279 335 405
#     4  12  26  40  67 101 136 183 224 276 335 403
#     4  11  25  43  70  98 132 179 223 281 339 398
#     4  10  22  44  68  94 138 177 227 278 331 401
#     4  10  23  44  71  95 130 182 219 279 342 393
#     4  10  26  44  64 102 132 174 222 282 336 400
#
# _framework density 26.100345999999998
#
# number of rings (size 3 to 8) (size 9 to 14) (size 15 to 20)
#    0.000    1.333    1.333    2.400    3.733    9.600 
#    9.600    0.000    0.000    0.000    0.000    0.000 
#    0.000    0.000    0.000    0.000    0.000    0.000 
#
# Total GULP energy -83597.274818 kJ/mol
# GULP energy per Si atom -5573.151655 kJ/mol
# Density = 2.604094 g / cm^3
# Si number density = 26.100346 Si / 1000 Ang^3
#
#
#
# Elastic Constant Matrix: (Units=GPa)
#
#
# Indices 1 2 3 4 5 6 
#
# 1 90.0346 15.7133 53.5333 -3.3424 16.0578 -17.3554
# 2 15.7133 80.2663 36.4005 -18.6651 -12.9469 -2.4749
# 3 53.5333 36.4005 122.8379 -16.1972 6.5939 -14.9369
# 4 -3.3424 -18.6651 -16.1972 37.8665 5.9278 7.1485
# 5 16.0578 -12.9469 6.5939 5.9278 49.1888 -1.8325
# 6 -17.3554 -2.4749 -14.9369 7.1485 -1.8325 51.8972
#
#
#
# Elastic Compliance Matrix: (Units=1/GPa)
#
#
# Indices 1 2 3 4 5 6 
#
# 1 0.016613 -0.001442 -0.006369 -0.001963 -0.004573 0.003763
# 2 -0.001442 0.016601 -0.003935 0.005932 0.004598 -0.001478
# 3 -0.006369 -0.003935 0.012621 0.002881 -0.000963 0.000884
# 4 -0.001963 0.005932 0.002881 0.031470 -0.002124 -0.003954
# 5 -0.004573 0.004598 -0.000963 -0.002124 0.023400 -0.000468
# 6 0.003763 -0.001478 0.000884 -0.003954 -0.000468 0.021240
#
#
# Mechanical properties :
#
#
# Convention : Reuss Voigt Hill
#
# Bulk Modulus (GPa) = 44.75565 56.04812 50.40188
# Shear Modulus (GPa) = 32.70420 40.28993 36.49706
#
# Velocity S-wave (km/s) = 3.54364 3.93320 3.74349
# Velocity P-wave (km/s) = 5.82477 6.49211 6.16747
#
# Compressibility (1/GPa) = 0.02234355
#
# Stress axis : x y z
#
# Youngs Moduli (GPa) = 60.19305 60.23771 79.23006
#
# Poissons Ratio (x) = 0.08687 0.50458
# Poissons Ratio (y) = 0.08681 0.31179
# Poissons Ratio (z) = 0.38334 0.23705
#
# Static dielectric constant tensor:
#      x y z
#    x 1.871130 -0.344880 -0.331150 
#    y -0.344880 1.284570 -0.659280 
#    z -0.331150 -0.659280 1.591520 
# 
# From -- ./inp_files/100599.got.cif
#   From: 2010.05.17/outbox.cif.g08.bks.cpg/sg2_51_cif.got.tgz:100599.got - 2010.06.03 11:33:40.
