data_PCOD9033284
_publ_section_title
;
Structure prediction by ZEFSAII (Michael W. Deem and Ramdas Pophale) SiO2 
 PCOD9033284
Probable space group: P -1
;
_chemical_formula_sum "Si O2"
_cell_formula_units_Z 14
_cell_length_a 13.497001
_cell_length_b 22.430309
_cell_length_c 6.398218
_cell_angle_alpha 57.762986
_cell_angle_beta 62.877845
_cell_angle_gamma 21.648403
_cell_volume 599.464208
_symmetry_space_group_name_H-M "P -1"
_symmetry_group_IT_number 2
_symmetry_cell_setting 'triclinic'
loop_
_space_group_symop_operation_xyz
x,y,z
-x,-y,-z
loop_
_atom_site_type_symbol
_atom_site_label
_atom_site_fract_x
_atom_site_fract_y
_atom_site_fract_z
Si Si1 0.502219 0.334941 0.105089
Si Si2 0.087648 0.127840 0.227193
Si Si3 0.682124 0.683129 0.985425
Si Si4 0.305830 0.718997 0.374669
Si Si5 0.280227 0.871167 0.338603
Si Si6 0.575035 0.890296 0.488319
Si Si7 0.140946 0.609884 0.277738
O O1 0.416621 0.320646 0.067187
O O2 0.693769 0.190564 0.364319
O O3 0.247889 0.511248 0.147702
O O4 0.642083 0.311696 0.864829
O O5 0.893394 0.220995 0.436418
O O6 0.148260 0.020802 0.246597
O O7 0.360399 0.003777 0.294736
O O8 0.947332 0.262265 0.952286
O O9 0.564762 0.825410 0.758019
O O10 0.574028 0.725117 0.239097
O O11 0.000000 0.500000 0.000000
O O12 0.190188 0.864231 0.269588
O O13 0.600636 0.540798 0.534289
O O14 0.878831 0.725032 0.416761
O O15 0.500000 0.000000 0.500000
#
# Coordination Sequence:
#
# PCOD9033284 Si02
#       7
#     2   2   2   2   2   2   2
#     4  10  22  44  68 101 132 179 228 275 337 405
#     4  12  25  45  71 101 139 184 220 283 351 392
#     4  11  23  40  70  96 138 180 226 276 338 407
#     4  10  24  47  72 100 137 178 229 280 333 414
#     4  10  22  44  67 104 132 174 227 285 335 403
#     4  12  27  46  67 103 140 180 226 285 339 399
#     4  11  26  46  71  98 141 179 231 276 336 412
#
# _framework density 23.354189999999999
#
# number of rings (size 3 to 8) (size 9 to 14) (size 15 to 20)
#    0.000    1.143    1.429    4.714    6.000    2.286 
#   10.286    0.000    0.000    0.000    0.000    0.000 
#    0.000    0.000    0.000    0.000    0.000    0.000 
#
# Total GULP energy -78370.311597 kJ/mol
# GULP energy per Si atom -5597.879400 kJ/mol
# Density = 2.330103 g / cm^3
# Si number density = 23.354190 Si / 1000 Ang^3
#
#
#
# Elastic Constant Matrix: (Units=GPa)
#
#
# Indices 1 2 3 4 5 6 
#
# 1 81.0518 41.0585 15.3178 -10.5015 3.6980 -7.4180
# 2 41.0585 120.1172 38.2480 8.4046 1.1534 -1.8539
# 3 15.3178 38.2480 120.0132 8.0553 -3.3417 -2.2526
# 4 -10.5015 8.4046 8.0553 53.5996 -1.9323 -14.4423
# 5 3.6980 1.1534 -3.3417 -1.9323 32.2940 -0.2629
# 6 -7.4180 -1.8539 -2.2526 -14.4423 -0.2629 31.9569
#
#
#
# Elastic Compliance Matrix: (Units=1/GPa)
#
#
# Indices 1 2 3 4 5 6 
#
# 1 0.016817 -0.005864 -0.000597 0.005921 -0.001373 0.006186
# 2 -0.005864 0.011382 -0.002717 -0.003159 -0.000224 -0.002322
# 3 -0.000597 -0.002717 0.009375 -0.001094 0.001069 -0.000121
# 4 0.005921 -0.003159 -0.001094 0.023694 0.000836 0.011829
# 5 -0.001373 -0.000224 0.001069 0.000836 0.031295 0.000379
# 6 0.006186 -0.002322 -0.000121 0.011829 0.000379 0.037934
#
#
# Mechanical properties :
#
#
# Convention : Reuss Voigt Hill
#
# Bulk Modulus (GPa) = 52.03242 56.71453 54.37347
# Shear Modulus (GPa) = 32.20411 38.67394 35.43902
#
# Velocity S-wave (km/s) = 3.71744 4.07378 3.89968
# Velocity P-wave (km/s) = 6.38388 6.81651 6.60374
#
# Compressibility (1/GPa) = 0.01921879
#
# Stress axis : x y z
#
# Youngs Moduli (GPa) = 59.46287 87.85753 106.66198
#
# Poissons Ratio (x) = 0.51519 0.06370
# Poissons Ratio (y) = 0.34869 0.28978
# Poissons Ratio (z) = 0.03551 0.23869
#
# Static dielectric constant tensor:
#      x y z
#    x 1.857420 -0.009410 0.000430 
#    y -0.009410 1.915680 0.012280 
#    z 0.000430 0.012280 1.884510 
# 
# From -- ./inp_files/72029.got.cif
#   From: 2010.05.17/outbox.cif.g08.bks.cpg/sg2_37_cif.got.tgz:72029.got - 2010.06.03 11:33:40.
