data_PCOD9033307
_publ_section_title
;
Structure prediction by ZEFSAII (Michael W. Deem and Ramdas Pophale) SiO2 
 PCOD9033307
Probable space group: P -1
;
_chemical_formula_sum "Si O2"
_cell_formula_units_Z 16
_cell_length_a 10.694467
_cell_length_b 9.019097
_cell_length_c 8.819425
_cell_angle_alpha 115.417662
_cell_angle_beta 63.985051
_cell_angle_gamma 117.820782
_cell_volume 648.581663
_symmetry_space_group_name_H-M "P -1"
_symmetry_group_IT_number 2
_symmetry_cell_setting 'triclinic'
loop_
_space_group_symop_operation_xyz
x,y,z
-x,-y,-z
loop_
_atom_site_type_symbol
_atom_site_label
_atom_site_fract_x
_atom_site_fract_y
_atom_site_fract_z
Si Si1 0.822483 0.070705 0.632884
Si Si2 0.102957 0.238085 0.030931
Si Si3 0.603354 0.338833 0.541876
Si Si4 0.473713 0.823812 0.162514
Si Si5 0.690273 0.436997 0.094385
Si Si6 0.243875 0.824509 0.826048
Si Si7 0.003093 0.029971 0.265596
Si Si8 0.332761 0.324810 0.507208
O O1 0.675836 0.121764 0.741345
O O2 0.929755 0.135849 0.460650
O O3 0.920910 0.091667 0.739699
O O4 0.782141 0.862925 0.539548
O O5 0.927568 0.199753 0.101093
O O6 0.122235 0.165156 0.152572
O O7 0.196811 0.436138 0.030125
O O8 0.121760 0.105612 0.834157
O O9 0.535577 0.266891 0.707909
O O10 0.719205 0.251219 0.386058
O O11 0.482042 0.285192 0.447045
O O12 0.663641 0.546759 0.576970
O O13 0.624820 0.988489 0.139690
O O14 0.450766 0.681790 0.978762
O O15 0.744502 0.301878 0.099333
O O16 0.677939 0.570126 0.289234
#
# Coordination Sequence:
#
# PCOD9033307 Si02
#       8
#     2   2   2   2   2   2   2   2
#     4  11  22  44  69  97 132 175 224 277 328 394
#     4  11  23  44  65  99 134 179 218 274 329 400
#     4  10  23  41  68  98 128 179 220 274 329 395
#     4  12  25  42  72 103 132 170 228 276 330 394
#     4  11  25  43  65  98 138 178 216 275 334 392
#     4  11  23  42  68  96 137 175 217 270 340 393
#     4  10  24  40  69  95 131 179 227 268 330 394
#     4  10  22  44  67  91 140 174 218 274 335 389
#
# _framework density 24.669218000000001
#
# number of rings (size 3 to 8) (size 9 to 14) (size 15 to 20)
#    0.000    1.250    2.500    2.625    3.500    0.500 
#    2.250    1.250    0.000    0.000    0.000    0.000 
#    0.000    0.000    0.000    0.000    0.000    0.000 
#
# Total GULP energy -89416.193583 kJ/mol
# GULP energy per Si atom -5588.512099 kJ/mol
# Density = 2.461307 g / cm^3
# Si number density = 24.669218 Si / 1000 Ang^3
#
#
#
# Elastic Constant Matrix: (Units=GPa)
#
#
# Indices 1 2 3 4 5 6 
#
# 1 78.5692 20.2529 11.4017 -3.4498 -11.4246 -7.2549
# 2 20.2529 129.3442 31.2246 -20.6667 12.7478 -7.0487
# 3 11.4017 31.2246 77.9275 2.6621 -4.2816 -8.5087
# 4 -3.4498 -20.6667 2.6621 39.6069 -3.6407 11.4035
# 5 -11.4246 12.7478 -4.2816 -3.6407 36.3141 -5.4333
# 6 -7.2549 -7.0487 -8.5087 11.4035 -5.4333 22.9338
#
#
#
# Elastic Compliance Matrix: (Units=1/GPa)
#
#
# Indices 1 2 3 4 5 6 
#
# 1 0.014901 -0.002862 0.000028 -0.001344 0.006466 0.006044
# 2 -0.002862 0.010615 -0.004731 0.006201 -0.005116 -0.003693
# 3 0.000028 -0.004731 0.016049 -0.005535 0.004244 0.008267
# 4 -0.001344 0.006201 -0.005535 0.033662 -0.002558 -0.017917
# 5 0.006466 -0.005116 0.004244 -0.002558 0.033288 0.011206
# 6 0.006044 -0.003693 0.008267 -0.017917 0.011206 0.059011
#
#
# Mechanical properties :
#
#
# Convention : Reuss Voigt Hill
#
# Bulk Modulus (GPa) = 37.82993 45.73325 41.78159
# Shear Modulus (GPa) = 26.11405 34.63508 30.37457
#
# Velocity S-wave (km/s) = 3.25709 3.75104 3.51276
# Velocity P-wave (km/s) = 5.43259 6.11058 5.78153
#
# Compressibility (1/GPa) = 0.02643410
#
# Stress axis : x y z
#
# Youngs Moduli (GPa) = 67.11094 94.20437 62.31015
#
# Poissons Ratio (x) = 0.26965 -0.00174
# Poissons Ratio (y) = 0.19210 0.29477
# Poissons Ratio (z) = -0.00187 0.44566
#
# Static dielectric constant tensor:
#      x y z
#    x 2.011930 -0.037390 -0.036230 
#    y -0.037390 1.961940 -0.024690 
#    z -0.036230 -0.024690 2.097030 
# 
# From -- ./inp_files/199508.got.cif
#   From: 2010.05.17/outbox.cif.g08.bks.cpg/sg2_100_cif.got.tgz:199508.got - 2010.06.03 11:33:40.
