data_PCOD9033153
_publ_section_title
;
Structure prediction by ZEFSAII (Michael W. Deem and Ramdas Pophale) SiO2 
 PCOD9033153
Probable space group: P -1
;
_chemical_formula_sum "Si O2"
_cell_formula_units_Z 16
_cell_length_a 15.663210
_cell_length_b 11.405056
_cell_length_c 5.777743
_cell_angle_alpha 60.608341
_cell_angle_beta 121.429999
_cell_angle_gamma 123.520599
_cell_volume 703.754932
_symmetry_space_group_name_H-M "P -1"
_symmetry_group_IT_number 2
_symmetry_cell_setting 'triclinic'
loop_
_space_group_symop_operation_xyz
x,y,z
-x,-y,-z
loop_
_atom_site_type_symbol
_atom_site_label
_atom_site_fract_x
_atom_site_fract_y
_atom_site_fract_z
Si Si1 0.346786 0.901788 0.614918
Si Si2 0.022193 0.083913 0.200230
Si Si3 0.521524 0.172432 0.501095
Si Si4 0.441160 0.355892 0.901089
Si Si5 0.370445 0.631081 0.159896
Si Si6 0.778797 0.659032 0.617380
Si Si7 0.894127 0.254744 0.656710
Si Si8 0.934953 0.547654 0.665742
O O1 0.398961 0.891364 0.449027
O O2 0.220722 0.872111 0.455539
O O3 0.436065 0.059038 0.668466
O O4 0.350813 0.765101 0.891475
O O5 0.148210 0.194449 0.288494
O O6 0.000000 0.000000 0.500000
O O7 0.951805 0.183967 0.985091
O O8 0.000000 0.000000 0.000000
O O9 0.604003 0.322803 0.583916
O O10 0.446711 0.217790 0.178297
O O11 0.521415 0.376293 0.780502
O O12 0.321700 0.330763 0.672500
O O13 0.500000 0.500000 0.000000
O O14 0.271574 0.476468 0.145484
O O15 0.855082 0.613982 0.597857
O O16 0.873338 0.393087 0.595412
O O17 0.979238 0.330569 0.497368
O O18 0.000000 0.500000 0.000000
#
# Coordination Sequence:
#
# PCOD9033153 Si02
#       8
#     2   2   2   2   2   2   2   2
#     4  10  23  41  70 100 143 184 229 301 367 437
#     4  12  30  53  72 108 153 202 258 309 381 462
#     4  10  22  44  66 104 145 182 234 292 364 447
#     4  11  25  42  68 106 143 183 244 296 360 448
#     4  11  23  43  68 107 133 185 241 292 371 439
#     4  12  25  46  77 100 145 195 241 318 369 440
#     4  11  25  44  72 105 142 193 252 309 376 445
#     4  11  23  45  71 106 140 185 256 316 367 437
#
# _framework density 22.735187
#
# number of rings (size 3 to 8) (size 9 to 14) (size 15 to 20)
#    0.000    1.000    2.500    3.000    5.250    2.000 
#    0.000    0.000    0.000    0.000    0.000    0.000 
#    0.000    0.000    0.000    0.000    0.000    0.000 
#
# Total GULP energy -89407.418503 kJ/mol
# GULP energy per Si atom -5587.963656 kJ/mol
# Density = 2.268344 g / cm^3
# Si number density = 22.735187 Si / 1000 Ang^3
#
#
#
# Elastic Constant Matrix: (Units=GPa)
#
#
# Indices 1 2 3 4 5 6 
#
# 1 92.7510 34.0667 29.6760 5.5588 8.9165 3.2475
# 2 34.0667 131.4505 42.8663 3.0122 -2.1196 23.6500
# 3 29.6760 42.8663 116.5837 -20.1189 6.4640 17.3063
# 4 5.5588 3.0122 -20.1189 42.1932 6.5087 -6.1384
# 5 8.9165 -2.1196 6.4640 6.5087 31.0126 0.4356
# 6 3.2475 23.6500 17.3063 -6.1384 0.4356 43.6966
#
#
#
# Elastic Compliance Matrix: (Units=1/GPa)
#
#
# Indices 1 2 3 4 5 6 
#
# 1 0.013016 -0.002718 -0.002721 -0.002178 -0.002922 0.001305
# 2 -0.002718 0.010243 -0.003056 -0.002927 0.002797 -0.004570
# 3 -0.002721 -0.003056 0.011988 0.006514 -0.003265 -0.001944
# 4 -0.002178 -0.002927 0.006514 0.028866 -0.007036 0.003291
# 5 -0.002922 0.002797 -0.003265 -0.007036 0.035452 -0.001345
# 6 0.001305 -0.004570 -0.001944 0.003291 -0.001345 0.026507
#
#
# Mechanical properties :
#
#
# Convention : Reuss Voigt Hill
#
# Bulk Modulus (GPa) = 54.77614 61.55589 58.16601
# Shear Modulus (GPa) = 33.52360 38.99222 36.25791
#
# Velocity S-wave (km/s) = 3.84412 4.14582 3.99782
# Velocity P-wave (km/s) = 6.62181 7.07468 6.85199
#
# Compressibility (1/GPa) = 0.01825613
#
# Stress axis : x y z
#
# Youngs Moduli (GPa) = 76.82696 97.62959 83.41982
#
# Poissons Ratio (x) = 0.26533 0.22702
# Poissons Ratio (y) = 0.20880 0.25493
# Poissons Ratio (z) = 0.20908 0.29836
#
# Static dielectric constant tensor:
#      x y z
#    x 1.853460 -0.077520 -0.040940 
#    y -0.077520 2.025450 0.006620 
#    z -0.040940 0.006620 1.880070 
# 
# From -- ./inp_files/94507.got.cif
#   From: 2010.05.17/outbox.cif.g08.bks.cpg/sg2_48_cif.got.tgz:94507.got - 2010.06.03 11:33:40.
