data_PCOD9033423
_publ_section_title
;
Structure prediction by ZEFSAII (Michael W. Deem and Ramdas Pophale) SiO2 
 PCOD9033423
Probable space group: P -1
;
_chemical_formula_sum "Si O2"
_cell_formula_units_Z 14
_cell_length_a 12.298990
_cell_length_b 8.868769
_cell_length_c 14.867342
_cell_angle_alpha 64.817656
_cell_angle_beta 34.155110
_cell_angle_gamma 46.161039
_cell_volume 611.493941
_symmetry_space_group_name_H-M "P -1"
_symmetry_group_IT_number 2
_symmetry_cell_setting 'triclinic'
loop_
_space_group_symop_operation_xyz
x,y,z
-x,-y,-z
loop_
_atom_site_type_symbol
_atom_site_label
_atom_site_fract_x
_atom_site_fract_y
_atom_site_fract_z
Si Si1 0.681873 0.997785 0.443347
Si Si2 0.743588 0.359145 0.052973
Si Si3 0.791400 0.359361 0.552977
Si Si4 0.904366 0.499878 0.750163
Si Si5 0.008567 0.904503 0.878897
Si Si6 0.566200 0.002561 0.056625
Si Si7 0.671363 0.094900 0.620918
O O1 0.953786 0.737819 0.333573
O O2 0.575189 0.087524 0.592655
O O3 0.749525 0.133693 0.316963
O O4 0.500000 0.000000 0.500000
O O5 0.445101 0.499677 0.249994
O O6 0.838173 0.143624 0.986268
O O7 0.901930 0.271257 0.060059
O O8 0.817545 0.475179 0.912164
O O9 0.883298 0.475165 0.411999
O O10 0.045339 0.144305 0.486555
O O11 0.707420 0.270660 0.559874
O O12 0.641030 0.737264 0.834007
O O13 0.848052 0.912371 0.907357
O O14 0.516368 0.867124 0.183320
O O15 0.500000 0.000000 0.000000
#
# Coordination Sequence:
#
# PCOD9033423 Si02
#       7
#     2   2   2   2   2   2   2
#     4  11  25  44  68 101 136 178 226 279 333 409
#     4  10  22  44  68 100 132 179 225 284 334 401
#     4  10  22  44  68 100 132 179 225 284 334 401
#     4  10  24  40  72  98 132 174 234 270 334 400
#     4  10  25  41  71  97 137 177 224 278 345 389
#     4  11  25  44  68 101 136 178 226 279 333 409
#     4  10  25  41  71  97 137 177 224 278 345 389
#
# _framework density 22.894748
#
# number of rings (size 3 to 8) (size 9 to 14) (size 15 to 20)
#    0.000    1.714    0.000    1.714   18.000    2.286 
#    2.571    2.857    0.000    0.000    0.000    0.000 
#    0.000    0.000    0.000    0.000    0.000    0.000 
#
# Total GULP energy -78254.147153 kJ/mol
# GULP energy per Si atom -5589.581940 kJ/mol
# Density = 2.284264 g / cm^3
# Si number density = 22.894748 Si / 1000 Ang^3
#
#
#
# Elastic Constant Matrix: (Units=GPa)
#
#
# Indices 1 2 3 4 5 6 
#
# 1 142.8517 -14.4353 48.6979 -20.2221 -1.8493 1.5227
# 2 -14.4353 55.9375 23.2434 -25.3389 2.9646 -2.5077
# 3 48.6979 23.2434 160.6575 -34.2539 3.7756 -2.9531
# 4 -20.2221 -25.3389 -34.2539 45.5321 -1.6213 2.9270
# 5 -1.8493 2.9646 3.7756 -1.6213 31.0552 7.6595
# 6 1.5227 -2.5077 -2.9531 2.9270 7.6595 1.5839
#
#
#
# Elastic Compliance Matrix: (Units=1/GPa)
#
#
# Indices 1 2 3 4 5 6 
#
# 1 0.008154 0.006491 -0.001824 0.002975 -0.009528 0.039616
# 2 0.006491 0.027471 -0.002670 0.017740 0.004461 -0.022081
# 3 -0.001824 -0.002670 0.007710 0.005260 0.005471 -0.024277
# 4 0.002975 0.017740 0.005260 0.030244 -0.023695 0.093733
# 5 -0.009528 0.004461 0.005471 -0.023695 -0.062192 0.370972
# 6 0.039616 -0.022081 -0.024277 0.093733 0.370972 -1.454176
#
#
# Mechanical properties :
#
#
# Convention : Reuss Voigt Hill
#
# Bulk Modulus (GPa) = 21.12917 52.71762 36.92340
# Shear Modulus (GPa) = -3.49405 35.76360 16.13478
#
# Velocity S-wave (km/s) = -1.23671 3.95661 2.65757
# Velocity P-wave (km/s) = 2.68507 6.62941 5.05760
#
# Compressibility (1/GPa) = 0.04732793
#
# Stress axis : x y z
#
# Youngs Moduli (GPa) = 122.64631 36.40155 129.69727
#
# Poissons Ratio (x) = -0.23627 0.23658
# Poissons Ratio (y) = -0.79606 0.34632
# Poissons Ratio (z) = 0.22372 0.09720
#
# Static dielectric constant tensor:
#      x y z
#    x 1.821870 0.000150 0.002290 
#    y 0.000150 1.896130 0.015230 
#    z 0.002290 0.015230 1.862920 
# 
# From -- ./inp_files/203247.got.cif
#   From: 2010.05.17/outbox.cif.g08.bks.cpg/sg2_102_cif.got.tgz:203247.got - 2010.06.03 11:33:40.
