data_PCOD9033128
_publ_section_title
;
Structure prediction by ZEFSAII (Michael W. Deem and Ramdas Pophale) SiO2 
 PCOD9033128
Probable space group: P -1
;
_chemical_formula_sum "Si O2"
_cell_formula_units_Z 14
_cell_length_a 15.471163
_cell_length_b 19.004926
_cell_length_c 6.541668
_cell_angle_alpha 65.201120
_cell_angle_beta 65.638504
_cell_angle_gamma 18.441823
_cell_volume 551.639567
_symmetry_space_group_name_H-M "P -1"
_symmetry_group_IT_number 2
_symmetry_cell_setting 'triclinic'
loop_
_space_group_symop_operation_xyz
x,y,z
-x,-y,-z
loop_
_atom_site_type_symbol
_atom_site_label
_atom_site_fract_x
_atom_site_fract_y
_atom_site_fract_z
Si Si1 0.754160 0.114792 0.635076
Si Si2 0.103247 0.376017 0.349708
Si Si3 0.812954 0.845390 0.637296
Si Si4 0.294123 0.901293 0.737087
Si Si5 0.444915 0.186653 0.907758
Si Si6 0.689213 0.517406 0.102177
Si Si7 0.803383 0.275550 0.065559
O O1 0.700745 0.156743 0.396653
O O2 0.973183 0.912716 0.096065
O O3 0.575190 0.306255 0.722859
O O4 0.071631 0.868701 0.689373
O O5 0.185032 0.222669 0.452693
O O6 0.351184 0.227706 0.168836
O O7 0.000000 0.500000 0.500000
O O8 0.836965 0.580777 0.216320
O O9 0.751617 0.975778 0.439806
O O10 0.628460 0.124165 0.805178
O O11 0.594320 0.009078 0.835563
O O12 0.569714 0.672232 0.872758
O O13 0.905880 0.372101 0.242642
O O14 0.812833 0.355940 0.039529
O O15 0.500000 0.500000 0.000000
#
# Coordination Sequence:
#
# PCOD9033128 Si02
#       7
#     2   2   2   2   2   2   2
#     4  10  22  45  68 103 140 184 238 278 344 429
#     4  11  25  43  71 103 140 183 236 296 344 406
#     4  11  23  48  72 101 141 188 235 285 350 416
#     4  10  25  42  73 107 133 189 239 274 352 422
#     4  10  22  44  66 101 139 184 235 282 350 408
#     4  11  23  44  73 100 142 183 227 294 341 414
#     4  11  25  45  72 109 141 179 232 290 350 414
#
# _framework density 25.378890999999999
#
# number of rings (size 3 to 8) (size 9 to 14) (size 15 to 20)
#    0.000    1.429    4.286    0.429    2.000    9.143 
#    0.000    1.429    0.000    0.000    0.000    0.000 
#    0.000    0.000    0.000    0.000    0.000    0.000 
#
# Total GULP energy -78288.477904 kJ/mol
# GULP energy per Si atom -5592.034136 kJ/mol
# Density = 2.532113 g / cm^3
# Si number density = 25.378891 Si / 1000 Ang^3
#
#
#
# Elastic Constant Matrix: (Units=GPa)
#
#
# Indices 1 2 3 4 5 6 
#
# 1 76.7722 7.2487 15.9592 -4.5127 15.8070 5.7469
# 2 7.2487 136.4026 36.4734 -16.8658 4.1262 -2.6356
# 3 15.9592 36.4734 110.2202 -6.5367 13.8855 8.3028
# 4 -4.5127 -16.8658 -6.5367 63.6681 -7.7496 15.6351
# 5 15.8070 4.1262 13.8855 -7.7496 28.1290 9.0437
# 6 5.7469 -2.6356 8.3028 15.6351 9.0437 41.8220
#
#
#
# Elastic Compliance Matrix: (Units=1/GPa)
#
#
# Indices 1 2 3 4 5 6 
#
# 1 0.014881 -0.000275 -0.001077 -0.000032 -0.007747 -0.000161
# 2 -0.000275 0.008288 -0.002697 0.001936 0.000735 0.000213
# 3 -0.001077 -0.002697 0.010715 0.000193 -0.003784 -0.001403
# 4 -0.000032 0.001936 0.000193 0.019359 0.007814 -0.008839
# 5 -0.007747 0.000735 -0.003784 0.007814 0.047456 -0.011321
# 6 -0.000161 0.000213 -0.001403 -0.008839 -0.011321 0.029977
#
#
# Mechanical properties :
#
#
# Convention : Reuss Voigt Hill
#
# Bulk Modulus (GPa) = 38.78197 49.19530 43.98864
# Shear Modulus (GPa) = 33.92813 44.30473 39.11643
#
# Velocity S-wave (km/s) = 3.66028 4.18273 3.93020
# Velocity P-wave (km/s) = 5.76003 6.53861 6.16163
#
# Compressibility (1/GPa) = 0.02578518
#
# Stress axis : x y z
#
# Youngs Moduli (GPa) = 67.20092 120.65277 93.32754
#
# Poissons Ratio (x) = 0.03324 0.10054
# Poissons Ratio (y) = 0.01851 0.25167
# Poissons Ratio (z) = 0.07239 0.32535
#
# Static dielectric constant tensor:
#      x y z
#    x 2.092360 0.001280 -0.064050 
#    y 0.001280 1.998520 -0.011960 
#    z -0.064050 -0.011960 2.064640 
# 
# From -- ./inp_files/112388.got.cif
#   From: 2010.05.17/outbox.cif.g08.bks.cpg/sg2_57_cif.got.tgz:112388.got - 2010.06.03 11:33:40.
