data_PCOD9033910
_publ_section_title
;
Structure prediction by ZEFSAII (Michael W. Deem and Ramdas Pophale) SiO2 
 PCOD9033910
Probable space group: P -1
;
_chemical_formula_sum "Si O2"
_cell_formula_units_Z 14
_cell_length_a 5.279034
_cell_length_b 17.084008
_cell_length_c 8.929149
_cell_angle_alpha 71.538957
_cell_angle_beta 122.933935
_cell_angle_gamma 72.300460
_cell_volume 513.771617
_symmetry_space_group_name_H-M "P -1"
_symmetry_group_IT_number 2
_symmetry_cell_setting 'triclinic'
loop_
_space_group_symop_operation_xyz
x,y,z
-x,-y,-z
loop_
_atom_site_type_symbol
_atom_site_label
_atom_site_fract_x
_atom_site_fract_y
_atom_site_fract_z
Si Si1 0.314899 0.325701 0.747055
Si Si2 0.198646 0.739063 0.343657
Si Si3 0.674789 0.097151 0.238096
Si Si4 0.453165 0.184201 0.424027
Si Si5 0.507607 0.469099 0.352373
Si Si6 0.197166 0.021660 0.177605
Si Si7 0.702504 0.393621 0.036670
O O1 0.635306 0.270091 0.759552
O O2 0.441442 0.363945 0.899479
O O3 0.942309 0.419901 0.482147
O O4 0.164606 0.259872 0.786100
O O5 0.201736 0.819177 0.396113
O O6 0.492865 0.628907 0.590279
O O7 0.608972 0.932043 0.866252
O O8 0.476406 0.182939 0.252698
O O9 0.898161 0.094520 0.167714
O O10 0.000000 0.000000 0.500000
O O11 0.504048 0.085881 0.573276
O O12 0.059568 0.289359 0.284185
O O13 0.500000 0.500000 0.500000
O O14 0.200922 0.567817 0.102468
O O15 0.000000 0.000000 0.000000
O O16 0.500000 0.500000 0.000000
#
# Coordination Sequence:
#
# PCOD9033910 Si02
#       7
#     2   2   2   2   2   2   2
#     4  10  23  46  66  95 137 206 243 297 345 426
#     4  10  24  43  72  95 143 190 257 285 356 437
#     4  10  23  50  81 110 149 181 242 321 380 436
#     4  11  26  46  73 117 147 195 249 310 379 441
#     4  10  22  44  70  87 145 198 254 287 355 412
#     4  11  25  52  84 109 148 193 243 310 384 456
#     4  12  25  45  71 109 156 201 250 312 363 428
#
# _framework density 27.249461
#
# number of rings (size 3 to 8) (size 9 to 14) (size 15 to 20)
#    0.857    0.571    1.429    3.429    2.000    5.143 
#    2.571    7.143    0.000    0.000    0.000    0.000 
#    0.000    0.000    0.000    0.000    0.000    0.000 
#
# Total GULP energy -78369.314036 kJ/mol
# GULP energy per Si atom -5597.808145 kJ/mol
# Density = 2.718744 g / cm^3
# Si number density = 27.249461 Si / 1000 Ang^3
#
#
#
# Elastic Constant Matrix: (Units=GPa)
#
#
# Indices 1 2 3 4 5 6 
#
# 1 141.5411 46.7587 31.8612 6.2976 -2.8918 23.2318
# 2 46.7587 138.4192 35.0060 20.7341 12.3532 16.6422
# 3 31.8612 35.0060 115.7758 -10.2458 6.4199 -4.3010
# 4 6.2976 20.7341 -10.2458 63.1958 5.7797 7.8739
# 5 -2.8918 12.3532 6.4199 5.7797 46.2486 -2.2974
# 6 23.2318 16.6422 -4.3010 7.8739 -2.2974 52.2325
#
#
#
# Elastic Compliance Matrix: (Units=1/GPa)
#
#
# Indices 1 2 3 4 5 6 
#
# 1 0.008800 -0.002159 -0.001979 -0.000193 0.001262 -0.003305
# 2 -0.002159 0.009414 -0.002462 -0.002849 -0.002046 -0.001903
# 3 -0.001979 -0.002462 0.010288 0.002514 -0.001105 0.002084
# 4 -0.000193 -0.002849 0.002514 0.017546 -0.001869 -0.001527
# 5 0.001262 -0.002046 -0.001105 -0.001869 0.022698 0.001280
# 6 -0.003305 -0.001903 0.002084 -0.001527 0.001280 0.021679
#
#
# Mechanical properties :
#
#
# Convention : Reuss Voigt Hill
#
# Bulk Modulus (GPa) = 65.34466 69.22090 67.28278
# Shear Modulus (GPa) = 45.98700 51.14271 48.56485
#
# Velocity S-wave (km/s) = 4.11253 4.33694 4.22623
# Velocity P-wave (km/s) = 6.82516 7.10891 6.96848
#
# Compressibility (1/GPa) = 0.01530347
#
# Stress axis : x y z
#
# Youngs Moduli (GPa) = 113.63001 106.22142 97.20517
#
# Poissons Ratio (x) = 0.22930 0.19237
# Poissons Ratio (y) = 0.24529 0.23929
# Poissons Ratio (z) = 0.22487 0.26149
#
# Static dielectric constant tensor:
#      x y z
#    x 2.154690 -0.037100 -0.022490 
#    y -0.037100 2.178200 -0.045080 
#    z -0.022490 -0.045080 2.341860 
# 
# From -- ./inp_files/138893.got.cif
#   From: 2010.05.17/outbox.cif.g08.bks.cpg/sg2_70_cif.got.tgz:138893.got - 2010.06.03 11:33:40.
