data_PCOD9033324
_publ_section_title
;
Structure prediction by ZEFSAII (Michael W. Deem and Ramdas Pophale) SiO2 
 PCOD9033324
Probable space group: P -1
;
_chemical_formula_sum "Si O2"
_cell_formula_units_Z 14
_cell_length_a 12.396625
_cell_length_b 10.857487
_cell_length_c 8.871586
_cell_angle_alpha 60.298871
_cell_angle_beta 125.622478
_cell_angle_gamma 145.240769
_cell_volume 553.016828
_symmetry_space_group_name_H-M "P -1"
_symmetry_group_IT_number 2
_symmetry_cell_setting 'triclinic'
loop_
_space_group_symop_operation_xyz
x,y,z
-x,-y,-z
loop_
_atom_site_type_symbol
_atom_site_label
_atom_site_fract_x
_atom_site_fract_y
_atom_site_fract_z
Si Si1 0.534466 0.102772 0.680403
Si Si2 0.046574 0.196376 0.256665
Si Si3 0.239989 0.459130 0.535227
Si Si4 0.319754 0.189504 0.349163
Si Si5 0.248541 0.994459 0.119868
Si Si6 0.906532 0.542665 0.289898
Si Si7 0.791991 0.390339 0.975108
O O1 0.712632 0.340117 0.599253
O O2 0.344898 0.046066 0.514077
O O3 0.564566 0.964729 0.742937
O O4 0.602815 0.174479 0.864335
O O5 0.067883 0.253990 0.413953
O O6 0.148848 0.132404 0.333572
O O7 0.194783 0.432513 0.157333
O O8 0.830846 0.036341 0.094003
O O9 0.455392 0.563004 0.602694
O O10 0.202305 0.437530 0.694959
O O11 0.281779 0.152283 0.161613
O O12 0.067608 0.763080 0.193123
O O13 0.788542 0.368598 0.163930
O O14 0.000000 0.500000 0.500000
O O15 0.000000 0.500000 0.000000
#
# Coordination Sequence:
#
# PCOD9033324 Si02
#       7
#     2   2   2   2   2   2   2
#     4   9  18  32  56  77 105 136 179 218 260 311
#     4  10  19  35  58  78 104 146 186 213 254 331
#     4   9  20  33  56  79 104 136 180 221 263 304
#     4  10  21  35  56  79 111 143 177 216 273 316
#     4  11  20  34  58  82 106 140 183 220 261 321
#     4  11  18  31  56  84 106 134 182 226 262 309
#     4  10  17  32  55  84  99 136 186 223 248 315
#
# _framework density 25.315687
#
# number of rings (size 3 to 8) (size 9 to 14) (size 15 to 20)
#    0.857    1.143    4.286    2.143    0.000    0.000 
#    0.000    3.571    3.143    1.714    0.000    0.000 
#    0.000    0.000    0.000    0.000    0.000    0.000 
#
# Total GULP energy -78179.144461 kJ/mol
# GULP energy per Si atom -5584.224604 kJ/mol
# Density = 2.525807 g / cm^3
# Si number density = 25.315687 Si / 1000 Ang^3
#
#
#
# Elastic Constant Matrix: (Units=GPa)
#
#
# Indices 1 2 3 4 5 6 
#
# 1 125.6653 17.3206 54.0388 -9.2307 -4.2324 -12.8941
# 2 17.3206 38.9755 25.9423 1.4730 -9.8242 -0.4123
# 3 54.0388 25.9423 121.4851 27.2912 -27.5296 -13.1825
# 4 -9.2307 1.4730 27.2912 32.5098 -9.0106 -16.6759
# 5 -4.2324 -9.8242 -27.5296 -9.0106 45.2055 4.1749
# 6 -12.8941 -0.4123 -13.1825 -16.6759 4.1749 27.1902
#
#
#
# Elastic Compliance Matrix: (Units=1/GPa)
#
#
# Indices 1 2 3 4 5 6 
#
# 1 0.015244 -0.001424 -0.009789 0.019571 -0.002311 0.014819
# 2 -0.001424 0.031177 -0.006147 0.003584 0.003757 -0.001562
# 3 -0.009789 -0.006147 0.019100 -0.021944 0.005914 -0.009841
# 4 0.019571 0.003584 -0.021944 0.078831 0.000625 0.046948
# 5 -0.002311 0.003757 0.005914 0.000625 0.026621 -0.001876
# 6 0.014819 -0.001562 -0.009841 0.046948 -0.001876 0.068092
#
#
# Mechanical properties :
#
#
# Convention : Reuss Voigt Hill
#
# Bulk Modulus (GPa) = 32.46714 53.41438 42.94076
# Shear Modulus (GPa) = 17.60241 33.56938 25.58590
#
# Velocity S-wave (km/s) = 2.63975 3.64542 3.18256
# Velocity P-wave (km/s) = 4.70572 6.23409 5.52303
#
# Compressibility (1/GPa) = 0.03080037
#
# Stress axis : x y z
#
# Youngs Moduli (GPa) = 65.60095 32.07520 52.35485
#
# Poissons Ratio (x) = 0.04568 0.51249
# Poissons Ratio (y) = 0.09343 0.32184
# Poissons Ratio (z) = 0.64216 0.19717
#
# Static dielectric constant tensor:
#      x y z
#    x 2.021680 -0.026750 0.008040 
#    y -0.026750 2.052830 0.026710 
#    z 0.008040 0.026710 2.065260 
# 
# From -- ./inp_files/258207.got.cif
#   From: 2010.05.17/outbox.cif.g08.bks.cpg/sg2_130_cif.got.tgz:258207.got - 2010.06.03 11:33:40.
