data_PCOD9033094
_publ_section_title
;
Structure prediction by ZEFSAII (Michael W. Deem and Ramdas Pophale) SiO2 
 PCOD9033094
Probable space group: P -1
;
_chemical_formula_sum "Si O2"
_cell_formula_units_Z 15
_cell_length_a 5.308396
_cell_length_b 20.699794
_cell_length_c 4.968156
_cell_angle_alpha 90.680029
_cell_angle_beta 80.493944
_cell_angle_gamma 91.948367
_cell_volume 538.095895
_symmetry_space_group_name_H-M "P -1"
_symmetry_group_IT_number 2
_symmetry_cell_setting 'triclinic'
loop_
_space_group_symop_operation_xyz
x,y,z
-x,-y,-z
loop_
_atom_site_type_symbol
_atom_site_label
_atom_site_fract_x
_atom_site_fract_y
_atom_site_fract_z
Si Si1 0.026223 0.236304 0.412021
Si Si2 0.303545 0.685772 0.940776
Si Si3 0.255422 0.364265 0.519471
Si Si4 0.000000 0.000000 0.500000
Si Si5 0.103460 0.115094 0.622599
Si Si6 0.559123 0.058929 0.194423
Si Si7 0.479968 0.189020 0.958790
Si Si8 0.070011 0.426891 0.023555
O O1 0.107373 0.295557 0.592442
O O2 0.919224 0.171379 0.565411
O O3 0.866787 0.267837 0.208301
O O4 0.278558 0.209916 0.225589
O O5 0.504509 0.657450 0.694626
O O6 0.150664 0.621603 0.054293
O O7 0.413834 0.738705 0.135456
O O8 0.111924 0.407833 0.324972
O O9 0.298788 0.404641 0.785947
O O10 0.759129 0.041256 0.388090
O O11 0.980536 0.051720 0.768088
O O12 0.260402 0.071012 0.371359
O O13 0.313058 0.153774 0.758746
O O14 0.626233 0.130970 0.071060
O O15 0.500000 0.000000 0.000000
O O16 0.000000 0.500000 0.000000
#
# Coordination Sequence:
#
# PCOD9033094 Si02
#       8
#     2   2   2   1   2   2   2   2
#     4   9  22  42  64  98 135 180 236 301 362 439
#     4  10  23  45  73 104 143 198 237 306 381 426
#     4  10  24  44  73 108 148 188 249 306 356 447
#     4  12  24  40  66  92 126 192 220 290 382 424
#     4  11  24  42  66  95 133 179 238 300 366 446
#     4  11  24  45  62  95 140 174 243 305 362 450
#     4  10  22  44  65  97 137 179 242 306 355 452
#     4  11  25  47  72 109 153 193 246 301 365 449
#
# _framework density 27.876075
#
# number of rings (size 3 to 8) (size 9 to 14) (size 15 to 20)
#    0.000    1.600    1.333    1.600    5.600    4.800 
#    9.600    0.000    0.000    0.000    0.000    0.000 
#    0.000    0.000    0.000    0.000    0.000    0.000 
#
# Total GULP energy -83806.662910 kJ/mol
# GULP energy per Si atom -5587.110861 kJ/mol
# Density = 2.781263 g / cm^3
# Si number density = 27.876075 Si / 1000 Ang^3
#
#
#
# Elastic Constant Matrix: (Units=GPa)
#
#
# Indices 1 2 3 4 5 6 
#
# 1 87.5028 56.9264 20.7554 -2.3749 15.9343 -3.1782
# 2 56.9264 279.1577 58.8006 6.8393 8.5141 2.9679
# 3 20.7554 58.8006 113.9663 11.5428 14.6430 -2.8211
# 4 -2.3749 6.8393 11.5428 57.4238 -8.2846 1.2444
# 5 15.9343 8.5141 14.6430 -8.2846 47.8169 -4.3525
# 6 -3.1782 2.9679 -2.8211 1.2444 -4.3525 29.1481
#
#
#
# Elastic Compliance Matrix: (Units=1/GPa)
#
#
# Indices 1 2 3 4 5 6 
#
# 1 0.014054 -0.002618 -0.000739 0.000468 -0.003806 0.001139
# 2 -0.002618 0.004519 -0.001931 -0.000160 0.000554 -0.000843
# 3 -0.000739 -0.001931 0.010547 -0.002368 -0.002978 0.000793
# 4 0.000468 -0.000160 -0.002368 0.018480 0.003764 -0.000389
# 5 -0.003806 0.000554 -0.002978 0.003764 0.023888 0.002647
# 6 0.001139 -0.000843 0.000793 -0.000389 0.002647 0.035006
#
#
# Mechanical properties :
#
#
# Convention : Reuss Voigt Hill
#
# Bulk Modulus (GPa) = 53.92283 83.73240 68.82762
# Shear Modulus (GPa) = 40.56811 49.82071 45.19441
#
# Velocity S-wave (km/s) = 3.81898 4.23214 4.03086
# Velocity P-wave (km/s) = 6.23153 7.34738 6.81234
#
# Compressibility (1/GPa) = 0.01854502
#
# Stress axis : x y z
#
# Youngs Moduli (GPa) = 71.15606 221.30684 94.81197
#
# Poissons Ratio (x) = 0.57931 0.07007
# Poissons Ratio (y) = 0.18626 0.18304
# Poissons Ratio (z) = 0.05259 0.42724
#
# Static dielectric constant tensor:
#      x y z
#    x 3.533160 1.020270 -0.619120 
#    y 1.020270 2.907150 -0.445580 
#    z -0.619120 -0.445580 2.517040 
# 
# From -- ./inp_files/11356.got.cif
#   From: 2010.05.17/outbox.cif.g08.bks.cpg/sg2_6_cif.got.tgz:11356.got - 2010.06.03 11:33:40.
