data_PCOD9033757
_publ_section_title
;
Structure prediction by ZEFSAII (Michael W. Deem and Ramdas Pophale) SiO2 
 PCOD9033757
Probable space group: P -1
;
_chemical_formula_sum "Si O2"
_cell_formula_units_Z 16
_cell_length_a 14.143552
_cell_length_b 16.858256
_cell_length_c 6.418653
_cell_angle_alpha 88.151995
_cell_angle_beta 93.728973
_cell_angle_gamma 152.855029
_cell_volume 695.668378
_symmetry_space_group_name_H-M "P -1"
_symmetry_group_IT_number 2
_symmetry_cell_setting 'triclinic'
loop_
_space_group_symop_operation_xyz
x,y,z
-x,-y,-z
loop_
_atom_site_type_symbol
_atom_site_label
_atom_site_fract_x
_atom_site_fract_y
_atom_site_fract_z
Si Si1 0.683228 0.234664 0.420331
Si Si2 0.660508 0.107676 0.820854
Si Si3 0.795282 0.878497 0.090356
Si Si4 0.498423 0.410084 0.261455
Si Si5 0.050109 0.692078 0.804533
Si Si6 0.358888 0.635012 0.453349
Si Si7 0.200962 0.975651 0.671149
Si Si8 0.190293 0.239516 0.571516
O O1 0.681201 0.195929 0.655966
O O2 0.841199 0.301007 0.297703
O O3 0.737155 0.367160 0.417154
O O4 0.452273 0.045782 0.311570
O O5 0.879149 0.255188 0.950152
O O6 0.500000 0.000000 0.000000
O O7 0.806019 0.844103 0.318575
O O8 0.810784 0.983700 0.117735
O O9 0.598202 0.700503 0.948703
O O10 0.000000 0.000000 0.000000
O O11 0.581831 0.400294 0.415525
O O12 0.318630 0.324143 0.368287
O O13 0.685944 0.612145 0.261518
O O14 0.147143 0.844241 0.707536
O O15 0.806606 0.507694 0.737860
O O16 0.568422 0.832306 0.386090
O O17 0.029314 0.885206 0.500335
#
# Coordination Sequence:
#
# PCOD9033757 Si02
#       8
#     2   2   2   2   2   2   2   2
#     4  10  22  44  69  97 134 177 223 279 333 399
#     4   9  19  41  69  94 128 173 218 270 337 392
#     4  12  24  42  68  99 132 182 226 271 341 404
#     4  11  24  44  70 100 134 177 229 280 336 405
#     4  11  25  46  66 100 135 179 221 278 339 394
#     4  12  24  44  69 100 136 175 227 280 335 400
#     4  12  24  44  69  98 139 177 224 279 334 401
#     4  11  23  48  69  94 140 177 222 288 338 394
#
# _framework density 22.999464
#
# number of rings (size 3 to 8) (size 9 to 14) (size 15 to 20)
#    0.000    1.000    3.750    4.125    1.750    0.500 
#    6.750    0.000    0.000    0.000    0.000    0.000 
#    0.000    0.000    0.000    0.000    0.000    0.000 
#
# Total GULP energy -89488.559724 kJ/mol
# GULP energy per Si atom -5593.034983 kJ/mol
# Density = 2.294712 g / cm^3
# Si number density = 22.999464 Si / 1000 Ang^3
#
#
#
# Elastic Constant Matrix: (Units=GPa)
#
#
# Indices 1 2 3 4 5 6 
#
# 1 76.0952 24.2524 9.1706 24.7944 4.9272 -3.8652
# 2 24.2524 95.7345 22.7956 33.9181 12.9787 7.8116
# 3 9.1706 22.7956 91.0688 35.3980 24.9070 19.7901
# 4 24.7944 33.9181 35.3980 40.9176 10.0213 3.6488
# 5 4.9272 12.9787 24.9070 10.0213 35.3859 8.0485
# 6 -3.8652 7.8116 19.7901 3.6488 8.0485 25.3060
#
#
#
# Elastic Compliance Matrix: (Units=1/GPa)
#
#
# Indices 1 2 3 4 5 6 
#
# 1 0.017278 -0.000745 0.003057 -0.012398 -0.001389 0.002707
# 2 -0.000745 0.015734 0.003684 -0.014608 -0.003036 -0.004780
# 3 0.003057 0.003684 0.023637 -0.021929 -0.009234 -0.013056
# 4 -0.012398 -0.014608 -0.021929 0.061444 0.002844 0.010001
# 5 -0.001389 -0.003036 -0.009234 0.002844 0.036163 -0.003965
# 6 0.002707 -0.004780 -0.013056 0.010001 -0.003965 0.051435
#
#
# Mechanical properties :
#
#
# Convention : Reuss Voigt Hill
#
# Bulk Modulus (GPa) = 14.56850 41.70397 28.13624
# Shear Modulus (GPa) = 23.08622 34.10056 28.59339
#
# Velocity S-wave (km/s) = 3.17167 3.85472 3.52976
# Velocity P-wave (km/s) = 4.44530 6.16310 5.37329
#
# Compressibility (1/GPa) = 0.06864123
#
# Stress axis : x y z
#
# Youngs Moduli (GPa) = 57.87837 63.55506 42.30618
#
# Poissons Ratio (x) = 0.04734 -0.12934
# Poissons Ratio (y) = 0.04312 -0.15584
# Poissons Ratio (z) = -0.17695 -0.23412
#
# Static dielectric constant tensor:
#      x y z
#    x 1.895070 0.050610 -0.059000 
#    y 0.050610 1.887220 -0.015460 
#    z -0.059000 -0.015460 1.912960 
# 
# From -- ./inp_files/99779.got.cif
#   From: 2010.05.17/outbox.cif.g08.bks.cpg/sg2_50_cif.got.tgz:99779.got - 2010.06.03 11:33:40.
