data_PCOD9033557
_publ_section_title
;
Structure prediction by ZEFSAII (Michael W. Deem and Ramdas Pophale) SiO2 
 PCOD9033557
Probable space group: P -1
;
_chemical_formula_sum "Si O2"
_cell_formula_units_Z 16
_cell_length_a 15.408124
_cell_length_b 5.913215
_cell_length_c 15.342260
_cell_angle_alpha 69.978797
_cell_angle_beta 142.152188
_cell_angle_gamma 86.224942
_cell_volume 654.629557
_symmetry_space_group_name_H-M "P -1"
_symmetry_group_IT_number 2
_symmetry_cell_setting 'triclinic'
loop_
_space_group_symop_operation_xyz
x,y,z
-x,-y,-z
loop_
_atom_site_type_symbol
_atom_site_label
_atom_site_fract_x
_atom_site_fract_y
_atom_site_fract_z
Si Si1 0.468170 0.912164 0.662366
Si Si2 0.868902 0.911133 0.410580
Si Si3 0.366457 0.460801 0.816784
Si Si4 0.343408 0.826225 0.300111
Si Si5 0.765762 0.244330 0.966786
Si Si6 0.233802 0.411222 0.534121
Si Si7 0.852762 0.013556 0.701409
Si Si8 0.736589 0.887006 0.131630
O O1 0.597531 0.560279 0.824382
O O2 0.287582 0.999336 0.464181
O O3 0.572331 0.996478 0.673447
O O4 0.409996 0.121025 0.673058
O O5 0.682489 0.218813 0.244207
O O6 0.863762 0.813542 0.322707
O O7 0.894088 0.685413 0.534343
O O8 0.000000 0.000000 0.500000
O O9 0.267104 0.491940 0.644406
O O10 0.301266 0.358605 0.858737
O O11 0.559341 0.191916 0.982532
O O12 0.500000 0.500000 0.500000
O O13 0.268442 0.793142 0.155422
O O14 0.199529 0.975699 0.241547
O O15 0.787384 0.976877 0.073834
O O16 0.942008 0.225630 0.119509
O O17 0.179156 0.675572 0.391061
#
# Coordination Sequence:
#
# PCOD9033557 Si02
#       8
#     2   2   2   2   2   2   2   2
#     4  12  25  48  76 105 147 189 242 294 368 433
#     4  11  25  39  68 102 141 187 232 284 351 421
#     4  10  22  44  68  96 141 186 236 286 358 417
#     4  12  25  51  75 106 146 193 233 303 372 430
#     4  12  28  45  75 111 145 186 249 299 360 430
#     4  11  24  43  74 100 145 190 235 294 358 423
#     4  12  27  46  76 108 148 190 241 301 366 429
#     4  10  23  41  66  99 136 185 233 296 344 424
#
# _framework density 24.441303999999999
#
# number of rings (size 3 to 8) (size 9 to 14) (size 15 to 20)
#    0.000    0.750    2.500    4.125    5.250    5.500 
#    0.000    0.000    0.000    0.000    0.000    0.000 
#    0.000    0.000    0.000    0.000    0.000    0.000 
#
# Total GULP energy -89614.106883 kJ/mol
# GULP energy per Si atom -5600.881680 kJ/mol
# Density = 2.438567 g / cm^3
# Si number density = 24.441304 Si / 1000 Ang^3
#
#
#
# Elastic Constant Matrix: (Units=GPa)
#
#
# Indices 1 2 3 4 5 6 
#
# 1 137.1059 27.8022 39.7905 1.3412 -12.4641 19.4163
# 2 27.8022 74.9680 28.8189 -7.5488 -11.1806 7.7080
# 3 39.7905 28.8189 92.6968 -2.1508 10.3950 6.7281
# 4 1.3412 -7.5488 -2.1508 30.0149 9.0717 6.6542
# 5 -12.4641 -11.1806 10.3950 9.0717 46.4977 -7.0236
# 6 19.4163 7.7080 6.7281 6.6542 -7.0236 54.8083
#
#
#
# Elastic Compliance Matrix: (Units=1/GPa)
#
#
# Indices 1 2 3 4 5 6 
#
# 1 0.009249 -0.001503 -0.003717 -0.001488 0.002929 -0.002053
# 2 -0.001503 0.016771 -0.004867 0.002975 0.003974 -0.001081
# 3 -0.003717 -0.004867 0.014667 0.001969 -0.005951 -0.000801
# 4 -0.001488 0.002975 0.001969 0.038120 -0.008444 -0.005843
# 5 0.002929 0.003974 -0.005951 -0.008444 0.026767 0.003589
# 6 -0.002053 -0.001081 -0.000801 -0.005843 0.003589 0.020392
#
#
# Mechanical properties :
#
#
# Convention : Reuss Voigt Hill
#
# Bulk Modulus (GPa) = 48.74845 55.28822 52.01833
# Shear Modulus (GPa) = 32.68463 40.15479 36.41971
#
# Velocity S-wave (km/s) = 3.66084 4.05768 3.86435
# Velocity P-wave (km/s) = 6.15284 6.68004 6.42185
#
# Compressibility (1/GPa) = 0.02051347
#
# Stress axis : x y z
#
# Youngs Moduli (GPa) = 108.12464 59.62782 68.17797
#
# Poissons Ratio (x) = 0.08963 0.25339
# Poissons Ratio (y) = 0.16252 0.33182
# Poissons Ratio (z) = 0.40186 0.29020
#
# Static dielectric constant tensor:
#      x y z
#    x 1.946900 0.008580 0.060120 
#    y 0.008580 1.940490 -0.008790 
#    z 0.060120 -0.008790 1.995370 
# 
# From -- ./inp_files/55634.got.cif
#   From: 2010.05.17/outbox.cif.g08.bks.cpg/sg2_28_cif.got.tgz:55634.got - 2010.06.03 11:33:40.
