data_PCOD9033869
_publ_section_title
;
Structure prediction by ZEFSAII (Michael W. Deem and Ramdas Pophale) SiO2 
 PCOD9033869
Probable space group: P -1
;
_chemical_formula_sum "Si O2"
_cell_formula_units_Z 14
_cell_length_a 11.050233
_cell_length_b 8.575648
_cell_length_c 16.327143
_cell_angle_alpha 128.969913
_cell_angle_beta 146.883626
_cell_angle_gamma 40.865437
_cell_volume 553.025455
_symmetry_space_group_name_H-M "P -1"
_symmetry_group_IT_number 2
_symmetry_cell_setting 'triclinic'
loop_
_space_group_symop_operation_xyz
x,y,z
-x,-y,-z
loop_
_atom_site_type_symbol
_atom_site_label
_atom_site_fract_x
_atom_site_fract_y
_atom_site_fract_z
Si Si1 0.167336 0.360034 0.468128
Si Si2 0.663092 0.113909 0.776916
Si Si3 0.612362 0.947029 0.139688
Si Si4 0.962142 0.755393 0.045989
Si Si5 0.320298 0.335578 0.374108
Si Si6 0.694307 0.556067 0.170134
Si Si7 0.121748 0.817571 0.334011
O O1 0.462276 0.184606 0.609628
O O2 0.232358 0.457704 0.455088
O O3 0.000000 0.500000 0.500000
O O4 0.944002 0.335842 0.286493
O O5 0.862028 0.202820 0.904360
O O6 0.473129 0.256738 0.791628
O O7 0.786372 0.832876 0.763390
O O8 0.749955 0.683242 0.169151
O O9 0.850970 0.988939 0.286593
O O10 0.500000 0.000000 0.000000
O O11 0.351380 0.089467 0.092431
O O12 0.038413 0.834766 0.198945
O O13 0.000000 0.500000 0.000000
O O14 0.243657 0.540879 0.334177
O O15 0.638925 0.155305 0.499974
O O16 0.500000 0.500000 0.000000
#
# Coordination Sequence:
#
# PCOD9033869 Si02
#       7
#     2   2   2   2   2   2   2
#     4  10  22  44  70 104 144 182 243 294 362 422
#     4  11  26  45  75 108 139 193 245 299 361 436
#     4  10  24  44  66  98 140 191 233 287 370 421
#     4  11  26  44  68 104 145 185 241 302 366 428
#     4  11  22  44  76 102 143 185 246 294 363 428
#     4  11  26  45  71 106 145 189 240 302 367 437
#     4  10  23  44  69 102 144 189 230 304 357 430
#
# _framework density 25.315289
#
# number of rings (size 3 to 8) (size 9 to 14) (size 15 to 20)
#    0.000    1.429    2.857    0.429    8.000    1.714 
#    5.143    0.714    0.000    0.000    0.000    0.000 
#    0.000    0.000    0.000    0.000    0.000    0.000 
#
# Total GULP energy -77985.255785 kJ/mol
# GULP energy per Si atom -5570.375413 kJ/mol
# Density = 2.525767 g / cm^3
# Si number density = 25.315289 Si / 1000 Ang^3
#
#
#
# Elastic Constant Matrix: (Units=GPa)
#
#
# Indices 1 2 3 4 5 6 
#
# 1 113.3141 16.9467 46.4808 3.6815 16.4514 9.3484
# 2 16.9467 76.8246 36.4978 4.9143 5.2239 14.3091
# 3 46.4808 36.4978 155.6171 -19.7731 12.9563 1.3341
# 4 3.6815 4.9143 -19.7731 35.9287 -0.4187 7.9083
# 5 16.4514 5.2239 12.9563 -0.4187 58.1149 -6.2378
# 6 9.3484 14.3091 1.3341 7.9083 -6.2378 31.0831
#
#
#
# Elastic Compliance Matrix: (Units=1/GPa)
#
#
# Indices 1 2 3 4 5 6 
#
# 1 0.010898 0.000085 -0.003314 -0.002294 -0.002707 -0.003134
# 2 0.000085 0.016536 -0.004114 -0.003017 -0.001363 -0.006967
# 3 -0.003314 -0.004114 0.009150 0.005728 -0.000592 0.000922
# 4 -0.002294 -0.003017 0.005728 0.033111 -0.000844 -0.006761
# 5 -0.002707 -0.001363 -0.000592 -0.000844 0.018807 0.005456
# 6 -0.003134 -0.006967 0.000922 -0.006761 0.005456 0.039097
#
#
# Mechanical properties :
#
#
# Convention : Reuss Voigt Hill
#
# Bulk Modulus (GPa) = 45.66701 60.62292 53.14497
# Shear Modulus (GPa) = 33.42595 41.41403 37.41999
#
# Velocity S-wave (km/s) = 3.63765 4.04905 3.84885
# Velocity P-wave (km/s) = 5.97677 6.77192 6.38673
#
# Compressibility (1/GPa) = 0.02189765
#
# Stress axis : x y z
#
# Youngs Moduli (GPa) = 91.76116 60.47566 109.28998
#
# Poissons Ratio (x) = -0.00515 0.36222
# Poissons Ratio (y) = -0.00781 0.44959
# Poissons Ratio (z) = 0.30412 0.24878
#
# Static dielectric constant tensor:
#      x y z
#    x 2.264190 0.000410 0.011670 
#    y 0.000410 2.208340 -0.056260 
#    z 0.011670 -0.056260 2.098960 
# 
# From -- ./inp_files/566976.got.cif
#   From: 2010.05.17/outbox.cif.g08.bks.cpg/sg2_284_cif.got.tgz:566976.got - 2010.06.03 11:33:40.
