data_PCOD9033668
_publ_section_title
;
Structure prediction by ZEFSAII (Michael W. Deem and Ramdas Pophale) SiO2 
 PCOD9033668
Probable space group: P -1
;
_chemical_formula_sum "Si O2"
_cell_formula_units_Z 15
_cell_length_a 13.869077
_cell_length_b 9.192696
_cell_length_c 9.177612
_cell_angle_alpha 50.245650
_cell_angle_beta 131.339688
_cell_angle_gamma 118.548804
_cell_volume 672.265247
_symmetry_space_group_name_H-M "P -1"
_symmetry_group_IT_number 2
_symmetry_cell_setting 'triclinic'
loop_
_space_group_symop_operation_xyz
x,y,z
-x,-y,-z
loop_
_atom_site_type_symbol
_atom_site_label
_atom_site_fract_x
_atom_site_fract_y
_atom_site_fract_z
Si Si1 0.366721 0.075269 0.017779
Si Si2 0.500000 0.000000 0.500000
Si Si3 0.205320 0.496001 0.115030
Si Si4 0.923026 0.849674 0.408793
Si Si5 0.082238 0.576560 0.220671
Si Si6 0.673264 0.873723 0.521573
Si Si7 0.609887 0.201355 0.029072
Si Si8 0.911861 0.117493 0.736864
O O1 0.403440 0.073762 0.224563
O O2 0.471667 0.229939 0.943963
O O3 0.218152 0.100492 0.816257
O O4 0.399767 0.884099 0.087941
O O5 0.444511 0.139631 0.476094
O O6 0.164926 0.624885 0.126987
O O7 0.288037 0.329132 0.357984
O O8 0.286111 0.618505 0.995188
O O9 0.068070 0.404928 0.974961
O O10 0.907826 0.644965 0.600337
O O11 0.011210 0.830260 0.367382
O O12 0.000000 0.000000 0.500000
O O13 0.124018 0.703149 0.319996
O O14 0.659505 0.029783 0.282601
O O15 0.787838 0.980679 0.661030
O O16 0.000000 0.000000 0.000000
#
# Coordination Sequence:
#
# PCOD9033668 Si02
#       8
#     2   1   2   2   2   2   2   2
#     4  10  22  44  69 104 137 186 235 289 358 425
#     4  10  24  44  70  98 146 182 234 290 354 422
#     4  11  23  43  71 103 144 186 243 294 357 428
#     4  12  25  44  75 105 144 186 232 300 365 429
#     4  11  25  41  66 109 139 187 243 293 357 433
#     4  11  23  46  68 103 142 188 237 293 359 426
#     4  10  23  43  71  96 138 185 237 291 349 425
#     4  12  24  41  68 100 144 186 234 300 358 418
#
# _framework density 22.312622000000001
#
# number of rings (size 3 to 8) (size 9 to 14) (size 15 to 20)
#    0.000    1.067    1.333    5.200    5.600    0.000 
#    2.400    8.667    0.000    0.000    0.000    0.000 
#    0.000    0.000    0.000    0.000    0.000    0.000 
#
# Total GULP energy -83555.966745 kJ/mol
# GULP energy per Si atom -5570.397783 kJ/mol
# Density = 2.226184 g / cm^3
# Si number density = 22.312622 Si / 1000 Ang^3
#
#
#
# Elastic Constant Matrix: (Units=GPa)
#
#
# Indices 1 2 3 4 5 6 
#
# 1 111.7253 29.6666 15.2655 1.1130 0.7735 -4.4833
# 2 29.6666 66.4895 32.9446 3.1017 0.5874 -7.1643
# 3 15.2655 32.9446 111.9258 9.7060 -0.6056 -6.5331
# 4 1.1130 3.1017 9.7060 38.6190 -5.9549 -8.9258
# 5 0.7735 0.5874 -0.6056 -5.9549 37.0786 4.6883
# 6 -4.4833 -7.1643 -6.5331 -8.9258 4.6883 32.2330
#
#
#
# Elastic Compliance Matrix: (Units=1/GPa)
#
#
# Indices 1 2 3 4 5 6 
#
# 1 0.010161 -0.004458 -0.000061 0.000165 -0.000177 0.000481
# 2 -0.004458 0.019864 -0.005104 0.000406 -0.000614 0.002962
# 3 -0.000061 -0.005104 0.010660 -0.002190 -0.000150 0.000433
# 4 0.000165 0.000406 -0.002190 0.028602 0.003656 0.007058
# 5 -0.000177 -0.000614 -0.000150 0.003656 0.027979 -0.003249
# 6 0.000481 0.002962 0.000433 0.007058 -0.003249 0.034264
#
#
# Mechanical properties :
#
#
# Convention : Reuss Voigt Hill
#
# Bulk Modulus (GPa) = 46.64502 49.54380 48.09441
# Shear Modulus (GPa) = 31.66111 35.73704 33.69908
#
# Velocity S-wave (km/s) = 3.77102 4.00641 3.89049
# Velocity P-wave (km/s) = 6.31754 6.60714 6.46396
#
# Compressibility (1/GPa) = 0.02143852
#
# Stress axis : x y z
#
# Youngs Moduli (GPa) = 98.41088 50.34260 93.81172
#
# Poissons Ratio (x) = 0.22443 0.00571
# Poissons Ratio (y) = 0.43871 0.47885
# Poissons Ratio (z) = 0.00599 0.25697
#
# Static dielectric constant tensor:
#      x y z
#    x 1.933270 0.039140 0.019840 
#    y 0.039140 1.837740 0.035850 
#    z 0.019840 0.035850 1.872990 
# 
# From -- ./inp_files/294343.got.cif
#   From: 2010.05.17/outbox.cif.g08.bks.cpg/sg2_148_cif.got.tgz:294343.got - 2010.06.03 11:33:40.
