data_PCOD9033475
_publ_section_title
;
Structure prediction by ZEFSAII (Michael W. Deem and Ramdas Pophale) SiO2 
 PCOD9033475
Probable space group: P -1
;
_chemical_formula_sum "Si O2"
_cell_formula_units_Z 13
_cell_length_a 15.034565
_cell_length_b 9.348863
_cell_length_c 5.570478
_cell_angle_alpha 91.448728
_cell_angle_beta 58.528428
_cell_angle_gamma 122.764461
_cell_volume 524.178007
_symmetry_space_group_name_H-M "P -1"
_symmetry_group_IT_number 2
_symmetry_cell_setting 'triclinic'
loop_
_space_group_symop_operation_xyz
x,y,z
-x,-y,-z
loop_
_atom_site_type_symbol
_atom_site_label
_atom_site_fract_x
_atom_site_fract_y
_atom_site_fract_z
Si Si1 0.895763 0.856598 0.332232
Si Si2 0.000000 0.500000 0.500000
Si Si3 0.633278 0.795940 0.254620
Si Si4 0.566777 0.453292 0.099653
Si Si5 0.881661 0.093535 0.683931
Si Si6 0.780458 0.473452 0.504164
Si Si7 0.536101 0.108752 0.702830
O O1 0.812837 0.652475 0.337779
O O2 0.976579 0.849519 0.433890
O O3 0.828302 0.938663 0.547581
O O4 0.000000 0.000000 0.000000
O O5 0.095978 0.724918 0.409505
O O6 0.088622 0.489433 0.578086
O O7 0.634198 0.628855 0.185016
O O8 0.548737 0.730656 0.612285
O O9 0.548016 0.815805 0.186445
O O10 0.778744 0.985984 0.042745
O O11 0.500000 0.500000 0.000000
O O12 0.680732 0.443249 0.851804
O O13 0.690496 0.285792 0.478139
O O14 0.500000 0.000000 0.500000
O O15 0.500000 0.000000 0.000000
#
# Coordination Sequence:
#
# PCOD9033475 Si02
#       7
#     2   1   2   2   2   2   2
#     4  10  23  43  71 102 142 201 258 324 376 456
#     4  10  24  48  76 106 154 218 250 328 398 474
#     4  11  24  41  74 111 150 203 257 328 401 470
#     4  11  23  42  74 115 151 199 260 334 399 465
#     4  10  22  44  68 103 148 195 262 316 387 475
#     4  11  23  49  78 108 159 202 271 328 395 488
#     4  12  27  49  76 117 164 213 257 330 412 489
#
# _framework density 24.800736000000001
#
# number of rings (size 3 to 8) (size 9 to 14) (size 15 to 20)
#    0.000    1.231    3.077    1.846    2.154    0.000 
#   13.846    1.538    0.000    0.000    0.000    0.000 
#    0.000    0.000    0.000    0.000    0.000    0.000 
#
# Total GULP energy -72417.607370 kJ/mol
# GULP energy per Si atom -5570.585182 kJ/mol
# Density = 2.474429 g / cm^3
# Si number density = 24.800736 Si / 1000 Ang^3
#
#
#
# Elastic Constant Matrix: (Units=GPa)
#
#
# Indices 1 2 3 4 5 6 
#
# 1 96.1748 33.8826 4.0914 -6.6617 18.4394 8.0361
# 2 33.8826 186.9915 51.1262 -38.9556 21.6602 -11.6664
# 3 4.0914 51.1262 104.5299 -24.2758 19.9307 -15.3817
# 4 -6.6617 -38.9556 -24.2758 38.3577 -1.9398 5.0865
# 5 18.4394 21.6602 19.9307 -1.9398 30.5316 -11.3912
# 6 8.0361 -11.6664 -15.3817 5.0865 -11.3912 36.6896
#
#
#
# Elastic Compliance Matrix: (Units=1/GPa)
#
#
# Indices 1 2 3 4 5 6 
#
# 1 0.013587 -0.001719 0.001857 0.002093 -0.010403 -0.006264
# 2 -0.001719 0.007797 -0.001665 0.006370 -0.002857 0.000388
# 3 0.001857 -0.001665 0.013547 0.006624 -0.007844 0.001389
# 4 0.002093 0.006370 0.006624 0.037116 -0.009103 -0.003628
# 5 -0.010403 -0.002857 -0.007844 -0.009103 0.051302 0.015271
# 6 -0.006264 0.000388 0.001389 -0.003628 0.015271 0.034578
#
#
# Mechanical properties :
#
#
# Convention : Reuss Voigt Hill
#
# Bulk Modulus (GPa) = 31.37167 62.87740 47.12453
# Shear Modulus (GPa) = 29.13626 41.02219 35.07923
#
# Velocity S-wave (km/s) = 3.43128 4.07144 3.76499
# Velocity P-wave (km/s) = 5.32683 6.89277 6.15976
#
# Compressibility (1/GPa) = 0.03187590
#
# Stress axis : x y z
#
# Youngs Moduli (GPa) = 73.59763 128.25790 73.81800
#
# Poissons Ratio (x) = 0.22054 -0.13708
# Poissons Ratio (y) = 0.12655 0.12291
# Poissons Ratio (z) = -0.13667 0.21356
#
# Static dielectric constant tensor:
#      x y z
#    x 2.266780 -0.071100 -0.023390 
#    y -0.071100 2.210190 0.062890 
#    z -0.023390 0.062890 2.004970 
# 
# From -- ./inp_files/88897.got.cif
#   From: 2010.05.17/outbox.cif.g08.bks.cpg/sg2_45_cif.got.tgz:88897.got - 2010.06.03 11:33:40.
