data_PCOD9033839
_publ_section_title
;
Structure prediction by ZEFSAII (Michael W. Deem and Ramdas Pophale) SiO2 
 PCOD9033839
Probable space group: P -1
;
_chemical_formula_sum "Si O2"
_cell_formula_units_Z 16
_cell_length_a 9.286421
_cell_length_b 11.966227
_cell_length_c 11.775576
_cell_angle_alpha 85.356984
_cell_angle_beta 50.698969
_cell_angle_gamma 119.078131
_cell_volume 724.115470
_symmetry_space_group_name_H-M "P -1"
_symmetry_group_IT_number 2
_symmetry_cell_setting 'triclinic'
loop_
_space_group_symop_operation_xyz
x,y,z
-x,-y,-z
loop_
_atom_site_type_symbol
_atom_site_label
_atom_site_fract_x
_atom_site_fract_y
_atom_site_fract_z
Si Si1 0.800461 0.875180 0.707264
Si Si2 0.477453 0.352482 0.523984
Si Si3 0.897323 0.740853 0.101716
Si Si4 0.085196 0.657445 0.404820
Si Si5 0.117581 0.903316 0.742834
Si Si6 0.301481 0.774580 0.526878
Si Si7 0.650856 0.165019 0.970224
Si Si8 0.596579 0.612583 0.673905
O O1 0.669047 0.705298 0.744133
O O2 0.950495 0.913229 0.745268
O O3 0.565878 0.860997 0.848217
O O4 0.000000 0.000000 0.500000
O O5 0.500000 0.500000 0.500000
O O6 0.264156 0.245116 0.736008
O O7 0.710824 0.364768 0.431654
O O8 0.396628 0.296044 0.440242
O O9 0.684210 0.562644 0.175981
O O10 0.117806 0.776909 0.066752
O O11 0.010483 0.848222 0.927232
O O12 0.253344 0.775149 0.417216
O O13 0.230716 0.719935 0.206956
O O14 0.000000 0.500000 0.500000
O O15 0.824097 0.620729 0.532112
O O16 0.123533 0.782629 0.689422
O O17 0.409601 0.070124 0.593607
O O18 0.500000 0.000000 0.000000
#
# Coordination Sequence:
#
# PCOD9033839 Si02
#       8
#     2   2   2   2   2   2   2   2
#     4  12  28  49  74 103 147 192 245 303 361 432
#     4  10  22  44  70 102 139 188 232 290 361 427
#     4  11  26  45  70 105 145 184 242 294 365 434
#     4  12  25  46  74 108 146 189 245 301 365 435
#     4  11  27  46  70 106 142 189 243 297 368 432
#     4  11  25  45  74  98 145 188 240 297 365 430
#     4  12  29  48  74 108 145 193 245 301 367 443
#     4  11  24  47  71 102 146 187 239 295 364 431
#
# _framework density 22.095922999999999
#
# number of rings (size 3 to 8) (size 9 to 14) (size 15 to 20)
#    0.000    0.750    2.500    3.750   12.250    2.500 
#    0.000    0.000    0.000    0.000    0.000    0.000 
#    0.000    0.000    0.000    0.000    0.000    0.000 
#
# Total GULP energy -89447.123837 kJ/mol
# GULP energy per Si atom -5590.445240 kJ/mol
# Density = 2.204563 g / cm^3
# Si number density = 22.095923 Si / 1000 Ang^3
#
#
#
# Elastic Constant Matrix: (Units=GPa)
#
#
# Indices 1 2 3 4 5 6 
#
# 1 123.7083 7.8790 14.4783 -9.0245 0.9659 17.3099
# 2 7.8790 65.4738 9.4451 -13.0979 -11.4055 9.1106
# 3 14.4783 9.4451 77.4878 1.4527 3.2448 -11.1869
# 4 -9.0245 -13.0979 1.4527 28.1547 -1.8210 -6.0605
# 5 0.9659 -11.4055 3.2448 -1.8210 47.3575 2.1413
# 6 17.3099 9.1106 -11.1869 -6.0605 2.1413 45.8355
#
#
#
# Elastic Compliance Matrix: (Units=1/GPa)
#
#
# Indices 1 2 3 4 5 6 
#
# 1 0.009029 0.000295 -0.002320 0.002366 0.000306 -0.003736
# 2 0.000295 0.018867 -0.003281 0.008569 0.005263 -0.003775
# 3 -0.002320 -0.003281 0.014571 -0.002098 -0.002044 0.004902
# 4 0.002366 0.008569 -0.002098 0.041070 0.003641 0.002151
# 5 0.000306 0.005263 -0.002044 0.003641 0.022759 -0.002242
# 6 -0.003736 -0.003775 0.004902 0.002151 -0.002242 0.025564
#
#
# Mechanical properties :
#
#
# Convention : Reuss Voigt Hill
#
# Bulk Modulus (GPa) = 31.39099 36.69719 34.04409
# Shear Modulus (GPa) = 32.66038 39.92738 36.29388
#
# Velocity S-wave (km/s) = 3.84880 4.25550 4.05725
# Velocity P-wave (km/s) = 5.82997 6.38669 6.11467
#
# Compressibility (1/GPa) = 0.03185627
#
# Stress axis : x y z
#
# Youngs Moduli (GPa) = 110.75127 53.00147 68.62841
#
# Poissons Ratio (x) = -0.01561 0.15918
# Poissons Ratio (y) = -0.03262 0.22516
# Poissons Ratio (z) = 0.25689 0.17389
#
# Static dielectric constant tensor:
#      x y z
#    x 1.400960 -0.141430 0.228320 
#    y -0.141430 1.903350 0.046860 
#    z 0.228320 0.046860 1.689130 
# 
# From -- ./inp_files/392572.got.cif
#   From: 2010.05.17/outbox.cif.g08.bks.cpg/sg2_197_cif.got.tgz:392572.got - 2010.06.03 11:33:40.
