data_PCOD9033759
_publ_section_title
;
Structure prediction by ZEFSAII (Michael W. Deem and Ramdas Pophale) SiO2 
 PCOD9033759
Probable space group: P -1
;
_chemical_formula_sum "Si O2"
_cell_formula_units_Z 16
_cell_length_a 13.362467
_cell_length_b 9.210558
_cell_length_c 16.003600
_cell_angle_alpha 146.434712
_cell_angle_beta 54.362341
_cell_angle_gamma 118.578128
_cell_volume 884.935169
_symmetry_space_group_name_H-M "P -1"
_symmetry_group_IT_number 2
_symmetry_cell_setting 'triclinic'
loop_
_space_group_symop_operation_xyz
x,y,z
-x,-y,-z
loop_
_atom_site_type_symbol
_atom_site_label
_atom_site_fract_x
_atom_site_fract_y
_atom_site_fract_z
Si Si1 0.755535 0.286767 0.561413
Si Si2 0.608577 0.033845 0.652629
Si Si3 0.353130 0.906044 0.639446
Si Si4 0.484054 0.027175 0.158728
Si Si5 0.325561 0.581067 0.661806
Si Si6 0.875376 0.841979 0.196602
Si Si7 0.689762 0.856366 0.852593
Si Si8 0.856608 0.309904 0.055083
O O1 0.649627 0.222978 0.512925
O O2 0.771990 0.595461 0.697101
O O3 0.707939 0.194453 0.629926
O O4 0.866079 0.101708 0.384431
O O5 0.481483 0.030793 0.661068
O O6 0.574628 0.118983 0.803890
O O7 0.652916 0.729588 0.492250
O O8 0.323981 0.692922 0.622687
O O9 0.239882 0.114201 0.788470
O O10 0.562396 0.268756 0.274359
O O11 0.379189 0.125039 0.193332
O O12 0.581694 0.857277 0.975701
O O13 0.203042 0.657613 0.809224
O O14 0.004593 0.800505 0.068421
O O15 0.854049 0.590612 0.144828
O O16 0.769992 0.111399 0.952001
#
# Coordination Sequence:
#
# PCOD9033759 Si02
#       8
#     2   2   2   2   2   2   2   2
#     4  10  20  33  52  81 105 137 175 214 258 309
#     4  11  18  31  55  80 111 137 169 215 263 311
#     4   9  19  31  53  83 106 132 178 215 255 309
#     4   9  20  32  51  80 109 142 168 206 271 319
#     4  10  17  32  56  80 106 138 173 216 262 306
#     4   9  21  37  54  81  98 140 184 216 253 306
#     4  10  20  35  53  76 111 138 171 213 265 317
#     4  10  20  38  57  74 105 142 176 217 265 301
#
# _framework density 18.08042
#
# number of rings (size 3 to 8) (size 9 to 14) (size 15 to 20)
#    0.750    1.500    1.250    3.375    0.000    4.500 
#    0.000    2.500    0.000    0.750    0.000    0.000 
#    0.000    0.000    0.000    0.000    0.000    0.000 
#
# Total GULP energy -89161.978293 kJ/mol
# GULP energy per Si atom -5572.623643 kJ/mol
# Density = 1.803927 g / cm^3
# Si number density = 18.080420 Si / 1000 Ang^3
#
#
#
# Elastic Constant Matrix: (Units=GPa)
#
#
# Indices 1 2 3 4 5 6 
#
# 1 16.4104 12.0933 14.3004 -1.5236 -13.0209 -7.6808
# 2 12.0933 55.3971 29.9839 -16.9977 -7.3852 -5.8296
# 3 14.3004 29.9839 68.6883 -1.8860 -13.4470 -1.4390
# 4 -1.5236 -16.9977 -1.8860 33.0647 -5.9205 -2.9674
# 5 -13.0209 -7.3852 -13.4470 -5.9205 29.2307 -6.3042
# 6 -7.6808 -5.8296 -1.4390 -2.9674 -6.3042 18.5793
#
#
#
# Elastic Compliance Matrix: (Units=1/GPa)
#
#
# Indices 1 2 3 4 5 6 
#
# 1 0.430637 0.024743 -0.040159 0.103180 0.262680 0.288292
# 2 0.024743 0.035155 -0.014027 0.026013 0.025859 0.033102
# 3 -0.040159 -0.014027 0.024383 -0.013547 -0.018935 -0.027703
# 4 0.103180 0.026013 -0.013547 0.069690 0.079359 0.087826
# 5 0.262680 0.025859 -0.018935 0.079359 0.207922 0.198466
# 6 0.288292 0.033102 -0.027703 0.087826 0.198466 0.262616
#
#
# Mechanical properties :
#
#
# Convention : Reuss Voigt Hill
#
# Bulk Modulus (GPa) = 2.31863 28.13901 15.22882
# Shear Modulus (GPa) = 4.05498 21.78282 12.91890
#
# Velocity S-wave (km/s) = 1.49920 3.47475 2.67596
# Velocity P-wave (km/s) = 2.06930 5.62988 4.24132
#
# Compressibility (1/GPa) = 0.43128838
#
# Stress axis : x y z
#
# Youngs Moduli (GPa) = 2.32214 28.44581 41.01162
#
# Poissons Ratio (x) = -0.70383 1.64700
# Poissons Ratio (y) = -0.05746 0.57527
# Poissons Ratio (z) = 0.09326 0.39901
#
# Static dielectric constant tensor:
#      x y z
#    x 1.598450 -0.000550 -0.008570 
#    y -0.000550 1.609770 -0.003040 
#    z -0.008570 -0.003040 1.647250 
# 
# From -- ./inp_files/349070.got.cif
#   From: 2010.05.17/outbox.cif.g08.bks.cpg/sg2_175_cif.got.tgz:349070.got - 2010.06.03 11:33:40.
