data_PCOD9033830
_publ_section_title
;
Structure prediction by ZEFSAII (Michael W. Deem and Ramdas Pophale) SiO2 
 PCOD9033830
Probable space group: P -1
;
_chemical_formula_sum "Si O2"
_cell_formula_units_Z 11
_cell_length_a 12.710726
_cell_length_b 5.508567
_cell_length_c 7.341002
_cell_angle_alpha 89.686610
_cell_angle_beta 119.685370
_cell_angle_gamma 114.453646
_cell_volume 393.334658
_symmetry_space_group_name_H-M "P -1"
_symmetry_group_IT_number 2
_symmetry_cell_setting 'triclinic'
loop_
_space_group_symop_operation_xyz
x,y,z
-x,-y,-z
loop_
_atom_site_type_symbol
_atom_site_label
_atom_site_fract_x
_atom_site_fract_y
_atom_site_fract_z
Si Si1 0.796298 0.233887 0.873631
Si Si2 0.000000 0.000000 0.500000
Si Si3 0.161506 0.734629 0.658845
Si Si4 0.148045 0.220726 0.012089
Si Si5 0.605750 0.178979 0.400738
Si Si6 0.470182 0.543526 0.181305
O O1 0.876846 0.557107 0.898560
O O2 0.658132 0.139093 0.642039
O O3 0.856102 0.030034 0.877413
O O4 0.792831 0.232514 0.092099
O O5 0.852695 0.002327 0.414825
O O6 0.056630 0.109036 0.754939
O O7 0.259011 0.675332 0.614138
O O8 0.000000 0.500000 0.500000
O O9 0.308779 0.387349 0.089290
O O10 0.539398 0.382780 0.349156
O O11 0.527327 0.870655 0.252511
O O12 0.500000 0.500000 0.000000
#
# Coordination Sequence:
#
# PCOD9033830 Si02
#       6
#     2   1   2   2   2   2
#     4  11  24  45  69 111 138 187 237 293 355 424
#     4  10  22  44  70 102 132 190 234 288 348 418
#     4  11  24  46  75  99 143 190 235 296 359 420
#     4  11  23  43  72 100 146 188 234 289 358 414
#     4  12  28  45  73 108 143 184 242 297 354 425
#     4  12  25  46  72 107 144 190 238 292 355 431
#
# _framework density 27.966007000000001
#
# number of rings (size 3 to 8) (size 9 to 14) (size 15 to 20)
#    0.000    0.727    1.818    6.000    2.545    5.091 
#    0.000    1.818    0.000    0.000    0.000    0.000 
#    0.000    0.000    0.000    0.000    0.000    0.000 
#
# Total GULP energy -61418.872405 kJ/mol
# GULP energy per Si atom -5583.533855 kJ/mol
# Density = 2.790235 g / cm^3
# Si number density = 27.966007 Si / 1000 Ang^3
#
#
#
# Elastic Constant Matrix: (Units=GPa)
#
#
# Indices 1 2 3 4 5 6 
#
# 1 121.5279 40.7931 18.5157 9.0815 8.8102 8.8271
# 2 40.7931 188.1014 49.5809 -6.9442 17.6133 -31.5762
# 3 18.5157 49.5809 189.8903 -6.4796 3.8741 -8.8834
# 4 9.0815 -6.9442 -6.4796 62.4115 -16.9549 13.9631
# 5 8.8102 17.6133 3.8741 -16.9549 48.4070 5.2138
# 6 8.8271 -31.5762 -8.8834 13.9631 5.2138 48.0006
#
#
#
# Elastic Compliance Matrix: (Units=1/GPa)
#
#
# Indices 1 2 3 4 5 6 
#
# 1 0.009476 -0.002379 -0.000464 -0.001303 -0.000965 -0.002910
# 2 -0.002379 0.007420 -0.001411 -0.001114 -0.003161 0.005725
# 3 -0.000464 -0.001411 0.005693 0.000597 0.000352 -0.000001
# 4 -0.001303 -0.001114 0.000597 0.020016 0.008372 -0.007115
# 5 -0.000965 -0.003161 0.000352 0.008372 0.025648 -0.007058
# 6 -0.002910 0.005725 -0.000001 -0.007115 -0.007058 0.027970
#
#
# Mechanical properties :
#
#
# Convention : Reuss Voigt Hill
#
# Bulk Modulus (GPa) = 71.01463 79.69990 75.35726
# Shear Modulus (GPa) = 45.69284 57.80581 51.74933
#
# Velocity S-wave (km/s) = 4.04650 4.55136 4.30634
# Velocity P-wave (km/s) = 6.87609 7.49537 7.19240
#
# Compressibility (1/GPa) = 0.01408160
#
# Stress axis : x y z
#
# Youngs Moduli (GPa) = 105.52448 134.76991 175.65400
#
# Poissons Ratio (x) = 0.32063 0.08146
# Poissons Ratio (y) = 0.25105 0.24787
# Poissons Ratio (z) = 0.04894 0.19018
#
# Static dielectric constant tensor:
#      x y z
#    x 2.190370 -0.011290 0.092620 
#    y -0.011290 2.388750 -0.061500 
#    z 0.092620 -0.061500 2.165100 
# 
# From -- ./inp_files/287183.got.cif
#   From: 2010.05.17/outbox.cif.g08.bks.cpg/sg2_144_cif.got.tgz:287183.got - 2010.06.03 11:33:40.
