data_PCOD9033116
_publ_section_title
;
Structure prediction by ZEFSAII (Michael W. Deem and Ramdas Pophale) SiO2 
 PCOD9033116
Probable space group: P -1
;
_chemical_formula_sum "Si O2"
_cell_formula_units_Z 16
_cell_length_a 20.988465
_cell_length_b 19.926221
_cell_length_c 5.437615
_cell_angle_alpha 75.040296
_cell_angle_beta 93.419614
_cell_angle_gamma 159.515253
_cell_volume 647.723753
_symmetry_space_group_name_H-M "P -1"
_symmetry_group_IT_number 2
_symmetry_cell_setting 'triclinic'
loop_
_space_group_symop_operation_xyz
x,y,z
-x,-y,-z
loop_
_atom_site_type_symbol
_atom_site_label
_atom_site_fract_x
_atom_site_fract_y
_atom_site_fract_z
Si Si1 0.938194 0.641443 0.281329
Si Si2 0.482337 0.938374 0.810262
Si Si3 0.031973 0.451029 0.986558
Si Si4 0.267324 0.100198 0.711977
Si Si5 0.409441 0.639088 0.786110
Si Si6 0.352453 0.414540 0.531058
Si Si7 0.125000 0.217615 0.184823
Si Si8 0.732050 0.076118 0.596271
O O1 0.714313 0.449268 0.379583
O O2 0.058346 0.750539 0.457335
O O3 0.912570 0.538078 0.250832
O O4 0.115669 0.880045 0.979933
O O5 0.680336 0.090556 0.724324
O O6 0.500000 0.000000 0.500000
O O7 0.500000 0.000000 0.000000
O O8 0.245670 0.658653 0.002867
O O9 0.797663 0.174886 0.256007
O O10 0.000000 0.500000 0.000000
O O11 0.119708 0.013335 0.698889
O O12 0.390812 0.198785 0.412642
O O13 0.469112 0.338115 0.694535
O O14 0.517377 0.808767 0.816561
O O15 0.237282 0.409091 0.078034
O O16 0.500000 0.500000 0.500000
O O17 0.189422 0.243385 0.422448
O O18 0.226991 0.295654 0.876099
#
# Coordination Sequence:
#
# PCOD9033116 Si02
#       8
#     2   2   2   2   2   2   2   2
#     4  11  24  42  66 100 130 180 233 288 353 421
#     4  12  28  47  69  96 134 176 223 286 357 426
#     4  12  25  43  66  96 134 171 233 284 355 423
#     4  10  23  44  70  99 144 184 234 292 345 409
#     4  10  22  44  66 100 135 179 235 287 350 416
#     4  11  24  44  72 108 148 189 234 284 341 409
#     4  10  24  43  70 105 144 188 238 282 342 412
#     4  12  25  41  71  93 133 177 226 294 354 419
#
# _framework density 24.701886999999999
#
# number of rings (size 3 to 8) (size 9 to 14) (size 15 to 20)
#    0.000    1.000    3.750    1.875    1.750    8.000 
#    0.000    0.000    0.000    0.000    0.000    0.000 
#    0.000    0.000    0.000    0.000    0.000    0.000 
#
# Total GULP energy -89207.751952 kJ/mol
# GULP energy per Si atom -5575.484497 kJ/mol
# Density = 2.464566 g / cm^3
# Si number density = 24.701887 Si / 1000 Ang^3
#
#
#
# Elastic Constant Matrix: (Units=GPa)
#
#
# Indices 1 2 3 4 5 6 
#
# 1 121.8264 27.0752 22.9303 7.7769 -9.5692 19.2723
# 2 27.0752 116.1709 21.6628 16.7614 -8.5252 11.4121
# 3 22.9303 21.6628 59.2251 7.8779 -5.0691 2.9278
# 4 7.7769 16.7614 7.8779 31.3112 3.0777 3.8596
# 5 -9.5692 -8.5252 -5.0691 3.0777 30.8402 -11.4748
# 6 19.2723 11.4121 2.9278 3.8596 -11.4748 50.9753
#
#
#
# Elastic Compliance Matrix: (Units=1/GPa)
#
#
# Indices 1 2 3 4 5 6 
#
# 1 0.009628 -0.001217 -0.002938 -0.000761 0.001173 -0.002877
# 2 -0.001217 0.010268 -0.002428 -0.004697 0.002216 -0.000845
# 3 -0.002938 -0.002428 0.019490 -0.003279 0.002444 0.001334
# 4 -0.000761 -0.004697 -0.003279 0.036467 -0.006736 -0.002750
# 5 0.001173 0.002216 0.002444 -0.006736 0.037396 0.007848
# 6 -0.002877 -0.000845 0.001334 -0.002750 0.007848 0.022792
#
#
# Mechanical properties :
#
#
# Convention : Reuss Voigt Hill
#
# Bulk Modulus (GPa) = 38.14240 48.95102 43.54671
# Shear Modulus (GPa) = 31.65607 37.66228 34.65918
#
# Velocity S-wave (km/s) = 3.58372 3.90894 3.74986
# Velocity P-wave (km/s) = 5.70953 6.34294 6.03455
#
# Compressibility (1/GPa) = 0.02621754
#
# Stress axis : x y z
#
# Youngs Moduli (GPa) = 103.86458 97.39190 51.30861
#
# Poissons Ratio (x) = 0.11857 0.15077
# Poissons Ratio (y) = 0.12645 0.12458
# Poissons Ratio (z) = 0.30520 0.23648
#
# Static dielectric constant tensor:
#      x y z
#    x 2.018390 -0.040590 0.043810 
#    y -0.040590 1.996130 -0.004910 
#    z 0.043810 -0.004910 2.068270 
# 
# From -- ./inp_files/14686.got.cif
#   From: 2010.05.17/outbox.cif.g08.bks.cpg/sg2_8_cif.got.tgz:14686.got - 2010.06.03 11:33:40.
