data_PCOD9033039
_publ_section_title
;
Structure prediction by ZEFSAII (Michael W. Deem and Ramdas Pophale) SiO2 
 PCOD9033039
Probable space group: P -1
;
_chemical_formula_sum "Si O2"
_cell_formula_units_Z 14
_cell_length_a 7.211442
_cell_length_b 10.038024
_cell_length_c 16.699371
_cell_angle_alpha 30.181957
_cell_angle_beta 72.755435
_cell_angle_gamma 78.932126
_cell_volume 575.198058
_symmetry_space_group_name_H-M "P -1"
_symmetry_group_IT_number 2
_symmetry_cell_setting 'triclinic'
loop_
_space_group_symop_operation_xyz
x,y,z
-x,-y,-z
loop_
_atom_site_type_symbol
_atom_site_label
_atom_site_fract_x
_atom_site_fract_y
_atom_site_fract_z
Si Si1 0.132626 0.127691 0.304250
Si Si2 0.239929 0.177561 0.432009
Si Si3 0.658588 0.811031 0.409720
Si Si4 0.719018 0.277337 0.610141
Si Si5 0.884388 0.290022 0.039562
Si Si6 0.737134 0.256636 0.900843
Si Si7 0.298297 0.138256 0.031673
O O1 0.288736 0.140644 0.350790
O O2 0.161982 0.406754 0.109299
O O3 0.509357 0.309158 0.904160
O O4 0.129635 0.876055 0.377615
O O5 0.367467 0.204835 0.482612
O O6 0.151628 0.460947 0.290181
O O7 0.080563 0.921118 0.603205
O O8 0.773431 0.574061 0.482810
O O9 0.459007 0.748557 0.417110
O O10 0.774630 0.094944 0.220664
O O11 0.662966 0.089305 0.791456
O O12 0.116050 0.278147 0.010701
O O13 0.800777 0.190198 0.015513
O O14 0.756083 0.017200 0.963094
#
# Coordination Sequence:
#
# PCOD9033039 Si02
#       7
#     2   2   2   2   2   2   2
#     4  10  25  46  66  97 141 172 232 271 343 404
#     4  10  22  46  65  95 135 178 218 278 333 408
#     4  11  24  43  72 100 134 175 238 270 343 392
#     4  11  24  43  68 104 135 177 224 290 324 413
#     4  11  24  44  69 100 132 183 224 277 336 405
#     4  10  22  44  65 103 133 178 221 283 332 401
#     4  11  22  40  71 100 136 173 227 284 325 405
#
# _framework density 24.33944
#
# number of rings (size 3 to 8) (size 9 to 14) (size 15 to 20)
#    0.000    1.429    2.857    1.286    2.000    4.571 
#   15.429    0.000    0.000    0.000    0.000    0.000 
#    0.000    0.000    0.000    0.000    0.000    0.000 
#
# Total GULP energy -78213.154423 kJ/mol
# GULP energy per Si atom -5586.653887 kJ/mol
# Density = 2.428404 g / cm^3
# Si number density = 24.339440 Si / 1000 Ang^3
#
#
#
# Elastic Constant Matrix: (Units=GPa)
#
#
# Indices 1 2 3 4 5 6 
#
# 1 66.1373 36.6966 19.1765 8.1497 17.2039 10.8540
# 2 36.6966 123.8426 43.7572 14.2450 14.3388 31.0047
# 3 19.1765 43.7572 132.9042 -3.0262 13.3265 8.3282
# 4 8.1497 14.2450 -3.0262 41.5937 14.6681 10.9456
# 5 17.2039 14.3388 13.3265 14.6681 35.0709 5.0414
# 6 10.8540 31.0047 8.3282 10.9456 5.0414 27.9570
#
#
#
# Elastic Compliance Matrix: (Units=1/GPa)
#
#
# Indices 1 2 3 4 5 6 
#
# 1 0.019982 -0.004571 -0.000483 0.000764 -0.007864 -0.001426
# 2 -0.004571 0.013657 -0.003084 -0.000779 -0.000100 -0.012129
# 3 -0.000483 -0.003084 0.008962 0.002803 -0.003138 0.000407
# 4 0.000764 -0.000779 0.002803 0.031616 -0.012860 -0.010327
# 5 -0.007864 -0.000100 -0.003138 -0.012860 0.038673 0.002160
# 6 -0.001426 -0.012129 0.000407 -0.010327 0.002160 0.053307
#
#
# Mechanical properties :
#
#
# Convention : Reuss Voigt Hill
#
# Bulk Modulus (GPa) = 37.98722 58.01607 48.00165
# Shear Modulus (GPa) = 26.14422 35.80791 30.97607
#
# Velocity S-wave (km/s) = 3.28098 3.83977 3.57132
# Velocity P-wave (km/s) = 5.47670 6.59897 6.06385
#
# Compressibility (1/GPa) = 0.02632464
#
# Stress axis : x y z
#
# Youngs Moduli (GPa) = 50.04595 73.22388 111.57683
#
# Poissons Ratio (x) = 0.33467 0.05390
# Poissons Ratio (y) = 0.22874 0.34416
# Poissons Ratio (z) = 0.02417 0.22586
#
# Static dielectric constant tensor:
#      x y z
#    x 2.027700 -0.011300 0.010670 
#    y -0.011300 1.951970 0.036740 
#    z 0.010670 0.036740 1.893260 
# 
# From -- ./inp_files/381006.got.cif
#   From: 2010.05.17/outbox.cif.g08.bks.cpg/sg2_191_cif.got.tgz:381006.got - 2010.06.03 11:33:40.
