data_PCOD9033911
_publ_section_title
;
Structure prediction by ZEFSAII (Michael W. Deem and Ramdas Pophale) SiO2 
 PCOD9033911
Probable space group: P -1
;
_chemical_formula_sum "Si O2"
_cell_formula_units_Z 14
_cell_length_a 12.591686
_cell_length_b 16.063731
_cell_length_c 8.747142
_cell_angle_alpha 26.836654
_cell_angle_beta 52.474119
_cell_angle_gamma 53.997501
_cell_volume 628.593508
_symmetry_space_group_name_H-M "P -1"
_symmetry_group_IT_number 2
_symmetry_cell_setting 'triclinic'
loop_
_space_group_symop_operation_xyz
x,y,z
-x,-y,-z
loop_
_atom_site_type_symbol
_atom_site_label
_atom_site_fract_x
_atom_site_fract_y
_atom_site_fract_z
Si Si1 0.893999 0.406123 0.142261
Si Si2 0.562200 0.897934 0.933124
Si Si3 0.058654 0.013537 0.094723
Si Si4 0.426038 0.676157 0.863426
Si Si5 0.138469 0.759571 0.863637
Si Si6 0.593509 0.610857 0.128886
Si Si7 0.281949 0.015748 0.085353
O O1 0.906701 0.200027 0.537567
O O2 0.921700 0.376930 0.982524
O O3 0.740237 0.504765 0.131844
O O4 0.000000 0.500000 0.000000
O O5 0.653986 0.842462 0.091489
O O6 0.557971 0.118547 0.550513
O O7 0.617547 0.790358 0.912780
O O8 0.408425 0.873808 0.147828
O O9 0.199478 0.092360 0.883358
O O10 0.957461 0.130680 0.107956
O O11 0.000000 0.000000 0.000000
O O12 0.267203 0.664156 0.000609
O O13 0.500000 0.500000 0.000000
O O14 0.497148 0.667622 0.978272
O O15 0.191791 0.913404 0.451251
O O16 0.500000 0.500000 0.500000
#
# Coordination Sequence:
#
# PCOD9033911 Si02
#       7
#     2   2   2   2   2   2   2
#     4  11  25  43  66 100 134 174 226 277 336 402
#     4  10  23  40  72  95 131 175 222 279 331 400
#     4  11  25  43  67  94 132 178 222 272 332 407
#     4  11  24  44  67  99 132 170 228 277 333 394
#     4  10  22  44  70  89 133 179 217 273 340 396
#     4  12  26  42  69 100 139 176 225 279 337 401
#     4   9  20  41  67  94 123 171 227 261 332 395
#
# _framework density 22.271946
#
# number of rings (size 3 to 8) (size 9 to 14) (size 15 to 20)
#    0.000    1.429    1.429    3.857   14.000    1.143 
#    0.000    0.714    0.000    0.000    0.000    0.000 
#    0.000    0.000    0.000    0.000    0.000    0.000 
#
# Total GULP energy -78091.760031 kJ/mol
# GULP energy per Si atom -5577.982859 kJ/mol
# Density = 2.222125 g / cm^3
# Si number density = 22.271946 Si / 1000 Ang^3
#
#
#
# Elastic Constant Matrix: (Units=GPa)
#
#
# Indices 1 2 3 4 5 6 
#
# 1 231.7970 81.8339 16.4754 2.1320 21.8993 31.4774
# 2 81.8339 155.2170 19.7711 -19.1016 9.6395 24.4540
# 3 16.4754 19.7711 38.6635 -12.9284 6.8646 6.7727
# 4 2.1320 -19.1016 -12.9284 25.7825 -1.1067 1.1140
# 5 21.8993 9.6395 6.8646 -1.1067 30.0076 0.7488
# 6 31.4774 24.4540 6.7727 1.1140 0.7488 46.5309
#
#
#
# Elastic Compliance Matrix: (Units=1/GPa)
#
#
# Indices 1 2 3 4 5 6 
#
# 1 0.006071 -0.002887 -0.001232 -0.003301 -0.003286 -0.002278
# 2 -0.002887 0.009418 -0.000624 0.007017 -0.000440 -0.003067
# 3 -0.001232 -0.000624 0.034049 0.016633 -0.005974 -0.004097
# 4 -0.003301 0.007017 0.016633 0.052752 -0.001577 -0.005113
# 5 -0.003286 -0.000440 -0.005974 -0.001577 0.037104 0.002765
# 6 -0.002278 -0.003067 -0.004097 -0.005113 0.002765 0.025318
#
#
# Mechanical properties :
#
#
# Convention : Reuss Voigt Hill
#
# Bulk Modulus (GPa) = 24.96787 73.53760 49.25273
# Shear Modulus (GPa) = 26.65962 40.97068 33.81515
#
# Velocity S-wave (km/s) = 3.46353 4.29367 3.90074
# Velocity P-wave (km/s) = 5.21819 7.59411 6.51537
#
# Compressibility (1/GPa) = 0.04005148
#
# Stress axis : x y z
#
# Youngs Moduli (GPa) = 164.71083 106.17567 29.36985
#
# Poissons Ratio (x) = 0.30655 0.03618
# Poissons Ratio (y) = 0.47555 0.01833
# Poissons Ratio (z) = 0.20293 0.06626
#
# Static dielectric constant tensor:
#      x y z
#    x 2.063650 0.040330 -0.095700 
#    y 0.040330 1.841140 -0.013680 
#    z -0.095700 -0.013680 1.940060 
# 
# From -- ./inp_files/177321.got.cif
#   From: 2010.05.17/outbox.cif.g08.bks.cpg/sg2_89_cif.got.tgz:177321.got - 2010.06.03 11:33:40.
