data_PCOD9033916
_publ_section_title
;
Structure prediction by ZEFSAII (Michael W. Deem and Ramdas Pophale) SiO2 
 PCOD9033916
Probable space group: P -1
;
_chemical_formula_sum "Si O2"
_cell_formula_units_Z 16
_cell_length_a 10.055295
_cell_length_b 12.388026
_cell_length_c 14.043781
_cell_angle_alpha 52.316126
_cell_angle_beta 72.063441
_cell_angle_gamma 114.893229
_cell_volume 774.076240
_symmetry_space_group_name_H-M "P -1"
_symmetry_group_IT_number 2
_symmetry_cell_setting 'triclinic'
loop_
_space_group_symop_operation_xyz
x,y,z
-x,-y,-z
loop_
_atom_site_type_symbol
_atom_site_label
_atom_site_fract_x
_atom_site_fract_y
_atom_site_fract_z
Si Si1 0.869828 0.038078 0.992878
Si Si2 0.096571 0.103896 0.580089
Si Si3 0.329309 0.574685 0.317085
Si Si4 0.736893 0.971642 0.269046
Si Si5 0.731157 0.933188 0.611979
Si Si6 0.748673 0.290275 0.115716
Si Si7 0.046474 0.449692 0.267051
Si Si8 0.778060 0.468490 0.426951
O O1 0.612256 0.807873 0.130368
O O2 0.841213 0.075516 0.085002
O O3 0.029827 0.262406 0.773820
O O4 0.000000 0.000000 0.000000
O O5 0.230604 0.342185 0.462947
O O6 0.094339 0.984479 0.724683
O O7 0.241690 0.153327 0.432660
O O8 0.845748 0.954870 0.670080
O O9 0.243854 0.580525 0.429895
O O10 0.225692 0.560007 0.253760
O O11 0.485314 0.695835 0.460032
O O12 0.679871 0.078038 0.260453
O O13 0.465736 0.781506 0.764511
O O14 0.904639 0.199007 0.408441
O O15 0.000000 0.500000 0.000000
O O16 0.810719 0.377849 0.946248
O O17 0.862325 0.411342 0.373332
#
# Coordination Sequence:
#
# PCOD9033916 Si02
#       8
#     2   2   2   2   2   2   2   2
#     4  11  23  39  62  96 133 171 213 264 327 388
#     4  10  22  44  70  92 131 181 217 271 332 383
#     4  10  24  41  64  98 128 171 221 263 320 394
#     4  11  23  41  64  97 129 167 219 267 323 391
#     4  10  24  46  67  94 133 173 223 274 327 390
#     4  12  26  41  67 101 129 171 221 271 332 388
#     4  11  23  43  66  97 131 172 215 269 333 384
#     4  11  22  41  66  95 132 171 212 268 326 388
#
# _framework density 20.669798
#
# number of rings (size 3 to 8) (size 9 to 14) (size 15 to 20)
#    0.000    1.250    2.500    2.625    1.750    7.500 
#    0.000   10.000    0.000    0.000    0.000    0.000 
#    0.000    0.000    0.000    0.000    0.000    0.000 
#
# Total GULP energy -89409.546590 kJ/mol
# GULP energy per Si atom -5588.096662 kJ/mol
# Density = 2.062275 g / cm^3
# Si number density = 20.669798 Si / 1000 Ang^3
#
#
#
# Elastic Constant Matrix: (Units=GPa)
#
#
# Indices 1 2 3 4 5 6 
#
# 1 88.8846 -7.9668 21.8774 -3.3121 -6.2443 12.3453
# 2 -7.9668 31.8790 -1.3631 -3.1539 -5.8085 1.7450
# 3 21.8774 -1.3631 72.9301 -7.6313 -13.0939 16.6907
# 4 -3.3121 -3.1539 -7.6313 13.0144 5.4811 -0.7278
# 5 -6.2443 -5.8085 -13.0939 5.4811 29.2395 5.3722
# 6 12.3453 1.7450 16.6907 -0.7278 5.3722 35.6644
#
#
#
# Elastic Compliance Matrix: (Units=1/GPa)
#
#
# Indices 1 2 3 4 5 6 
#
# 1 0.012996 0.004093 -0.002167 0.001495 0.003095 -0.004120
# 2 0.004093 0.035200 0.003134 0.007308 0.008967 -0.005807
# 3 -0.002167 0.003134 0.018955 0.006964 0.009088 -0.009501
# 4 0.001495 0.007308 0.006964 0.087869 -0.011469 -0.000613
# 5 0.003095 0.008967 0.009088 -0.011469 0.045216 -0.012808
# 6 -0.004120 -0.005807 -0.009501 -0.000613 -0.012808 0.036113
#
#
# Mechanical properties :
#
#
# Convention : Reuss Voigt Hill
#
# Bulk Modulus (GPa) = 12.94158 24.30986 18.62572
# Shear Modulus (GPa) = 19.84229 27.66008 23.75119
#
# Velocity S-wave (km/s) = 3.10169 3.66209 3.39348
# Velocity P-wave (km/s) = 4.37059 5.44682 4.93811
#
# Compressibility (1/GPa) = 0.07727031
#
# Stress axis : x y z
#
# Youngs Moduli (GPa) = 76.94595 28.40898 52.75593
#
# Poissons Ratio (x) = -0.11626 0.11432
# Poissons Ratio (y) = -0.31490 -0.16533
# Poissons Ratio (z) = 0.16674 -0.08903
#
# Static dielectric constant tensor:
#      x y z
#    x 1.730310 -0.007160 0.018220 
#    y -0.007160 1.789000 -0.018180 
#    z 0.018220 -0.018180 1.685140 
# 
# From -- ./inp_files/70822.got.cif
#   From: 2010.05.17/outbox.cif.g08.bks.cpg/sg2_36_cif.got.tgz:70822.got - 2010.06.03 11:33:40.
