data_PCOD9033321
_publ_section_title
;
Structure prediction by ZEFSAII (Michael W. Deem and Ramdas Pophale) SiO2 
 PCOD9033321
Probable space group: P -1
;
_chemical_formula_sum "Si O2"
_cell_formula_units_Z 14
_cell_length_a 11.241521
_cell_length_b 10.585191
_cell_length_c 10.431748
_cell_angle_alpha 123.400113
_cell_angle_beta 50.694223
_cell_angle_gamma 144.697617
_cell_volume 553.502878
_symmetry_space_group_name_H-M "P -1"
_symmetry_group_IT_number 2
_symmetry_cell_setting 'triclinic'
loop_
_space_group_symop_operation_xyz
x,y,z
-x,-y,-z
loop_
_atom_site_type_symbol
_atom_site_label
_atom_site_fract_x
_atom_site_fract_y
_atom_site_fract_z
Si Si1 0.552750 0.090600 0.729095
Si Si2 0.635899 0.883811 0.382557
Si Si3 0.013496 0.323617 0.961337
Si Si4 0.921564 0.920037 0.866026
Si Si5 0.014825 0.428799 0.730525
Si Si6 0.467978 0.263202 0.085732
Si Si7 0.625357 0.563470 0.580955
O O1 0.458361 0.114994 0.684801
O O2 0.815105 0.306768 0.699108
O O3 0.550212 0.917253 0.582583
O O4 0.458190 0.091607 0.928504
O O5 0.541864 0.648499 0.331362
O O6 0.904879 0.076367 0.306107
O O7 0.951555 0.333523 0.866249
O O8 0.276815 0.534789 0.932243
O O9 0.969882 0.116012 0.878901
O O10 0.896766 0.339524 0.163248
O O11 0.655994 0.716925 0.923268
O O12 0.000000 0.000000 0.000000
O O13 0.172685 0.408000 0.561846
O O14 0.331644 0.236762 0.284060
O O15 0.500000 0.500000 0.500000
#
# Coordination Sequence:
#
# PCOD9033321 Si02
#       7
#     2   2   2   2   2   2   2
#     4  10  24  43  67  98 133 180 222 274 339 390
#     4  11  24  44  66  99 142 169 228 281 321 410
#     4  10  23  44  66 102 133 172 228 278 327 399
#     4  12  24  41  71 100 133 177 223 277 335 393
#     4  10  22  44  67  93 139 176 220 278 335 397
#     4  11  23  43  69  99 133 175 223 270 338 394
#     4  12  24  42  69  99 137 177 220 276 338 392
#
# _framework density 25.293455999999999
#
# number of rings (size 3 to 8) (size 9 to 14) (size 15 to 20)
#    0.000    1.143    4.286    0.857    2.000    5.143 
#    0.000    5.714    0.000    0.000    0.000    0.000 
#    0.000    0.000    0.000    0.000    0.000    0.000 
#
# Total GULP energy -78065.412262 kJ/mol
# GULP energy per Si atom -5576.100876 kJ/mol
# Density = 2.523589 g / cm^3
# Si number density = 25.293456 Si / 1000 Ang^3
#
#
#
# Elastic Constant Matrix: (Units=GPa)
#
#
# Indices 1 2 3 4 5 6 
#
# 1 120.5464 32.3121 23.1202 11.5785 -14.1320 18.6937
# 2 32.3121 51.4879 23.2471 24.9016 2.6228 6.7194
# 3 23.1202 23.2471 207.1020 27.6712 -29.0306 23.6611
# 4 11.5785 24.9016 27.6712 48.8559 20.0943 -2.2104
# 5 -14.1320 2.6228 -29.0306 20.0943 49.4908 -10.3950
# 6 18.6937 6.7194 23.6611 -2.2104 -10.3950 36.0059
#
#
#
# Elastic Compliance Matrix: (Units=1/GPa)
#
#
# Indices 1 2 3 4 5 6 
#
# 1 0.011008 -0.006118 0.000625 -0.001507 0.003598 -0.004038
# 2 -0.006118 0.030965 -0.000129 -0.015269 0.002140 -0.002837
# 3 0.000625 -0.000129 0.006953 -0.006761 0.006280 -0.003472
# 4 -0.001507 -0.015269 -0.006761 0.040459 -0.018945 0.005089
# 5 0.003598 0.002140 0.006280 -0.018945 0.032904 0.001942
# 6 -0.004038 -0.002837 -0.003472 0.005089 0.001942 0.033554
#
#
# Mechanical properties :
#
#
# Convention : Reuss Voigt Hill
#
# Bulk Modulus (GPa) = 26.53687 59.61056 43.07371
# Shear Modulus (GPa) = 27.83203 46.90099 37.36651
#
# Velocity S-wave (km/s) = 3.32077 4.31080 3.84776
# Velocity P-wave (km/s) = 5.02173 6.95673 6.06687
#
# Compressibility (1/GPa) = 0.03768342
#
# Stress axis : x y z
#
# Youngs Moduli (GPa) = 90.83997 32.29410 143.81286
#
# Poissons Ratio (x) = 0.19758 -0.08986
# Poissons Ratio (y) = 0.55577 0.01850
# Poissons Ratio (z) = -0.05676 0.00415
#
# Static dielectric constant tensor:
#      x y z
#    x 2.082930 0.057660 -0.076110 
#    y 0.057660 2.129080 -0.011640 
#    z -0.076110 -0.011640 2.099570 
# 
# From -- ./inp_files/424216.got.cif
#   From: 2010.05.17/outbox.cif.g08.bks.cpg/sg2_213_cif.got.tgz:424216.got - 2010.06.03 11:33:40.
