data_PCOD9033204
_publ_section_title
;
Structure prediction by ZEFSAII (Michael W. Deem and Ramdas Pophale) SiO2 
 PCOD9033204
Probable space group: P -1
;
_chemical_formula_sum "Si O2"
_cell_formula_units_Z 16
_cell_length_a 5.648973
_cell_length_b 15.282315
_cell_length_c 7.372499
_cell_angle_alpha 88.974090
_cell_angle_beta 88.201320
_cell_angle_gamma 64.017828
_cell_volume 571.848203
_symmetry_space_group_name_H-M "P -1"
_symmetry_group_IT_number 2
_symmetry_cell_setting 'triclinic'
loop_
_space_group_symop_operation_xyz
x,y,z
-x,-y,-z
loop_
_atom_site_type_symbol
_atom_site_label
_atom_site_fract_x
_atom_site_fract_y
_atom_site_fract_z
Si Si1 0.513856 0.278255 0.214430
Si Si2 0.445800 0.983880 0.796408
Si Si3 0.062616 0.009009 0.291195
Si Si4 0.184370 0.554460 0.025190
Si Si5 0.144554 0.200460 0.741465
Si Si6 0.942190 0.760518 0.830560
Si Si7 0.378542 0.780859 0.208377
Si Si8 0.736729 0.508713 0.604978
O O1 0.319889 0.229262 0.264540
O O2 0.384486 0.386896 0.292941
O O3 0.815898 0.230271 0.270674
O O4 0.545716 0.268033 0.991631
O O5 0.747100 0.937541 0.724527
O O6 0.301538 0.086772 0.690569
O O7 0.221128 0.946639 0.799871
O O8 0.500000 0.000000 0.000000
O O9 0.229759 0.899772 0.207326
O O10 0.000000 0.000000 0.500000
O O11 0.839121 0.426107 0.760921
O O12 0.076977 0.645324 0.890857
O O13 0.500000 0.500000 0.000000
O O14 0.000000 0.500000 0.000000
O O15 0.346510 0.245957 0.697521
O O16 0.841953 0.242730 0.691429
O O17 0.125750 0.195303 0.964767
O O18 0.500000 0.500000 0.500000
O O19 0.000000 0.500000 0.500000
#
# Coordination Sequence:
#
# PCOD9033204 Si02
#       8
#     2   2   2   2   2   2   2   2
#     4  10  18  33  54  79 101 145 185 225 261 334
#     4  10  19  33  53  86 114 148 186 223 268 336
#     4  10  19  33  54  88 113 143 181 233 276 317
#     4  12  21  36  57  84 105 141 195 234 263 335
#     4   8  16  28  49  80  99 135 178 230 254 309
#     4  10  17  32  55  82  96 136 193 237 249 310
#     4   8  16  29  50  79  97 141 185 218 248 331
#     4  12  24  36  52  84 117 141 175 236 301 325
#
# _framework density 27.979451000000001
#
# number of rings (size 3 to 8) (size 9 to 14) (size 15 to 20)
#    0.000    2.000    2.500    2.250    0.000    0.000 
#    0.000    0.000    0.000    0.000  175.500    0.000 
#    0.000    0.000    0.000    0.000    0.000    0.000 
#
# Total GULP energy -89472.348778 kJ/mol
# GULP energy per Si atom -5592.021799 kJ/mol
# Density = 2.791577 g / cm^3
# Si number density = 27.979451 Si / 1000 Ang^3
#
#
#
# Elastic Constant Matrix: (Units=GPa)
#
#
# Indices 1 2 3 4 5 6 
#
# 1 373.7684 68.9116 63.6119 16.3783 -21.6448 8.3014
# 2 68.9116 89.2370 4.7659 40.5602 -1.2989 -3.4008
# 3 63.6119 4.7659 131.2505 2.7535 12.2566 -4.8659
# 4 16.3783 40.5602 2.7535 31.4120 1.6982 -7.7797
# 5 -21.6448 -1.2989 12.2566 1.6982 41.5119 18.1448
# 6 8.3014 -3.4008 -4.8659 -7.7797 18.1448 56.6781
#
#
#
# Elastic Compliance Matrix: (Units=1/GPa)
#
#
# Indices 1 2 3 4 5 6 
#
# 1 0.003931 -0.004448 -0.002161 0.003329 0.003095 -0.001562
# 2 -0.004448 0.033608 0.001549 -0.042154 0.001516 -0.003470
# 3 -0.002161 0.001549 0.009185 -0.000751 -0.004927 0.002672
# 4 0.003329 -0.042154 -0.000751 0.087887 -0.008003 0.011544
# 5 0.003095 0.001516 -0.004927 -0.008003 0.032970 -0.012439
# 6 -0.001562 -0.003470 0.002672 0.011544 -0.012439 0.023460
#
#
# Mechanical properties :
#
#
# Convention : Reuss Voigt Hill
#
# Bulk Modulus (GPa) = 27.31816 96.53718 61.92767
# Shear Modulus (GPa) = 23.43443 56.38483 39.90963
#
# Velocity S-wave (km/s) = 2.89720 4.49399 3.78086
# Velocity P-wave (km/s) = 4.58002 7.84256 6.42193
#
# Compressibility (1/GPa) = 0.03660569
#
# Stress axis : x y z
#
# Youngs Moduli (GPa) = 254.36794 29.75509 108.87452
#
# Poissons Ratio (x) = 0.13235 0.23524
# Poissons Ratio (y) = 1.13140 -0.16869
# Poissons Ratio (z) = 0.54960 -0.04610
#
# Static dielectric constant tensor:
#      x y z
#    x 2.265070 0.044000 -0.004380 
#    y 0.044000 2.065690 0.073040 
#    z -0.004380 0.073040 2.147520 
# 
# From -- ./inp_files/139124.got.cif
#   From: 2010.05.17/outbox.cif.g08.bks.cpg/sg2_70_cif.got.tgz:139124.got - 2010.06.03 11:33:40.
