data_PCOD9033591
_publ_section_title
;
Structure prediction by ZEFSAII (Michael W. Deem and Ramdas Pophale) SiO2 
 PCOD9033591
Probable space group: P -1
;
_chemical_formula_sum "Si O2"
_cell_formula_units_Z 16
_cell_length_a 15.470341
_cell_length_b 8.851512
_cell_length_c 12.125609
_cell_angle_alpha 112.255764
_cell_angle_beta 24.700602
_cell_angle_gamma 111.297066
_cell_volume 641.380001
_symmetry_space_group_name_H-M "P -1"
_symmetry_group_IT_number 2
_symmetry_cell_setting 'triclinic'
loop_
_space_group_symop_operation_xyz
x,y,z
-x,-y,-z
loop_
_atom_site_type_symbol
_atom_site_label
_atom_site_fract_x
_atom_site_fract_y
_atom_site_fract_z
Si Si1 0.461704 0.580220 0.328749
Si Si2 0.509219 0.126862 0.922669
Si Si3 0.825262 0.902116 0.108430
Si Si4 0.761440 0.579052 0.170986
Si Si5 0.099078 0.337203 0.731131
Si Si6 0.075135 0.174265 0.506229
Si Si7 0.478632 0.042290 0.689923
Si Si8 0.194019 0.601454 0.251962
O O1 0.544756 0.553618 0.350907
O O2 0.248583 0.475435 0.537402
O O3 0.444454 0.771080 0.378018
O O4 0.628754 0.508323 0.032533
O O5 0.502180 0.030413 0.789432
O O6 0.697199 0.260621 0.756436
O O7 0.294227 0.218359 0.206701
O O8 0.500000 0.000000 0.000000
O O9 0.870094 0.711824 0.996308
O O10 0.754846 0.971317 0.091587
O O11 0.617395 0.921491 0.428014
O O12 0.000000 0.000000 0.000000
O O13 0.810766 0.673362 0.254534
O O14 0.873924 0.411479 0.013396
O O15 0.105839 0.180604 0.603329
O O16 0.903537 0.299237 0.707975
O O17 0.000000 0.000000 0.500000
O O18 0.000000 0.500000 0.500000
#
# Coordination Sequence:
#
# PCOD9033591 Si02
#       8
#     2   2   2   2   2   2   2   2
#     4  11  22  44  67  98 139 182 236 297 361 426
#     4  12  27  48  70 103 148 193 237 305 369 432
#     4  10  22  44  68  98 137 182 231 300 359 422
#     4  10  23  40  68 104 132 180 233 296 361 428
#     4  11  23  41  70 101 140 181 235 295 362 438
#     4  12  26  46  69 105 144 190 243 291 364 444
#     4  10  25  41  68 102 136 183 245 288 360 441
#     4  12  27  44  72 102 140 191 246 297 359 435
#
# _framework density 24.946209
#
# number of rings (size 3 to 8) (size 9 to 14) (size 15 to 20)
#    0.000    1.000    3.750    1.875    3.500    5.000 
#    0.000    1.250    0.000    0.000    0.000    0.000 
#    0.000    0.000    0.000    0.000    0.000    0.000 
#
# Total GULP energy -89533.283290 kJ/mol
# GULP energy per Si atom -5595.830206 kJ/mol
# Density = 2.488943 g / cm^3
# Si number density = 24.946209 Si / 1000 Ang^3
#
#
#
# Elastic Constant Matrix: (Units=GPa)
#
#
# Indices 1 2 3 4 5 6 
#
# 1 167.8489 28.1723 22.3945 -2.2067 11.6888 22.0549
# 2 28.1723 75.6700 10.1987 0.8286 -3.3727 6.2468
# 3 22.3945 10.1987 71.1305 -0.7152 -2.4169 2.8605
# 4 -2.2067 0.8286 -0.7152 37.6393 8.9537 -8.6042
# 5 11.6888 -3.3727 -2.4169 8.9537 45.8661 2.8542
# 6 22.0549 6.2468 2.8605 -8.6042 2.8542 48.8376
#
#
#
# Elastic Compliance Matrix: (Units=1/GPa)
#
#
# Indices 1 2 3 4 5 6 
#
# 1 0.007070 -0.002255 -0.001861 0.000294 -0.001959 -0.002629
# 2 -0.002255 0.014408 -0.001262 -0.001159 0.001860 -0.001064
# 3 -0.001861 -0.001262 0.014863 -0.000067 0.001174 0.000051
# 4 0.000294 -0.001159 -0.000067 0.029365 -0.006242 0.005558
# 5 -0.001959 0.001860 0.001174 -0.006242 0.023838 -0.001915
# 6 -0.002629 -0.001064 0.000051 0.005558 -0.001915 0.022888
#
#
# Mechanical properties :
#
#
# Convention : Reuss Voigt Hill
#
# Bulk Modulus (GPa) = 39.08273 48.46449 43.77361
# Shear Modulus (GPa) = 37.96080 43.39419 40.67749
#
# Velocity S-wave (km/s) = 3.90514 4.17527 4.04246
# Velocity P-wave (km/s) = 6.00286 6.53556 6.27487
#
# Compressibility (1/GPa) = 0.02558675
#
# Stress axis : x y z
#
# Youngs Moduli (GPa) = 141.43766 69.40460 67.28334
#
# Poissons Ratio (x) = 0.15651 0.12518
# Poissons Ratio (y) = 0.31895 0.08488
# Poissons Ratio (z) = 0.26315 0.08756
#
# Static dielectric constant tensor:
#      x y z
#    x 2.007970 -0.014860 0.010160 
#    y -0.014860 1.955200 -0.014370 
#    z 0.010160 -0.014370 1.992140 
# 
# From -- ./inp_files/447751.got.cif
#   From: 2010.05.17/outbox.cif.g08.bks.cpg/sg2_224_cif.got.tgz:447751.got - 2010.06.03 11:33:40.
