data_PCOD9033264
_publ_section_title
;
Structure prediction by ZEFSAII (Michael W. Deem and Ramdas Pophale) SiO2 
 PCOD9033264
Probable space group: P -1
;
_chemical_formula_sum "Si O2"
_cell_formula_units_Z 16
_cell_length_a 8.981093
_cell_length_b 14.466904
_cell_length_c 7.427726
_cell_angle_alpha 122.109176
_cell_angle_beta 66.460635
_cell_angle_gamma 80.791555
_cell_volume 657.680205
_symmetry_space_group_name_H-M "P -1"
_symmetry_group_IT_number 2
_symmetry_cell_setting 'triclinic'
loop_
_space_group_symop_operation_xyz
x,y,z
-x,-y,-z
loop_
_atom_site_type_symbol
_atom_site_label
_atom_site_fract_x
_atom_site_fract_y
_atom_site_fract_z
Si Si1 0.284709 0.357285 0.772331
Si Si2 0.706180 0.148654 0.368765
Si Si3 0.808027 0.128073 0.713498
Si Si4 0.692384 0.999571 0.914797
Si Si5 0.194427 0.373555 0.242990
Si Si6 0.688998 0.502775 0.412062
Si Si7 0.003594 0.267243 0.664340
Si Si8 0.060277 0.718450 0.677994
O O1 0.497747 0.253961 0.531128
O O2 0.251208 0.475808 0.791551
O O3 0.132609 0.316806 0.742479
O O4 0.264646 0.376260 0.014360
O O5 0.726120 0.136207 0.561885
O O6 0.859938 0.185497 0.264509
O O7 0.735503 0.027365 0.122993
O O8 0.688428 0.109331 0.905556
O O9 0.862992 0.237883 0.817242
O O10 0.000000 0.000000 0.500000
O O11 0.849428 0.868970 0.627392
O O12 0.500000 0.000000 0.000000
O O13 0.321968 0.382710 0.345266
O O14 0.000000 0.500000 0.500000
O O15 0.147347 0.260391 0.166661
O O16 0.500000 0.500000 0.500000
O O17 0.827433 0.380222 0.324882
O O18 0.900936 0.336214 0.601802
#
# Coordination Sequence:
#
# PCOD9033264 Si02
#       8
#     2   2   2   2   2   2   2   2
#     4  12  24  43  72 101 138 183 229 281 346 414
#     4  11  24  43  68 102 134 187 230 277 344 402
#     4   9  23  43  62  95 135 179 228 278 334 398
#     4  11  23  43  69  99 143 176 229 287 339 401
#     4  10  25  45  66 100 132 176 229 284 341 406
#     4  11  23  46  69 100 139 176 226 285 349 403
#     4  10  22  44  67 101 137 182 231 279 339 407
#     4  10  22  44  67  99 137 177 230 281 340 408
#
# _framework density 24.327932000000001
#
# number of rings (size 3 to 8) (size 9 to 14) (size 15 to 20)
#    0.000    1.500    3.750    0.000    1.750    9.500 
#    2.250    0.000    0.000    0.000    0.000    0.000 
#    0.000    0.000    0.000    0.000    0.000    0.000 
#
# Total GULP energy -89506.515184 kJ/mol
# GULP energy per Si atom -5594.157199 kJ/mol
# Density = 2.427256 g / cm^3
# Si number density = 24.327932 Si / 1000 Ang^3
#
#
#
# Elastic Constant Matrix: (Units=GPa)
#
#
# Indices 1 2 3 4 5 6 
#
# 1 180.3699 45.1125 44.1307 -8.6791 11.9551 33.2526
# 2 45.1125 103.3195 28.1852 -30.4667 -9.0890 12.7993
# 3 44.1307 28.1852 97.0976 -21.4081 -0.0758 9.6308
# 4 -8.6791 -30.4667 -21.4081 44.9168 -1.9071 -4.6970
# 5 11.9551 -9.0890 -0.0758 -1.9071 33.6331 -6.2946
# 6 33.2526 12.7993 9.6308 -4.6970 -6.2946 47.7069
#
#
#
# Elastic Compliance Matrix: (Units=1/GPa)
#
#
# Indices 1 2 3 4 5 6 
#
# 1 0.008269 -0.003475 -0.002874 -0.002886 -0.005021 -0.005198
# 2 -0.003475 0.014540 -0.000648 0.009158 0.005741 0.000311
# 3 -0.002874 -0.000648 0.012926 0.005243 0.001219 0.000245
# 4 -0.002886 0.009158 0.005243 0.030898 0.005693 0.002289
# 5 -0.005021 0.005741 0.001219 0.005693 0.034676 0.006849
# 6 -0.005198 0.000311 0.000245 0.002289 0.006849 0.025580
#
#
# Mechanical properties :
#
#
# Convention : Reuss Voigt Hill
#
# Bulk Modulus (GPa) = 45.99934 68.40490 57.20212
# Shear Modulus (GPa) = 33.75406 42.80859 38.28133
#
# Velocity S-wave (km/s) = 3.72891 4.19937 3.97111
# Velocity P-wave (km/s) = 6.12280 7.18970 6.67759
#
# Compressibility (1/GPa) = 0.02173944
#
# Stress axis : x y z
#
# Youngs Moduli (GPa) = 120.93853 68.77620 77.36342
#
# Poissons Ratio (x) = 0.23901 0.22234
# Poissons Ratio (y) = 0.42028 0.05016
# Poissons Ratio (z) = 0.34758 0.04459
#
# Static dielectric constant tensor:
#      x y z
#    x 1.914370 -0.007210 0.003630 
#    y -0.007210 2.001080 0.025210 
#    z 0.003630 0.025210 1.973170 
# 
# From -- ./inp_files/39705.got.cif
#   From: 2010.05.17/outbox.cif.g08.bks.cpg/sg2_20_cif.got.tgz:39705.got - 2010.06.03 11:33:40.
