data_PCOD9033432
_publ_section_title
;
Structure prediction by ZEFSAII (Michael W. Deem and Ramdas Pophale) SiO2 
 PCOD9033432
Probable space group: P -1
;
_chemical_formula_sum "Si O2"
_cell_formula_units_Z 14
_cell_length_a 21.757674
_cell_length_b 5.859626
_cell_length_c 15.429012
_cell_angle_alpha 108.019315
_cell_angle_beta 17.252573
_cell_angle_gamma 112.217783
_cell_volume 530.397163
_symmetry_space_group_name_H-M "P -1"
_symmetry_group_IT_number 2
_symmetry_cell_setting 'triclinic'
loop_
_space_group_symop_operation_xyz
x,y,z
-x,-y,-z
loop_
_atom_site_type_symbol
_atom_site_label
_atom_site_fract_x
_atom_site_fract_y
_atom_site_fract_z
Si Si1 0.348713 0.097998 0.402303
Si Si2 0.742571 0.960206 0.914133
Si Si3 0.620864 0.881321 0.256926
Si Si4 0.035826 0.325245 0.166582
Si Si5 0.201917 0.435329 0.766666
Si Si6 0.473430 0.580004 0.947573
Si Si7 0.063474 0.709796 0.512005
O O1 0.233316 0.183852 0.650826
O O2 0.334537 0.261669 0.355140
O O3 0.602600 0.116226 0.072211
O O4 0.212078 0.809823 0.538104
O O5 0.674435 0.008202 0.108353
O O6 0.637781 0.676603 0.986186
O O7 0.988597 0.943979 0.602173
O O8 0.444478 0.615619 0.443973
O O9 0.500000 0.000000 0.500000
O O10 0.840846 0.882317 0.007311
O O11 0.044287 0.414311 0.265999
O O12 0.154801 0.454843 0.935157
O O13 0.000000 0.500000 0.000000
O O14 0.500000 0.500000 0.000000
O O15 0.314627 0.754628 0.194018
O O16 0.000000 0.500000 0.500000
#
# Coordination Sequence:
#
# PCOD9033432 Si02
#       7
#     2   2   2   2   2   2   2
#     4  12  25  44  73 106 142 188 234 300 359 422
#     4  10  22  44  68 100 141 181 240 292 351 426
#     4  11  22  44  67 101 143 182 231 289 355 430
#     4  11  24  41  69 106 143 182 240 286 358 427
#     4  12  25  43  73 105 144 189 232 297 363 425
#     4  11  24  44  73  99 143 188 242 293 352 421
#     4   9  22  44  68 100 140 192 236 294 346 414
#
# _framework density 26.395313999999999
#
# number of rings (size 3 to 8) (size 9 to 14) (size 15 to 20)
#    0.000    1.143    1.429    4.286    2.000    2.857 
#    0.000    4.286    0.000    0.000    0.000    0.000 
#    0.000    0.000    0.000    0.000    0.000    0.000 
#
# Total GULP energy -78093.757439 kJ/mol
# GULP energy per Si atom -5578.125531 kJ/mol
# Density = 2.633524 g / cm^3
# Si number density = 26.395314 Si / 1000 Ang^3
#
#
#
# Elastic Constant Matrix: (Units=GPa)
#
#
# Indices 1 2 3 4 5 6 
#
# 1 140.5792 25.5269 46.8578 30.5367 17.1832 -29.6128
# 2 25.5269 32.4915 24.8452 9.7199 -0.5642 -4.8474
# 3 46.8578 24.8452 125.0657 24.7921 -4.0189 -14.6676
# 4 30.5367 9.7199 24.7921 39.6791 8.3148 8.5231
# 5 17.1832 -0.5642 -4.0189 8.3148 55.2424 0.0025
# 6 -29.6128 -4.8474 -14.6676 8.5231 0.0025 54.3104
#
#
#
# Elastic Compliance Matrix: (Units=1/GPa)
#
#
# Indices 1 2 3 4 5 6 
#
# 1 0.012027 -0.005115 -0.001097 -0.008295 -0.002625 0.007107
# 2 -0.005115 0.039753 -0.005390 -0.002804 0.002027 -0.000256
# 3 -0.001097 -0.005390 0.011000 -0.005715 0.001947 0.002789
# 4 -0.008295 -0.002804 -0.005715 0.039318 -0.003782 -0.012487
# 5 -0.002625 0.002027 0.001947 -0.003782 0.019650 -0.000132
# 6 0.007107 -0.000256 0.002789 -0.012487 -0.000132 0.024978
#
#
# Mechanical properties :
#
#
# Convention : Reuss Voigt Hill
#
# Bulk Modulus (GPa) = 25.26694 54.73290 39.99992
# Shear Modulus (GPa) = 27.30427 43.24015 35.27221
#
# Velocity S-wave (km/s) = 3.21975 4.05183 3.65952
# Velocity P-wave (km/s) = 4.83898 6.53227 5.74832
#
# Compressibility (1/GPa) = 0.03957741
#
# Stress axis : x y z
#
# Youngs Moduli (GPa) = 83.14303 25.15545 90.90846
#
# Poissons Ratio (x) = 0.12866 0.09971
# Poissons Ratio (y) = 0.42524 0.49000
# Poissons Ratio (z) = 0.09119 0.13559
#
# Static dielectric constant tensor:
#      x y z
#    x 2.156260 0.092890 -0.072730 
#    y 0.092890 2.208060 -0.033630 
#    z -0.072730 -0.033630 2.069680 
# 
# From -- ./inp_files/53043.got.cif
#   From: 2010.05.17/outbox.cif.g08.bks.cpg/sg2_27_cif.got.tgz:53043.got - 2010.06.03 11:33:40.
