data_PCOD9033642
_publ_section_title
;
Structure prediction by ZEFSAII (Michael W. Deem and Ramdas Pophale) SiO2 
 PCOD9033642
Probable space group: P -1
;
_chemical_formula_sum "Si O2"
_cell_formula_units_Z 12
_cell_length_a 11.588043
_cell_length_b 8.093090
_cell_length_c 5.642644
_cell_angle_alpha 72.586143
_cell_angle_beta 79.163165
_cell_angle_gamma 113.521633
_cell_volume 433.446684
_symmetry_space_group_name_H-M "P -1"
_symmetry_group_IT_number 2
_symmetry_cell_setting 'triclinic'
loop_
_space_group_symop_operation_xyz
x,y,z
-x,-y,-z
loop_
_atom_site_type_symbol
_atom_site_label
_atom_site_fract_x
_atom_site_fract_y
_atom_site_fract_z
Si Si1 0.706733 0.856413 0.285286
Si Si2 0.763828 0.412926 0.037786
Si Si3 0.115689 0.220793 0.414152
Si Si4 0.902862 0.220546 0.790032
Si Si5 0.501454 0.313973 0.949027
Si Si6 0.326965 0.888253 0.444687
O O1 0.757092 0.778849 0.516370
O O2 0.661260 0.004126 0.355230
O O3 0.582235 0.706197 0.245733
O O4 0.837722 0.000091 0.019752
O O5 0.842769 0.648958 0.894003
O O6 0.871307 0.345982 0.940187
O O7 0.654062 0.356279 0.893128
O O8 0.682487 0.311303 0.352663
O O9 0.051470 0.302841 0.599842
O O10 0.000000 0.000000 0.500000
O O11 0.813179 0.192420 0.603524
O O12 0.425052 0.082929 0.171675
O O13 0.500000 0.500000 0.000000
#
# Coordination Sequence:
#
# PCOD9033642 Si02
#       6
#     2   2   2   2   2   2
#     4  10  23  44  73 100 137 180 230 285 342 402
#     4  11  26  43  68 104 137 184 226 284 345 408
#     4  12  24  45  73  99 141 184 231 283 338 407
#     4  10  23  45  68 103 137 182 227 281 345 407
#     4  11  25  44  73 103 139 179 231 285 347 408
#     4  10  22  44  69 101 139 178 226 282 347 408
#
# _framework density 27.685064000000001
#
# number of rings (size 3 to 8) (size 9 to 14) (size 15 to 20)
#    0.000    1.333    1.667    2.500    2.333   12.000 
#    3.000    0.000    0.000    0.000    0.000    0.000 
#    0.000    0.000    0.000    0.000    0.000    0.000 
#
# Total GULP energy -67108.036918 kJ/mol
# GULP energy per Si atom -5592.336410 kJ/mol
# Density = 2.762205 g / cm^3
# Si number density = 27.685064 Si / 1000 Ang^3
#
#
#
# Elastic Constant Matrix: (Units=GPa)
#
#
# Indices 1 2 3 4 5 6 
#
# 1 93.0299 28.5758 20.4908 -10.5484 2.2585 -6.9870
# 2 28.5758 110.5829 57.6979 -16.5964 8.9651 8.9505
# 3 20.4908 57.6979 142.4438 -49.3612 14.2869 4.5084
# 4 -10.5484 -16.5964 -49.3612 59.1229 6.6539 3.4476
# 5 2.2585 8.9651 14.2869 6.6539 38.9765 3.4281
# 6 -6.9870 8.9505 4.5084 3.4476 3.4281 37.7750
#
#
#
# Elastic Compliance Matrix: (Units=1/GPa)
#
#
# Indices 1 2 3 4 5 6 
#
# 1 0.012079 -0.003074 -0.000210 0.000985 -0.000342 0.002929
# 2 -0.003074 0.012463 -0.004723 -0.000762 -0.000578 -0.002836
# 3 -0.000210 -0.004723 0.013064 0.010200 -0.005350 -0.000924
# 4 0.000985 -0.000762 0.010200 0.026430 -0.007908 -0.002549
# 5 -0.000342 -0.000578 -0.005350 -0.007908 0.029228 -0.001218
# 6 0.002929 -0.002836 -0.000924 -0.002549 -0.001218 0.028140
#
#
# Mechanical properties :
#
#
# Convention : Reuss Voigt Hill
#
# Bulk Modulus (GPa) = 46.30765 62.17615 54.24190
# Shear Modulus (GPa) = 34.57477 43.12768 38.85123
#
# Velocity S-wave (km/s) = 3.53776 3.95117 3.75017
# Velocity P-wave (km/s) = 5.78364 6.58201 6.19570
#
# Compressibility (1/GPa) = 0.02159471
#
# Stress axis : x y z
#
# Youngs Moduli (GPa) = 82.78512 80.23562 76.54718
#
# Poissons Ratio (x) = 0.24660 0.01606
# Poissons Ratio (y) = 0.25444 0.36150
# Poissons Ratio (z) = 0.01737 0.37892
#
# Static dielectric constant tensor:
#      x y z
#    x 2.096220 -0.081330 -0.040810 
#    y -0.081330 2.233460 -0.080320 
#    z -0.040810 -0.080320 2.254500 
# 
# From -- ./inp_files/21645.got.cif
#   From: 2010.05.17/outbox.cif.g08.bks.cpg/sg2_11_cif.got.tgz:21645.got - 2010.06.03 11:33:40.
