data_PCOD9033793
_publ_section_title
;
Structure prediction by ZEFSAII (Michael W. Deem and Ramdas Pophale) SiO2 
 PCOD9033793
Probable space group: P -1
;
_chemical_formula_sum "Si O2"
_cell_formula_units_Z 12
_cell_length_a 15.117405
_cell_length_b 13.979814
_cell_length_c 11.533093
_cell_angle_alpha 32.518316
_cell_angle_beta 24.517100
_cell_angle_gamma 29.282362
_cell_volume 479.679710
_symmetry_space_group_name_H-M "P -1"
_symmetry_group_IT_number 2
_symmetry_cell_setting 'triclinic'
loop_
_space_group_symop_operation_xyz
x,y,z
-x,-y,-z
loop_
_atom_site_type_symbol
_atom_site_label
_atom_site_fract_x
_atom_site_fract_y
_atom_site_fract_z
Si Si1 0.288640 0.906055 0.022346
Si Si2 0.907062 0.221504 0.011581
Si Si3 0.308063 0.434350 0.244414
Si Si4 0.760635 0.461476 0.184631
Si Si5 0.952522 0.328282 0.333602
Si Si6 0.601631 0.750576 0.434568
O O1 0.114449 0.835534 0.366488
O O2 0.543030 0.717846 0.879498
O O3 0.144302 0.014084 0.966561
O O4 0.349336 0.067428 0.846436
O O5 0.831262 0.347954 0.094097
O O6 0.680666 0.180694 0.298777
O O7 0.905056 0.363973 0.762736
O O8 0.282107 0.319310 0.504141
O O9 0.500000 0.500000 0.000000
O O10 0.500000 0.500000 0.500000
O O11 0.934240 0.327114 0.218697
O O12 0.810246 0.655565 0.925257
O O13 0.736215 0.545920 0.409960
#
# Coordination Sequence:
#
# PCOD9033793 Si02
#       6
#     2   2   2   2   2   2
#     4  12  24  44  70 103 137 181 224 276 343 401
#     4  11  24  42  72 103 131 187 230 266 348 401
#     4  10  22  44  69  99 144 176 220 286 326 401
#     4  11  22  45  73  94 136 182 222 284 342 393
#     4  11  24  44  70  98 140 174 222 293 329 391
#     4  11  23  46  66 103 142 173 229 279 331 405
#
# _framework density 25.016693
#
# number of rings (size 3 to 8) (size 9 to 14) (size 15 to 20)
#    0.000    1.000    6.667    0.500    0.000    6.667 
#    0.000    1.667    0.000    0.000    0.000    0.000 
#    0.000    0.000    0.000    0.000    0.000    0.000 
#
# Total GULP energy -67132.384277 kJ/mol
# GULP energy per Si atom -5594.365356 kJ/mol
# Density = 2.495975 g / cm^3
# Si number density = 25.016693 Si / 1000 Ang^3
#
#
#
# Elastic Constant Matrix: (Units=GPa)
#
#
# Indices 1 2 3 4 5 6 
#
# 1 109.4724 11.6917 20.8945 -16.2898 -0.2366 2.7820
# 2 11.6917 56.7219 20.7274 -11.4608 -4.1871 -8.2900
# 3 20.8945 20.7274 186.5227 -31.8106 -12.8643 15.9587
# 4 -16.2898 -11.4608 -31.8106 47.0040 -0.8445 -1.2046
# 5 -0.2366 -4.1871 -12.8643 -0.8445 42.7619 0.2761
# 6 2.7820 -8.2900 15.9587 -1.2046 0.2761 38.7522
#
#
#
# Elastic Compliance Matrix: (Units=1/GPa)
#
#
# Indices 1 2 3 4 5 6 
#
# 1 0.009794 -0.001434 -0.000417 0.002741 -0.000153 -0.000752
# 2 -0.001434 0.020154 -0.001866 0.003315 0.001436 0.005276
# 3 -0.000417 -0.001866 0.006664 0.003868 0.001916 -0.003007
# 4 0.002741 0.003315 0.003868 0.025679 0.002013 -0.000297
# 5 -0.000153 0.001436 0.001916 0.002013 0.024145 -0.000580
# 6 -0.000752 0.005276 -0.003007 -0.000297 -0.000580 0.028221
#
#
# Mechanical properties :
#
#
# Convention : Reuss Voigt Hill
#
# Bulk Modulus (GPa) = 34.27045 51.03823 42.65434
# Shear Modulus (GPa) = 37.93130 45.66384 41.79757
#
# Velocity S-wave (km/s) = 3.89812 4.27703 4.09196
# Velocity P-wave (km/s) = 5.83002 6.69601 6.27797
#
# Compressibility (1/GPa) = 0.02917966
#
# Stress axis : x y z
#
# Youngs Moduli (GPa) = 102.10355 49.61744 150.05042
#
# Poissons Ratio (x) = 0.07115 0.06250
# Poissons Ratio (y) = 0.14641 0.27999
# Poissons Ratio (z) = 0.04253 0.09258
#
# Static dielectric constant tensor:
#      x y z
#    x 2.005000 -0.005120 -0.019680 
#    y -0.005120 1.991820 0.053710 
#    z -0.019680 0.053710 2.134640 
# 
# From -- ./inp_files/343340.got.cif
#   From: 2010.05.17/outbox.cif.g08.bks.cpg/sg2_172_cif.got.tgz:343340.got - 2010.06.03 11:33:40.
