data_PCOD9033578
_publ_section_title
;
Structure prediction by ZEFSAII (Michael W. Deem and Ramdas Pophale) SiO2 
 PCOD9033578
Probable space group: P -1
;
_chemical_formula_sum "Si O2"
_cell_formula_units_Z 14
_cell_length_a 5.287965
_cell_length_b 11.042545
_cell_length_c 12.149274
_cell_angle_alpha 70.813773
_cell_angle_beta 88.133463
_cell_angle_gamma 119.493780
_cell_volume 566.657765
_symmetry_space_group_name_H-M "P -1"
_symmetry_group_IT_number 2
_symmetry_cell_setting 'triclinic'
loop_
_space_group_symop_operation_xyz
x,y,z
-x,-y,-z
loop_
_atom_site_type_symbol
_atom_site_label
_atom_site_fract_x
_atom_site_fract_y
_atom_site_fract_z
Si Si1 0.043617 0.152223 0.060876
Si Si2 0.863770 0.622672 0.585732
Si Si3 0.024631 0.848210 0.176777
Si Si4 0.640089 0.398196 0.049496
Si Si5 0.596935 0.095313 0.636430
Si Si6 0.538044 0.670880 0.399635
Si Si7 0.205639 0.762037 0.749716
O O1 0.407401 0.253156 0.022602
O O2 0.927785 0.201007 0.152701
O O3 0.926617 0.181208 0.940215
O O4 0.952742 0.979889 0.125494
O O5 0.581730 0.615306 0.533840
O O6 0.786211 0.454890 0.605614
O O7 0.128069 0.769325 0.474972
O O8 0.943533 0.657862 0.700342
O O9 0.759434 0.701564 0.285914
O O10 0.294351 0.907489 0.240763
O O11 0.623786 0.319870 0.189947
O O12 0.500000 0.500000 0.000000
O O13 0.000000 0.500000 0.000000
O O14 0.385981 0.161161 0.626587
O O15 0.439151 0.925950 0.645410
#
# Coordination Sequence:
#
# PCOD9033578 Si02
#       7
#     2   2   2   2   2   2   2
#     4  11  24  44  68 103 145 191 250 298 371 442
#     4  10  25  43  67 103 142 187 247 307 372 438
#     4  10  23  41  69 100 139 193 243 307 361 450
#     4  12  27  47  70 106 152 192 243 302 376 443
#     4  11  22  43  70 103 139 190 251 302 369 441
#     4  10  22  44  68  97 141 189 247 300 374 438
#     4  12  25  44  73 107 147 194 244 308 375 441
#
# _framework density 24.706268999999999
#
# number of rings (size 3 to 8) (size 9 to 14) (size 15 to 20)
#    0.000    1.143    4.286    0.857    2.000    4.571 
#    0.000    0.000    0.000    0.000    0.000    0.000 
#    0.000    0.000    0.000    0.000    0.000    0.000 
#
# Total GULP energy -78117.467884 kJ/mol
# GULP energy per Si atom -5579.819135 kJ/mol
# Density = 2.465004 g / cm^3
# Si number density = 24.706269 Si / 1000 Ang^3
#
#
#
# Elastic Constant Matrix: (Units=GPa)
#
#
# Indices 1 2 3 4 5 6 
#
# 1 73.9226 22.2928 29.6303 -0.2249 10.4869 -0.0182
# 2 22.2928 135.9880 44.6959 -9.9741 7.1801 16.9301
# 3 29.6303 44.6959 105.4229 13.5108 26.8961 -15.3031
# 4 -0.2249 -9.9741 13.5108 58.6479 9.9475 6.3257
# 5 10.4869 7.1801 26.8961 9.9475 32.5375 -10.1910
# 6 -0.0182 16.9301 -15.3031 6.3257 -10.1910 31.1957
#
#
#
# Elastic Compliance Matrix: (Units=1/GPa)
#
#
# Indices 1 2 3 4 5 6 
#
# 1 0.015774 -0.000582 -0.004065 0.001747 -0.003078 -0.003028
# 2 -0.000582 0.011369 -0.006368 0.004915 -0.001987 -0.010940
# 3 -0.004065 -0.006368 0.017229 -0.005115 -0.006583 0.010792
# 4 0.001747 0.004915 -0.005115 0.021716 -0.007863 -0.012148
# 5 -0.003078 -0.001987 -0.006583 -0.007863 0.044375 0.013938
# 6 -0.003028 -0.010940 0.010792 -0.012148 0.013938 0.050302
#
#
# Mechanical properties :
#
#
# Convention : Reuss Voigt Hill
#
# Bulk Modulus (GPa) = 44.75647 56.50792 50.63220
# Shear Modulus (GPa) = 26.28232 39.05720 32.66976
#
# Velocity S-wave (km/s) = 3.26512 3.98032 3.64033
# Velocity P-wave (km/s) = 5.68941 6.63668 6.18122
#
# Compressibility (1/GPa) = 0.02234314
#
# Stress axis : x y z
#
# Youngs Moduli (GPa) = 63.39660 87.95609 58.04072
#
# Poissons Ratio (x) = 0.05121 0.23592
# Poissons Ratio (y) = 0.03691 0.36958
# Poissons Ratio (z) = 0.25769 0.56007
#
# Static dielectric constant tensor:
#      x y z
#    x 2.105260 -0.025400 -0.062080 
#    y -0.025400 2.028710 -0.075210 
#    z -0.062080 -0.075210 1.996600 
# 
# From -- ./inp_files/70511.got.cif
#   From: 2010.05.17/outbox.cif.g08.bks.cpg/sg2_36_cif.got.tgz:70511.got - 2010.06.03 11:33:40.
