data_PCOD9033138
_publ_section_title
;
Structure prediction by ZEFSAII (Michael W. Deem and Ramdas Pophale) SiO2 
 PCOD9033138
Probable space group: P -1
;
_chemical_formula_sum "Si O2"
_cell_formula_units_Z 15
_cell_length_a 8.757994
_cell_length_b 9.452530
_cell_length_c 7.324895
_cell_angle_alpha 92.530357
_cell_angle_beta 101.012730
_cell_angle_gamma 83.323164
_cell_volume 591.039363
_symmetry_space_group_name_H-M "P -1"
_symmetry_group_IT_number 2
_symmetry_cell_setting 'triclinic'
loop_
_space_group_symop_operation_xyz
x,y,z
-x,-y,-z
loop_
_atom_site_type_symbol
_atom_site_label
_atom_site_fract_x
_atom_site_fract_y
_atom_site_fract_z
Si Si1 0.743296 0.065655 0.868974
Si Si2 0.500000 0.000000 0.500000
Si Si3 0.163046 0.236121 0.063553
Si Si4 0.040979 0.847819 0.402244
Si Si5 0.764801 0.736139 0.501739
Si Si6 0.740338 0.412578 0.379689
Si Si7 0.180019 0.650619 0.007637
Si Si8 0.581122 0.569331 0.852443
O O1 0.868326 0.107479 0.751451
O O2 0.597705 0.025690 0.716007
O O3 0.813520 0.929267 0.990104
O O4 0.732003 0.207743 0.994434
O O5 0.611231 0.848115 0.480477
O O6 0.151861 0.241482 0.283557
O O7 0.320839 0.304295 0.060010
O O8 0.999388 0.319625 0.972280
O O9 0.162791 0.725584 0.517304
O O10 0.877684 0.779862 0.369252
O O11 0.000000 0.000000 0.500000
O O12 0.744310 0.570248 0.470526
O O13 0.810646 0.422664 0.191572
O O14 0.557148 0.388753 0.317371
O O15 0.282161 0.555630 0.173327
O O16 0.500000 0.500000 0.000000
#
# Coordination Sequence:
#
# PCOD9033138 Si02
#       8
#     2   1   2   2   2   2   2   2
#     4  11  25  41  72 104 137 185 229 288 352 414
#     4  10  22  44  66 102 142 174 236 278 346 416
#     4  11  23  42  68  98 138 181 241 283 346 418
#     4  12  23  44  69 108 143 180 235 290 351 415
#     4  11  24  42  71 104 139 188 229 291 351 407
#     4  11  25  45  70 102 148 181 237 288 351 417
#     4  11  23  46  67 101 141 186 232 282 350 423
#     4  10  25  43  64  96 137 183 228 289 348 406
#
# _framework density 25.379020000000001
#
# number of rings (size 3 to 8) (size 9 to 14) (size 15 to 20)
#    0.000    1.067    4.000    2.000    5.600    2.667 
#    0.000    2.667    0.000    0.000    0.000    0.000 
#    0.000    0.000    0.000    0.000    0.000    0.000 
#
# Total GULP energy -83670.196017 kJ/mol
# GULP energy per Si atom -5578.013068 kJ/mol
# Density = 2.532126 g / cm^3
# Si number density = 25.379020 Si / 1000 Ang^3
#
#
#
# Elastic Constant Matrix: (Units=GPa)
#
#
# Indices 1 2 3 4 5 6 
#
# 1 101.0316 73.8832 23.3097 -34.2274 18.9849 -10.0091
# 2 73.8832 215.8489 36.8256 -13.2584 22.6704 -20.7131
# 3 23.3097 36.8256 38.9445 -5.9361 1.2165 -10.2039
# 4 -34.2274 -13.2584 -5.9361 42.5877 -1.2284 -0.7483
# 5 18.9849 22.6704 1.2165 -1.2284 44.7719 -12.7818
# 6 -10.0091 -20.7131 -10.2039 -0.7483 -12.7818 49.4682
#
#
#
# Elastic Compliance Matrix: (Units=1/GPa)
#
#
# Indices 1 2 3 4 5 6 
#
# 1 0.020328 -0.004551 -0.005618 0.013964 -0.005851 -0.000252
# 2 -0.004551 0.006945 -0.003904 -0.002063 -0.001305 0.000814
# 3 -0.005618 -0.003904 0.033900 -0.000765 0.004986 0.005498
# 4 0.013964 -0.002063 -0.000765 0.033878 -0.003525 0.001405
# 5 -0.005851 -0.001305 0.004986 -0.003525 0.027023 0.006227
# 6 -0.000252 0.000814 0.005498 0.001405 0.006227 0.023269
#
#
# Mechanical properties :
#
#
# Convention : Reuss Voigt Hill
#
# Bulk Modulus (GPa) = 30.27879 69.31801 49.79840
# Shear Modulus (GPa) = 27.10070 42.15269 34.62669
#
# Velocity S-wave (km/s) = 3.27133 4.07987 3.69776
# Velocity P-wave (km/s) = 5.12106 7.04032 6.15595
#
# Compressibility (1/GPa) = 0.03302642
#
# Stress axis : x y z
#
# Youngs Moduli (GPa) = 49.19400 143.98446 29.49887
#
# Poissons Ratio (x) = 0.65534 0.16572
# Poissons Ratio (y) = 0.22390 0.11515
# Poissons Ratio (z) = 0.27637 0.56207
#
# Static dielectric constant tensor:
#      x y z
#    x 2.009780 -0.019060 0.000180 
#    y -0.019060 2.036540 -0.004310 
#    z 0.000180 -0.004310 2.026680 
# 
# From -- ./inp_files/154919.got.cif
#   From: 2010.05.17/outbox.cif.g08.bks.cpg/sg2_78_cif.got.tgz:154919.got - 2010.06.03 11:33:40.
