data_PCOD9033389
_publ_section_title
;
Structure prediction by ZEFSAII (Michael W. Deem and Ramdas Pophale) SiO2 
 PCOD9033389
Probable space group: P -1
;
_chemical_formula_sum "Si O2"
_cell_formula_units_Z 16
_cell_length_a 13.842173
_cell_length_b 11.926987
_cell_length_c 5.824844
_cell_angle_alpha 64.934811
_cell_angle_beta 94.926393
_cell_angle_gamma 131.634833
_cell_volume 623.288239
_symmetry_space_group_name_H-M "P -1"
_symmetry_group_IT_number 2
_symmetry_cell_setting 'triclinic'
loop_
_space_group_symop_operation_xyz
x,y,z
-x,-y,-z
loop_
_atom_site_type_symbol
_atom_site_label
_atom_site_fract_x
_atom_site_fract_y
_atom_site_fract_z
Si Si1 0.997479 0.346445 0.359551
Si Si2 0.927329 0.808872 0.693054
Si Si3 0.590612 0.777639 0.683453
Si Si4 0.686040 0.523934 0.172814
Si Si5 0.602402 0.020782 0.169803
Si Si6 0.786122 0.361935 0.166367
Si Si7 0.732383 0.729046 0.392127
Si Si8 0.197598 0.958706 0.106685
O O1 0.897278 0.372672 0.293587
O O2 0.975918 0.222989 0.261645
O O3 0.942778 0.223434 0.675497
O O4 0.144181 0.525401 0.153732
O O5 0.834160 0.718444 0.525749
O O6 0.819416 0.714753 0.952267
O O7 0.000000 0.000000 0.500000
O O8 0.447089 0.604065 0.902858
O O9 0.657793 0.730832 0.584427
O O10 0.699139 0.922873 0.762037
O O11 0.550213 0.853409 0.437803
O O12 0.744305 0.436704 0.257580
O O13 0.642896 0.567233 0.343845
O O14 0.658979 0.167589 0.238375
O O15 0.500000 0.000000 0.000000
O O16 0.726666 0.075290 0.002244
O O17 0.808670 0.913213 0.128316
#
# Coordination Sequence:
#
# PCOD9033389 Si02
#       8
#     2   2   2   2   2   2   2   2
#     4  10  22  44  67  98 134 182 224 280 339 397
#     4  11  25  45  69  97 139 174 232 292 336 401
#     4  11  24  44  69  99 142 173 229 288 335 411
#     4  11  25  43  70  99 135 187 218 282 354 397
#     4  11  25  42  68 104 137 180 231 276 340 418
#     4  10  23  45  68  99 143 175 230 284 332 410
#     4  11  25  44  68 102 132 176 236 278 342 413
#     4  11  24  43  73  98 134 187 221 281 351 391
#
# _framework density 25.670309
#
# number of rings (size 3 to 8) (size 9 to 14) (size 15 to 20)
#    0.000    1.250    1.250    3.375    3.500    9.500 
#    4.500    0.000    0.000    0.000    0.000    0.000 
#    0.000    0.000    0.000    0.000    0.000    0.000 
#
# Total GULP energy -89459.896213 kJ/mol
# GULP energy per Si atom -5591.243513 kJ/mol
# Density = 2.561188 g / cm^3
# Si number density = 25.670309 Si / 1000 Ang^3
#
#
#
# Elastic Constant Matrix: (Units=GPa)
#
#
# Indices 1 2 3 4 5 6 
#
# 1 123.6897 24.4863 35.4661 -11.3009 5.9330 -32.3303
# 2 24.4863 80.9188 3.3146 -12.8930 -1.1212 -28.9238
# 3 35.4661 3.3146 59.6789 -11.6199 -4.4000 -9.4669
# 4 -11.3009 -12.8930 -11.6199 33.7141 4.6485 0.4985
# 5 5.9330 -1.1212 -4.4000 4.6485 42.4937 -1.3540
# 6 -32.3303 -28.9238 -9.4669 0.4985 -1.3540 46.6068
#
#
#
# Elastic Compliance Matrix: (Units=1/GPa)
#
#
# Indices 1 2 3 4 5 6 
#
# 1 0.011877 -0.000757 -0.005778 0.001918 -0.002279 0.006509
# 2 -0.000757 0.017473 0.002604 0.007111 0.000402 0.010783
# 3 -0.005778 0.002604 0.021757 0.006181 0.002517 0.002034
# 4 0.001918 0.007111 0.006181 0.035487 -0.003114 0.006529
# 5 -0.002279 0.000402 0.002517 -0.003114 0.024461 -0.000076
# 6 0.006509 0.010783 0.002034 0.006529 -0.000076 0.033005
#
#
# Mechanical properties :
#
#
# Convention : Reuss Voigt Hill
#
# Bulk Modulus (GPa) = 23.12358 43.42459 33.27408
# Shear Modulus (GPa) = 30.05932 37.96428 34.01180
#
# Velocity S-wave (km/s) = 3.42567 3.84984 3.64393
# Velocity P-wave (km/s) = 4.96733 6.05927 5.54027
#
# Compressibility (1/GPa) = 0.04324590
#
# Stress axis : x y z
#
# Youngs Moduli (GPa) = 84.19368 57.22961 45.96135
#
# Poissons Ratio (x) = 0.04331 0.26559
# Poissons Ratio (y) = 0.06372 -0.11969
# Poissons Ratio (z) = 0.48651 -0.14903
#
# Static dielectric constant tensor:
#      x y z
#    x 2.001010 0.047650 0.015870 
#    y 0.047650 2.009870 -0.007620 
#    z 0.015870 -0.007620 2.089270 
# 
# From -- ./inp_files/94647.got.cif
#   From: 2010.05.17/outbox.cif.g08.bks.cpg/sg2_48_cif.got.tgz:94647.got - 2010.06.03 11:33:40.
