data_PCOD9033037
_publ_section_title
;
Structure prediction by ZEFSAII (Michael W. Deem and Ramdas Pophale) SiO2 
 PCOD9033037
Probable space group: P -1
;
_chemical_formula_sum "Si O2"
_cell_formula_units_Z 16
_cell_length_a 6.977632
_cell_length_b 22.444909
_cell_length_c 15.658047
_cell_angle_alpha 21.361480
_cell_angle_beta 99.129903
_cell_angle_gamma 88.051855
_cell_volume 760.980617
_symmetry_space_group_name_H-M "P -1"
_symmetry_group_IT_number 2
_symmetry_cell_setting 'triclinic'
loop_
_space_group_symop_operation_xyz
x,y,z
-x,-y,-z
loop_
_atom_site_type_symbol
_atom_site_label
_atom_site_fract_x
_atom_site_fract_y
_atom_site_fract_z
Si Si1 0.478242 0.508496 0.130613
Si Si2 0.880212 0.407335 0.872246
Si Si3 0.615093 0.208893 0.405219
Si Si4 0.919480 0.365393 0.631750
Si Si5 0.394612 0.116311 0.250767
Si Si6 0.978892 0.295366 0.529863
Si Si7 0.076280 0.979789 0.825747
Si Si8 0.567126 0.315107 0.871848
O O1 0.249313 0.610200 0.032136
O O2 0.489452 0.335290 0.309241
O O3 0.713229 0.415293 0.324128
O O4 0.470128 0.655305 0.864330
O O5 0.734117 0.390751 0.808329
O O6 0.889872 0.597375 0.631826
O O7 0.135061 0.253087 0.074412
O O8 0.582286 0.034229 0.617119
O O9 0.879817 0.126129 0.553258
O O10 0.994837 0.297001 0.631127
O O11 0.652695 0.506323 0.419003
O O12 0.000000 0.500000 0.500000
O O13 0.986960 0.176621 0.940742
O O14 0.500000 0.000000 0.500000
O O15 0.499974 0.233035 0.059313
O O16 0.077900 0.097341 0.751095
O O17 0.308085 0.857227 0.955534
#
# Coordination Sequence:
#
# PCOD9033037 Si02
#       8
#     2   2   2   2   2   2   2   2
#     4  10  23  43  70  97 142 177 218 282 345 408
#     4  12  22  43  69  99 134 181 221 277 342 402
#     4  10  22  44  65 102 138 177 223 279 339 405
#     4  12  24  48  72  96 138 176 227 289 340 397
#     4  12  25  40  68 103 139 179 233 279 332 405
#     4  11  24  46  68 104 135 173 229 280 343 405
#     4  11  25  43  70  99 136 180 227 279 339 406
#     4  12  25  45  67  99 135 177 230 279 340 404
#
# _framework density 21.025501999999999
#
# number of rings (size 3 to 8) (size 9 to 14) (size 15 to 20)
#    0.000    0.750    3.750    3.750    3.500    1.000 
#    0.000    3.750    0.000    0.000    0.000    0.000 
#    0.000    0.000    0.000    0.000    0.000    0.000 
#
# Total GULP energy -89373.266196 kJ/mol
# GULP energy per Si atom -5585.829137 kJ/mol
# Density = 2.097765 g / cm^3
# Si number density = 21.025502 Si / 1000 Ang^3
#
#
#
# Elastic Constant Matrix: (Units=GPa)
#
#
# Indices 1 2 3 4 5 6 
#
# 1 92.9594 42.0936 23.3052 -9.8102 -3.4526 8.8586
# 2 42.0936 125.0658 39.1648 -26.5571 -8.8853 5.5855
# 3 23.3052 39.1648 78.1145 -20.8624 1.5320 9.2814
# 4 -9.8102 -26.5571 -20.8624 50.4279 5.4074 -6.3219
# 5 -3.4526 -8.8853 1.5320 5.4074 26.1691 -5.6640
# 6 8.8586 5.5855 9.2814 -6.3219 -5.6640 30.9970
#
#
#
# Elastic Compliance Matrix: (Units=1/GPa)
#
#
# Indices 1 2 3 4 5 6 
#
# 1 0.013153 -0.003849 -0.001836 -0.000565 0.000087 -0.002615
# 2 -0.003849 0.011409 -0.003878 0.003501 0.003195 0.001503
# 3 -0.001836 -0.003878 0.017066 0.004657 -0.004327 -0.003727
# 4 -0.000565 0.003501 0.004657 0.024182 -0.003635 0.002404
# 5 0.000087 0.003195 -0.004327 -0.003635 0.041963 0.007622
# 6 -0.002615 0.001503 -0.003727 0.002404 0.007622 0.035737
#
#
# Mechanical properties :
#
#
# Convention : Reuss Voigt Hill
#
# Bulk Modulus (GPa) = 44.44243 56.14076 50.29160
# Shear Modulus (GPa) = 29.38802 34.29053 31.83927
#
# Velocity S-wave (km/s) = 3.74268 4.04282 3.89564
# Velocity P-wave (km/s) = 6.31349 6.96791 6.64876
#
# Compressibility (1/GPa) = 0.02250102
#
# Stress axis : x y z
#
# Youngs Moduli (GPa) = 76.02547 87.65029 58.59764
#
# Poissons Ratio (x) = 0.33737 0.10761
# Poissons Ratio (y) = 0.29263 0.22725
# Poissons Ratio (z) = 0.13961 0.33991
#
# Static dielectric constant tensor:
#      x y z
#    x 1.707360 -0.026140 -0.033370 
#    y -0.026140 1.796670 -0.013990 
#    z -0.033370 -0.013990 1.720750 
# 
# From -- ./inp_files/126476.got.cif
#   From: 2010.05.17/outbox.cif.g08.bks.cpg/sg2_64_cif.got.tgz:126476.got - 2010.06.03 11:33:40.
