data_PCOD9033237
_publ_section_title
;
Structure prediction by ZEFSAII (Michael W. Deem and Ramdas Pophale) SiO2 
 PCOD9033237
Probable space group: P -1
;
_chemical_formula_sum "Si O2"
_cell_formula_units_Z 16
_cell_length_a 8.619394
_cell_length_b 9.124974
_cell_length_c 12.000514
_cell_angle_alpha 70.622970
_cell_angle_beta 68.228588
_cell_angle_gamma 116.978839
_cell_volume 622.437960
_symmetry_space_group_name_H-M "P -1"
_symmetry_group_IT_number 2
_symmetry_cell_setting 'triclinic'
loop_
_space_group_symop_operation_xyz
x,y,z
-x,-y,-z
loop_
_atom_site_type_symbol
_atom_site_label
_atom_site_fract_x
_atom_site_fract_y
_atom_site_fract_z
Si Si1 0.708389 0.532396 0.384280
Si Si2 0.880803 0.305762 0.397562
Si Si3 0.395370 0.843694 0.898768
Si Si4 0.135267 0.134006 0.601959
Si Si5 0.352357 0.713590 0.196492
Si Si6 0.784195 0.762237 0.086708
Si Si7 0.700635 0.873483 0.653146
Si Si8 0.068589 0.803244 0.829394
O O1 0.500000 0.500000 0.500000
O O2 0.720899 0.356454 0.435383
O O3 0.897851 0.724390 0.364167
O O4 0.763513 0.622062 0.223614
O O5 0.768219 0.084187 0.534073
O O6 0.928343 0.297554 0.256749
O O7 0.117413 0.491759 0.342999
O O8 0.192731 0.793930 0.898701
O O9 0.581614 0.091881 0.802342
O O10 0.492816 0.769244 0.813130
O O11 0.338521 0.754448 0.060060
O O12 0.904498 0.940596 0.656795
O O13 0.305930 0.235778 0.427739
O O14 0.194148 0.038618 0.699923
O O15 0.561301 0.726843 0.151333
O O16 0.838141 0.720302 0.963338
O O17 0.000000 0.000000 0.000000
#
# Coordination Sequence:
#
# PCOD9033237 Si02
#       8
#     2   2   2   2   2   2   2   2
#     4  12  28  43  68 106 142 179 225 292 346 409
#     4  11  28  45  68 106 146 177 230 295 350 395
#     4  11  23  40  72  99 136 187 234 274 344 417
#     4  10  22  44  66  98 138 182 234 268 346 410
#     4  11  25  43  68 106 135 182 232 290 342 412
#     4  12  24  46  73  97 135 188 231 279 342 421
#     4  10  24  42  71  96 138 186 227 285 335 419
#     4  11  24  46  74 101 137 186 235 283 339 416
#
# _framework density 25.705373000000002
#
# number of rings (size 3 to 8) (size 9 to 14) (size 15 to 20)
#    0.000    1.000    2.500    2.250    8.750    4.500 
#    0.000    0.000    0.000    0.000    0.000    0.000 
#    0.000    0.000    0.000    0.000    0.000    0.000 
#
# Total GULP energy -89713.910833 kJ/mol
# GULP energy per Si atom -5607.119427 kJ/mol
# Density = 2.564687 g / cm^3
# Si number density = 25.705373 Si / 1000 Ang^3
#
#
#
# Elastic Constant Matrix: (Units=GPa)
#
#
# Indices 1 2 3 4 5 6 
#
# 1 118.8322 17.0830 25.9954 -0.5251 5.8912 -14.9440
# 2 17.0830 104.2911 37.3774 4.8222 -2.0238 -12.3065
# 3 25.9954 37.3774 93.0483 22.0936 6.4187 -1.1789
# 4 -0.5251 4.8222 22.0936 50.5253 -2.4852 -10.8963
# 5 5.8912 -2.0238 6.4187 -2.4852 44.0883 5.0983
# 6 -14.9440 -12.3065 -1.1789 -10.8963 5.0983 34.3993
#
#
#
# Elastic Compliance Matrix: (Units=1/GPa)
#
#
# Indices 1 2 3 4 5 6 
#
# 1 0.009841 0.000002 -0.003201 0.002552 -0.001303 0.005167
# 2 0.000002 0.011970 -0.005347 0.002249 0.000914 0.004677
# 3 -0.003201 -0.005347 0.015645 -0.007508 -0.001957 -0.004855
# 4 0.002552 0.002249 -0.007508 0.024970 0.001177 0.009391
# 5 -0.001303 0.000914 -0.001957 0.001177 0.023647 -0.003438
# 6 0.005167 0.004677 -0.004855 0.009391 -0.003438 0.036306
#
#
# Mechanical properties :
#
#
# Convention : Reuss Voigt Hill
#
# Bulk Modulus (GPa) = 49.10407 53.00925 51.05666
# Shear Modulus (GPa) = 34.18611 41.51698 37.85155
#
# Velocity S-wave (km/s) = 3.65076 4.02320 3.84150
# Velocity P-wave (km/s) = 6.07576 6.49986 6.29139
#
# Compressibility (1/GPa) = 0.02036491
#
# Stress axis : x y z
#
# Youngs Moduli (GPa) = 101.61739 83.54154 63.91771
#
# Poissons Ratio (x) = -0.00014 0.20457
# Poissons Ratio (y) = -0.00016 0.34174
# Poissons Ratio (z) = 0.32523 0.44667
#
# Static dielectric constant tensor:
#      x y z
#    x 2.011490 0.057270 -0.042420 
#    y 0.057270 2.110550 -0.052140 
#    z -0.042420 -0.052140 1.983040 
# 
# From -- ./inp_files/343763.got.cif
#   From: 2010.05.17/outbox.cif.g08.bks.cpg/sg2_172_cif.got.tgz:343763.got - 2010.06.03 11:33:40.
