data_PCOD9033574
_publ_section_title
;
Structure prediction by ZEFSAII (Michael W. Deem and Ramdas Pophale) SiO2 
 PCOD9033574
Probable space group: P -1
;
_chemical_formula_sum "Si O2"
_cell_formula_units_Z 16
_cell_length_a 11.314652
_cell_length_b 17.966580
_cell_length_c 9.645098
_cell_angle_alpha 132.192194
_cell_angle_beta 129.991555
_cell_angle_gamma 27.123410
_cell_volume 656.408980
_symmetry_space_group_name_H-M "P -1"
_symmetry_group_IT_number 2
_symmetry_cell_setting 'triclinic'
loop_
_space_group_symop_operation_xyz
x,y,z
-x,-y,-z
loop_
_atom_site_type_symbol
_atom_site_label
_atom_site_fract_x
_atom_site_fract_y
_atom_site_fract_z
Si Si1 0.534041 0.101945 0.637911
Si Si2 0.105976 0.209577 0.865073
Si Si3 0.561071 0.122389 0.148044
Si Si4 0.502665 0.718147 0.949731
Si Si5 0.776589 0.411091 0.614458
Si Si6 0.073351 0.778061 0.762339
Si Si7 0.311437 0.330301 0.498223
Si Si8 0.246150 0.569349 0.875436
O O1 0.450070 0.178739 0.517073
O O2 0.500000 0.000000 0.500000
O O3 0.393751 0.254844 0.828157
O O4 0.831034 0.962437 0.740963
O O5 0.966818 0.258639 0.677473
O O6 0.205507 0.057468 0.824974
O O7 0.359394 0.146862 0.962499
O O8 0.902794 0.370777 0.018094
O O9 0.651743 0.143663 0.116877
O O10 0.402206 0.261596 0.324998
O O11 0.727656 0.544152 0.813022
O O12 0.317875 0.727058 0.883297
O O13 0.500000 0.500000 0.500000
O O14 0.888656 0.338401 0.456051
O O15 0.048168 0.737263 0.839493
O O16 0.374092 0.407604 0.693811
O O17 0.000000 0.500000 0.500000
O O18 0.500000 0.500000 0.000000
#
# Coordination Sequence:
#
# PCOD9033574 Si02
#       8
#     2   2   2   2   2   2   2   2
#     4  12  27  43  70 102 142 187 231 289 351 413
#     4  11  24  44  68 103 142 184 232 287 355 415
#     4  11  26  43  72 101 144 184 232 289 353 419
#     4  11  25  45  70 104 138 183 232 284 353 416
#     4  10  22  44  68  97 138 178 230 286 345 416
#     4  11  24  46  70 102 142 179 234 288 351 422
#     4  12  25  47  69 103 139 181 243 285 348 423
#     4  12  24  45  76 102 141 186 232 293 348 415
#
# _framework density 24.375049000000001
#
# number of rings (size 3 to 8) (size 9 to 14) (size 15 to 20)
#    0.000    0.750    1.250    6.375    5.250    2.500 
#    0.000    3.750    0.000    0.000    0.000    0.000 
#    0.000    0.000    0.000    0.000    0.000    0.000 
#
# Total GULP energy -89492.307309 kJ/mol
# GULP energy per Si atom -5593.269207 kJ/mol
# Density = 2.431957 g / cm^3
# Si number density = 24.375049 Si / 1000 Ang^3
#
#
#
# Elastic Constant Matrix: (Units=GPa)
#
#
# Indices 1 2 3 4 5 6 
#
# 1 59.9351 7.0222 34.7127 -8.6455 -2.5581 26.0981
# 2 7.0222 85.4037 6.4186 -15.8134 5.9069 10.8808
# 3 34.7127 6.4186 137.8665 6.1394 0.3462 4.5631
# 4 -8.6455 -15.8134 6.1394 52.5738 3.8959 -5.2664
# 5 -2.5581 5.9069 0.3462 3.8959 36.3012 -0.4771
# 6 26.0981 10.8808 4.5631 -5.2664 -0.4771 37.9642
#
#
#
# Elastic Compliance Matrix: (Units=1/GPa)
#
#
# Indices 1 2 3 4 5 6 
#
# 1 0.029699 0.001214 -0.007078 0.004044 0.001275 -0.019337
# 2 0.001214 0.013108 -0.000959 0.004046 -0.002524 -0.003947
# 3 -0.007078 -0.000959 0.009051 -0.002122 -0.000152 0.003756
# 4 0.004044 0.004046 -0.002122 0.021270 -0.002646 -0.000767
# 5 0.001275 -0.002524 -0.000152 -0.002646 0.028331 -0.000145
# 6 -0.019337 -0.003947 0.003756 -0.000767 -0.000145 0.040205
#
#
# Mechanical properties :
#
#
# Convention : Reuss Voigt Hill
#
# Bulk Modulus (GPa) = 26.16935 42.16803 34.16869
# Shear Modulus (GPa) = 29.75355 41.03794 35.39575
#
# Velocity S-wave (km/s) = 3.49758 4.10763 3.81482
# Velocity P-wave (km/s) = 5.20290 6.31142 5.78378
#
# Compressibility (1/GPa) = 0.03821264
#
# Stress axis : x y z
#
# Youngs Moduli (GPa) = 33.67065 76.28963 110.48926
#
# Poissons Ratio (x) = -0.09263 0.78201
# Poissons Ratio (y) = -0.04088 0.10598
# Poissons Ratio (z) = 0.23831 0.07318
#
# Static dielectric constant tensor:
#      x y z
#    x 1.882760 -0.000240 -0.035110 
#    y -0.000240 2.030670 0.032090 
#    z -0.035110 0.032090 1.863590 
# 
# From -- ./inp_files/279980.got.cif
#   From: 2010.05.17/outbox.cif.g08.bks.cpg/sg2_140_cif.got.tgz:279980.got - 2010.06.03 11:33:40.
