data_PCOD9033607
_publ_section_title
;
Structure prediction by ZEFSAII (Michael W. Deem and Ramdas Pophale) SiO2 
 PCOD9033607
Probable space group: P -1
;
_chemical_formula_sum "Si O2"
_cell_formula_units_Z 16
_cell_length_a 11.697644
_cell_length_b 15.138508
_cell_length_c 14.653073
_cell_angle_alpha 42.849449
_cell_angle_beta 58.908689
_cell_angle_gamma 28.695936
_cell_volume 780.956363
_symmetry_space_group_name_H-M "P -1"
_symmetry_group_IT_number 2
_symmetry_cell_setting 'triclinic'
loop_
_space_group_symop_operation_xyz
x,y,z
-x,-y,-z
loop_
_atom_site_type_symbol
_atom_site_label
_atom_site_fract_x
_atom_site_fract_y
_atom_site_fract_z
Si Si1 0.973883 0.103281 0.097186
Si Si2 0.005507 0.429566 0.151246
Si Si3 0.140835 0.505956 0.394097
Si Si4 0.296973 0.914672 0.852063
Si Si5 0.546597 0.640225 0.142936
Si Si6 0.304212 0.917819 0.435698
Si Si7 0.766433 0.565824 0.800040
Si Si8 0.920696 0.099021 0.334347
O O1 0.813383 0.137602 0.075659
O O2 0.916633 0.115144 0.216103
O O3 0.881507 0.325686 0.947056
O O4 0.277217 0.837218 0.153596
O O5 0.732010 0.585434 0.160346
O O6 0.074331 0.471974 0.170500
O O7 0.214348 0.139359 0.286422
O O8 0.000000 0.500000 0.000000
O O9 0.394309 0.334129 0.476585
O O10 0.219403 0.410604 0.329605
O O11 0.000000 0.500000 0.500000
O O12 0.939249 0.791759 0.260482
O O13 0.474968 0.805585 0.776362
O O14 0.475265 0.764911 0.981163
O O15 0.710732 0.374454 0.254465
O O16 0.155312 0.978528 0.537821
O O17 0.194807 0.920094 0.396763
#
# Coordination Sequence:
#
# PCOD9033607 Si02
#       8
#     2   2   2   2   2   2   2   2
#     4  12  24  39  71 105 129 170 226 278 335 394
#     4  11  23  45  72  96 134 177 227 278 323 401
#     4  12  28  44  64  99 139 181 221 274 329 399
#     4  12  24  43  68  99 138 167 223 279 330 396
#     4  11  23  41  69 101 131 169 220 280 331 386
#     4  10  23  44  68  92 140 177 216 275 337 390
#     4  12  25  43  70  99 133 184 224 266 340 395
#     4  10  22  44  68  99 130 175 219 277 338 391
#
# _framework density 20.487701000000001
#
# number of rings (size 3 to 8) (size 9 to 14) (size 15 to 20)
#    0.000    0.750    3.750    3.750    1.750    4.500 
#    0.000   10.000    0.000    0.000    0.000    0.000 
#    0.000    0.000    0.000    0.000    0.000    0.000 
#
# Total GULP energy -89531.615299 kJ/mol
# GULP energy per Si atom -5595.725956 kJ/mol
# Density = 2.044107 g / cm^3
# Si number density = 20.487701 Si / 1000 Ang^3
#
#
#
# Elastic Constant Matrix: (Units=GPa)
#
#
# Indices 1 2 3 4 5 6 
#
# 1 108.1911 26.0272 18.5226 -20.5265 -1.5120 -17.7598
# 2 26.0272 7.0588 -7.0344 -29.0637 -38.0130 -24.6958
# 3 18.5226 -7.0344 96.9099 -7.1076 -12.0385 -4.8603
# 4 -20.5265 -29.0637 -7.1076 22.2417 -21.7667 -1.4838
# 5 -1.5120 -38.0130 -12.0385 -21.7667 11.9560 -14.3026
# 6 -17.7598 -24.6958 -4.8603 -1.4838 -14.3026 20.9891
#
#
#
# Elastic Compliance Matrix: (Units=1/GPa)
#
#
# Indices 1 2 3 4 5 6 
#
# 1 0.012686 -0.004859 -0.002045 0.005543 0.000497 0.005274
# 2 -0.004859 0.005932 -0.001652 -0.011637 -0.014147 -0.007977
# 3 -0.002045 -0.001652 0.010244 -0.001793 -0.000904 -0.002044
# 4 0.005543 -0.011637 -0.001793 0.025090 -0.008492 -0.013430
# 5 0.000497 -0.014147 -0.000904 -0.008492 0.010702 -0.009741
# 6 0.005274 -0.007977 -0.002044 -0.013430 -0.009741 0.034660
#
#
# Mechanical properties :
#
#
# Convention : Reuss Voigt Hill
#
# Bulk Modulus (GPa) = 85.10023 31.91005 58.50514
# Shear Modulus (GPa) = 41.54800 22.68031 32.11415
#
# Velocity S-wave (km/s) = 4.50816 3.33080 3.96344
# Velocity P-wave (km/s) = 8.29008 5.51374 7.04013
#
# Compressibility (1/GPa) = 0.01175085
#
# Stress axis : x y z
#
# Youngs Moduli (GPa) = 78.82432 168.57372 97.62273
#
# Poissons Ratio (x) = 0.81917 0.19960
# Poissons Ratio (y) = 0.38304 0.16123
# Poissons Ratio (z) = 0.16117 0.27841
#
# Static dielectric constant tensor:
#      x y z
#    x 1.711760 -0.009980 -0.000740 
#    y -0.009980 1.708470 0.005880 
#    z -0.000740 0.005880 1.721880 
# 
# From -- ./inp_files/432327.got.cif
#   From: 2010.05.17/outbox.cif.g08.bks.cpg/sg2_217_cif.got.tgz:432327.got - 2010.06.03 11:33:40.
