data_PCOD9033136
_publ_section_title
;
Structure prediction by ZEFSAII (Michael W. Deem and Ramdas Pophale) SiO2 
 PCOD9033136
Probable space group: P -1
;
_chemical_formula_sum "Si O2"
_cell_formula_units_Z 15
_cell_length_a 9.138428
_cell_length_b 14.949998
_cell_length_c 8.195877
_cell_angle_alpha 84.724295
_cell_angle_beta 128.347634
_cell_angle_gamma 62.234232
_cell_volume 649.468964
_symmetry_space_group_name_H-M "P -1"
_symmetry_group_IT_number 2
_symmetry_cell_setting 'triclinic'
loop_
_space_group_symop_operation_xyz
x,y,z
-x,-y,-z
loop_
_atom_site_type_symbol
_atom_site_label
_atom_site_fract_x
_atom_site_fract_y
_atom_site_fract_z
Si Si1 0.264986 0.344878 0.029958
Si Si2 0.766640 0.249875 0.468402
Si Si3 0.786085 0.763973 0.302008
Si Si4 0.364021 0.630340 0.303480
Si Si5 0.416799 0.019019 0.694665
Si Si6 0.162600 0.425554 0.464747
Si Si7 0.000000 0.000000 0.500000
Si Si8 0.196671 0.201301 0.206890
O O1 0.279384 0.275139 0.893251
O O2 0.999495 0.480725 0.809388
O O3 0.491477 0.341683 0.181595
O O4 0.289624 0.271707 0.214809
O O5 0.715484 0.278836 0.618929
O O6 0.951693 0.270004 0.539625
O O7 0.881518 0.118476 0.513879
O O8 0.583428 0.905408 0.177413
O O9 0.804991 0.690725 0.480157
O O10 0.500000 0.500000 0.500000
O O11 0.570256 0.612586 0.339560
O O12 0.104027 0.694784 0.022342
O O13 0.298110 0.114126 0.445726
O O14 0.227466 0.998014 0.601178
O O15 0.687562 0.895493 0.847234
O O16 0.000000 0.500000 0.500000
#
# Coordination Sequence:
#
# PCOD9033136 Si02
#       8
#     2   2   2   2   2   2   1   2
#     4  11  22  43  71  96 144 185 233 292 352 426
#     4  11  24  41  73 100 140 192 237 290 359 425
#     4  10  23  44  66 103 138 184 238 295 352 419
#     4  12  24  44  71 105 144 189 237 290 361 431
#     4  10  24  42  72  98 144 183 239 298 349 427
#     4  10  23  42  67 100 139 179 238 293 352 421
#     4  10  22  44  66 102 140 182 240 288 354 414
#     4  11  23  44  68 102 140 183 236 291 354 422
#
# _framework density 23.095791999999999
#
# number of rings (size 3 to 8) (size 9 to 14) (size 15 to 20)
#    0.000    1.333    4.000    0.800    1.867    8.000 
#    0.000    1.333    0.000    0.000    0.000    0.000 
#    0.000    0.000    0.000    0.000    0.000    0.000 
#
# Total GULP energy -83606.236341 kJ/mol
# GULP energy per Si atom -5573.749089 kJ/mol
# Density = 2.304323 g / cm^3
# Si number density = 23.095792 Si / 1000 Ang^3
#
#
#
# Elastic Constant Matrix: (Units=GPa)
#
#
# Indices 1 2 3 4 5 6 
#
# 1 129.3795 20.5388 26.6449 -10.2807 12.9433 5.6629
# 2 20.5388 69.9593 -0.1821 -12.5278 -10.4341 -3.3146
# 3 26.6449 -0.1821 83.4914 -18.8621 -0.0498 7.9224
# 4 -10.2807 -12.5278 -18.8621 40.3096 2.9721 3.5224
# 5 12.9433 -10.4341 -0.0498 2.9721 30.0280 -12.3239
# 6 5.6629 -3.3146 7.9224 3.5224 -12.3239 34.8418
#
#
#
# Elastic Compliance Matrix: (Units=1/GPa)
#
#
# Indices 1 2 3 4 5 6 
#
# 1 0.009910 -0.004054 -0.002558 0.000987 -0.007491 -0.004164
# 2 -0.004054 0.017910 0.001836 0.004258 0.009562 0.004897
# 3 -0.002558 0.001836 0.014765 0.007179 -0.000444 -0.003650
# 4 0.000987 0.004258 0.007179 0.030599 -0.004447 -0.006054
# 5 -0.007491 0.009562 -0.000444 -0.004447 0.048421 0.019805
# 6 -0.004164 0.004897 -0.003650 -0.006054 0.019805 0.038291
#
#
# Mechanical properties :
#
#
# Convention : Reuss Voigt Hill
#
# Bulk Modulus (GPa) = 30.27242 41.87038 36.07140
# Shear Modulus (GPa) = 27.70725 36.75780 32.23253
#
# Velocity S-wave (km/s) = 3.46738 3.99374 3.73983
# Velocity P-wave (km/s) = 5.40056 6.27972 5.85666
#
# Compressibility (1/GPa) = 0.03303337
#
# Stress axis : x y z
#
# Youngs Moduli (GPa) = 100.91288 55.83607 67.72564
#
# Poissons Ratio (x) = 0.22634 0.17322
# Poissons Ratio (y) = 0.40907 -0.12433
# Poissons Ratio (z) = 0.25810 -0.10250
#
# Static dielectric constant tensor:
#      x y z
#    x 1.870790 -0.032980 -0.056570 
#    y -0.032980 1.926120 0.011300 
#    z -0.056570 0.011300 1.910490 
# 
# From -- ./inp_files/201616.got.cif
#   From: 2010.05.17/outbox.cif.g08.bks.cpg/sg2_101_cif.got.tgz:201616.got - 2010.06.03 11:33:40.
