data_PCOD9033818
_publ_section_title
;
Structure prediction by ZEFSAII (Michael W. Deem and Ramdas Pophale) SiO2 
 PCOD9033818
Probable space group: P -1
;
_chemical_formula_sum "Si O2"
_cell_formula_units_Z 16
_cell_length_a 18.447954
_cell_length_b 21.612748
_cell_length_c 9.568071
_cell_angle_alpha 141.678915
_cell_angle_beta 144.361146
_cell_angle_gamma 17.412129
_cell_volume 664.265983
_symmetry_space_group_name_H-M "P -1"
_symmetry_group_IT_number 2
_symmetry_cell_setting 'triclinic'
loop_
_space_group_symop_operation_xyz
x,y,z
-x,-y,-z
loop_
_atom_site_type_symbol
_atom_site_label
_atom_site_fract_x
_atom_site_fract_y
_atom_site_fract_z
Si Si1 0.664771 0.355327 0.368054
Si Si2 0.588739 0.017081 0.476265
Si Si3 0.845369 0.937836 0.218779
Si Si4 0.203846 0.950212 0.954557
Si Si5 0.989565 0.379206 0.212136
Si Si6 0.962179 0.576784 0.341668
Si Si7 0.594678 0.355330 0.777459
Si Si8 0.483353 0.200508 0.354605
O O1 0.500000 0.500000 0.500000
O O2 0.572947 0.495119 0.354125
O O3 0.959863 0.157021 0.528632
O O4 0.641749 0.255221 0.113314
O O5 0.292617 0.197764 0.363087
O O6 0.608598 0.053349 0.419619
O O7 0.752613 0.801620 0.361593
O O8 0.690975 0.023898 0.762691
O O9 0.773346 0.061585 0.199088
O O10 0.597263 0.082386 0.177106
O O11 0.000235 0.739941 0.035224
O O12 0.899589 0.155964 0.876479
O O13 0.861128 0.544150 0.191565
O O14 0.903370 0.462190 0.381728
O O15 0.178231 0.402279 0.256752
O O16 0.540799 0.278201 0.591881
O O17 0.500000 0.500000 0.000000
#
# Coordination Sequence:
#
# PCOD9033818 Si02
#       8
#     2   2   2   2   2   2   2   2
#     4  12  26  45  69  99 138 189 227 277 356 411
#     4  11  24  45  76 102 132 183 237 284 342 401
#     4  12  25  47  68 101 150 181 221 289 349 418
#     4  12  25  45  71 103 140 183 236 284 335 420
#     4  10  24  46  73 101 136 180 236 286 335 413
#     4  10  22  44  70 101 132 179 239 285 329 411
#     4  12  26  44  70 103 139 185 233 286 339 410
#     4  11  26  43  68 103 145 172 229 290 345 410
#
# _framework density 24.086736999999999
#
# number of rings (size 3 to 8) (size 9 to 14) (size 15 to 20)
#    0.000    0.750    3.750    3.000    3.500    7.000 
#    2.250    1.250    0.000    0.000    0.000    0.000 
#    0.000    0.000    0.000    0.000    0.000    0.000 
#
# Total GULP energy -89670.922292 kJ/mol
# GULP energy per Si atom -5604.432643 kJ/mol
# Density = 2.403191 g / cm^3
# Si number density = 24.086737 Si / 1000 Ang^3
#
#
#
# Elastic Constant Matrix: (Units=GPa)
#
#
# Indices 1 2 3 4 5 6 
#
# 1 106.0846 41.4725 -5.8923 -1.9346 -13.5386 14.1761
# 2 41.4725 120.1585 6.2383 15.2312 -1.7938 19.1133
# 3 -5.8923 6.2383 60.1416 0.7661 4.7120 6.5354
# 4 -1.9346 15.2312 0.7661 41.5646 -3.6660 2.1131
# 5 -13.5386 -1.7938 4.7120 -3.6660 33.3110 18.1837
# 6 14.1761 19.1133 6.5354 2.1131 18.1837 50.4438
#
#
#
# Elastic Compliance Matrix: (Units=1/GPa)
#
#
# Indices 1 2 3 4 5 6 
#
# 1 0.012842 -0.003922 0.001579 0.002986 0.008033 -0.005348
# 2 -0.003922 0.010663 -0.001162 -0.003916 0.000181 -0.002689
# 3 0.001579 -0.001162 0.017173 0.000216 -0.000753 -0.001966
# 4 0.002986 -0.003916 0.000216 0.026200 0.005127 -0.002329
# 5 0.008033 0.000181 -0.000753 0.005127 0.043947 -0.018285
# 6 -0.005348 -0.002689 -0.001966 -0.002329 -0.018285 0.029289
#
#
# Mechanical properties :
#
#
# Convention : Reuss Voigt Hill
#
# Bulk Modulus (GPa) = 29.70388 41.11350 35.40869
# Shear Modulus (GPa) = 31.57628 41.36830 36.47229
#
# Velocity S-wave (km/s) = 3.62462 4.14874 3.89550
# Velocity P-wave (km/s) = 5.46589 6.32893 5.91318
#
# Compressibility (1/GPa) = 0.03366563
#
# Stress axis : x y z
#
# Youngs Moduli (GPa) = 77.87135 93.78032 58.23251
#
# Poissons Ratio (x) = 0.36782 -0.09193
# Poissons Ratio (y) = 0.30543 0.06769
# Poissons Ratio (z) = -0.12294 0.10902
#
# Static dielectric constant tensor:
#      x y z
#    x 1.900280 -0.019810 0.032290 
#    y -0.019810 1.911850 -0.020980 
#    z 0.032290 -0.020980 1.909390 
# 
# From -- ./inp_files/338203.got.cif
#   From: 2010.05.17/outbox.cif.g08.bks.cpg/sg2_170_cif.got.tgz:338203.got - 2010.06.03 11:33:40.
