data_PCOD9033095
_publ_section_title
;
Structure prediction by ZEFSAII (Michael W. Deem and Ramdas Pophale) SiO2 
 PCOD9033095
Probable space group: P -1
;
_chemical_formula_sum "Si O2"
_cell_formula_units_Z 14
_cell_length_a 9.356685
_cell_length_b 5.519832
_cell_length_c 14.688464
_cell_angle_alpha 70.709594
_cell_angle_beta 99.710196
_cell_angle_gamma 63.099139
_cell_volume 591.182168
_symmetry_space_group_name_H-M "P -1"
_symmetry_group_IT_number 2
_symmetry_cell_setting 'triclinic'
loop_
_space_group_symop_operation_xyz
x,y,z
-x,-y,-z
loop_
_atom_site_type_symbol
_atom_site_label
_atom_site_fract_x
_atom_site_fract_y
_atom_site_fract_z
Si Si1 0.740457 0.788818 0.182375
Si Si2 0.463378 0.294780 0.234376
Si Si3 0.660818 0.271816 0.988724
Si Si4 0.758000 0.286909 0.351557
Si Si5 0.131992 0.634731 0.263452
Si Si6 0.009014 0.792857 0.939203
Si Si7 0.891165 0.356523 0.535282
O O1 0.736607 0.494278 0.237799
O O2 0.939050 0.692407 0.234640
O O3 0.588427 0.035295 0.205236
O O4 0.706779 0.937609 0.060946
O O5 0.383121 0.618352 0.132285
O O6 0.602260 0.237406 0.333060
O O7 0.284382 0.360973 0.251352
O O8 0.500000 0.500000 0.000000
O O9 0.794542 0.335587 0.042619
O O10 0.757726 0.426595 0.431583
O O11 0.953525 0.999159 0.399511
O O12 0.188369 0.559884 0.383548
O O13 0.099791 0.958618 0.182397
O O14 0.000000 0.500000 0.000000
O O15 0.000000 0.000000 0.000000
O O16 0.000000 0.500000 0.500000
#
# Coordination Sequence:
#
# PCOD9033095 Si02
#       7
#     2   2   2   2   2   2   2
#     4  10  22  44  65  97 140 178 226 278 348 423
#     4  11  22  43  63 105 136 172 235 279 353 424
#     4   9  21  42  63  99 144 183 223 283 353 418
#     4  11  23  42  72  93 130 181 234 296 346 419
#     4  11  23  43  71  97 138 187 223 289 359 413
#     4  11  24  46  68 105 147 184 235 291 348 436
#     4  11  23  47  68  94 130 179 236 293 354 416
#
# _framework density 23.681363999999999
#
# number of rings (size 3 to 8) (size 9 to 14) (size 15 to 20)
#    0.000    1.429    4.286    0.000    0.000    5.714 
#    2.571    2.857    0.000    0.000    0.000    0.000 
#    0.000    0.000    0.000    0.000    0.000    0.000 
#
# Total GULP energy -77967.783905 kJ/mol
# GULP energy per Si atom -5569.127422 kJ/mol
# Density = 2.362746 g / cm^3
# Si number density = 23.681364 Si / 1000 Ang^3
#
#
#
# Elastic Constant Matrix: (Units=GPa)
#
#
# Indices 1 2 3 4 5 6 
#
# 1 93.7275 35.1119 -0.3723 1.9026 -12.1223 -36.2654
# 2 35.1119 66.5138 14.4398 1.8255 -19.5894 -10.0871
# 3 -0.3723 14.4398 82.2853 9.7561 -13.9024 0.6431
# 4 1.9026 1.8255 9.7561 35.1379 1.3072 -12.2066
# 5 -12.1223 -19.5894 -13.9024 1.3072 36.4050 2.8731
# 6 -36.2654 -10.0871 0.6431 -12.2066 2.8731 36.1022
#
#
#
# Elastic Compliance Matrix: (Units=1/GPa)
#
#
# Indices 1 2 3 4 5 6 
#
# 1 0.022579 -0.008512 0.000829 0.006750 0.001239 0.022472
# 2 -0.008512 0.022019 -0.002247 -0.001620 0.008497 -0.003582
# 3 0.000829 -0.002247 0.013914 -0.004658 0.004705 -0.001992
# 4 0.006750 -0.001620 -0.004658 0.036152 -0.003192 0.018888
# 5 0.001239 0.008497 0.004705 -0.003192 0.034387 -0.000281
# 6 0.022472 -0.003582 -0.001992 0.018888 -0.000281 0.055716
#
#
# Mechanical properties :
#
#
# Convention : Reuss Voigt Hill
#
# Bulk Modulus (GPa) = 25.87078 37.87617 31.87348
# Shear Modulus (GPa) = 22.98734 34.41883 28.70308
#
# Velocity S-wave (km/s) = 3.11897 3.81650 3.48523
# Velocity P-wave (km/s) = 4.89070 5.95397 5.44833
#
# Compressibility (1/GPa) = 0.03865364
#
# Stress axis : x y z
#
# Youngs Moduli (GPa) = 44.28803 45.41473 71.87163
#
# Poissons Ratio (x) = 0.38656 -0.05960
# Poissons Ratio (y) = 0.37697 0.16149
# Poissons Ratio (z) = -0.03673 0.10204
#
# Static dielectric constant tensor:
#      x y z
#    x 1.961070 -0.077510 0.082030 
#    y -0.077510 2.079660 -0.031610 
#    z 0.082030 -0.031610 2.184560 
# 
# From -- ./inp_files/488085.got.cif
#   From: 2010.05.17/outbox.cif.g08.bks.cpg/sg2_245_cif.got.tgz:488085.got - 2010.06.03 11:33:40.
