data_PCOD9033411
_publ_section_title
;
Structure prediction by ZEFSAII (Michael W. Deem and Ramdas Pophale) SiO2 
 PCOD9033411
Probable space group: P -1
;
_chemical_formula_sum "Si O2"
_cell_formula_units_Z 16
_cell_length_a 11.009296
_cell_length_b 10.841670
_cell_length_c 9.045328
_cell_angle_alpha 89.076398
_cell_angle_beta 38.566884
_cell_angle_gamma 92.765672
_cell_volume 669.777068
_symmetry_space_group_name_H-M "P -1"
_symmetry_group_IT_number 2
_symmetry_cell_setting 'triclinic'
loop_
_space_group_symop_operation_xyz
x,y,z
-x,-y,-z
loop_
_atom_site_type_symbol
_atom_site_label
_atom_site_fract_x
_atom_site_fract_y
_atom_site_fract_z
Si Si1 0.431489 0.357896 0.509970
Si Si2 0.654012 0.112720 0.294072
Si Si3 0.470474 0.503281 0.852089
Si Si4 0.190633 0.121646 0.287208
Si Si5 0.116004 0.826167 0.669219
Si Si6 0.823039 0.139851 0.803955
Si Si7 0.588004 0.254132 0.804351
Si Si8 0.104025 0.414152 0.016213
O O1 0.500000 0.500000 0.500000
O O2 0.564970 0.245504 0.401405
O O3 0.417342 0.384521 0.347516
O O4 0.234071 0.331240 0.791029
O O5 0.847333 0.111093 0.210558
O O6 0.500000 0.000000 0.500000
O O7 0.727596 0.117144 0.054636
O O8 0.562426 0.375852 0.732741
O O9 0.249637 0.486431 0.995862
O O10 0.500000 0.500000 0.000000
O O11 0.046702 0.129000 0.283270
O O12 0.058129 0.148481 0.554411
O O13 0.247584 0.982681 0.222430
O O14 0.380535 0.212389 0.074813
O O15 0.327720 0.838366 0.389948
O O16 0.050077 0.680723 0.753606
O O17 0.741985 0.255763 0.793487
O O18 0.000000 0.500000 0.000000
#
# Coordination Sequence:
#
# PCOD9033411 Si02
#       8
#     2   2   2   2   2   2   2   2
#     4  10  23  45  72 101 147 201 242 289 377 457
#     4  12  26  45  71 109 150 187 240 314 369 421
#     4  11  22  41  71 102 137 186 247 304 365 428
#     4  10  22  44  67  99 136 199 237 289 364 456
#     4  11  23  41  70  99 134 191 242 286 365 448
#     4  10  24  41  67 100 145 181 243 296 364 433
#     4  11  21  43  70  95 138 184 238 295 364 436
#     4  11  22  42  69 103 145 191 247 302 364 453
#
# _framework density 23.888545000000001
#
# number of rings (size 3 to 8) (size 9 to 14) (size 15 to 20)
#    0.000    1.250    1.250    5.625    1.750    2.500 
#    4.500    2.500    0.000    0.000    0.000    0.000 
#    0.000    0.000    0.000    0.000    0.000    0.000 
#
# Total GULP energy -89286.139519 kJ/mol
# GULP energy per Si atom -5580.383720 kJ/mol
# Density = 2.383417 g / cm^3
# Si number density = 23.888545 Si / 1000 Ang^3
#
#
#
# Elastic Constant Matrix: (Units=GPa)
#
#
# Indices 1 2 3 4 5 6 
#
# 1 110.6949 33.1040 47.0197 4.4474 21.4462 -14.8505
# 2 33.1040 99.8618 31.0113 -4.5663 5.3518 -21.0698
# 3 47.0197 31.0113 144.9614 -1.5924 1.3577 -6.3008
# 4 4.4474 -4.5663 -1.5924 37.5650 -6.5538 -0.0319
# 5 21.4462 5.3518 1.3577 -6.5538 38.3515 -11.5368
# 6 -14.8505 -21.0698 -6.3008 -0.0319 -11.5368 29.8830
#
#
#
# Elastic Compliance Matrix: (Units=1/GPa)
#
#
# Indices 1 2 3 4 5 6 
#
# 1 0.012992 -0.002754 -0.003549 -0.003242 -0.006989 0.001065
# 2 -0.002754 0.013200 -0.001553 0.002355 0.002767 0.008682
# 3 -0.003549 -0.001553 0.008359 0.000928 0.001962 -0.000338
# 4 -0.003242 0.002355 0.000928 0.028600 0.007265 0.003080
# 5 -0.006989 0.002767 0.001962 0.007265 0.034437 0.012194
# 6 0.001065 0.008682 -0.000338 0.003080 0.012194 0.044754
#
#
# Mechanical properties :
#
#
# Convention : Reuss Voigt Hill
#
# Bulk Modulus (GPa) = 53.08075 64.19867 58.63971
# Shear Modulus (GPa) = 30.42585 37.45211 33.93898
#
# Velocity S-wave (km/s) = 3.57271 3.96382 3.77334
# Velocity P-wave (km/s) = 6.26797 6.91967 6.60186
#
# Compressibility (1/GPa) = 0.01883922
#
# Stress axis : x y z
#
# Youngs Moduli (GPa) = 76.97094 75.75595 119.63257
#
# Poissons Ratio (x) = 0.20861 0.42455
# Poissons Ratio (y) = 0.21196 0.18584
# Poissons Ratio (z) = 0.27316 0.11768
#
# Static dielectric constant tensor:
#      x y z
#    x 1.956580 0.038220 0.024200 
#    y 0.038220 2.025770 0.025310 
#    z 0.024200 0.025310 1.968650 
# 
# From -- ./inp_files/257823.got.cif
#   From: 2010.05.17/outbox.cif.g08.bks.cpg/sg2_129_cif.got.tgz:257823.got - 2010.06.03 11:33:40.
