data_PCOD9033559
_publ_section_title
;
Structure prediction by ZEFSAII (Michael W. Deem and Ramdas Pophale) SiO2 
 PCOD9033559
Probable space group: P -1
;
_chemical_formula_sum "Si O2"
_cell_formula_units_Z 16
_cell_length_a 11.951523
_cell_length_b 20.552746
_cell_length_c 9.187077
_cell_angle_alpha 28.091063
_cell_angle_beta 129.716619
_cell_angle_gamma 135.105860
_cell_volume 749.323293
_symmetry_space_group_name_H-M "P -1"
_symmetry_group_IT_number 2
_symmetry_cell_setting 'triclinic'
loop_
_space_group_symop_operation_xyz
x,y,z
-x,-y,-z
loop_
_atom_site_type_symbol
_atom_site_label
_atom_site_fract_x
_atom_site_fract_y
_atom_site_fract_z
Si Si1 0.191463 0.591948 0.662342
Si Si2 0.493520 0.139161 0.634315
Si Si3 0.454680 0.036087 0.233728
Si Si4 0.682417 0.545349 0.706292
Si Si5 0.851176 0.888680 0.188335
Si Si6 0.847734 0.864375 0.580979
Si Si7 0.610798 0.387042 0.651967
Si Si8 0.906815 0.612013 0.286460
O O1 0.362812 0.702054 0.527135
O O2 0.093723 0.457308 0.737777
O O3 0.072234 0.677401 0.384204
O O4 0.224473 0.520226 0.977689
O O5 0.322567 0.132411 0.541967
O O6 0.523364 0.092656 0.589790
O O7 0.500000 0.000000 0.000000
O O8 0.500000 0.000000 0.500000
O O9 0.281810 0.041290 0.069721
O O10 0.565008 0.209899 0.941732
O O11 0.785647 0.718609 0.403432
O O12 0.626343 0.433545 0.743367
O O13 0.529515 0.563032 0.618147
O O14 0.873112 0.860673 0.434225
O O15 0.000000 0.000000 0.000000
O O16 0.843012 0.734402 0.943589
O O17 0.000000 0.000000 0.500000
O O18 0.776574 0.483993 0.525112
#
# Coordination Sequence:
#
# PCOD9033559 Si02
#       8
#     2   2   2   2   2   2   2   2
#     4  11  24  42  67 101 135 175 221 278 336 402
#     4  12  24  43  71  97 138 181 228 276 335 407
#     4  11  25  44  67 104 137 184 226 277 338 402
#     4  10  22  44  68  97 131 179 224 270 342 402
#     4  11  26  45  69  99 138 178 227 281 339 410
#     4  12  27  45  69 102 137 181 226 282 344 403
#     4  10  23  42  69  98 134 174 225 277 334 406
#     4  11  25  42  67 102 136 172 223 281 341 396
#
# _framework density 21.352599000000001
#
# number of rings (size 3 to 8) (size 9 to 14) (size 15 to 20)
#    0.000    1.000    2.500    3.000    5.250    4.500 
#    0.000    0.000    0.000    0.000    0.000    0.000 
#    0.000    0.000    0.000    0.000    0.000    0.000 
#
# Total GULP energy -89264.875610 kJ/mol
# GULP energy per Si atom -5579.054726 kJ/mol
# Density = 2.130400 g / cm^3
# Si number density = 21.352599 Si / 1000 Ang^3
#
#
#
# Elastic Constant Matrix: (Units=GPa)
#
#
# Indices 1 2 3 4 5 6 
#
# 1 69.1364 23.7593 26.5477 4.4483 -5.8565 29.3674
# 2 23.7593 83.0381 20.9467 7.6923 3.7982 23.8301
# 3 26.5477 20.9467 88.8822 20.6080 5.4854 27.9614
# 4 4.4483 7.6923 20.6080 44.8086 3.7906 -3.4957
# 5 -5.8565 3.7982 5.4854 3.7906 27.5714 -4.7162
# 6 29.3674 23.8301 27.9614 -3.4957 -4.7162 40.3223
#
#
#
# Elastic Compliance Matrix: (Units=1/GPa)
#
#
# Indices 1 2 3 4 5 6 
#
# 1 0.021912 -0.001889 -0.001385 -0.002555 0.003193 -0.013730
# 2 -0.001889 0.015440 0.000711 -0.003170 -0.003766 -0.008957
# 3 -0.001385 0.000711 0.018051 -0.008897 -0.005033 -0.013289
# 4 -0.002555 -0.003170 -0.008897 0.028178 -0.000100 0.012336
# 5 0.003193 -0.003766 -0.005033 -0.000100 0.039858 0.008044
# 6 -0.013730 -0.008957 -0.013289 0.012336 0.008044 0.051320
#
#
# Mechanical properties :
#
#
# Convention : Reuss Voigt Hill
#
# Bulk Modulus (GPa) = 19.88961 42.61825 31.25393
# Shear Modulus (GPa) = 25.42656 33.86066 29.64361
#
# Velocity S-wave (km/s) = 3.45453 3.98651 3.73002
# Velocity P-wave (km/s) = 5.02462 6.41813 5.76364
#
# Compressibility (1/GPa) = 0.05027749
#
# Stress axis : x y z
#
# Youngs Moduli (GPa) = 45.63625 64.76489 55.39822
#
# Poissons Ratio (x) = 0.12237 0.07671
# Poissons Ratio (y) = 0.08622 -0.03938
# Poissons Ratio (z) = 0.06320 -0.04604
#
# Static dielectric constant tensor:
#      x y z
#    x 1.944310 0.045300 0.248680 
#    y 0.045300 1.810690 0.123680 
#    z 0.248680 0.123680 2.021890 
# 
# From -- ./inp_files/282660.got.cif
#   From: 2010.05.17/outbox.cif.g08.bks.cpg/sg2_142_cif.got.tgz:282660.got - 2010.06.03 11:33:40.
