data_PCOD9033624
_publ_section_title
;
Structure prediction by ZEFSAII (Michael W. Deem and Ramdas Pophale) SiO2 
 PCOD9033624
Probable space group: P -1
;
_chemical_formula_sum "Si O2"
_cell_formula_units_Z 16
_cell_length_a 11.707314
_cell_length_b 14.261693
_cell_length_c 12.031340
_cell_angle_alpha 20.652269
_cell_angle_beta 100.941429
_cell_angle_gamma 102.567857
_cell_volume 690.970887
_symmetry_space_group_name_H-M "P -1"
_symmetry_group_IT_number 2
_symmetry_cell_setting 'triclinic'
loop_
_space_group_symop_operation_xyz
x,y,z
-x,-y,-z
loop_
_atom_site_type_symbol
_atom_site_label
_atom_site_fract_x
_atom_site_fract_y
_atom_site_fract_z
Si Si1 0.162978 0.550322 0.565658
Si Si2 0.079809 0.281055 0.216430
Si Si3 0.380011 0.298504 0.846374
Si Si4 0.898142 0.339264 0.809258
Si Si5 0.193457 0.232301 0.515469
Si Si6 0.601742 0.921443 0.684916
Si Si7 0.428569 0.223864 0.687624
Si Si8 0.260341 0.579693 0.770359
O O1 0.245790 0.314529 0.837621
O O2 0.168548 0.675519 0.305622
O O3 0.227793 0.707839 0.504635
O O4 0.028880 0.469041 0.661627
O O5 0.180172 0.280225 0.329571
O O6 0.144326 0.393654 0.993044
O O7 0.000000 0.000000 0.500000
O O8 0.000000 0.500000 0.000000
O O9 0.373276 0.300813 0.709031
O O10 0.475346 0.559110 0.589421
O O11 0.428299 0.095605 0.168795
O O12 0.841334 0.522498 0.686738
O O13 0.895494 0.034160 0.184213
O O14 0.321404 0.163044 0.651483
O O15 0.500000 0.000000 0.500000
O O16 0.702530 0.172742 0.416586
O O17 0.643104 0.631238 0.986167
O O18 0.500000 0.000000 0.000000
#
# Coordination Sequence:
#
# PCOD9033624 Si02
#       8
#     2   2   2   2   2   2   2   2
#     4  10  22  44  69 100 140 177 227 285 355 415
#     4  12  26  48  73 102 143 186 237 295 352 423
#     4  10  24  44  66 100 139 182 233 288 354 414
#     4  11  25  42  71 104 138 176 228 290 347 423
#     4  12  26  45  72 104 141 181 239 282 359 420
#     4  11  26  44  70  98 140 180 241 286 345 413
#     4  11  25  43  70 101 144 187 232 292 353 435
#     4  11  25  43  70 100 136 186 229 288 347 414
#
# _framework density 23.155822000000001
#
# number of rings (size 3 to 8) (size 9 to 14) (size 15 to 20)
#    0.000    1.000    1.250    4.125    8.750    6.000 
#    0.000    0.000    0.000    0.000    0.000    0.000 
#    0.000    0.000    0.000    0.000    0.000    0.000 
#
# Total GULP energy -89272.252737 kJ/mol
# GULP energy per Si atom -5579.515796 kJ/mol
# Density = 2.310312 g / cm^3
# Si number density = 23.155822 Si / 1000 Ang^3
#
#
#
# Elastic Constant Matrix: (Units=GPa)
#
#
# Indices 1 2 3 4 5 6 
#
# 1 58.2694 19.2884 -2.8514 3.8587 18.9975 8.5806
# 2 19.2884 90.5010 31.6940 15.1068 4.7381 18.4356
# 3 -2.8514 31.6940 77.6271 9.7632 -1.3840 8.2053
# 4 3.8587 15.1068 9.7632 46.4625 9.3571 6.4640
# 5 18.9975 4.7381 -1.3840 9.3571 23.7812 5.6692
# 6 8.5806 18.4356 8.2053 6.4640 5.6692 32.6076
#
#
#
# Elastic Compliance Matrix: (Units=1/GPa)
#
#
# Indices 1 2 3 4 5 6 
#
# 1 0.025752 -0.005621 0.002595 0.003430 -0.020317 -0.001399
# 2 -0.005621 0.015782 -0.005511 -0.003435 0.003817 -0.006039
# 3 0.002595 -0.005511 0.015597 -0.001703 0.000916 -0.001313
# 4 0.003430 -0.003435 -0.001703 0.025287 -0.011746 -0.001503
# 5 -0.020317 0.003817 0.000916 -0.011746 0.063570 -0.005766
# 6 -0.001399 -0.006039 -0.001313 -0.001503 -0.005766 0.036081
#
#
# Mechanical properties :
#
#
# Convention : Reuss Voigt Hill
#
# Bulk Modulus (GPa) = 24.96513 35.85104 30.40809
# Shear Modulus (GPa) = 23.52992 32.45469 27.99230
#
# Velocity S-wave (km/s) = 3.19118 3.74783 3.48065
# Velocity P-wave (km/s) = 4.93791 5.85187 5.41421
#
# Compressibility (1/GPa) = 0.04005587
#
# Stress axis : x y z
#
# Youngs Moduli (GPa) = 38.83141 63.36518 64.11501
#
# Poissons Ratio (x) = 0.35620 -0.16640
# Poissons Ratio (y) = 0.21828 0.35337
# Poissons Ratio (z) = -0.10078 0.34924
#
# Static dielectric constant tensor:
#      x y z
#    x 1.767760 0.016940 -0.029590 
#    y 0.016940 1.892220 0.059480 
#    z -0.029590 0.059480 1.830890 
# 
# From -- ./inp_files/433636.got.cif
#   From: 2010.05.17/outbox.cif.g08.bks.cpg/sg2_217_cif.got.tgz:433636.got - 2010.06.03 11:33:40.
