data_PCOD9033527
_publ_section_title
;
Structure prediction by ZEFSAII (Michael W. Deem and Ramdas Pophale) SiO2 
 PCOD9033527
Probable space group: P -1
;
_chemical_formula_sum "Si O2"
_cell_formula_units_Z 16
_cell_length_a 8.949075
_cell_length_b 12.069509
_cell_length_c 18.283542
_cell_angle_alpha 50.937739
_cell_angle_beta 44.091908
_cell_angle_gamma 86.962724
_cell_volume 718.035370
_symmetry_space_group_name_H-M "P -1"
_symmetry_group_IT_number 2
_symmetry_cell_setting 'triclinic'
loop_
_space_group_symop_operation_xyz
x,y,z
-x,-y,-z
loop_
_atom_site_type_symbol
_atom_site_label
_atom_site_fract_x
_atom_site_fract_y
_atom_site_fract_z
Si Si1 0.462007 0.878459 0.332153
Si Si2 0.305838 0.271324 0.070654
Si Si3 0.269143 0.542896 0.426716
Si Si4 0.151041 0.147466 0.009058
Si Si5 0.208534 0.052573 0.336471
Si Si6 0.107844 0.502728 0.040223
Si Si7 0.885152 0.701316 0.286518
Si Si8 0.981370 0.475648 0.251061
O O1 0.424627 0.729910 0.351489
O O2 0.303375 0.747160 0.517253
O O3 0.243252 0.901512 0.373131
O O4 0.835742 0.085931 0.128863
O O5 0.246391 0.190585 0.042728
O O6 0.140308 0.100666 0.264970
O O7 0.172809 0.365940 0.078313
O O8 0.684720 0.444097 0.884841
O O9 0.086832 0.331236 0.624889
O O10 0.000000 0.500000 0.500000
O O11 0.553621 0.648315 0.226971
O O12 0.044453 0.931531 0.118362
O O13 0.558706 0.263103 0.153923
O O14 0.000000 0.000000 0.500000
O O15 0.897967 0.443525 0.208466
O O16 0.000000 0.500000 0.000000
O O17 0.500000 0.500000 0.500000
O O18 0.017995 0.646153 0.207711
#
# Coordination Sequence:
#
# PCOD9033527 Si02
#       8
#     2   2   2   2   2   2   2   2
#     4  11  23  43  65 102 129 180 225 280 340 399
#     4  11  25  43  66 101 131 177 224 280 345 404
#     4  11  26  42  66 101 142 179 229 279 336 414
#     4  12  25  44  70 101 144 178 230 281 339 417
#     4  11  24  43  69  95 132 175 226 281 338 407
#     4  11  24  44  68  97 130 176 224 282 342 401
#     4  11  24  44  68 102 137 186 223 279 346 395
#     4  10  22  44  68  93 140 174 224 284 333 406
#
# _framework density 22.283024999999999
#
# number of rings (size 3 to 8) (size 9 to 14) (size 15 to 20)
#    0.000    1.000    2.500    5.625    5.250    3.000 
#    0.000    2.500    0.000    0.000    0.000    0.000 
#    0.000    0.000    0.000    0.000    0.000    0.000 
#
# Total GULP energy -89414.729580 kJ/mol
# GULP energy per Si atom -5588.420599 kJ/mol
# Density = 2.223231 g / cm^3
# Si number density = 22.283025 Si / 1000 Ang^3
#
#
#
# Elastic Constant Matrix: (Units=GPa)
#
#
# Indices 1 2 3 4 5 6 
#
# 1 120.9643 32.5283 23.2269 24.7370 18.4369 2.0526
# 2 32.5283 86.7289 21.0610 12.7829 24.7094 -14.3433
# 3 23.2269 21.0610 82.5043 33.2229 15.0016 2.4560
# 4 24.7370 12.7829 33.2229 30.2962 6.8505 6.1423
# 5 18.4369 24.7094 15.0016 6.8505 33.9937 0.1655
# 6 2.0526 -14.3433 2.4560 6.1423 0.1655 42.7949
#
#
#
# Elastic Compliance Matrix: (Units=1/GPa)
#
#
# Indices 1 2 3 4 5 6 
#
# 1 0.010896 -0.002267 0.001784 -0.009161 -0.003203 -0.000057
# 2 -0.002267 0.017027 -0.000542 -0.003738 -0.010186 0.006423
# 3 0.001784 -0.000542 0.023043 -0.025664 -0.005581 0.002115
# 4 -0.009161 -0.003738 -0.025664 0.071075 0.004734 -0.009560
# 5 -0.003203 -0.010186 -0.005581 0.004734 0.040086 -0.003775
# 6 -0.000057 0.006423 0.002115 -0.009560 -0.003775 0.026788
#
#
# Mechanical properties :
#
#
# Convention : Reuss Voigt Hill
#
# Bulk Modulus (GPa) = 20.44301 49.31442 34.87872
# Shear Modulus (GPa) = 24.12305 35.64239 29.88272
#
# Velocity S-wave (km/s) = 3.29382 4.00375 3.66601
# Velocity P-wave (km/s) = 4.86414 6.59942 5.79708
#
# Compressibility (1/GPa) = 0.04891647
#
# Stress axis : x y z
#
# Youngs Moduli (GPa) = 91.77269 58.72970 43.39752
#
# Poissons Ratio (x) = 0.13312 -0.07743
# Poissons Ratio (y) = 0.20802 0.02354
# Poissons Ratio (z) = -0.16374 0.03186
#
# Static dielectric constant tensor:
#      x y z
#    x 1.849300 -0.025470 0.035040 
#    y -0.025470 1.936410 0.056490 
#    z 0.035040 0.056490 1.900590 
# 
# From -- ./inp_files/274920.got.cif
#   From: 2010.05.17/outbox.cif.g08.bks.cpg/sg2_138_cif.got.tgz:274920.got - 2010.06.03 11:33:40.
