data_PCOD9033903
_publ_section_title
;
Structure prediction by ZEFSAII (Michael W. Deem and Ramdas Pophale) SiO2 
 PCOD9033903
Probable space group: P -1
;
_chemical_formula_sum "Si O2"
_cell_formula_units_Z 10
_cell_length_a 5.187421
_cell_length_b 6.982593
_cell_length_c 13.873664
_cell_angle_alpha 55.455245
_cell_angle_beta 107.238974
_cell_angle_gamma 82.349399
_cell_volume 365.208549
_symmetry_space_group_name_H-M "P -1"
_symmetry_group_IT_number 2
_symmetry_cell_setting 'triclinic'
loop_
_space_group_symop_operation_xyz
x,y,z
-x,-y,-z
loop_
_atom_site_type_symbol
_atom_site_label
_atom_site_fract_x
_atom_site_fract_y
_atom_site_fract_z
Si Si1 0.319967 0.325788 0.548175
Si Si2 0.769650 0.497852 0.894786
Si Si3 0.106644 0.270588 0.338958
Si Si4 0.248686 0.925643 0.763601
Si Si5 0.833583 0.840608 0.114348
O O1 0.500000 0.500000 0.500000
O O2 0.000000 0.500000 0.500000
O O3 0.284059 0.217530 0.471322
O O4 0.414489 0.108001 0.701177
O O5 0.457704 0.632230 0.871916
O O6 0.722565 0.691766 0.745424
O O7 0.928867 0.244461 0.922559
O O8 0.000000 0.500000 0.000000
O O9 0.979523 0.067988 0.346944
O O10 0.866839 0.561144 0.237474
O O11 0.111946 0.016062 0.827329
O O12 0.500000 0.000000 0.000000
#
# Coordination Sequence:
#
# PCOD9033903 Si02
#       5
#     2   2   2   2   2
#     4  12  28  49  80 111 152 205 256 316 393 455
#     4  10  23  42  71 108 146 199 247 298 387 450
#     4  10  26  46  71 113 146 195 259 303 382 454
#     4  12  24  48  75 104 157 196 248 324 372 451
#     4  10  22  44  70 108 154 192 252 308 376 456
#
# _framework density 27.381615
#
# number of rings (size 3 to 8) (size 9 to 14) (size 15 to 20)
#    1.200    0.000    4.000    0.600    5.600    4.000 
#    3.600    2.000    0.000    0.000    0.000    0.000 
#    0.000    0.000    0.000    0.000    0.000    0.000 
#
# Total GULP energy -55874.213283 kJ/mol
# GULP energy per Si atom -5587.421328 kJ/mol
# Density = 2.731929 g / cm^3
# Si number density = 27.381615 Si / 1000 Ang^3
#
#
#
# Elastic Constant Matrix: (Units=GPa)
#
#
# Indices 1 2 3 4 5 6 
#
# 1 111.3850 82.8731 36.5732 -2.3397 -14.0505 -11.6015
# 2 82.8731 243.4921 42.7633 27.0627 -1.0854 -36.6719
# 3 36.5732 42.7633 117.2955 20.2634 -21.4615 -7.1656
# 4 -2.3397 27.0627 20.2634 64.0488 -7.6890 12.0674
# 5 -14.0505 -1.0854 -21.4615 -7.6890 49.1884 -7.6687
# 6 -11.6015 -36.6719 -7.1656 12.0674 -7.6687 59.6636
#
#
#
# Elastic Compliance Matrix: (Units=1/GPa)
#
#
# Indices 1 2 3 4 5 6 
#
# 1 0.013818 -0.004798 -0.002734 0.003957 0.003112 -0.000991
# 2 -0.004798 0.006789 -0.000339 -0.003816 -0.001374 0.003794
# 3 -0.002734 -0.000339 0.010846 -0.003264 0.003698 0.001698
# 4 0.003957 -0.003816 -0.003264 0.019698 0.001810 -0.005720
# 5 0.003112 -0.001374 0.003698 0.001810 0.023532 0.002864
# 6 -0.000991 0.003794 0.001698 -0.005720 0.002864 0.020629
#
#
# Mechanical properties :
#
#
# Convention : Reuss Voigt Hill
#
# Bulk Modulus (GPa) = 63.65293 88.51020 76.08157
# Shear Modulus (GPa) = 42.99580 55.24437 49.12009
#
# Velocity S-wave (km/s) = 3.96693 4.49661 4.24005
# Velocity P-wave (km/s) = 6.65425 7.70417 7.19838
#
# Compressibility (1/GPa) = 0.01571020
#
# Stress axis : x y z
#
# Youngs Moduli (GPa) = 72.36973 147.29638 92.20092
#
# Poissons Ratio (x) = 0.70673 0.25207
# Poissons Ratio (y) = 0.34723 0.03129
# Poissons Ratio (z) = 0.19785 0.04999
#
# Static dielectric constant tensor:
#      x y z
#    x 2.228430 -0.020120 0.039640 
#    y -0.020120 2.126730 -0.108470 
#    z 0.039640 -0.108470 2.241630 
# 
# From -- ./inp_files/1747.got.cif
#   From: 2010.05.17/outbox.cif.g08.bks.cpg/sg2_1_cif.got.tgz:1747.got - 2010.06.03 11:33:40.
