data_PCOD9033542
_publ_section_title
;
Structure prediction by ZEFSAII (Michael W. Deem and Ramdas Pophale) SiO2 
 PCOD9033542
Probable space group: P -1
;
_chemical_formula_sum "Si O2"
_cell_formula_units_Z 15
_cell_length_a 14.439946
_cell_length_b 8.352317
_cell_length_c 13.495896
_cell_angle_alpha 98.844341
_cell_angle_beta 147.745420
_cell_angle_gamma 58.495947
_cell_volume 573.173526
_symmetry_space_group_name_H-M "P -1"
_symmetry_group_IT_number 2
_symmetry_cell_setting 'triclinic'
loop_
_space_group_symop_operation_xyz
x,y,z
-x,-y,-z
loop_
_atom_site_type_symbol
_atom_site_label
_atom_site_fract_x
_atom_site_fract_y
_atom_site_fract_z
Si Si1 0.588384 0.134026 0.509063
Si Si2 0.965771 0.962751 0.576533
Si Si3 0.290589 0.326153 0.457087
Si Si4 0.620256 0.594675 0.845971
Si Si5 0.500000 0.000000 0.000000
Si Si6 0.801149 0.910326 0.074139
Si Si7 0.887055 0.078748 0.013913
Si Si8 0.037893 0.550583 0.669667
O O1 0.475667 0.259451 0.526224
O O2 0.379303 0.309083 0.248616
O O3 0.691778 0.877998 0.578533
O O4 0.839679 0.066086 0.698657
O O5 0.033732 0.728067 0.630692
O O6 0.131200 0.970288 0.794087
O O7 0.000000 0.000000 0.500000
O O8 0.661939 0.188295 0.343560
O O9 0.054553 0.622008 0.260623
O O10 0.233134 0.336556 0.525794
O O11 0.682472 0.364454 0.863404
O O12 0.820892 0.506576 0.102841
O O13 0.602852 0.964320 0.975002
O O14 0.770111 0.706833 0.235306
O O15 0.750808 0.013238 0.927262
O O16 0.000000 0.000000 0.000000
#
# Coordination Sequence:
#
# PCOD9033542 Si02
#       8
#     2   2   2   2   1   2   2   2
#     4  11  23  46  67 102 139 185 225 281 342 413
#     4  12  26  44  73  99 133 185 234 289 340 406
#     4  10  22  44  68  95 151 174 222 287 337 413
#     4  12  22  43  74  95 138 184 227 284 338 407
#     4  10  26  44  74  94 144 178 220 300 340 414
#     4  11  23  48  66 105 136 176 233 285 342 417
#     4  12  26  44  72 106 136 182 234 282 343 417
#     4  11  23  50  66 104 136 181 235 277 349 411
#
# _framework density 26.170085
#
# number of rings (size 3 to 8) (size 9 to 14) (size 15 to 20)
#    0.000    0.800    5.333    1.600    3.733    2.667 
#   12.000    2.000    0.000    0.000    0.000    0.000 
#    0.000    0.000    0.000    0.000    0.000    0.000 
#
# Total GULP energy -83513.820431 kJ/mol
# GULP energy per Si atom -5567.588029 kJ/mol
# Density = 2.611052 g / cm^3
# Si number density = 26.170085 Si / 1000 Ang^3
#
#
#
# Elastic Constant Matrix: (Units=GPa)
#
#
# Indices 1 2 3 4 5 6 
#
# 1 249.3338 54.8082 75.7626 -36.7836 3.7434 -6.9666
# 2 54.8082 93.2867 35.8489 -42.7879 -2.8491 2.5220
# 3 75.7626 35.8489 79.0805 -34.0280 -0.3529 0.0975
# 4 -36.7836 -42.7879 -34.0280 57.3230 -14.3049 -2.0380
# 5 3.7434 -2.8491 -0.3529 -14.3049 57.8334 -13.5939
# 6 -6.9666 2.5220 0.0975 -2.0380 -13.5939 42.4808
#
#
#
# Elastic Compliance Matrix: (Units=1/GPa)
#
#
# Indices 1 2 3 4 5 6 
#
# 1 0.005905 -0.001879 -0.005129 -0.000746 -0.000478 0.000903
# 2 -0.001879 0.018239 -0.000845 0.013024 0.004387 0.000640
# 3 -0.005129 -0.000845 0.022305 0.010108 0.003074 0.000626
# 4 -0.000746 0.013024 0.010108 0.035455 0.010494 0.004140
# 5 -0.000478 0.004387 0.003074 0.010494 0.021832 0.007144
# 6 0.000903 0.000640 0.000626 0.004140 0.007144 0.026133
#
#
# Mechanical properties :
#
#
# Convention : Reuss Voigt Hill
#
# Bulk Modulus (GPa) = 32.52858 83.83781 58.18319
# Shear Modulus (GPa) = 32.08797 48.54619 40.31708
#
# Velocity S-wave (km/s) = 3.50541 4.31167 3.92928
# Velocity P-wave (km/s) = 5.37034 7.54272 6.54726
#
# Compressibility (1/GPa) = 0.03074219
#
# Stress axis : x y z
#
# Youngs Moduli (GPa) = 169.35586 54.82801 44.83359
#
# Poissons Ratio (x) = 0.10303 0.22996
# Poissons Ratio (y) = 0.31824 0.03787
# Poissons Ratio (z) = 0.86867 0.04631
#
# Static dielectric constant tensor:
#      x y z
#    x 2.095340 0.047970 -0.116130 
#    y 0.047970 2.155910 0.170200 
#    z -0.116130 0.170200 2.375820 
# 
# From -- ./inp_files/515419.got.cif
#   From: 2010.05.17/outbox.cif.g08.bks.cpg/sg2_258_cif.got.tgz:515419.got - 2010.06.03 11:33:40.
