data_PCOD9033654
_publ_section_title
;
Structure prediction by ZEFSAII (Michael W. Deem and Ramdas Pophale) SiO2 
 PCOD9033654
Probable space group: P -1
;
_chemical_formula_sum "Si O2"
_cell_formula_units_Z 16
_cell_length_a 5.063866
_cell_length_b 10.787786
_cell_length_c 11.692779
_cell_angle_alpha 97.492852
_cell_angle_beta 71.520805
_cell_angle_gamma 99.916402
_cell_volume 594.797990
_symmetry_space_group_name_H-M "P -1"
_symmetry_group_IT_number 2
_symmetry_cell_setting 'triclinic'
loop_
_space_group_symop_operation_xyz
x,y,z
-x,-y,-z
loop_
_atom_site_type_symbol
_atom_site_label
_atom_site_fract_x
_atom_site_fract_y
_atom_site_fract_z
Si Si1 0.532443 0.278419 0.132965
Si Si2 0.168234 0.527771 0.711262
Si Si3 0.555222 0.877368 0.656548
Si Si4 0.947724 0.099658 0.705689
Si Si5 0.204939 0.054036 0.076415
Si Si6 0.555248 0.701615 0.334141
Si Si7 0.082319 0.732604 0.560474
Si Si8 0.694591 0.340274 0.863610
O O1 0.613181 0.390518 0.224180
O O2 0.562953 0.160551 0.202975
O O3 0.248123 0.205986 0.103911
O O4 0.676845 0.330215 0.001092
O O5 0.322307 0.412386 0.633829
O O6 0.077313 0.615367 0.633810
O O7 0.896879 0.465056 0.811850
O O8 0.300341 0.842823 0.601942
O O9 0.266967 0.983386 0.359753
O O10 0.786268 0.781784 0.594900
O O11 0.813116 0.213825 0.793734
O O12 0.255562 0.167740 0.643111
O O13 0.947523 0.002405 0.796424
O O14 0.500000 0.000000 0.000000
O O15 0.000000 0.000000 0.000000
O O16 0.236891 0.700762 0.419428
O O17 0.567190 0.672553 0.192306
#
# Coordination Sequence:
#
# PCOD9033654 Si02
#       8
#     2   2   2   2   2   2   2   2
#     4  10  22  44  69 102 142 176 232 281 347 416
#     4  10  25  45  67 104 133 189 237 287 345 408
#     4  10  26  45  74 103 136 185 231 290 346 419
#     4  10  24  42  66 107 139 180 232 278 361 412
#     4  11  22  40  68  98 136 182 220 274 335 414
#     4  11  26  44  70 101 139 187 233 294 343 416
#     4  11  26  49  72 100 137 184 241 291 347 404
#     4  11  23  43  69 102 144 183 228 286 354 414
#
# _framework density 26.899891
#
# number of rings (size 3 to 8) (size 9 to 14) (size 15 to 20)
#    0.000    1.500    1.250    1.500    8.750    7.000 
#    9.000    0.000    0.000    0.000    0.000    0.000 
#    0.000    0.000    0.000    0.000    0.000    0.000 
#
# Total GULP energy -89476.325698 kJ/mol
# GULP energy per Si atom -5592.270356 kJ/mol
# Density = 2.683867 g / cm^3
# Si number density = 26.899891 Si / 1000 Ang^3
#
#
#
# Elastic Constant Matrix: (Units=GPa)
#
#
# Indices 1 2 3 4 5 6 
#
# 1 115.9827 41.3757 35.4018 2.7015 0.1146 6.5994
# 2 41.3757 170.8988 46.6521 -17.6370 -8.2593 31.4831
# 3 35.4018 46.6521 137.1264 -12.5876 5.6282 4.3630
# 4 2.7015 -17.6370 -12.5876 31.3842 8.9463 -1.2510
# 5 0.1146 -8.2593 5.6282 8.9463 31.2498 5.5737
# 6 6.5994 31.4831 4.3630 -1.2510 5.5737 48.1254
#
#
#
# Elastic Compliance Matrix: (Units=1/GPa)
#
#
# Indices 1 2 3 4 5 6 
#
# 1 0.010133 -0.002156 -0.002203 -0.003160 0.000684 0.000059
# 2 -0.002156 0.008299 -0.001919 0.003140 0.002571 -0.005176
# 3 -0.002203 -0.001919 0.008956 0.003721 -0.003398 0.001236
# 4 -0.003160 0.003140 0.003721 0.038514 -0.010909 0.000306
# 5 0.000684 0.002571 -0.003398 -0.010909 0.037499 -0.006094
# 6 0.000059 -0.005176 0.001236 0.000306 -0.006094 0.024759
#
#
# Mechanical properties :
#
#
# Convention : Reuss Voigt Hill
#
# Bulk Modulus (GPa) = 67.42133 74.54079 70.98106
# Shear Modulus (GPa) = 34.32651 42.19043 38.25847
#
# Velocity S-wave (km/s) = 3.57611 3.96463 3.77537
# Velocity P-wave (km/s) = 6.49381 6.98057 6.74158
#
# Compressibility (1/GPa) = 0.01483210
#
# Stress axis : x y z
#
# Youngs Moduli (GPa) = 98.68822 120.49367 111.65850
#
# Poissons Ratio (x) = 0.25978 0.24593
# Poissons Ratio (y) = 0.21277 0.21433
# Poissons Ratio (z) = 0.21736 0.23128
#
# Static dielectric constant tensor:
#      x y z
#    x 2.241880 0.016730 0.009820 
#    y 0.016730 2.178530 0.048090 
#    z 0.009820 0.048090 2.166380 
# 
# From -- ./inp_files/80946.got.cif
#   From: 2010.05.17/outbox.cif.g08.bks.cpg/sg2_41_cif.got.tgz:80946.got - 2010.06.03 11:33:40.
