data_PCOD9033631
_publ_section_title
;
Structure prediction by ZEFSAII (Michael W. Deem and Ramdas Pophale) SiO2 
 PCOD9033631
Probable space group: P -1
;
_chemical_formula_sum "Si O2"
_cell_formula_units_Z 14
_cell_length_a 9.033305
_cell_length_b 9.925667
_cell_length_c 9.806097
_cell_angle_alpha 92.646757
_cell_angle_beta 69.126959
_cell_angle_gamma 137.622540
_cell_volume 519.802481
_symmetry_space_group_name_H-M "P -1"
_symmetry_group_IT_number 2
_symmetry_cell_setting 'triclinic'
loop_
_space_group_symop_operation_xyz
x,y,z
-x,-y,-z
loop_
_atom_site_type_symbol
_atom_site_label
_atom_site_fract_x
_atom_site_fract_y
_atom_site_fract_z
Si Si1 0.246117 0.946117 0.737058
Si Si2 0.251968 0.575233 0.439509
Si Si3 0.778368 0.686930 0.070416
Si Si4 0.136868 0.860356 0.165602
Si Si5 0.038327 0.865637 0.501949
Si Si6 0.571748 0.327440 0.952584
Si Si7 0.907044 0.439721 0.235008
O O1 0.183948 0.925865 0.596055
O O2 0.257648 0.795494 0.766050
O O3 0.507446 0.191169 0.685938
O O4 0.016887 0.849882 0.897526
O O5 0.353342 0.544523 0.926101
O O6 0.163496 0.529211 0.198157
O O7 0.211528 0.390830 0.415094
O O8 0.262147 0.594561 0.602168
O O9 0.587093 0.670332 0.079462
O O10 0.899318 0.789051 0.183286
O O11 0.152501 0.882565 0.324065
O O12 0.054779 0.659938 0.125487
O O13 0.391762 0.084550 0.030972
O O14 0.000000 0.000000 0.500000
O O15 0.000000 0.500000 0.500000
#
# Coordination Sequence:
#
# PCOD9033631 Si02
#       7
#     2   2   2   2   2   2   2
#     4  11  24  45  76 101 147 189 238 293 362 428
#     4  11  24  45  74 105 137 192 246 288 359 429
#     4  10  24  44  72 106 137 195 239 294 358 431
#     4  11  24  43  70 108 143 186 246 293 358 423
#     4  11  26  47  70 107 145 186 239 300 362 421
#     4  10  22  44  69 100 151 185 236 294 364 428
#     4  10  23  43  69 107 143 192 232 297 357 430
#
# _framework density 26.933306999999999
#
# number of rings (size 3 to 8) (size 9 to 14) (size 15 to 20)
#    0.000    1.429    1.429    2.143    2.000    5.143 
#    2.571    0.000    0.000    0.000    0.000    0.000 
#    0.000    0.000    0.000    0.000    0.000    0.000 
#
# Total GULP energy -78311.365614 kJ/mol
# GULP energy per Si atom -5593.668972 kJ/mol
# Density = 2.687201 g / cm^3
# Si number density = 26.933307 Si / 1000 Ang^3
#
#
#
# Elastic Constant Matrix: (Units=GPa)
#
#
# Indices 1 2 3 4 5 6 
#
# 1 68.0060 42.2079 14.8727 6.9874 2.8355 12.3800
# 2 42.2079 284.5128 31.6639 -8.5007 -18.8796 -1.9125
# 3 14.8727 31.6639 117.2393 -5.9587 11.6370 6.1766
# 4 6.9874 -8.5007 -5.9587 44.0008 6.5169 -4.8154
# 5 2.8355 -18.8796 11.6370 6.5169 34.2599 -0.0899
# 6 12.3800 -1.9125 6.1766 -4.8154 -0.0899 50.6108
#
#
#
# Elastic Compliance Matrix: (Units=1/GPa)
#
#
# Indices 1 2 3 4 5 6 
#
# 1 0.018063 -0.002807 -0.001291 -0.003824 -0.001889 -0.004734
# 2 -0.002807 0.004270 -0.001089 0.000825 0.002801 0.001064
# 3 -0.001291 -0.001089 0.009522 0.001808 -0.004074 -0.000723
# 4 -0.003824 0.000825 0.001808 0.024750 -0.004543 0.003093
# 5 -0.001889 0.002801 -0.004074 -0.004543 0.033138 0.000692
# 6 -0.004734 0.001064 -0.000723 0.003093 0.000692 0.021341
#
#
# Mechanical properties :
#
#
# Convention : Reuss Voigt Hill
#
# Bulk Modulus (GPa) = 46.55518 71.91636 59.23577
# Shear Modulus (GPa) = 38.87476 51.17520 45.02498
#
# Velocity S-wave (km/s) = 3.80329 4.36371 4.09310
# Velocity P-wave (km/s) = 6.05059 7.22142 6.66178
#
# Compressibility (1/GPa) = 0.02147989
#
# Stress axis : x y z
#
# Youngs Moduli (GPa) = 55.36269 234.18118 105.02183
#
# Poissons Ratio (x) = 0.65744 0.13555
# Poissons Ratio (y) = 0.15542 0.11441
# Poissons Ratio (z) = 0.07145 0.25511
#
# Static dielectric constant tensor:
#      x y z
#    x 2.156370 -0.046470 0.142180 
#    y -0.046470 2.102380 0.057170 
#    z 0.142180 0.057170 2.282060 
# 
# From -- ./inp_files/171346.got.cif
#   From: 2010.05.17/outbox.cif.g08.bks.cpg/sg2_86_cif.got.tgz:171346.got - 2010.06.03 11:33:40.
