data_PCOD9033381
_publ_section_title
;
Structure prediction by ZEFSAII (Michael W. Deem and Ramdas Pophale) SiO2 
 PCOD9033381
Probable space group: P -1
;
_chemical_formula_sum "Si O2"
_cell_formula_units_Z 16
_cell_length_a 10.176127
_cell_length_b 8.847232
_cell_length_c 14.458291
_cell_angle_alpha 64.615900
_cell_angle_beta 124.188942
_cell_angle_gamma 142.554022
_cell_volume 654.279496
_symmetry_space_group_name_H-M "P -1"
_symmetry_group_IT_number 2
_symmetry_cell_setting 'triclinic'
loop_
_space_group_symop_operation_xyz
x,y,z
-x,-y,-z
loop_
_atom_site_type_symbol
_atom_site_label
_atom_site_fract_x
_atom_site_fract_y
_atom_site_fract_z
Si Si1 0.976618 0.951770 0.655533
Si Si2 0.733702 0.203717 0.969317
Si Si3 0.028554 0.110488 0.117874
Si Si4 0.855510 0.428317 0.259529
Si Si5 0.861515 0.566426 0.414808
Si Si6 0.419552 0.124606 0.714624
Si Si7 0.293269 0.547372 0.423440
Si Si8 0.256827 0.389601 0.962972
O O1 0.968030 0.141692 0.583814
O O2 0.250480 0.113034 0.709284
O O3 0.909221 0.858855 0.758665
O O4 0.842382 0.724903 0.592124
O O5 0.628811 0.218873 0.835900
O O6 0.813980 0.072907 0.027987
O O7 0.000000 0.500000 0.000000
O O8 0.500000 0.000000 0.000000
O O9 0.949746 0.874145 0.102821
O O10 0.233738 0.345644 0.074113
O O11 0.783538 0.497227 0.295673
O O12 0.781812 0.452331 0.127660
O O13 0.127172 0.581369 0.330159
O O14 0.721782 0.152127 0.294422
O O15 0.672251 0.430403 0.458551
O O16 0.000000 0.500000 0.500000
O O17 0.497439 0.271696 0.612715
O O18 0.500000 0.500000 0.000000
#
# Coordination Sequence:
#
# PCOD9033381 Si02
#       8
#     2   2   2   2   2   2   2   2
#     4  11  22  44  68 101 138 178 240 297 366 442
#     4  12  26  43  71 107 149 201 247 300 370 445
#     4  11  24  40  65  98 138 187 236 290 361 430
#     4  10  22  44  67  97 142 179 238 295 359 443
#     4  10  22  45  72  96 136 185 230 305 372 437
#     4  11  24  41  68 102 140 186 237 304 357 439
#     4  10  23  42  70  99 134 183 237 297 368 429
#     4  11  24  40  64  97 140 186 235 295 359 440
#
# _framework density 24.454381000000001
#
# number of rings (size 3 to 8) (size 9 to 14) (size 15 to 20)
#    0.000    1.250    2.500    2.625    5.250    3.000 
#    0.000    0.000    0.000    0.000    0.000    0.000 
#    0.000    0.000    0.000    0.000    0.000    0.000 
#
# Total GULP energy -89444.438837 kJ/mol
# GULP energy per Si atom -5590.277427 kJ/mol
# Density = 2.439872 g / cm^3
# Si number density = 24.454381 Si / 1000 Ang^3
#
#
#
# Elastic Constant Matrix: (Units=GPa)
#
#
# Indices 1 2 3 4 5 6 
#
# 1 106.8957 36.8544 52.5484 -20.0098 -17.8275 3.8790
# 2 36.8544 74.0609 34.9889 -18.1294 -8.6175 -0.8591
# 3 52.5484 34.9889 125.0948 -26.4057 -19.3693 16.7207
# 4 -20.0098 -18.1294 -26.4057 41.5421 3.6755 -2.1696
# 5 -17.8275 -8.6175 -19.3693 3.6755 53.7882 -13.1088
# 6 3.8790 -0.8591 16.7207 -2.1696 -13.1088 47.6695
#
#
#
# Elastic Compliance Matrix: (Units=1/GPa)
#
#
# Indices 1 2 3 4 5 6 
#
# 1 0.013393 -0.004058 -0.003785 0.002101 0.002514 0.000952
# 2 -0.004058 0.017879 -0.002533 0.004269 0.000791 0.001953
# 3 -0.003785 -0.002533 0.011879 0.004315 0.001520 -0.003290
# 4 0.002101 0.004269 0.004315 0.029609 0.000909 -0.000010
# 5 0.002514 0.000791 0.001520 0.000909 0.021298 0.005175
# 6 0.000952 0.001953 -0.003290 -0.000010 0.005175 0.023512
#
#
# Mechanical properties :
#
#
# Convention : Reuss Voigt Hill
#
# Bulk Modulus (GPa) = 44.64986 61.64828 53.14907
# Shear Modulus (GPa) = 34.29628 40.71061 37.50345
#
# Velocity S-wave (km/s) = 3.74901 4.08457 3.92038
# Velocity P-wave (km/s) = 6.08590 6.89269 6.50182
#
# Compressibility (1/GPa) = 0.02239649
#
# Stress axis : x y z
#
# Youngs Moduli (GPa) = 74.66597 55.93298 84.18539
#
# Poissons Ratio (x) = 0.22700 0.31866
# Poissons Ratio (y) = 0.30303 0.21325
# Poissons Ratio (z) = 0.28263 0.14168
#
# Static dielectric constant tensor:
#      x y z
#    x 1.994490 0.014220 -0.002630 
#    y 0.014220 2.001000 0.002780 
#    z -0.002630 0.002780 1.952630 
# 
# From -- ./inp_files/81199.got.cif
#   From: 2010.05.17/outbox.cif.g08.bks.cpg/sg2_41_cif.got.tgz:81199.got - 2010.06.03 11:33:40.
