data_PCOD9033896
_publ_section_title
;
Structure prediction by ZEFSAII (Michael W. Deem and Ramdas Pophale) SiO2 
 PCOD9033896
Probable space group: P -1
;
_chemical_formula_sum "Si O2"
_cell_formula_units_Z 15
_cell_length_a 8.275118
_cell_length_b 9.150880
_cell_length_c 10.945363
_cell_angle_alpha 131.068270
_cell_angle_beta 99.827052
_cell_angle_gamma 76.831820
_cell_volume 608.199941
_symmetry_space_group_name_H-M "P -1"
_symmetry_group_IT_number 2
_symmetry_cell_setting 'triclinic'
loop_
_space_group_symop_operation_xyz
x,y,z
-x,-y,-z
loop_
_atom_site_type_symbol
_atom_site_label
_atom_site_fract_x
_atom_site_fract_y
_atom_site_fract_z
Si Si1 0.048871 0.844109 0.561386
Si Si2 0.725759 0.641900 0.919709
Si Si3 0.652188 0.259797 0.038882
Si Si4 0.765730 0.619805 0.392436
Si Si5 0.873071 0.009741 0.098781
Si Si6 0.785984 0.206010 0.760632
Si Si7 0.314732 0.520352 0.436674
Si Si8 0.500000 0.000000 0.500000
O O1 0.238554 0.743102 0.506677
O O2 0.940485 0.683360 0.414899
O O3 0.060959 0.859791 0.718247
O O4 0.940949 0.058440 0.641021
O O5 0.544384 0.704212 0.990902
O O6 0.802457 0.430688 0.863861
O O7 0.694941 0.614328 0.756102
O O8 0.842276 0.805474 0.040136
O O9 0.711571 0.456118 0.207034
O O10 0.698362 0.107502 0.071734
O O11 0.754534 0.186704 0.890957
O O12 0.777667 0.548303 0.494852
O O13 0.633660 0.816833 0.472817
O O14 0.000000 0.000000 0.000000
O O15 0.617726 0.155277 0.652369
O O16 0.500000 0.500000 0.500000
#
# Coordination Sequence:
#
# PCOD9033896 Si02
#       8
#     2   2   2   2   2   2   2   1
#     4  11  25  44  71 106 141 196 240 299 371 434
#     4  12  27  45  70 110 147 194 250 299 369 437
#     4  12  24  47  77 107 143 196 244 310 366 439
#     4  11  23  43  76 105 141 191 247 298 370 433
#     4  12  25  47  71 105 147 193 251 306 366 436
#     4  11  25  48  73 108 151 194 244 305 372 441
#     4  12  23  43  71 103 147 184 249 305 357 439
#     4  10  22  44  70 108 142 188 242 294 372 438
#
# _framework density 24.662942999999999
#
# number of rings (size 3 to 8) (size 9 to 14) (size 15 to 20)
#    0.000    0.533    5.333    2.000    3.733    1.067 
#    2.400    0.000    0.000    0.000    0.000    0.000 
#    0.000    0.000    0.000    0.000    0.000    0.000 
#
# Total GULP energy -83690.737973 kJ/mol
# GULP energy per Si atom -5579.382532 kJ/mol
# Density = 2.460681 g / cm^3
# Si number density = 24.662943 Si / 1000 Ang^3
#
#
#
# Elastic Constant Matrix: (Units=GPa)
#
#
# Indices 1 2 3 4 5 6 
#
# 1 98.4374 33.5539 28.9954 14.8711 0.2800 -12.2256
# 2 33.5539 92.9698 -1.7962 27.5781 6.7895 -20.9408
# 3 28.9954 -1.7962 63.9009 10.1872 0.1836 20.1040
# 4 14.8711 27.5781 10.1872 41.2174 -2.2960 -3.8770
# 5 0.2800 6.7895 0.1836 -2.2960 39.3932 5.9121
# 6 -12.2256 -20.9408 20.1040 -3.8770 5.9121 44.1596
#
#
#
# Elastic Compliance Matrix: (Units=1/GPa)
#
#
# Indices 1 2 3 4 5 6 
#
# 1 0.014963 -0.004198 -0.008905 0.000185 -0.000270 0.006258
# 2 -0.004198 0.016841 0.002264 -0.010036 -0.004292 0.005487
# 3 -0.008905 0.002264 0.024853 -0.005633 0.001235 -0.013366
# 4 0.000185 -0.010036 -0.005633 0.032525 0.003616 0.000228
# 5 -0.000270 -0.004292 0.001235 0.003616 0.027232 -0.006000
# 6 0.006258 0.005487 -0.013366 0.000228 -0.006000 0.033888
#
#
# Mechanical properties :
#
#
# Convention : Reuss Voigt Hill
#
# Bulk Modulus (GPa) = 28.58737 41.86825 35.22781
# Shear Modulus (GPa) = 27.22715 37.92437 32.57576
#
# Velocity S-wave (km/s) = 3.32621 3.92561 3.63828
# Velocity P-wave (km/s) = 5.13497 6.12865 5.65368
#
# Compressibility (1/GPa) = 0.03498048
#
# Stress axis : x y z
#
# Youngs Moduli (GPa) = 66.83261 59.37748 40.23616
#
# Poissons Ratio (x) = 0.24925 0.35830
# Poissons Ratio (y) = 0.28055 -0.09111
# Poissons Ratio (z) = 0.59515 -0.13445
#
# Static dielectric constant tensor:
#      x y z
#    x 1.991560 -0.015810 -0.051270 
#    y -0.015810 2.046720 0.008970 
#    z -0.051270 0.008970 1.893820 
# 
# From -- ./inp_files/383581.got.cif
#   From: 2010.05.17/outbox.cif.g08.bks.cpg/sg2_192_cif.got.tgz:383581.got - 2010.06.03 11:33:40.
