data_PCOD9033092
_publ_section_title
;
Structure prediction by ZEFSAII (Michael W. Deem and Ramdas Pophale) SiO2 
 PCOD9033092
Probable space group: P -1
;
_chemical_formula_sum "Si O2"
_cell_formula_units_Z 16
_cell_length_a 16.643597
_cell_length_b 21.830073
_cell_length_c 6.557741
_cell_angle_alpha 102.060794
_cell_angle_beta 69.446187
_cell_angle_gamma 161.659656
_cell_volume 636.459796
_symmetry_space_group_name_H-M "P -1"
_symmetry_group_IT_number 2
_symmetry_cell_setting 'triclinic'
loop_
_space_group_symop_operation_xyz
x,y,z
-x,-y,-z
loop_
_atom_site_type_symbol
_atom_site_label
_atom_site_fract_x
_atom_site_fract_y
_atom_site_fract_z
Si Si1 0.698754 0.257216 0.016229
Si Si2 0.611727 0.143180 0.409725
Si Si3 0.003182 0.255068 0.291763
Si Si4 0.029487 0.416823 0.518069
Si Si5 0.520969 0.465335 0.644058
Si Si6 0.548554 0.797867 0.637077
Si Si7 0.092983 0.128228 0.122290
Si Si8 0.416477 0.579726 0.802850
O O1 0.624947 0.150085 0.161806
O O2 0.455229 0.140303 0.188895
O O3 0.000000 0.500000 0.000000
O O4 0.756281 0.261784 0.760940
O O5 0.950943 0.389415 0.347157
O O6 0.500000 0.000000 0.500000
O O7 0.341468 0.001950 0.594392
O O8 0.032000 0.343547 0.439665
O O9 0.203034 0.348199 0.315860
O O10 0.125172 0.354130 0.024526
O O11 0.303965 0.627225 0.556119
O O12 0.500000 0.500000 0.500000
O O13 0.536931 0.413658 0.460526
O O14 0.241148 0.272819 0.910253
O O15 0.458910 0.682796 0.803551
O O16 0.838984 0.980312 0.383782
O O17 0.339769 0.279047 0.167287
O O18 0.000000 0.000000 0.000000
#
# Coordination Sequence:
#
# PCOD9033092 Si02
#       8
#     2   2   2   2   2   2   2   2
#     4  10  25  42  62  99 135 168 231 278 324 391
#     4  10  24  42  65  93 132 180 224 277 322 395
#     4  10  23  42  69  97 136 180 227 263 347 400
#     4  10  22  44  65  97 136 177 224 268 332 394
#     4  11  25  44  70 102 136 174 221 284 338 401
#     4  11  22  42  69  98 137 178 223 277 337 391
#     4  11  23  45  68 102 131 174 232 268 332 417
#     4  11  23  43  70  98 135 178 221 278 336 402
#
# _framework density 25.139057999999999
#
# number of rings (size 3 to 8) (size 9 to 14) (size 15 to 20)
#    0.000    1.500    2.500    1.125    7.000    9.000 
#    2.250    0.000    0.000    0.000    0.000    0.000 
#    0.000    0.000    0.000    0.000    0.000    0.000 
#
# Total GULP energy -89310.526232 kJ/mol
# GULP energy per Si atom -5581.907889 kJ/mol
# Density = 2.508184 g / cm^3
# Si number density = 25.139058 Si / 1000 Ang^3
#
#
#
# Elastic Constant Matrix: (Units=GPa)
#
#
# Indices 1 2 3 4 5 6 
#
# 1 122.3889 18.0534 49.1394 -7.7608 20.2982 0.7792
# 2 18.0534 57.6302 15.1359 -8.3659 3.6063 11.2611
# 3 49.1394 15.1359 134.5459 -8.0473 -3.6033 -2.4331
# 4 -7.7608 -8.3659 -8.0473 32.0726 -3.4389 -8.9716
# 5 20.2982 3.6063 -3.6033 -3.4389 53.4861 7.3346
# 6 0.7792 11.2611 -2.4331 -8.9716 7.3346 42.2868
#
#
#
# Elastic Compliance Matrix: (Units=1/GPa)
#
#
# Indices 1 2 3 4 5 6 
#
# 1 0.010749 -0.002205 -0.003715 0.000948 -0.004273 0.001118
# 2 -0.002205 0.019724 -0.001313 0.002996 0.000255 -0.004696
# 3 -0.003715 -0.001313 0.009100 0.001518 0.002085 0.000902
# 4 0.000948 0.002996 0.001518 0.034464 0.000874 0.006432
# 5 -0.004273 0.000255 0.002085 0.000874 0.020953 -0.003318
# 6 0.001118 -0.004696 0.000902 0.006432 -0.003318 0.026870
#
#
# Mechanical properties :
#
#
# Convention : Reuss Voigt Hill
#
# Bulk Modulus (GPa) = 39.82845 53.24693 46.53769
# Shear Modulus (GPa) = 34.55544 41.05155 37.80350
#
# Velocity S-wave (km/s) = 3.71154 4.04540 3.88206
# Velocity P-wave (km/s) = 5.85193 6.56104 6.21660
#
# Compressibility (1/GPa) = 0.02510768
#
# Stress axis : x y z
#
# Youngs Moduli (GPa) = 93.02827 50.69971 109.89065
#
# Poissons Ratio (x) = 0.11179 0.40829
# Poissons Ratio (y) = 0.20512 0.14423
# Poissons Ratio (z) = 0.34564 0.06654
#
# Static dielectric constant tensor:
#      x y z
#    x 2.089970 -0.038350 -0.042460 
#    y -0.038350 2.079950 -0.044560 
#    z -0.042460 -0.044560 1.965770 
# 
# From -- ./inp_files/112892.got.cif
#   From: 2010.05.17/outbox.cif.g08.bks.cpg/sg2_57_cif.got.tgz:112892.got - 2010.06.03 11:33:40.
