data_PCOD9033043
_publ_section_title
;
Structure prediction by ZEFSAII (Michael W. Deem and Ramdas Pophale) SiO2 
 PCOD9033043
Probable space group: P -1
;
_chemical_formula_sum "Si O2"
_cell_formula_units_Z 15
_cell_length_a 11.035254
_cell_length_b 8.243466
_cell_length_c 14.933235
_cell_angle_alpha 62.900416
_cell_angle_beta 113.645398
_cell_angle_gamma 152.928049
_cell_volume 550.338107
_symmetry_space_group_name_H-M "P -1"
_symmetry_group_IT_number 2
_symmetry_cell_setting 'triclinic'
loop_
_space_group_symop_operation_xyz
x,y,z
-x,-y,-z
loop_
_atom_site_type_symbol
_atom_site_label
_atom_site_fract_x
_atom_site_fract_y
_atom_site_fract_z
Si Si1 0.339507 0.370739 0.313853
Si Si2 0.171438 0.484477 0.123260
Si Si3 0.500000 0.500000 0.000000
Si Si4 0.697029 0.335459 0.066245
Si Si5 0.816136 0.611346 0.572837
Si Si6 0.032120 0.548671 0.239207
Si Si7 0.422153 0.595504 0.762175
Si Si8 0.881577 0.553330 0.430340
O O1 0.172304 0.283304 0.212225
O O2 0.378806 0.557249 0.362084
O O3 0.564822 0.538673 0.281953
O O4 0.147509 0.992191 0.393241
O O5 0.058989 0.478642 0.168286
O O6 0.480383 0.917115 0.099809
O O7 0.087137 0.403606 0.015945
O O8 0.563853 0.373379 0.011655
O O9 0.617193 0.567527 0.117812
O O10 0.823411 0.451358 0.171248
O O11 0.990411 0.650627 0.652079
O O12 0.697881 0.396422 0.499076
O O13 0.000000 0.000000 0.500000
O O14 0.290282 0.967642 0.242212
O O15 0.260356 0.566961 0.674035
O O16 0.000000 0.500000 0.500000
#
# Coordination Sequence:
#
# PCOD9033043 Si02
#       8
#     2   2   1   2   2   2   2   2
#     4  10  23  44  71 100 139 182 230 286 350 414
#     4  10  22  44  65 105 135 183 231 281 350 417
#     4  12  26  46  68 106 142 182 230 290 346 416
#     4  11  24  44  68 100 144 179 232 292 343 410
#     4   9  22  45  67 103 132 181 231 283 348 406
#     4  11  24  42  72 100 139 186 229 286 351 414
#     4  12  27  45  68 107 139 186 236 283 348 423
#     4  11  26  47  73 101 143 182 234 295 347 409
#
# _framework density 27.255970000000001
#
# number of rings (size 3 to 8) (size 9 to 14) (size 15 to 20)
#    0.000    1.333    2.667    1.200    3.733    7.467 
#    0.000    6.667    0.000    0.000    0.000    0.000 
#    0.000    0.000    0.000    0.000    0.000    0.000 
#
# Total GULP energy -83607.488061 kJ/mol
# GULP energy per Si atom -5573.832537 kJ/mol
# Density = 2.719393 g / cm^3
# Si number density = 27.255970 Si / 1000 Ang^3
#
#
#
# Elastic Constant Matrix: (Units=GPa)
#
#
# Indices 1 2 3 4 5 6 
#
# 1 100.3730 15.5014 92.8513 7.9573 22.1959 -26.2429
# 2 15.5014 51.6794 35.8749 -1.2769 34.2210 -0.6118
# 3 92.8513 35.8749 273.5935 16.9757 18.6568 -13.8251
# 4 7.9573 -1.2769 16.9757 38.4552 -7.6254 6.8520
# 5 22.1959 34.2210 18.6568 -7.6254 70.8369 0.8957
# 6 -26.2429 -0.6118 -13.8251 6.8520 0.8957 27.7673
#
#
#
# Elastic Compliance Matrix: (Units=1/GPa)
#
#
# Indices 1 2 3 4 5 6 
#
# 1 0.022935 0.002652 -0.006096 -0.007229 -0.007903 0.020738
# 2 0.002652 0.031121 -0.003776 -0.001201 -0.015027 0.002094
# 3 -0.006096 -0.003776 0.005968 -0.000576 0.002136 -0.002800
# 4 -0.007229 -0.001201 -0.000576 0.031730 0.006605 -0.015188
# 5 -0.007903 -0.015027 0.002136 0.006605 0.024117 -0.009144
# 6 0.020738 0.002094 -0.002800 -0.015188 -0.009144 0.058308
#
#
# Mechanical properties :
#
#
# Convention : Reuss Voigt Hill
#
# Bulk Modulus (GPa) = 21.93727 79.34455 50.64091
# Shear Modulus (GPa) = 24.53225 46.17310 35.35268
#
# Velocity S-wave (km/s) = 3.00337 4.12035 3.60538
# Velocity P-wave (km/s) = 4.48253 7.19795 5.99598
#
# Compressibility (1/GPa) = 0.04558452
#
# Stress axis : x y z
#
# Youngs Moduli (GPa) = 43.60120 32.13237 167.57148
#
# Poissons Ratio (x) = -0.08522 1.02153
# Poissons Ratio (y) = -0.11564 0.63272
# Poissons Ratio (z) = 0.26580 0.12133
#
# Static dielectric constant tensor:
#      x y z
#    x 2.286180 0.024820 -0.103870 
#    y 0.024820 2.133850 0.050050 
#    z -0.103870 0.050050 2.157750 
# 
# From -- ./inp_files/90248.got.cif
#   From: 2010.05.17/outbox.cif.g08.bks.cpg/sg2_46_cif.got.tgz:90248.got - 2010.06.03 11:33:40.
