data_PCOD9033587
_publ_section_title
;
Structure prediction by ZEFSAII (Michael W. Deem and Ramdas Pophale) SiO2 
 PCOD9033587
Probable space group: P -1
;
_chemical_formula_sum "Si O2"
_cell_formula_units_Z 16
_cell_length_a 8.862990
_cell_length_b 13.425092
_cell_length_c 8.982617
_cell_angle_alpha 104.665305
_cell_angle_beta 98.754707
_cell_angle_gamma 127.799685
_cell_volume 748.054402
_symmetry_space_group_name_H-M "P -1"
_symmetry_group_IT_number 2
_symmetry_cell_setting 'triclinic'
loop_
_space_group_symop_operation_xyz
x,y,z
-x,-y,-z
loop_
_atom_site_type_symbol
_atom_site_label
_atom_site_fract_x
_atom_site_fract_y
_atom_site_fract_z
Si Si1 0.575662 0.817834 0.079609
Si Si2 0.244827 0.900131 0.256097
Si Si3 0.900413 0.844170 0.970900
Si Si4 0.888953 0.052900 0.452657
Si Si5 0.922902 0.712049 0.640882
Si Si6 0.202183 0.635396 0.165338
Si Si7 0.609206 0.165040 0.227194
Si Si8 0.219321 0.570956 0.482540
O O1 0.689628 0.777281 0.997710
O O2 0.743951 0.955142 0.255980
O O3 0.399348 0.696806 0.117777
O O4 0.480194 0.850755 0.954551
O O5 0.209239 0.762822 0.221907
O O6 0.059229 0.860636 0.112216
O O7 0.237516 0.954896 0.433797
O O8 0.456754 0.023557 0.246861
O O9 0.871393 0.761494 0.789992
O O10 0.000000 0.000000 0.000000
O O11 0.055686 0.211348 0.476015
O O12 0.000000 0.000000 0.500000
O O13 0.157405 0.773142 0.724779
O O14 0.766234 0.544591 0.540491
O O15 0.211521 0.594924 0.316862
O O16 0.000000 0.500000 0.000000
O O17 0.617989 0.279134 0.356722
O O18 0.000000 0.500000 0.500000
#
# Coordination Sequence:
#
# PCOD9033587 Si02
#       8
#     2   2   2   2   2   2   2   2
#     4  12  25  43  69 101 141 179 227 289 340 402
#     4  12  23  40  71  98 134 179 229 287 350 401
#     4  12  22  42  65  98 139 181 227 276 341 420
#     4  12  24  42  68 105 141 176 229 288 339 408
#     4  11  23  43  71  97 135 186 228 281 349 408
#     4  12  26  45  71 103 140 176 232 295 343 405
#     4  11  23  42  72 105 133 175 238 291 344 408
#     4  10  22  44  68  98 135 176 227 288 345 405
#
# _framework density 21.388818000000001
#
# number of rings (size 3 to 8) (size 9 to 14) (size 15 to 20)
#    0.000    0.500    3.750    6.000    0.000    3.000 
#    0.000    3.125    2.750    0.000    0.000    0.000 
#    0.000    0.000    0.000    0.000    0.000    0.000 
#
# Total GULP energy -89625.588216 kJ/mol
# GULP energy per Si atom -5601.599264 kJ/mol
# Density = 2.134014 g / cm^3
# Si number density = 21.388818 Si / 1000 Ang^3
#
#
#
# Elastic Constant Matrix: (Units=GPa)
#
#
# Indices 1 2 3 4 5 6 
#
# 1 103.1428 39.6712 22.1266 -4.7856 -31.5242 -1.4124
# 2 39.6712 160.4590 52.4949 -4.4381 -12.4010 -7.4292
# 3 22.1266 52.4949 111.9950 -6.2687 -24.4725 -3.4082
# 4 -4.7856 -4.4381 -6.2687 46.0619 -3.5447 -8.8228
# 5 -31.5242 -12.4010 -24.4725 -3.5447 44.1337 -11.5004
# 6 -1.4124 -7.4292 -3.4082 -8.8228 -11.5004 30.8686
#
#
#
# Elastic Compliance Matrix: (Units=1/GPa)
#
#
# Indices 1 2 3 4 5 6 
#
# 1 0.014345 -0.002733 0.001433 0.003421 0.012010 0.005609
# 2 -0.002733 0.007981 -0.003472 0.000082 -0.001389 0.000918
# 3 0.001433 -0.003472 0.012410 0.003025 0.008367 0.004582
# 4 0.003421 0.000082 0.003025 0.025314 0.009076 0.011127
# 5 0.012010 -0.001389 0.008367 0.009076 0.041186 0.019077
# 6 0.005609 0.000918 0.004582 0.011127 0.019077 0.043666
#
#
# Mechanical properties :
#
#
# Convention : Reuss Voigt Hill
#
# Bulk Modulus (GPa) = 39.69368 67.13136 53.41252
# Shear Modulus (GPa) = 30.70416 41.63313 36.16864
#
# Velocity S-wave (km/s) = 3.79294 4.41669 4.11665
# Velocity P-wave (km/s) = 6.14657 7.58049 6.90088
#
# Compressibility (1/GPa) = 0.02519293
#
# Stress axis : x y z
#
# Youngs Moduli (GPa) = 69.71009 125.29541 80.57919
#
# Poissons Ratio (x) = 0.34244 -0.11550
# Poissons Ratio (y) = 0.19052 0.27977
# Poissons Ratio (z) = -0.09992 0.43503
#
# Static dielectric constant tensor:
#      x y z
#    x 1.811750 0.025100 0.009500 
#    y 0.025100 1.803450 0.028820 
#    z 0.009500 0.028820 1.767090 
# 
# From -- ./inp_files/181701.got.cif
#   From: 2010.05.17/outbox.cif.g08.bks.cpg/sg2_91_cif.got.tgz:181701.got - 2010.06.03 11:33:40.
