data_PCOD9033774
_publ_section_title
;
Structure prediction by ZEFSAII (Michael W. Deem and Ramdas Pophale) SiO2 
 PCOD9033774
Probable space group: P -1
;
_chemical_formula_sum "Si O2"
_cell_formula_units_Z 14
_cell_length_a 9.489707
_cell_length_b 12.503478
_cell_length_c 13.130468
_cell_angle_alpha 120.300907
_cell_angle_beta 144.985241
_cell_angle_gamma 46.757649
_cell_volume 645.224672
_symmetry_space_group_name_H-M "P -1"
_symmetry_group_IT_number 2
_symmetry_cell_setting 'triclinic'
loop_
_space_group_symop_operation_xyz
x,y,z
-x,-y,-z
loop_
_atom_site_type_symbol
_atom_site_label
_atom_site_fract_x
_atom_site_fract_y
_atom_site_fract_z
Si Si1 0.728773 0.676597 0.848272
Si Si2 0.373933 0.713430 0.856984
Si Si3 0.276145 0.596027 0.325544
Si Si4 0.341423 0.626268 0.160665
Si Si5 0.274015 0.068195 0.490530
Si Si6 0.336650 0.858908 0.119898
Si Si7 0.808917 0.133754 0.526490
O O1 0.541660 0.727789 0.866380
O O2 0.852969 0.501739 0.825521
O O3 0.502409 0.762641 0.663752
O O4 0.992869 0.699044 0.004731
O O5 0.516098 0.539143 0.878034
O O6 0.036604 0.788906 0.657835
O O7 0.380305 0.794815 0.001046
O O8 0.500000 0.500000 0.500000
O O9 0.442808 0.602579 0.327516
O O10 0.075533 0.761744 0.327895
O O11 0.388289 0.731454 0.168808
O O12 0.433475 0.098236 0.690539
O O13 0.500000 0.000000 0.500000
O O14 0.216006 0.942681 0.426067
O O15 0.000000 0.000000 0.000000
O O16 0.000000 0.000000 0.500000
#
# Coordination Sequence:
#
# PCOD9033774 Si02
#       7
#     2   2   2   2   2   2   2
#     4  10  22  44  69  98 137 172 224 293 340 401
#     4  11  24  46  69 100 138 177 235 280 342 412
#     4   9  20  38  65  95 131 170 214 275 339 395
#     4  11  24  46  69  99 138 177 228 285 342 407
#     4  12  25  44  69  97 144 181 224 288 337 405
#     4  12  26  46  70 100 140 187 228 277 345 408
#     4  11  22  41  66  98 133 174 230 279 337 405
#
# _framework density 21.697866999999999
#
# number of rings (size 3 to 8) (size 9 to 14) (size 15 to 20)
#    0.000    1.143    2.857    3.857    0.000    2.857 
#    5.143    2.143    0.000    0.000    0.000    0.000 
#    0.000    0.000    0.000    0.000    0.000    0.000 
#
# Total GULP energy -78227.864854 kJ/mol
# GULP energy per Si atom -5587.704632 kJ/mol
# Density = 2.164848 g / cm^3
# Si number density = 21.697867 Si / 1000 Ang^3
#
#
#
# Elastic Constant Matrix: (Units=GPa)
#
#
# Indices 1 2 3 4 5 6 
#
# 1 64.3124 20.1542 2.4246 -0.5811 -2.8392 -6.6311
# 2 20.1542 111.0792 19.2706 7.4570 -1.4589 -9.7539
# 3 2.4246 19.2706 106.7913 1.5119 -4.8230 -15.5303
# 4 -0.5811 7.4570 1.5119 39.6736 -6.5585 -6.0121
# 5 -2.8392 -1.4589 -4.8230 -6.5585 34.8253 0.4062
# 6 -6.6311 -9.7539 -15.5303 -6.0121 0.4062 42.8679
#
#
#
# Elastic Compliance Matrix: (Units=1/GPa)
#
#
# Indices 1 2 3 4 5 6 
#
# 1 0.016790 -0.003013 0.000546 0.001396 0.001554 0.002290
# 2 -0.003013 0.010027 -0.001589 -0.001783 -0.000393 0.000993
# 3 0.000546 -0.001589 0.010205 0.000693 0.001481 0.003503
# 4 0.001396 -0.001783 0.000693 0.026964 0.005169 0.003794
# 5 0.001554 -0.000393 0.001481 0.005169 0.029990 0.001128
# 6 0.002290 0.000993 0.003503 0.003794 0.001128 0.025698
#
#
# Mechanical properties :
#
#
# Convention : Reuss Voigt Hill
#
# Bulk Modulus (GPa) = 34.59076 40.65354 37.62215
# Shear Modulus (GPa) = 36.38383 39.49559 37.93971
#
# Velocity S-wave (km/s) = 4.09937 4.27107 4.18610
# Velocity P-wave (km/s) = 6.19540 6.56503 6.38289
#
# Compressibility (1/GPa) = 0.02890945
#
# Stress axis : x y z
#
# Youngs Moduli (GPa) = 59.55855 99.73351 97.99194
#
# Poissons Ratio (x) = 0.30053 -0.05351
# Poissons Ratio (y) = 0.17947 0.15571
# Poissons Ratio (z) = -0.03252 0.15847
#
# Static dielectric constant tensor:
#      x y z
#    x 1.762130 -0.003470 -0.043820 
#    y -0.003470 1.800900 0.009770 
#    z -0.043820 0.009770 1.828510 
# 
# From -- ./inp_files/392923.got.cif
#   From: 2010.05.17/outbox.cif.g08.bks.cpg/sg2_197_cif.got.tgz:392923.got - 2010.06.03 11:33:40.
