data_PCOD9033277
_publ_section_title
;
Structure prediction by ZEFSAII (Michael W. Deem and Ramdas Pophale) SiO2 
 PCOD9033277
Probable space group: P -1
;
_chemical_formula_sum "Si O2"
_cell_formula_units_Z 16
_cell_length_a 5.258579
_cell_length_b 25.208587
_cell_length_c 8.705278
_cell_angle_alpha 137.732362
_cell_angle_beta 99.378949
_cell_angle_gamma 59.807596
_cell_volume 625.931671
_symmetry_space_group_name_H-M "P -1"
_symmetry_group_IT_number 2
_symmetry_cell_setting 'triclinic'
loop_
_space_group_symop_operation_xyz
x,y,z
-x,-y,-z
loop_
_atom_site_type_symbol
_atom_site_label
_atom_site_fract_x
_atom_site_fract_y
_atom_site_fract_z
Si Si1 0.524340 0.537279 0.324506
Si Si2 0.754092 0.130824 0.945800
Si Si3 0.363323 0.106307 0.656291
Si Si4 0.408937 0.392372 0.833403
Si Si5 0.079887 0.211229 0.570131
Si Si6 0.734043 0.289478 0.140175
Si Si7 0.164271 0.366950 0.027019
Si Si8 0.618917 0.914829 0.951722
O O1 0.591330 0.586113 0.296974
O O2 0.273998 0.624373 0.595046
O O3 0.855299 0.457967 0.268968
O O4 0.430077 0.471055 0.097460
O O5 0.620513 0.243022 0.151884
O O6 0.604608 0.097290 0.984343
O O7 0.111961 0.084595 0.928829
O O8 0.663674 0.109962 0.726362
O O9 0.219147 0.120609 0.503042
O O10 0.500000 0.000000 0.500000
O O11 0.070858 0.198292 0.918046
O O12 0.708989 0.283670 0.663915
O O13 0.135870 0.396214 0.906298
O O14 0.226411 0.177639 0.345001
O O15 0.166842 0.273011 0.809777
O O16 0.479014 0.337208 0.080677
O O17 0.500000 0.000000 0.000000
#
# Coordination Sequence:
#
# PCOD9033277 Si02
#       8
#     2   2   2   2   2   2   2   2
#     4  10  24  42  69 106 143 198 253 309 390 457
#     4  12  27  50  75 114 150 199 257 319 388 449
#     4  12  27  50  76 108 155 206 261 312 385 459
#     4  10  22  44  67 102 148 196 249 309 383 460
#     4  11  25  44  72 106 149 204 253 316 382 458
#     4  12  25  45  74 111 152 201 252 321 378 457
#     4  11  23  43  69 107 146 197 253 309 391 461
#     4  12  28  50  77 112 151 200 263 326 384 450
#
# _framework density 25.561895
#
# number of rings (size 3 to 8) (size 9 to 14) (size 15 to 20)
#    0.000    0.750    3.750    2.625    3.500    3.000 
#    0.000    0.000    0.000    0.000    0.000    0.000 
#    0.000    0.000    0.000    0.000    0.000    0.000 
#
# Total GULP energy -89409.464213 kJ/mol
# GULP energy per Si atom -5588.091513 kJ/mol
# Density = 2.550372 g / cm^3
# Si number density = 25.561895 Si / 1000 Ang^3
#
#
#
# Elastic Constant Matrix: (Units=GPa)
#
#
# Indices 1 2 3 4 5 6 
#
# 1 89.9236 46.0798 21.8904 0.5714 -7.3837 6.2739
# 2 46.0798 137.3630 17.1944 6.3345 -12.1389 -3.8891
# 3 21.8904 17.1944 114.6811 10.9787 -13.0452 -5.7002
# 4 0.5714 6.3345 10.9787 26.5697 2.6324 -0.8998
# 5 -7.3837 -12.1389 -13.0452 2.6324 30.4411 -1.9373
# 6 6.2739 -3.8891 -5.7002 -0.8998 -1.9373 54.5024
#
#
#
# Elastic Compliance Matrix: (Units=1/GPa)
#
#
# Indices 1 2 3 4 5 6 
#
# 1 0.014183 -0.004579 -0.002238 0.001601 0.000380 -0.002153
# 2 -0.004579 0.009203 0.000115 -0.002387 0.002895 0.001259
# 3 -0.002238 0.000115 0.010127 -0.004544 0.004325 0.001404
# 4 0.001601 -0.002387 -0.004544 0.040636 -0.006049 -0.000374
# 5 0.000380 0.002895 0.004325 -0.006049 0.036589 0.001816
# 6 -0.002153 0.001259 0.001404 -0.000374 0.001816 0.018891
#
#
# Mechanical properties :
#
#
# Convention : Reuss Voigt Hill
#
# Bulk Modulus (GPa) = 49.73014 56.92189 53.32601
# Shear Modulus (GPa) = 33.39221 39.42283 36.40752
#
# Velocity S-wave (km/s) = 3.61824 3.93141 3.77807
# Velocity P-wave (km/s) = 6.07886 6.55168 6.31970
#
# Compressibility (1/GPa) = 0.02010853
#
# Stress axis : x y z
#
# Youngs Moduli (GPa) = 70.50718 108.65722 98.75000
#
# Poissons Ratio (x) = 0.49753 0.22098
# Poissons Ratio (y) = 0.32285 -0.01132
# Poissons Ratio (z) = 0.15778 -0.01245
#
# Static dielectric constant tensor:
#      x y z
#    x 2.037520 0.055900 -0.016250 
#    y 0.055900 2.109330 0.006250 
#    z -0.016250 0.006250 2.046330 
# 
# From -- ./inp_files/143163.got.cif
#   From: 2010.05.17/outbox.cif.g08.bks.cpg/sg2_72_cif.got.tgz:143163.got - 2010.06.03 11:33:40.
