data_PCOD9033805
_publ_section_title
;
Structure prediction by ZEFSAII (Michael W. Deem and Ramdas Pophale) SiO2 
 PCOD9033805
Probable space group: P -1
;
_chemical_formula_sum "Si O2"
_cell_formula_units_Z 16
_cell_length_a 8.785679
_cell_length_b 17.331210
_cell_length_c 6.923479
_cell_angle_alpha 97.102589
_cell_angle_beta 45.683795
_cell_angle_gamma 105.769235
_cell_volume 722.532615
_symmetry_space_group_name_H-M "P -1"
_symmetry_group_IT_number 2
_symmetry_cell_setting 'triclinic'
loop_
_space_group_symop_operation_xyz
x,y,z
-x,-y,-z
loop_
_atom_site_type_symbol
_atom_site_label
_atom_site_fract_x
_atom_site_fract_y
_atom_site_fract_z
Si Si1 0.823023 0.397339 0.640122
Si Si2 0.185110 0.833256 0.995212
Si Si3 0.740364 0.550971 0.882440
Si Si4 0.046857 0.922115 0.829503
Si Si5 0.853203 0.860408 0.592318
Si Si6 0.483197 0.584365 0.444281
Si Si7 0.436680 0.711595 0.842304
Si Si8 0.399547 0.022793 0.295181
O O1 0.844880 0.475159 0.785107
O O2 0.714079 0.412089 0.533532
O O3 0.072251 0.390138 0.393108
O O4 0.661119 0.326407 0.878887
O O5 0.073625 0.846019 0.300438
O O6 0.027264 0.849217 0.973559
O O7 0.258980 0.751851 0.913305
O O8 0.399974 0.906103 0.786433
O O9 0.500000 0.500000 0.000000
O O10 0.693348 0.599862 0.121127
O O11 0.877615 0.886844 0.799359
O O12 0.285016 0.951870 0.519443
O O13 0.000000 0.000000 0.000000
O O14 0.655040 0.782176 0.708232
O O15 0.795644 0.935160 0.560613
O O16 0.500000 0.500000 0.500000
O O17 0.483939 0.645542 0.634950
O O18 0.500000 0.000000 0.000000
#
# Coordination Sequence:
#
# PCOD9033805 Si02
#       8
#     2   2   2   2   2   2   2   2
#     4  10  22  44  70 100 138 182 227 292 358 416
#     4  11  25  43  65 105 140 182 230 287 356 421
#     4   9  20  42  73 104 131 170 239 291 344 407
#     4  12  23  43  79 101 133 186 236 289 343 413
#     4  11  25  45  66 101 146 180 228 289 358 413
#     4  11  23  44  73 104 132 184 245 291 343 420
#     4  11  27  46  69  98 146 188 230 288 359 423
#     4  11  21  43  73  99 133 179 234 286 340 413
#
# _framework density 22.14433
#
# number of rings (size 3 to 8) (size 9 to 14) (size 15 to 20)
#    0.000    1.250    3.750    1.500    0.000    5.500 
#    4.500    0.000    0.000    0.000    0.000    0.000 
#    0.000    0.000    0.000    0.000    0.000    0.000 
#
# Total GULP energy -89223.529585 kJ/mol
# GULP energy per Si atom -5576.470599 kJ/mol
# Density = 2.209393 g / cm^3
# Si number density = 22.144330 Si / 1000 Ang^3
#
#
#
# Elastic Constant Matrix: (Units=GPa)
#
#
# Indices 1 2 3 4 5 6 
#
# 1 86.4393 46.2700 41.2985 2.0077 18.6211 -0.2170
# 2 46.2700 105.9330 54.7181 12.3644 12.4546 -5.2783
# 3 41.2985 54.7181 143.4520 16.5055 -5.7062 2.0254
# 4 2.0077 12.3644 16.5055 38.4209 -2.8639 -2.3301
# 5 18.6211 12.4546 -5.7062 -2.8639 37.8488 -2.9493
# 6 -0.2170 -5.2783 2.0254 -2.3301 -2.9493 26.6553
#
#
#
# Elastic Compliance Matrix: (Units=1/GPa)
#
#
# Indices 1 2 3 4 5 6 
#
# 1 0.017640 -0.005257 -0.003542 0.001656 -0.007460 -0.001309
# 2 -0.005257 0.014502 -0.003844 -0.002792 -0.002776 0.002570
# 3 -0.003542 -0.003844 0.009944 -0.002616 0.004207 -0.001309
# 4 0.001656 -0.002792 -0.002616 0.028257 0.002031 0.002354
# 5 -0.007460 -0.002776 0.004207 0.002031 0.032010 0.002789
# 6 -0.001309 0.002570 -0.001309 0.002354 0.002789 0.038628
#
#
# Mechanical properties :
#
#
# Convention : Reuss Voigt Hill
#
# Bulk Modulus (GPa) = 59.52223 68.93305 64.22764
# Shear Modulus (GPa) = 29.09245 33.48752 31.28998
#
# Velocity S-wave (km/s) = 3.62852 3.89297 3.76307
# Velocity P-wave (km/s) = 6.67027 7.16962 6.92445
#
# Compressibility (1/GPa) = 0.01680045
#
# Stress axis : x y z
#
# Youngs Moduli (GPa) = 56.68827 68.95731 100.56778
#
# Poissons Ratio (x) = 0.36250 0.35622
# Poissons Ratio (y) = 0.29801 0.38654
# Poissons Ratio (z) = 0.20080 0.26504
#
# Static dielectric constant tensor:
#      x y z
#    x 1.936960 -0.020630 0.011080 
#    y -0.020630 1.817640 -0.022650 
#    z 0.011080 -0.022650 1.865160 
# 
# From -- ./inp_files/47722.got.cif
#   From: 2010.05.17/outbox.cif.g08.bks.cpg/sg2_24_cif.got.tgz:47722.got - 2010.06.03 11:33:40.
