data_PCOD9033328
_publ_section_title
;
Structure prediction by ZEFSAII (Michael W. Deem and Ramdas Pophale) SiO2 
 PCOD9033328
Probable space group: P -1
;
_chemical_formula_sum "Si O2"
_cell_formula_units_Z 15
_cell_length_a 9.393058
_cell_length_b 7.607655
_cell_length_c 11.842012
_cell_angle_alpha 67.813845
_cell_angle_beta 67.670812
_cell_angle_gamma 49.288592
_cell_volume 583.084250
_symmetry_space_group_name_H-M "P -1"
_symmetry_group_IT_number 2
_symmetry_cell_setting 'triclinic'
loop_
_space_group_symop_operation_xyz
x,y,z
-x,-y,-z
loop_
_atom_site_type_symbol
_atom_site_label
_atom_site_fract_x
_atom_site_fract_y
_atom_site_fract_z
Si Si1 0.500000 0.000000 0.500000
Si Si2 0.361900 0.048561 0.892710
Si Si3 0.644253 0.288186 0.867905
Si Si4 0.203057 0.806544 0.391819
Si Si5 0.783473 0.147452 0.380579
Si Si6 0.975327 0.301913 0.858643
Si Si7 0.757886 0.447981 0.112464
Si Si8 0.744946 0.784364 0.700343
O O1 0.619620 0.113384 0.421932
O O2 0.343647 0.178803 0.405101
O O3 0.311562 0.303829 0.871214
O O4 0.199533 0.098125 0.841413
O O5 0.569282 0.872847 0.817969
O O6 0.344885 0.936416 0.037933
O O7 0.657254 0.326750 0.721816
O O8 0.831172 0.247191 0.873141
O O9 0.426665 0.504019 0.908711
O O10 0.257890 0.705323 0.526017
O O11 0.198575 0.038882 0.344805
O O12 0.990635 0.897806 0.400426
O O13 0.813652 0.265428 0.238655
O O14 0.919123 0.524062 0.747187
O O15 0.917908 0.372052 0.989962
#
# Coordination Sequence:
#
# PCOD9033328 Si02
#       8
#     1   2   2   2   2   2   2   2
#     4  10  24  42  72  96 132 176 212 286 328 384
#     4  12  25  43  68  99 136 176 222 271 332 392
#     4  12  24  41  65 101 136 175 215 280 329 393
#     4  10  22  44  67  94 135 175 222 269 329 395
#     4  10  23  42  71  95 130 178 223 273 333 390
#     4  12  26  41  69 102 137 173 220 274 333 395
#     4  12  23  43  68  97 132 177 223 272 325 402
#     4  11  23  47  66  99 136 177 221 269 333 391
#
# _framework density 25.725269999999998
#
# number of rings (size 3 to 8) (size 9 to 14) (size 15 to 20)
#    0.000    0.800    2.667    4.800    3.733    0.533 
#    2.400    0.667    0.000    0.000    0.000    0.000 
#    0.000    0.000    0.000    0.000    0.000    0.000 
#
# Total GULP energy -83801.049717 kJ/mol
# GULP energy per Si atom -5586.736648 kJ/mol
# Density = 2.566672 g / cm^3
# Si number density = 25.725270 Si / 1000 Ang^3
#
#
#
# Elastic Constant Matrix: (Units=GPa)
#
#
# Indices 1 2 3 4 5 6 
#
# 1 132.0240 3.5817 5.4178 -11.5192 4.3675 -19.1720
# 2 3.5817 41.8544 10.1994 -6.8515 7.1209 -14.4842
# 3 5.4178 10.1994 132.6013 -20.4711 23.9354 5.3101
# 4 -11.5192 -6.8515 -20.4711 34.6258 -7.0329 -4.3636
# 5 4.3675 7.1209 23.9354 -7.0329 30.5964 -9.0412
# 6 -19.1720 -14.4842 5.3101 -4.3636 -9.0412 33.0015
#
#
#
# Elastic Compliance Matrix: (Units=1/GPa)
#
#
# Indices 1 2 3 4 5 6 
#
# 1 0.008926 0.002320 -0.000467 0.004431 0.001739 0.007341
# 2 0.002320 0.031112 -0.002064 0.007957 0.000777 0.016600
# 3 -0.000467 -0.002064 0.009763 0.003084 -0.007696 -0.004449
# 4 0.004431 0.007957 0.003084 0.036784 0.007226 0.012413
# 5 0.001739 0.000777 -0.007696 0.007226 0.044594 0.015762
# 6 0.007341 0.016600 -0.004449 0.012413 0.015762 0.048527
#
#
# Mechanical properties :
#
#
# Convention : Reuss Voigt Hill
#
# Bulk Modulus (GPa) = 20.25236 38.31971 29.28604
# Shear Modulus (GPa) = 25.43401 38.79680 32.11541
#
# Velocity S-wave (km/s) = 3.14774 3.88767 3.53710
# Velocity P-wave (km/s) = 4.59354 5.92284 5.30003
#
# Compressibility (1/GPa) = 0.04937696
#
# Stress axis : x y z
#
# Youngs Moduli (GPa) = 112.03655 32.14216 102.43039
#
# Poissons Ratio (x) = -0.07456 0.04783
# Poissons Ratio (y) = -0.25990 0.21146
# Poissons Ratio (z) = 0.05232 0.06635
#
# Static dielectric constant tensor:
#      x y z
#    x 2.055420 0.039380 0.047340 
#    y 0.039380 2.017990 0.065050 
#    z 0.047340 0.065050 2.046520 
# 
# From -- ./inp_files/175906.got.cif
#   From: 2010.05.17/outbox.cif.g08.bks.cpg/sg2_88_cif.got.tgz:175906.got - 2010.06.03 11:33:40.
