data_PCOD9033856
_publ_section_title
;
Structure prediction by ZEFSAII (Michael W. Deem and Ramdas Pophale) SiO2 
 PCOD9033856
Probable space group: P -1
;
_chemical_formula_sum "Si O2"
_cell_formula_units_Z 13
_cell_length_a 12.460800
_cell_length_b 10.173296
_cell_length_c 17.155623
_cell_angle_alpha 144.986078
_cell_angle_beta 152.569432
_cell_angle_gamma 43.607106
_cell_volume 574.809634
_symmetry_space_group_name_H-M "P -1"
_symmetry_group_IT_number 2
_symmetry_cell_setting 'triclinic'
loop_
_space_group_symop_operation_xyz
x,y,z
-x,-y,-z
loop_
_atom_site_type_symbol
_atom_site_label
_atom_site_fract_x
_atom_site_fract_y
_atom_site_fract_z
Si Si1 0.534923 0.755162 0.613560
Si Si2 0.345669 0.216447 0.475925
Si Si3 0.874686 0.907520 0.452010
Si Si4 0.065177 0.095128 0.942293
Si Si5 0.762967 0.920101 0.127175
Si Si6 0.500000 0.500000 0.000000
Si Si7 0.330464 0.549836 0.089235
O O1 0.500000 0.500000 0.500000
O O2 0.606475 0.741608 0.563339
O O3 0.300074 0.895749 0.537084
O O4 0.726718 0.892372 0.855523
O O5 0.452144 0.415433 0.694401
O O6 0.500000 0.000000 0.500000
O O7 0.074944 0.144993 0.272488
O O8 0.724010 0.680729 0.230899
O O9 0.000000 0.000000 0.500000
O O10 0.066766 0.888337 0.634071
O O11 0.163542 0.147722 0.945638
O O12 0.873290 0.273822 0.934842
O O13 0.774690 0.699312 0.082718
O O14 0.500000 0.000000 0.000000
O O15 0.572265 0.414327 0.916536
#
# Coordination Sequence:
#
# PCOD9033856 Si02
#       7
#     2   2   2   2   2   1   2
#     4  12  25  44  74 111 142 189 251 315 374 444
#     4  10  22  44  70 103 142 188 248 302 365 439
#     4  12  25  48  71 104 153 197 245 302 378 447
#     4  11  23  43  72 105 141 189 248 303 367 443
#     4  12  25  47  70 108 147 190 248 307 370 440
#     4  12  26  46  78 104 150 198 250 296 382 440
#     4  11  23  46  71 103 144 198 239 300 373 440
#
# _framework density 22.616181999999998
#
# number of rings (size 3 to 8) (size 9 to 14) (size 15 to 20)
#    0.000    0.615    1.538    8.308    0.000    0.000 
#    2.769    1.538    0.000    0.000    0.000    0.000 
#    0.000    0.000    0.000    0.000    0.000    0.000 
#
# Total GULP energy -72528.554475 kJ/mol
# GULP energy per Si atom -5579.119575 kJ/mol
# Density = 2.256471 g / cm^3
# Si number density = 22.616182 Si / 1000 Ang^3
#
#
#
# Elastic Constant Matrix: (Units=GPa)
#
#
# Indices 1 2 3 4 5 6 
#
# 1 214.0718 21.8129 48.0276 -17.3401 -5.9579 18.7907
# 2 21.8129 33.3602 26.3597 -12.5893 8.4902 10.6440
# 3 48.0276 26.3597 187.5097 -8.7793 9.0935 2.5777
# 4 -17.3401 -12.5893 -8.7793 30.5272 6.1777 6.7862
# 5 -5.9579 8.4902 9.0935 6.1777 41.7570 -3.1735
# 6 18.7907 10.6440 2.5777 6.7862 -3.1735 31.5583
#
#
#
# Elastic Compliance Matrix: (Units=1/GPa)
#
#
# Indices 1 2 3 4 5 6 
#
# 1 0.005600 -0.000183 -0.001201 0.003576 0.000271 -0.003917
# 2 -0.000183 0.061425 -0.005704 0.033841 -0.018505 -0.029280
# 3 -0.001201 -0.005704 0.006321 -0.001789 0.000068 0.002514
# 4 0.003576 0.033841 -0.001789 0.057698 -0.016605 -0.027474
# 5 0.000271 -0.018505 0.000068 -0.016605 0.031162 0.012779
# 6 -0.003917 -0.029280 0.002514 -0.027474 0.012779 0.050883
#
#
# Mechanical properties :
#
#
# Convention : Reuss Voigt Hill
#
# Bulk Modulus (GPa) = 16.90008 69.70466 43.30237
# Shear Modulus (GPa) = 20.24398 43.35128 31.79763
#
# Velocity S-wave (km/s) = 2.99509 4.38291 3.75369
# Velocity P-wave (km/s) = 4.41016 7.51670 6.16240
#
# Compressibility (1/GPa) = 0.05917130
#
# Stress axis : x y z
#
# Youngs Moduli (GPa) = 178.56087 16.28011 158.20805
#
# Poissons Ratio (x) = 0.00298 0.18994
# Poissons Ratio (y) = 0.03267 0.90237
# Poissons Ratio (z) = 0.21438 0.09286
#
# Static dielectric constant tensor:
#      x y z
#    x 1.762070 0.020280 0.004320 
#    y 0.020280 1.803540 0.004800 
#    z 0.004320 0.004800 1.893090 
# 
# From -- ./inp_files/191136.got.cif
#   From: 2010.05.17/outbox.cif.g08.bks.cpg/sg2_96_cif.got.tgz:191136.got - 2010.06.03 11:33:40.
