data_PCOD9033672
_publ_section_title
;
Structure prediction by ZEFSAII (Michael W. Deem and Ramdas Pophale) SiO2 
 PCOD9033672
Probable space group: P -1
;
_chemical_formula_sum "Si O2"
_cell_formula_units_Z 16
_cell_length_a 8.618411
_cell_length_b 10.512099
_cell_length_c 9.810363
_cell_angle_alpha 85.784697
_cell_angle_beta 94.204236
_cell_angle_gamma 124.784222
_cell_volume 727.464102
_symmetry_space_group_name_H-M "P -1"
_symmetry_group_IT_number 2
_symmetry_cell_setting 'triclinic'
loop_
_space_group_symop_operation_xyz
x,y,z
-x,-y,-z
loop_
_atom_site_type_symbol
_atom_site_label
_atom_site_fract_x
_atom_site_fract_y
_atom_site_fract_z
Si Si1 0.965482 0.160683 0.081880
Si Si2 0.428375 0.960809 0.843937
Si Si3 0.384114 0.576336 0.486806
Si Si4 0.571262 0.911039 0.601108
Si Si5 0.299737 0.685229 0.215547
Si Si6 0.060965 0.932835 0.220599
Si Si7 0.888330 0.603422 0.281568
Si Si8 0.687360 0.500190 0.006528
O O1 0.144362 0.333662 0.056635
O O2 0.016443 0.058012 0.177220
O O3 0.795650 0.143709 0.153295
O O4 0.888000 0.089911 0.929629
O O5 0.532877 0.133943 0.774513
O O6 0.484219 0.877097 0.750195
O O7 0.500000 0.000000 0.000000
O O8 0.500000 0.500000 0.500000
O O9 0.507510 0.751792 0.537844
O O10 0.330067 0.585296 0.329701
O O11 0.195493 0.478825 0.574410
O O12 0.500000 0.000000 0.500000
O O13 0.791069 0.015636 0.650880
O O14 0.315736 0.629332 0.072732
O O15 0.099030 0.655625 0.247149
O O16 0.890817 0.759181 0.262273
O O17 0.747775 0.494095 0.163246
O O18 0.500000 0.500000 0.000000
#
# Coordination Sequence:
#
# PCOD9033672 Si02
#       8
#     2   2   2   2   2   2   2   2
#     4  10  24  41  71 109 139 182 239 298 362 421
#     4  12  24  45  77 103 140 185 244 303 355 431
#     4  12  29  47  72 103 150 197 240 294 366 431
#     4  12  25  48  73 102 144 193 241 297 360 433
#     4  12  26  47  69 107 144 188 243 297 360 431
#     4  10  22  44  69 104 143 178 240 297 357 432
#     4  11  24  47  72 101 141 188 240 299 358 430
#     4  11  26  43  71 105 144 187 238 299 364 426
#
# _framework density 21.994212000000001
#
# number of rings (size 3 to 8) (size 9 to 14) (size 15 to 20)
#    0.000    0.750    3.750    2.250   14.000    0.000 
#    0.000    1.250    0.000    0.000    0.000    0.000 
#    0.000    0.000    0.000    0.000    0.000    0.000 
#
# Total GULP energy -89393.316247 kJ/mol
# GULP energy per Si atom -5587.082265 kJ/mol
# Density = 2.194415 g / cm^3
# Si number density = 21.994212 Si / 1000 Ang^3
#
#
#
# Elastic Constant Matrix: (Units=GPa)
#
#
# Indices 1 2 3 4 5 6 
#
# 1 78.4214 26.1459 6.5295 -6.8957 -1.3117 3.3650
# 2 26.1459 92.9654 14.2103 0.2065 -4.5831 -6.3430
# 3 6.5295 14.2103 76.0397 -7.9657 13.3563 -2.1760
# 4 -6.8957 0.2065 -7.9657 35.5226 -6.7838 -4.5799
# 5 -1.3117 -4.5831 13.3563 -6.7838 42.1441 -8.2703
# 6 3.3650 -6.3430 -2.1760 -4.5799 -8.2703 39.5296
#
#
#
# Elastic Compliance Matrix: (Units=1/GPa)
#
#
# Indices 1 2 3 4 5 6 
#
# 1 0.014449 -0.004124 -0.000277 0.002604 0.000202 -0.001563
# 2 -0.004124 0.012589 -0.002413 -0.000605 0.002433 0.002677
# 3 -0.000277 -0.002413 0.014671 0.002341 -0.004592 -0.000245
# 4 0.002604 -0.000605 0.002341 0.030729 0.005090 0.004435
# 5 0.000202 0.002433 -0.004592 0.005090 0.027544 0.006473
# 6 -0.001563 0.002677 -0.000245 0.004435 0.006473 0.027715
#
#
# Mechanical properties :
#
#
# Convention : Reuss Voigt Hill
#
# Bulk Modulus (GPa) = 35.61155 37.91090 36.76123
# Shear Modulus (GPa) = 33.18193 36.80865 34.99529
#
# Velocity S-wave (km/s) = 3.88837 4.09536 3.99320
# Velocity P-wave (km/s) = 6.03206 6.29577 6.16533
#
# Compressibility (1/GPa) = 0.02808078
#
# Stress axis : x y z
#
# Youngs Moduli (GPa) = 69.20909 79.43286 68.16391
#
# Poissons Ratio (x) = 0.32756 0.01891
# Poissons Ratio (y) = 0.28540 0.16446
# Poissons Ratio (z) = 0.01920 0.19165
#
# Static dielectric constant tensor:
#      x y z
#    x 1.807760 -0.074030 -0.026580 
#    y -0.074030 1.596380 -0.067950 
#    z -0.026580 -0.067950 1.777300 
# 
# From -- ./inp_files/187702.got.cif
#   From: 2010.05.17/outbox.cif.g08.bks.cpg/sg2_94_cif.got.tgz:187702.got - 2010.06.03 11:33:40.
