data_PCOD9033664
_publ_section_title
;
Structure prediction by ZEFSAII (Michael W. Deem and Ramdas Pophale) SiO2 
 PCOD9033664
Probable space group: P -1
;
_chemical_formula_sum "Si O2"
_cell_formula_units_Z 14
_cell_length_a 7.594479
_cell_length_b 14.396237
_cell_length_c 8.918832
_cell_angle_alpha 45.575029
_cell_angle_beta 81.063162
_cell_angle_gamma 63.314252
_cell_volume 602.587546
_symmetry_space_group_name_H-M "P -1"
_symmetry_group_IT_number 2
_symmetry_cell_setting 'triclinic'
loop_
_space_group_symop_operation_xyz
x,y,z
-x,-y,-z
loop_
_atom_site_type_symbol
_atom_site_label
_atom_site_fract_x
_atom_site_fract_y
_atom_site_fract_z
Si Si1 0.465869 0.890261 0.731602
Si Si2 0.181198 0.894695 0.307121
Si Si3 0.103825 0.808242 0.868329
Si Si4 0.233394 0.061226 0.836071
Si Si5 0.677914 0.377740 0.220107
Si Si6 0.054763 0.340555 0.740274
Si Si7 0.822834 0.584811 0.046880
O O1 0.277476 0.856247 0.789259
O O2 0.500000 0.000000 0.500000
O O3 0.427538 0.970593 0.808157
O O4 0.646395 0.732647 0.834742
O O5 0.339500 0.745840 0.538574
O O6 0.976281 0.887748 0.290201
O O7 0.103531 0.037242 0.266161
O O8 0.247645 0.944309 0.092249
O O9 0.139895 0.718058 0.812595
O O10 0.111312 0.710060 0.123823
O O11 0.200850 0.209445 0.757452
O O12 0.738161 0.471222 0.218896
O O13 0.500000 0.500000 0.000000
O O14 0.136632 0.352509 0.877924
O O15 0.000000 0.500000 0.500000
O O16 0.000000 0.500000 0.000000
#
# Coordination Sequence:
#
# PCOD9033664 Si02
#       7
#     2   2   2   2   2   2   2
#     4  11  26  44  71 105 142 183 240 302 348 427
#     4   9  20  40  74  98 136 186 238 293 350 430
#     4  10  22  44  69 103 140 184 242 282 362 429
#     4   9  21  44  68 103 139 186 244 287 359 427
#     4  12  23  42  68 105 144 182 239 294 360 425
#     4  11  24  44  75 103 143 191 234 298 359 425
#     4  12  27  44  65 103 143 185 242 288 356 429
#
# _framework density 23.233141
#
# number of rings (size 3 to 8) (size 9 to 14) (size 15 to 20)
#    0.000    1.429    2.857    2.143    6.000    2.857 
#    2.571    1.429    0.000    0.000    0.000    0.000 
#    0.000    0.000    0.000    0.000    0.000    0.000 
#
# Total GULP energy -78102.064365 kJ/mol
# GULP energy per Si atom -5578.718883 kJ/mol
# Density = 2.318026 g / cm^3
# Si number density = 23.233141 Si / 1000 Ang^3
#
#
#
# Elastic Constant Matrix: (Units=GPa)
#
#
# Indices 1 2 3 4 5 6 
#
# 1 61.9672 37.5074 37.3145 -10.1909 -13.3622 0.7739
# 2 37.5074 183.2490 38.4954 -21.9459 -10.9927 2.9734
# 3 37.3145 38.4954 170.1935 -29.8373 -25.0977 -12.7328
# 4 -10.1909 -21.9459 -29.8373 31.6724 9.3274 -3.2022
# 5 -13.3622 -10.9927 -25.0977 9.3274 27.6885 -0.1255
# 6 0.7739 2.9734 -12.7328 -3.2022 -0.1255 34.9179
#
#
#
# Elastic Compliance Matrix: (Units=1/GPa)
#
#
# Indices 1 2 3 4 5 6 
#
# 1 0.021382 -0.003362 -0.003185 -0.000424 0.006234 -0.001365
# 2 -0.003362 0.006577 -0.000239 0.003326 -0.000350 -0.000269
# 3 -0.003185 -0.000239 0.008583 0.006064 0.004122 0.003792
# 4 -0.000424 0.003326 0.006064 0.042279 -0.007603 0.005787
# 5 0.006234 -0.000350 0.004122 -0.007603 0.045287 0.000860
# 6 -0.001365 -0.000269 0.003792 0.005787 0.000860 0.030608
#
#
# Mechanical properties :
#
#
# Convention : Reuss Voigt Hill
#
# Bulk Modulus (GPa) = 43.53500 71.33827 57.43663
# Shear Modulus (GPa) = 28.41811 38.99525 33.70668
#
# Velocity S-wave (km/s) = 3.50118 4.10131 3.81307
# Velocity P-wave (km/s) = 5.92650 7.29381 6.64542
#
# Compressibility (1/GPa) = 0.02297002
#
# Stress axis : x y z
#
# Youngs Moduli (GPa) = 46.76871 152.04141 116.51365
#
# Poissons Ratio (x) = 0.51118 0.37105
# Poissons Ratio (y) = 0.15724 0.02786
# Poissons Ratio (z) = 0.14894 0.03636
#
# Static dielectric constant tensor:
#      x y z
#    x 1.869780 0.015320 0.239780 
#    y 0.015320 1.884480 -0.088410 
#    z 0.239780 -0.088410 2.622770 
# 
# From -- ./inp_files/205103.got.cif
#   From: 2010.05.17/outbox.cif.g08.bks.cpg/sg2_103_cif.got.tgz:205103.got - 2010.06.03 11:33:40.
