data_PCOD9033821
_publ_section_title
;
Structure prediction by ZEFSAII (Michael W. Deem and Ramdas Pophale) SiO2 
 PCOD9033821
Probable space group: P -1
;
_chemical_formula_sum "Si O2"
_cell_formula_units_Z 14
_cell_length_a 17.665268
_cell_length_b 23.020851
_cell_length_c 7.823731
_cell_angle_alpha 133.859083
_cell_angle_beta 134.633219
_cell_angle_gamma 13.269731
_cell_volume 518.896766
_symmetry_space_group_name_H-M "P -1"
_symmetry_group_IT_number 2
_symmetry_cell_setting 'triclinic'
loop_
_space_group_symop_operation_xyz
x,y,z
-x,-y,-z
loop_
_atom_site_type_symbol
_atom_site_label
_atom_site_fract_x
_atom_site_fract_y
_atom_site_fract_z
Si Si1 0.389010 0.043389 0.730281
Si Si2 0.235208 0.716058 0.818417
Si Si3 0.681544 0.542730 0.290560
Si Si4 0.608308 0.285686 0.482476
Si Si5 0.347211 0.997268 0.116351
Si Si6 0.507999 0.794079 0.254564
Si Si7 0.108827 0.697130 0.312200
O O1 0.591284 0.823888 0.522402
O O2 0.072457 0.220152 0.652208
O O3 0.411010 0.104684 0.767613
O O4 0.500000 0.000000 0.000000
O O5 0.497528 0.453712 0.725956
O O6 0.549338 0.597966 0.722406
O O7 0.879496 0.958336 0.837722
O O8 0.421272 0.664053 0.049321
O O9 0.538208 0.667294 0.504708
O O10 0.056771 0.237626 0.274841
O O11 0.701177 0.596695 0.286571
O O12 0.846097 0.244799 0.430023
O O13 0.000000 0.000000 0.500000
O O14 0.543680 0.784954 0.089873
O O15 0.113286 0.143791 0.882349
#
# Coordination Sequence:
#
# PCOD9033821 Si02
#       7
#     2   2   2   2   2   2   2
#     4   9  19  43  70  98 134 183 231 292 348 398
#     4   9  21  45  64  95 143 180 226 286 340 404
#     4  12  24  42  67 104 139 179 234 284 340 426
#     4  10  22  44  70 101 137 185 234 284 349 406
#     4  11  22  42  69  99 143 180 231 287 340 412
#     4  11  23  40  70 102 135 187 228 284 353 407
#     4   8  20  41  69  99 136 184 226 283 349 398
#
# _framework density 26.980316999999999
#
# number of rings (size 3 to 8) (size 9 to 14) (size 15 to 20)
#    0.857    1.143    1.429    1.286    0.000    3.429 
#    7.714    0.714    0.000    8.571    0.000    0.000 
#    0.000    0.000    0.000    0.000    0.000    0.000 
#
# Total GULP energy -78137.681499 kJ/mol
# GULP energy per Si atom -5581.262964 kJ/mol
# Density = 2.691891 g / cm^3
# Si number density = 26.980317 Si / 1000 Ang^3
#
#
#
# Elastic Constant Matrix: (Units=GPa)
#
#
# Indices 1 2 3 4 5 6 
#
# 1 194.9240 30.3876 45.6482 -5.2081 -1.6093 12.1101
# 2 30.3876 42.0722 4.6793 1.4871 -3.8371 -0.4032
# 3 45.6482 4.6793 116.4780 -25.9413 -6.4757 15.7180
# 4 -5.2081 1.4871 -25.9413 31.7425 2.6259 -1.8687
# 5 -1.6093 -3.8371 -6.4757 2.6259 53.1420 -5.1161
# 6 12.1101 -0.4032 15.7180 -1.8687 -5.1161 57.9486
#
#
#
# Elastic Compliance Matrix: (Units=1/GPa)
#
#
# Indices 1 2 3 4 5 6 
#
# 1 0.006404 -0.004380 -0.002416 -0.000727 -0.000456 -0.000777
# 2 -0.004380 0.027186 0.000138 -0.001980 0.002059 0.001185
# 3 -0.002416 0.000138 0.011922 0.009142 0.000710 -0.002370
# 4 -0.000727 -0.001980 0.009142 0.038969 -0.001090 -0.001181
# 5 -0.000456 0.002059 0.000710 -0.001090 0.019245 0.001581
# 6 -0.000777 0.001185 -0.002370 -0.001181 0.001581 0.018172
#
#
# Mechanical properties :
#
#
# Convention : Reuss Voigt Hill
#
# Bulk Modulus (GPa) = 31.05999 57.21161 44.13580
# Shear Modulus (GPa) = 34.25930 46.75054 40.50492
#
# Velocity S-wave (km/s) = 3.56727 4.16716 3.87883
# Velocity P-wave (km/s) = 5.33895 6.66368 6.03776
#
# Compressibility (1/GPa) = 0.03219576
#
# Stress axis : x y z
#
# Youngs Moduli (GPa) = 156.15399 36.78367 83.87831
#
# Poissons Ratio (x) = 0.16111 0.20266
# Poissons Ratio (y) = 0.68395 -0.01157
# Poissons Ratio (z) = 0.37728 -0.00508
#
# Static dielectric constant tensor:
#      x y z
#    x 2.164520 0.021050 -0.035660 
#    y 0.021050 2.202000 0.030120 
#    z -0.035660 0.030120 2.253360 
# 
# From -- ./inp_files/319476.got.cif
#   From: 2010.05.17/outbox.cif.g08.bks.cpg/sg2_160_cif.got.tgz:319476.got - 2010.06.03 11:33:40.
