data_PCOD9033262
_publ_section_title
;
Structure prediction by ZEFSAII (Michael W. Deem and Ramdas Pophale) SiO2 
 PCOD9033262
Probable space group: P -1
;
_chemical_formula_sum "Si O2"
_cell_formula_units_Z 15
_cell_length_a 12.014475
_cell_length_b 9.854961
_cell_length_c 22.593788
_cell_angle_alpha 41.248032
_cell_angle_beta 151.228190
_cell_angle_gamma 118.059451
_cell_volume 682.653548
_symmetry_space_group_name_H-M "P -1"
_symmetry_group_IT_number 2
_symmetry_cell_setting 'triclinic'
loop_
_space_group_symop_operation_xyz
x,y,z
-x,-y,-z
loop_
_atom_site_type_symbol
_atom_site_label
_atom_site_fract_x
_atom_site_fract_y
_atom_site_fract_z
Si Si1 0.154840 0.722955 0.693602
Si Si2 0.433794 0.499915 0.779254
Si Si3 0.500000 0.000000 0.500000
Si Si4 0.964338 0.970526 0.644121
Si Si5 0.197103 0.196594 0.761985
Si Si6 0.941303 0.773898 0.882050
Si Si7 0.162215 0.879998 0.175836
Si Si8 0.162941 0.539317 0.381220
O O1 0.411575 0.538441 0.827451
O O2 0.962074 0.621029 0.633133
O O3 0.000000 0.000000 0.500000
O O4 0.168704 0.768816 0.754402
O O5 0.300004 0.772200 0.596977
O O6 0.235469 0.416360 0.691300
O O7 0.758723 0.291315 0.979574
O O8 0.801941 0.899064 0.635404
O O9 0.328131 0.037328 0.346826
O O10 0.133684 0.060341 0.728298
O O11 0.948364 0.316583 0.655621
O O12 0.500000 0.000000 0.000000
O O13 0.876828 0.896617 0.876135
O O14 0.000000 0.500000 0.000000
O O15 0.058484 0.744936 0.212699
O O16 0.495355 0.656409 0.393776
O O17 0.000000 0.000000 0.000000
#
# Coordination Sequence:
#
# PCOD9033262 Si02
#       8
#     2   2   1   2   2   2   2   2
#     4   9  21  42  70  99 137 181 234 291 357 413
#     4  10  22  44  67 101 135 180 232 296 350 423
#     4  12  24  42  70 102 144 182 228 294 354 422
#     4  11  22  40  70 102 133 186 233 287 355 413
#     4  11  23  43  68  98 141 182 239 292 350 432
#     4  12  26  46  72 106 143 183 250 296 361 435
#     4  11  26  45  71 104 144 195 238 293 365 433
#     4  10  23  46  68  99 150 184 235 298 356 434
#
# _framework density 21.973078000000001
#
# number of rings (size 3 to 8) (size 9 to 14) (size 15 to 20)
#    0.000    1.333    1.333    3.600    3.733    4.267 
#    7.200    7.333    0.000    0.000    0.000    0.000 
#    0.000    0.000    0.000    0.000    0.000    0.000 
#
# Total GULP energy -83583.467421 kJ/mol
# GULP energy per Si atom -5572.231161 kJ/mol
# Density = 2.192307 g / cm^3
# Si number density = 21.973078 Si / 1000 Ang^3
#
#
#
# Elastic Constant Matrix: (Units=GPa)
#
#
# Indices 1 2 3 4 5 6 
#
# 1 69.8248 36.8868 12.4936 20.2799 6.5400 -10.8948
# 2 36.8868 122.3314 27.1913 12.2164 -5.6459 -28.6146
# 3 12.4936 27.1913 70.5354 12.9851 1.9322 -17.0541
# 4 20.2799 12.2164 12.9851 34.3433 -3.4747 -15.6021
# 5 6.5400 -5.6459 1.9322 -3.4747 39.9981 -2.9103
# 6 -10.8948 -28.6146 -17.0541 -15.6021 -2.9103 49.6045
#
#
#
# Elastic Compliance Matrix: (Units=1/GPa)
#
#
# Indices 1 2 3 4 5 6 
#
# 1 0.021188 -0.006197 0.000338 -0.012384 -0.005652 -0.003032
# 2 -0.006197 0.011840 -0.002804 0.003510 0.003548 0.005817
# 3 0.000338 -0.002804 0.016712 -0.004429 -0.001445 0.002725
# 4 -0.012384 0.003510 -0.004429 0.042917 0.007315 0.011709
# 5 -0.005652 0.003548 -0.001445 0.007315 0.027438 0.004219
# 6 -0.003032 0.005817 0.002725 0.011709 0.004219 0.027716
#
#
# Mechanical properties :
#
#
# Convention : Reuss Voigt Hill
#
# Bulk Modulus (GPa) = 30.85072 46.20390 38.52731
# Shear Modulus (GPa) = 28.41827 37.19716 32.80771
#
# Velocity S-wave (km/s) = 3.60018 4.11889 3.86824
# Velocity P-wave (km/s) = 5.59933 6.61011 6.12560
#
# Compressibility (1/GPa) = 0.03241415
#
# Stress axis : x y z
#
# Youngs Moduli (GPa) = 47.19611 84.45693 59.83741
#
# Poissons Ratio (x) = 0.52341 -0.02021
# Poissons Ratio (y) = 0.29249 0.16776
# Poissons Ratio (z) = -0.01594 0.23678
#
# Static dielectric constant tensor:
#      x y z
#    x 1.843930 0.037870 -0.020780 
#    y 0.037870 1.809850 -0.051170 
#    z -0.020780 -0.051170 1.799360 
# 
# From -- ./inp_files/593496.got.cif
#   From: 2010.05.17/outbox.cif.g08.bks.cpg/sg2_297_cif.got.tgz:593496.got - 2010.06.03 11:33:40.
