data_PCOD9033810
_publ_section_title
;
Structure prediction by ZEFSAII (Michael W. Deem and Ramdas Pophale) SiO2 
 PCOD9033810
Probable space group: P -1
;
_chemical_formula_sum "Si O2"
_cell_formula_units_Z 16
_cell_length_a 9.207441
_cell_length_b 12.414576
_cell_length_c 14.953582
_cell_angle_alpha 106.618863
_cell_angle_beta 150.775725
_cell_angle_gamma 69.201710
_cell_volume 779.077032
_symmetry_space_group_name_H-M "P -1"
_symmetry_group_IT_number 2
_symmetry_cell_setting 'triclinic'
loop_
_space_group_symop_operation_xyz
x,y,z
-x,-y,-z
loop_
_atom_site_type_symbol
_atom_site_label
_atom_site_fract_x
_atom_site_fract_y
_atom_site_fract_z
Si Si1 0.660422 0.514650 0.789246
Si Si2 0.688082 0.716561 0.717741
Si Si3 0.268649 0.086096 0.457807
Si Si4 0.617198 0.670796 0.465880
Si Si5 0.727481 0.471483 0.242499
Si Si6 0.615751 0.311679 0.981150
Si Si7 0.366423 0.968686 0.672312
Si Si8 0.362078 0.931325 0.986559
O O1 0.628227 0.609189 0.716601
O O2 0.648419 0.385509 0.723366
O O3 0.426707 0.553548 0.754443
O O4 0.000000 0.500000 0.000000
O O5 0.572189 0.700935 0.552463
O O6 0.507203 0.835029 0.692662
O O7 0.048416 0.716779 0.893123
O O8 0.316604 0.215065 0.513676
O O9 0.948918 0.081693 0.235636
O O10 0.500000 0.000000 0.500000
O O11 0.361015 0.039871 0.595273
O O12 0.910582 0.568556 0.577838
O O13 0.612835 0.606545 0.189915
O O14 0.630174 0.393684 0.093504
O O15 0.521155 0.199458 0.943638
O O16 0.000000 0.000000 0.500000
O O17 0.574940 0.000690 0.872646
O O18 0.500000 0.000000 0.000000
#
# Coordination Sequence:
#
# PCOD9033810 Si02
#       8
#     2   2   2   2   2   2   2   2
#     4  12  26  42  72 110 138 183 246 292 359 426
#     4  11  24  48  68 102 147 181 236 298 359 431
#     4  12  25  51  72 105 147 192 243 296 371 432
#     4  11  25  48  70  98 150 190 231 300 362 432
#     4  10  22  44  70 100 141 188 234 292 359 427
#     4  10  22  45  71 100 141 186 233 292 364 426
#     4  12  28  45  73 109 145 191 244 303 366 432
#     4  12  26  47  77 107 143 191 249 304 361 436
#
# _framework density 20.537123000000001
#
# number of rings (size 3 to 8) (size 9 to 14) (size 15 to 20)
#    0.000    0.750    6.250    0.750    5.250    4.000 
#    2.250    0.000    0.000    0.000    0.000    0.000 
#    0.000    0.000    0.000    0.000    0.000    0.000 
#
# Total GULP energy -89152.462592 kJ/mol
# GULP energy per Si atom -5572.028912 kJ/mol
# Density = 2.049038 g / cm^3
# Si number density = 20.537123 Si / 1000 Ang^3
#
#
#
# Elastic Constant Matrix: (Units=GPa)
#
#
# Indices 1 2 3 4 5 6 
#
# 1 101.8666 47.6387 6.0496 19.7752 -24.5483 16.7436
# 2 47.6387 110.3627 53.0177 22.2409 18.2275 0.5684
# 3 6.0496 53.0177 77.5004 42.7324 -18.4183 2.1741
# 4 19.7752 22.2409 42.7324 13.8795 9.9793 0.2231
# 5 -24.5483 18.2275 -18.4183 9.9793 14.0091 -1.5945
# 6 16.7436 0.5684 2.1741 0.2231 -1.5945 40.7317
#
#
#
# Elastic Compliance Matrix: (Units=1/GPa)
#
#
# Indices 1 2 3 4 5 6 
#
# 1 0.009052 -0.003405 -0.007324 0.015936 -0.001076 -0.003412
# 2 -0.003405 0.014799 0.002783 -0.024653 -0.003885 0.001028
# 3 -0.007324 0.002783 0.003489 0.007298 -0.016828 0.002087
# 4 0.015936 -0.024653 0.007298 0.034506 0.044441 -0.005046
# 5 -0.001076 -0.003885 -0.016828 0.044441 0.020995 0.001973
# 6 -0.003412 0.001028 0.002087 -0.005046 0.001973 0.025933
#
#
# Mechanical properties :
#
#
# Convention : Reuss Voigt Hill
#
# Bulk Modulus (GPa) = 87.35406 55.90465 71.62936
# Shear Modulus (GPa) = 38.91580 25.92563 32.42071
#
# Velocity S-wave (km/s) = 4.35777 3.55685 3.97752
# Velocity P-wave (km/s) = 8.24301 6.64444 7.48652
#
# Compressibility (1/GPa) = 0.01144766
#
# Stress axis : x y z
#
# Youngs Moduli (GPa) = 110.46937 67.57356 286.59012
#
# Poissons Ratio (x) = 0.23012 2.09889
# Poissons Ratio (y) = 0.37620 -0.79754
# Poissons Ratio (z) = 0.80904 -0.18805
#
# Static dielectric constant tensor:
#      x y z
#    x 1.686880 -0.023330 0.015100 
#    y -0.023330 1.693890 0.000700 
#    z 0.015100 0.000700 1.761850 
# 
# From -- ./inp_files/500631.got.cif
#   From: 2010.05.17/outbox.cif.g08.bks.cpg/sg2_251_cif.got.tgz:500631.got - 2010.06.03 11:33:40.
