data_PCOD9033681
_publ_section_title
;
Structure prediction by ZEFSAII (Michael W. Deem and Ramdas Pophale) SiO2 
 PCOD9033681
Probable space group: P -1
;
_chemical_formula_sum "Si O2"
_cell_formula_units_Z 16
_cell_length_a 11.400099
_cell_length_b 13.141903
_cell_length_c 9.302282
_cell_angle_alpha 119.326022
_cell_angle_beta 102.375068
_cell_angle_gamma 34.733272
_cell_volume 640.679225
_symmetry_space_group_name_H-M "P -1"
_symmetry_group_IT_number 2
_symmetry_cell_setting 'triclinic'
loop_
_space_group_symop_operation_xyz
x,y,z
-x,-y,-z
loop_
_atom_site_type_symbol
_atom_site_label
_atom_site_fract_x
_atom_site_fract_y
_atom_site_fract_z
Si Si1 0.492520 0.864417 0.430601
Si Si2 0.661623 0.303252 0.019809
Si Si3 0.984673 0.080628 0.703974
Si Si4 0.025272 0.735616 0.382880
Si Si5 0.265256 0.705875 0.652103
Si Si6 0.400553 0.904934 0.117925
Si Si7 0.838921 0.626854 0.908507
Si Si8 0.970317 0.409882 0.331920
O O1 0.505720 0.805205 0.233519
O O2 0.699520 0.633284 0.405548
O O3 0.500000 0.000000 0.500000
O O4 0.243895 0.040813 0.543097
O O5 0.104195 0.725125 0.242586
O O6 0.730793 0.317511 0.191397
O O7 0.500000 0.500000 0.000000
O O8 0.607135 0.222976 0.019454
O O9 0.855385 0.126046 0.832288
O O10 0.000000 0.000000 0.500000
O O11 0.216869 0.879097 0.704149
O O12 0.120612 0.731557 0.537935
O O13 0.110585 0.535373 0.272361
O O14 0.843936 0.838211 0.745245
O O15 0.500000 0.500000 0.500000
O O16 0.579309 0.836408 0.029887
O O17 0.931667 0.648413 0.842045
O O18 0.000000 0.500000 0.000000
O O19 0.000000 0.500000 0.500000
#
# Coordination Sequence:
#
# PCOD9033681 Si02
#       8
#     2   2   2   2   2   2   2   2
#     4  12  23  50  75 112 157 199 261 318 384 480
#     4  12  26  50  75 110 157 202 265 336 393 469
#     4  10  22  44  69 105 145 193 254 320 381 463
#     4  11  24  48  79 107 154 212 254 322 407 462
#     4  11  24  47  74 110 150 202 270 326 388 479
#     4  12  25  47  76 113 151 202 259 320 401 459
#     4  12  24  46  74 112 159 195 255 325 391 475
#     4  12  26  48  78 110 155 206 259 321 386 478
#
# _framework density 24.973496000000001
#
# number of rings (size 3 to 8) (size 9 to 14) (size 15 to 20)
#    0.000    0.500    3.750    5.250    0.000    1.000 
#   18.000    0.000    0.000    0.000    0.000    0.000 
#    0.000    0.000    0.000    0.000    0.000    0.000 
#
# Total GULP energy -89166.320221 kJ/mol
# GULP energy per Si atom -5572.895014 kJ/mol
# Density = 2.491666 g / cm^3
# Si number density = 24.973496 Si / 1000 Ang^3
#
#
#
# Elastic Constant Matrix: (Units=GPa)
#
#
# Indices 1 2 3 4 5 6 
#
# 1 63.4133 31.9534 14.4161 -6.0056 -3.1983 -11.5925
# 2 31.9534 170.4931 43.7008 -0.9576 13.2751 -8.2182
# 3 14.4161 43.7008 106.5848 -21.7250 -4.1496 -12.4597
# 4 -6.0056 -0.9576 -21.7250 60.4329 -0.7286 -7.9010
# 5 -3.1983 13.2751 -4.1496 -0.7286 47.1923 2.8389
# 6 -11.5925 -8.2182 -12.4597 -7.9010 2.8389 34.8515
#
#
#
# Elastic Compliance Matrix: (Units=1/GPa)
#
#
# Indices 1 2 3 4 5 6 
#
# 1 0.018911 -0.003437 0.000178 0.002696 0.001945 0.005996
# 2 -0.003437 0.007457 -0.003054 -0.001429 -0.002586 -0.000590
# 3 0.000178 -0.003054 0.012250 0.005010 0.001742 0.004712
# 4 0.002696 -0.001429 0.005010 0.019480 0.000924 0.006692
# 5 0.001945 -0.002586 0.001742 0.000924 0.022273 -0.000945
# 6 0.005996 -0.000590 0.004712 0.006692 -0.000945 0.033827
#
#
# Mechanical properties :
#
#
# Convention : Reuss Voigt Hill
#
# Bulk Modulus (GPa) = 38.47364 57.84800 48.16082
# Shear Modulus (GPa) = 36.90368 45.19005 41.04686
#
# Velocity S-wave (km/s) = 3.84827 4.25846 4.05855
# Velocity P-wave (km/s) = 5.93168 6.88428 6.42566
#
# Compressibility (1/GPa) = 0.02599182
#
# Stress axis : x y z
#
# Youngs Moduli (GPa) = 52.88041 134.10132 81.63205
#
# Poissons Ratio (x) = 0.46090 -0.01450
# Poissons Ratio (y) = 0.18175 0.24927
# Poissons Ratio (z) = -0.00939 0.40949
#
# Static dielectric constant tensor:
#      x y z
#    x 2.094140 -0.173280 -0.327590 
#    y -0.173280 1.954440 -0.405370 
#    z -0.327590 -0.405370 1.050030 
# 
# From -- ./inp_files/273762.got.cif
#   From: 2010.05.17/outbox.cif.g08.bks.cpg/sg2_137_cif.got.tgz:273762.got - 2010.06.03 11:33:40.
