data_PCOD9033491
_publ_section_title
;
Structure prediction by ZEFSAII (Michael W. Deem and Ramdas Pophale) SiO2 
 PCOD9033491
Probable space group: P -1
;
_chemical_formula_sum "Si O2"
_cell_formula_units_Z 16
_cell_length_a 24.570378
_cell_length_b 6.122772
_cell_length_c 14.876362
_cell_angle_alpha 118.852280
_cell_angle_beta 153.155944
_cell_angle_gamma 77.541808
_cell_volume 743.191864
_symmetry_space_group_name_H-M "P -1"
_symmetry_group_IT_number 2
_symmetry_cell_setting 'triclinic'
loop_
_space_group_symop_operation_xyz
x,y,z
-x,-y,-z
loop_
_atom_site_type_symbol
_atom_site_label
_atom_site_fract_x
_atom_site_fract_y
_atom_site_fract_z
Si Si1 0.477111 0.733832 0.128815
Si Si2 0.103535 0.351454 0.217051
Si Si3 0.092339 0.605709 0.924270
Si Si4 0.633349 0.808505 0.625404
Si Si5 0.631455 0.179431 0.845674
Si Si6 0.583370 0.348747 0.182529
Si Si7 0.954791 0.655004 0.382702
Si Si8 0.729856 0.389301 0.662755
O O1 0.378686 0.794709 0.057862
O O2 0.502599 0.476519 0.143093
O O3 0.632964 0.042034 0.424879
O O4 0.415151 0.622216 0.916690
O O5 0.256968 0.473969 0.511192
O O6 0.145788 0.460137 0.198802
O O7 0.021364 0.453336 0.178924
O O8 0.000000 0.000000 0.000000
O O9 0.012490 0.435323 0.682821
O O10 0.197785 0.533789 0.117103
O O11 0.209368 0.945348 0.134318
O O12 0.507245 0.823609 0.394852
O O13 0.624506 0.507101 0.534843
O O14 0.628961 0.905143 0.740788
O O15 0.781587 0.465896 0.094394
O O16 0.500000 0.000000 0.000000
O O17 0.000000 0.500000 0.500000
O O18 0.000000 0.000000 0.500000
#
# Coordination Sequence:
#
# PCOD9033491 Si02
#       8
#     2   2   2   2   2   2   2   2
#     4  11  24  43  69 102 140 180 246 295 367 445
#     4  12  24  43  72 100 144 196 239 301 383 431
#     4  11  25  44  68 104 142 184 248 303 366 454
#     4  10  22  44  68 106 135 175 244 299 373 432
#     4  10  23  45  73  99 139 189 239 301 374 443
#     4  11  25  45  66 100 143 189 238 303 362 447
#     4  11  29  51  72 106 149 196 250 309 372 451
#     4  12  23  43  74 104 145 187 239 318 365 446
#
# _framework density 21.528759999999998
#
# number of rings (size 3 to 8) (size 9 to 14) (size 15 to 20)
#    0.000    1.000    3.750    1.875    5.250    2.500 
#    0.000    0.000    0.000    0.000    0.000    0.000 
#    0.000    0.000    0.000    0.000    0.000    0.000 
#
# Total GULP energy -89145.752228 kJ/mol
# GULP energy per Si atom -5571.609514 kJ/mol
# Density = 2.147976 g / cm^3
# Si number density = 21.528760 Si / 1000 Ang^3
#
#
#
# Elastic Constant Matrix: (Units=GPa)
#
#
# Indices 1 2 3 4 5 6 
#
# 1 135.3157 31.8664 13.3023 -0.6793 -12.0336 0.1465
# 2 31.8664 82.3665 25.8227 11.5338 -16.0520 -5.9093
# 3 13.3023 25.8227 80.7149 13.4730 -10.5721 5.1138
# 4 -0.6793 11.5338 13.4730 39.6241 7.3213 -5.4415
# 5 -12.0336 -16.0520 -10.5721 7.3213 40.2348 -6.9447
# 6 0.1465 -5.9093 5.1138 -5.4415 -6.9447 24.0749
#
#
#
# Elastic Compliance Matrix: (Units=1/GPa)
#
#
# Indices 1 2 3 4 5 6 
#
# 1 0.008231 -0.003022 -0.000413 0.000959 0.000935 -0.000218
# 2 -0.003022 0.016738 -0.003690 -0.004074 0.006561 0.005883
# 3 -0.000413 -0.003690 0.015121 -0.005167 0.002532 -0.004553
# 4 0.000959 -0.004074 -0.005167 0.030216 -0.007367 0.004796
# 5 0.000935 0.006561 0.002532 -0.007367 0.031208 0.008404
# 6 -0.000218 0.005883 -0.004553 0.004796 0.008404 0.047458
#
#
# Mechanical properties :
#
#
# Convention : Reuss Voigt Hill
#
# Bulk Modulus (GPa) = 38.70318 48.93113 43.81715
# Shear Modulus (GPa) = 29.09767 35.94716 32.52242
#
# Velocity S-wave (km/s) = 3.68036 4.09066 3.89092
# Velocity P-wave (km/s) = 6.00638 6.71483 6.37046
#
# Compressibility (1/GPa) = 0.02583767
#
# Stress axis : x y z
#
# Youngs Moduli (GPa) = 121.49583 59.74368 66.13522
#
# Poissons Ratio (x) = 0.18057 0.02733
# Poissons Ratio (y) = 0.36721 0.24405
# Poissons Ratio (z) = 0.05021 0.22047
#
# Static dielectric constant tensor:
#      x y z
#    x 1.945300 0.053310 -0.045210 
#    y 0.053310 1.927640 -0.041140 
#    z -0.045210 -0.041140 1.756700 
# 
# From -- ./inp_files/542242.got.cif
#   From: 2010.05.17/outbox.cif.g08.bks.cpg/sg2_272_cif.got.tgz:542242.got - 2010.06.03 11:33:40.
