data_PCOD9033510
_publ_section_title
;
Structure prediction by ZEFSAII (Michael W. Deem and Ramdas Pophale) SiO2 
 PCOD9033510
Probable space group: P -1
;
_chemical_formula_sum "Si O2"
_cell_formula_units_Z 16
_cell_length_a 18.828540
_cell_length_b 9.989345
_cell_length_c 6.512470
_cell_angle_alpha 114.771877
_cell_angle_beta 77.819217
_cell_angle_gamma 145.099884
_cell_volume 615.239828
_symmetry_space_group_name_H-M "P -1"
_symmetry_group_IT_number 2
_symmetry_cell_setting 'triclinic'
loop_
_space_group_symop_operation_xyz
x,y,z
-x,-y,-z
loop_
_atom_site_type_symbol
_atom_site_label
_atom_site_fract_x
_atom_site_fract_y
_atom_site_fract_z
Si Si1 0.331720 0.952717 0.873409
Si Si2 0.585468 0.305738 0.438764
Si Si3 0.685006 0.211592 0.615294
Si Si4 0.773661 0.506300 0.137564
Si Si5 0.856584 0.939598 0.309160
Si Si6 0.588082 0.500983 0.938706
Si Si7 0.819406 0.113988 0.800976
Si Si8 0.015027 0.407884 0.249903
O O1 0.279784 0.861081 0.610805
O O2 0.244867 0.676028 0.844742
O O3 0.305751 0.046242 0.099737
O O4 0.485257 0.208004 0.903848
O O5 0.631316 0.244576 0.509913
O O6 0.657869 0.406397 0.247408
O O7 0.433287 0.040539 0.335614
O O8 0.613284 0.492554 0.683529
O O9 0.769319 0.450613 0.868569
O O10 0.881120 0.811381 0.277564
O O11 0.724648 0.735333 0.121994
O O12 0.832028 0.999627 0.563340
O O13 0.975197 0.195142 0.262640
O O14 0.500000 0.500000 0.000000
O O15 0.858874 0.321710 0.771299
O O16 0.916417 0.252995 0.020770
O O17 0.000000 0.500000 0.500000
#
# Coordination Sequence:
#
# PCOD9033510 Si02
#       8
#     2   2   2   2   2   2   2   2
#     4  10  24  38  59  92 129 165 203 249 305 363
#     4   9  19  33  51  78 116 167 207 239 286 353
#     4   9  18  35  53  77 117 164 208 242 284 351
#     4  11  22  35  61  87 120 170 208 244 303 371
#     4  11  24  37  64  95 124 163 207 258 305 365
#     4  11  23  38  56  91 136 167 202 260 300 356
#     4  10  22  44  68  91 120 159 207 259 309 375
#     4   9  21  43  69  90 116 159 208 254 316 365
#
# _framework density 26.006119999999999
#
# number of rings (size 3 to 8) (size 9 to 14) (size 15 to 20)
#    0.000    2.000    1.250    1.875    5.250    4.500 
#    0.000    0.625    0.000    7.500    0.000    0.000 
#    0.000    0.000    0.000    0.000    0.000    0.000 
#
# Total GULP energy -89206.459778 kJ/mol
# GULP energy per Si atom -5575.403736 kJ/mol
# Density = 2.594693 g / cm^3
# Si number density = 26.006120 Si / 1000 Ang^3
#
#
#
# Elastic Constant Matrix: (Units=GPa)
#
#
# Indices 1 2 3 4 5 6 
#
# 1 19.6466 -1.4593 37.4826 7.4353 -3.6952 -0.3646
# 2 -1.4593 134.3702 39.9284 -14.1802 -12.5728 -17.6853
# 3 37.4826 39.9284 191.9591 -2.0598 -28.3361 12.3277
# 4 7.4353 -14.1802 -2.0598 43.1403 4.2230 -12.2708
# 5 -3.6952 -12.5728 -28.3361 4.2230 42.8251 -3.2816
# 6 -0.3646 -17.6853 12.3277 -12.2708 -3.2816 37.4313
#
#
#
# Elastic Compliance Matrix: (Units=1/GPa)
#
#
# Indices 1 2 3 4 5 6 
#
# 1 0.096280 0.006523 -0.020982 -0.013463 -0.001846 0.006355
# 2 0.006523 0.010121 -0.003622 0.004026 0.001313 0.007473
# 3 -0.020982 -0.003622 0.010954 0.001207 0.003889 -0.004787
# 4 -0.013463 0.004026 0.001207 0.030182 -0.001303 0.011154
# 5 -0.001846 0.001313 0.003889 -0.001303 0.026371 0.001207
# 6 0.006355 0.007473 -0.004787 0.011154 0.001207 0.035647
#
#
# Mechanical properties :
#
#
# Convention : Reuss Voigt Hill
#
# Bulk Modulus (GPa) = 12.31616 55.31992 33.81804
# Shear Modulus (GPa) = 18.32979 42.68096 30.50537
#
# Velocity S-wave (km/s) = 2.65774 4.05555 3.42864
# Velocity P-wave (km/s) = 3.76354 6.57633 5.35781
#
# Compressibility (1/GPa) = 0.08119413
#
# Stress axis : x y z
#
# Youngs Moduli (GPa) = 10.38636 98.80867 91.28965
#
# Poissons Ratio (x) = -0.64456 1.91543
# Poissons Ratio (y) = -0.06775 0.33063
# Poissons Ratio (z) = 0.21793 0.35786
#
# Static dielectric constant tensor:
#      x y z
#    x 2.279380 -0.009560 0.041600 
#    y -0.009560 2.105090 0.070010 
#    z 0.041600 0.070010 2.035340 
# 
# From -- ./inp_files/80660.got.cif
#   From: 2010.05.17/outbox.cif.g08.bks.cpg/sg2_41_cif.got.tgz:80660.got - 2010.06.03 11:33:40.
