data_PCOD9033899
_publ_section_title
;
Structure prediction by ZEFSAII (Michael W. Deem and Ramdas Pophale) SiO2 
 PCOD9033899
Probable space group: P -1
;
_chemical_formula_sum "Si O2"
_cell_formula_units_Z 14
_cell_length_a 10.706820
_cell_length_b 9.336296
_cell_length_c 7.760101
_cell_angle_alpha 111.372673
_cell_angle_beta 83.650333
_cell_angle_gamma 134.270125
_cell_volume 505.087642
_symmetry_space_group_name_H-M "P -1"
_symmetry_group_IT_number 2
_symmetry_cell_setting 'triclinic'
loop_
_space_group_symop_operation_xyz
x,y,z
-x,-y,-z
loop_
_atom_site_type_symbol
_atom_site_label
_atom_site_fract_x
_atom_site_fract_y
_atom_site_fract_z
Si Si1 0.841589 0.053928 0.190687
Si Si2 0.000000 0.500000 0.500000
Si Si3 0.939013 0.580610 0.242157
Si Si4 0.496409 0.357634 0.797875
Si Si5 0.500000 0.500000 0.500000
Si Si6 0.290421 0.754927 0.167505
Si Si7 0.594694 0.828410 0.788558
Si Si8 0.073162 0.019284 0.312878
O O1 0.892858 0.272616 0.307398
O O2 0.002612 0.072823 0.201356
O O3 0.705487 0.878869 0.280941
O O4 0.721150 0.938060 0.984343
O O5 0.888757 0.542238 0.430128
O O6 0.135731 0.666321 0.288773
O O7 0.998312 0.779583 0.207688
O O8 0.815776 0.375326 0.047405
O O9 0.560850 0.449158 0.638553
O O10 0.606926 0.307472 0.826734
O O11 0.500000 0.500000 0.000000
O O12 0.424126 0.574394 0.696481
O O13 0.410572 0.008352 0.219423
O O14 0.709711 0.807795 0.637715
O O15 0.000000 0.000000 0.500000
#
# Coordination Sequence:
#
# PCOD9033899 Si02
#       8
#     2   1   2   2   1   2   2   2
#     4  12  25  48  69 112 152 195 255 312 375 453
#     4  12  24  44  72 112 144 192 252 310 376 450
#     4  10  22  44  70 108 143 188 251 301 378 439
#     4  12  27  53  76 107 153 202 253 315 382 450
#     4  12  28  50  72 112 144 200 260 304 380 462
#     4  10  24  47  74 102 150 195 240 318 372 451
#     4  11  25  47  71 108 147 198 253 307 385 444
#     4  11  22  42  73 101 148 195 248 315 362 442
#
# _framework density 27.717959
#
# number of rings (size 3 to 8) (size 9 to 14) (size 15 to 20)
#    0.000    0.857    4.286    2.143    2.000    2.286 
#    7.714    0.000    0.000    0.000    0.000    0.000 
#    0.000    0.000    0.000    0.000    0.000    0.000 
#
# Total GULP energy -78007.717444 kJ/mol
# GULP energy per Si atom -5571.979817 kJ/mol
# Density = 2.765487 g / cm^3
# Si number density = 27.717959 Si / 1000 Ang^3
#
#
#
# Elastic Constant Matrix: (Units=GPa)
#
#
# Indices 1 2 3 4 5 6 
#
# 1 138.3380 26.7003 40.7493 -3.8425 19.2894 -39.4089
# 2 26.7003 159.3871 53.1094 22.8712 2.1834 -41.3202
# 3 40.7493 53.1094 186.4291 10.3834 8.7361 -31.3077
# 4 -3.8425 22.8712 10.3834 56.4874 -12.8039 -1.6131
# 5 19.2894 2.1834 8.7361 -12.8039 40.6117 -8.4840
# 6 -39.4089 -41.3202 -31.3077 -1.6131 -8.4840 46.4855
#
#
#
# Elastic Compliance Matrix: (Units=1/GPa)
#
#
# Indices 1 2 3 4 5 6 
#
# 1 0.010054 0.000724 -0.000929 0.000134 -0.002898 0.008018
# 2 0.000724 0.009013 -0.001265 -0.003135 0.000059 0.007676
# 3 -0.000929 -0.001265 0.006379 -0.000807 -0.000650 0.002237
# 4 0.000134 -0.003135 -0.000807 0.020562 0.006486 -0.001320
# 5 -0.002898 0.000059 -0.000650 0.006486 0.028730 0.002627
# 6 0.008018 0.007676 0.002237 -0.001320 0.002627 0.037072
#
#
# Mechanical properties :
#
#
# Convention : Reuss Voigt Hill
#
# Bulk Modulus (GPa) = 44.43260 80.58580 62.50920
# Shear Modulus (GPa) = 40.89911 52.95661 46.92786
#
# Velocity S-wave (km/s) = 3.84545 4.37573 4.11913
# Velocity P-wave (km/s) = 5.98178 7.39364 6.72487
#
# Compressibility (1/GPa) = 0.02250600
#
# Stress axis : x y z
#
# Youngs Moduli (GPa) = 99.45977 110.94901 156.77568
#
# Poissons Ratio (x) = -0.08037 0.14569
# Poissons Ratio (y) = -0.07205 0.19834
# Poissons Ratio (z) = 0.09242 0.14036
#
# Static dielectric constant tensor:
#      x y z
#    x 2.361850 -0.069270 0.067600 
#    y -0.069270 2.211050 0.195790 
#    z 0.067600 0.195790 2.152140 
# 
# From -- ./inp_files/240531.got.cif
#   From: 2010.05.17/outbox.cif.g08.bks.cpg/sg2_121_cif.got.tgz:240531.got - 2010.06.03 11:33:40.
