data_PCOD9033850
_publ_section_title
;
Structure prediction by ZEFSAII (Michael W. Deem and Ramdas Pophale) SiO2 
 PCOD9033850
Probable space group: P -1
;
_chemical_formula_sum "Si O2"
_cell_formula_units_Z 14
_cell_length_a 12.221014
_cell_length_b 9.684142
_cell_length_c 9.495938
_cell_angle_alpha 135.289810
_cell_angle_beta 70.944466
_cell_angle_gamma 124.722701
_cell_volume 643.860029
_symmetry_space_group_name_H-M "P -1"
_symmetry_group_IT_number 2
_symmetry_cell_setting 'triclinic'
loop_
_space_group_symop_operation_xyz
x,y,z
-x,-y,-z
loop_
_atom_site_type_symbol
_atom_site_label
_atom_site_fract_x
_atom_site_fract_y
_atom_site_fract_z
Si Si1 0.878850 0.490568 0.955599
Si Si2 0.882854 0.889480 0.085027
Si Si3 0.222357 0.476816 0.692478
Si Si4 0.415525 0.347892 0.052834
Si Si5 0.050452 0.670150 0.464859
Si Si6 0.419315 0.322364 0.527646
Si Si7 0.544497 0.065620 0.189172
O O1 0.864070 0.365920 0.720796
O O2 0.912534 0.738234 0.069125
O O3 0.771913 0.424639 0.080147
O O4 0.000000 0.500000 0.000000
O O5 0.875157 0.082219 0.317312
O O6 0.740632 0.733656 0.955628
O O7 0.000000 0.000000 0.000000
O O8 0.273801 0.298060 0.562758
O O9 0.321226 0.687090 0.702870
O O10 0.079570 0.367728 0.596370
O O11 0.493327 0.525283 0.271054
O O12 0.500000 0.500000 0.000000
O O13 0.427865 0.123841 0.898413
O O14 0.000000 0.500000 0.500000
O O15 0.500000 0.500000 0.500000
O O16 0.434491 0.103771 0.342959
O O17 0.500000 0.000000 0.000000
#
# Coordination Sequence:
#
# PCOD9033850 Si02
#       7
#     2   2   2   2   2   2   2
#     4  10  24  46  67 102 142 181 235 296 345 427
#     4  12  27  43  74 107 144 193 234 290 369 429
#     4  10  22  44  72 103 143 177 245 305 346 421
#     4  12  27  48  69 107 151 181 241 304 356 426
#     4  11  23  45  69 103 144 189 233 291 364 432
#     4  10  22  44  70 103 133 187 238 294 347 422
#     4  11  23  43  73 100 134 192 237 284 364 423
#
# _framework density 21.743859
#
# number of rings (size 3 to 8) (size 9 to 14) (size 15 to 20)
#    0.000    1.143    4.286    1.714    6.000    4.000 
#    5.143    0.000    0.000    0.000    0.000    0.000 
#    0.000    0.000    0.000    0.000    0.000    0.000 
#
# Total GULP energy -78127.638632 kJ/mol
# GULP energy per Si atom -5580.545617 kJ/mol
# Density = 2.169437 g / cm^3
# Si number density = 21.743859 Si / 1000 Ang^3
#
#
#
# Elastic Constant Matrix: (Units=GPa)
#
#
# Indices 1 2 3 4 5 6 
#
# 1 120.8854 43.6666 26.1981 -3.3180 -5.5269 -12.5816
# 2 43.6666 107.8815 21.3189 -19.8392 -6.9082 -23.4299
# 3 26.1981 21.3189 108.3344 -24.8066 -11.6625 -20.3437
# 4 -3.3180 -19.8392 -24.8066 41.8768 -4.0865 -4.6090
# 5 -5.5269 -6.9082 -11.6625 -4.0865 42.9631 1.3275
# 6 -12.5816 -23.4299 -20.3437 -4.6090 1.3275 36.2978
#
#
#
# Elastic Compliance Matrix: (Units=1/GPa)
#
#
# Indices 1 2 3 4 5 6 
#
# 1 0.010208 -0.004431 -0.002505 -0.002926 -0.000324 -0.001086
# 2 -0.004431 0.014854 0.002747 0.009802 0.003165 0.010720
# 3 -0.002505 0.002747 0.014256 0.011125 0.004734 0.010134
# 4 -0.002926 0.009802 0.011125 0.037356 0.007278 0.016025
# 5 -0.000324 0.003165 0.004734 0.007278 0.025579 0.004573
# 6 -0.001086 0.010720 0.010134 0.016025 0.004573 0.041641
#
#
# Mechanical properties :
#
#
# Convention : Reuss Voigt Hill
#
# Bulk Modulus (GPa) = 32.32233 57.71872 45.02053
# Shear Modulus (GPa) = 30.75306 40.62205 35.68756
#
# Velocity S-wave (km/s) = 3.76484 4.32697 4.05565
# Velocity P-wave (km/s) = 5.81343 7.18095 6.53307
#
# Compressibility (1/GPa) = 0.03093836
#
# Stress axis : x y z
#
# Youngs Moduli (GPa) = 97.96462 67.32321 70.14506
#
# Poissons Ratio (x) = 0.29833 0.17573
# Poissons Ratio (y) = 0.43411 -0.19268
# Poissons Ratio (z) = 0.24542 -0.18493
#
# Static dielectric constant tensor:
#      x y z
#    x 1.815620 0.035520 -0.060850 
#    y 0.035520 1.784630 0.001330 
#    z -0.060850 0.001330 1.798500 
# 
# From -- ./inp_files/245901.got.cif
#   From: 2010.05.17/outbox.cif.g08.bks.cpg/sg2_123_cif.got.tgz:245901.got - 2010.06.03 11:33:40.
