data_PCOD9033655
_publ_section_title
;
Structure prediction by ZEFSAII (Michael W. Deem and Ramdas Pophale) SiO2 
 PCOD9033655
Probable space group: P -1
;
_chemical_formula_sum "Si O2"
_cell_formula_units_Z 12
_cell_length_a 19.780633
_cell_length_b 6.729650
_cell_length_c 5.904376
_cell_angle_alpha 73.115471
_cell_angle_beta 60.139380
_cell_angle_gamma 48.212647
_cell_volume 507.195943
_symmetry_space_group_name_H-M "P -1"
_symmetry_group_IT_number 2
_symmetry_cell_setting 'triclinic'
loop_
_space_group_symop_operation_xyz
x,y,z
-x,-y,-z
loop_
_atom_site_type_symbol
_atom_site_label
_atom_site_fract_x
_atom_site_fract_y
_atom_site_fract_z
Si Si1 0.383760 0.091270 0.352726
Si Si2 0.731369 0.027900 0.117723
Si Si3 0.436880 0.425207 0.015843
Si Si4 0.943553 0.227518 0.330920
Si Si5 0.856899 0.127075 0.130798
Si Si6 0.199364 0.369350 0.233592
O O1 0.308150 0.194840 0.229643
O O2 0.332184 0.058749 0.654337
O O3 0.489108 0.808636 0.209254
O O4 0.402941 0.302165 0.285189
O O5 0.658368 0.312885 0.027114
O O6 0.783713 0.061165 0.223993
O O7 0.805579 0.807807 0.879877
O O8 0.500000 0.500000 0.000000
O O9 0.864808 0.211629 0.337663
O O10 0.882509 0.505181 0.471354
O O11 0.000000 0.000000 0.500000
O O12 0.030812 0.136408 0.038670
O O13 0.823326 0.376973 0.944413
#
# Coordination Sequence:
#
# PCOD9033655 Si02
#       6
#     2   2   2   2   2   2
#     4  11  25  43  68 103 140 182 236 287 339 420
#     4  12  25  42  74 106 136 189 233 283 353 411
#     4  11  24  47  68 100 143 185 231 286 350 408
#     4   9  21  42  71  99 143 184 227 294 342 414
#     4  10  22  44  69 102 142 184 233 285 350 410
#     4  11  22  43  66 106 141 177 238 286 341 418
#
# _framework density 23.659493000000001
#
# number of rings (size 3 to 8) (size 9 to 14) (size 15 to 20)
#    0.000    1.333    3.333    1.500    0.000    6.667 
#    0.000   11.667    0.000    0.000    0.000    0.000 
#    0.000    0.000    0.000    0.000    0.000    0.000 
#
# Total GULP energy -67192.692490 kJ/mol
# GULP energy per Si atom -5599.391041 kJ/mol
# Density = 2.360564 g / cm^3
# Si number density = 23.659493 Si / 1000 Ang^3
#
#
#
# Elastic Constant Matrix: (Units=GPa)
#
#
# Indices 1 2 3 4 5 6 
#
# 1 71.0639 44.4292 11.9595 -0.2328 -5.8356 20.3700
# 2 44.4292 140.5648 53.2933 -1.8729 -0.7437 -4.3006
# 3 11.9595 53.2933 67.6369 7.8592 0.4557 13.1085
# 4 -0.2328 -1.8729 7.8592 29.9889 7.1624 -12.8173
# 5 -5.8356 -0.7437 0.4557 7.1624 28.3685 1.7394
# 6 20.3700 -4.3006 13.1085 -12.8173 1.7394 21.9183
#
#
#
# Elastic Compliance Matrix: (Units=1/GPa)
#
#
# Indices 1 2 3 4 5 6 
#
# 1 -0.036805 0.036825 -0.054488 0.075620 -0.032229 0.120796
# 2 0.036825 -0.021489 0.035402 -0.057494 0.026806 -0.095360
# 3 -0.054488 0.035402 -0.035839 0.072934 -0.035753 0.124507
# 4 0.075620 -0.057494 0.072934 -0.071391 0.041337 -0.170206
# 5 -0.032229 0.026806 -0.035753 0.041337 0.014580 0.079611
# 6 0.120796 -0.095360 0.124507 -0.170206 0.079611 -0.265663
#
#
# Mechanical properties :
#
#
# Convention : Reuss Voigt Hill
#
# Bulk Modulus (GPa) = -17.04840 55.40330 19.17745
# Shear Modulus (GPa) = -10.60135 27.36071 8.37968
#
# Velocity S-wave (km/s) = -2.11909 3.40433 1.88400
# Velocity P-wave (km/s) = 3.63438 6.23862 3.58550
#
# Compressibility (1/GPa) = -0.05865654
#
# Stress axis : x y z
#
# Youngs Moduli (GPa) = -27.17001 -46.53493 -27.90238
#
# Poissons Ratio (x) = 1.71363 -1.52035
# Poissons Ratio (y) = 1.00052 0.98781
# Poissons Ratio (z) = -1.48044 1.64744
#
# Static dielectric constant tensor:
#      x y z
#    x 1.882710 -0.005270 -0.014050 
#    y -0.005270 1.884060 0.020070 
#    z -0.014050 0.020070 1.927380 
# 
# From -- ./inp_files/3477.got.cif
#   From: 2010.05.17/outbox.cif.g08.bks.cpg/sg2_2_cif.got.tgz:3477.got - 2010.06.03 11:33:40.
