data_PCOD9033416
_publ_section_title
;
Structure prediction by ZEFSAII (Michael W. Deem and Ramdas Pophale) SiO2 
 PCOD9033416
Probable space group: P -1
;
_chemical_formula_sum "Si O2"
_cell_formula_units_Z 16
_cell_length_a 8.568157
_cell_length_b 21.652282
_cell_length_c 19.196000
_cell_angle_alpha 158.179864
_cell_angle_beta 149.233266
_cell_angle_gamma 32.087089
_cell_volume 653.734733
_symmetry_space_group_name_H-M "P -1"
_symmetry_group_IT_number 2
_symmetry_cell_setting 'triclinic'
loop_
_space_group_symop_operation_xyz
x,y,z
-x,-y,-z
loop_
_atom_site_type_symbol
_atom_site_label
_atom_site_fract_x
_atom_site_fract_y
_atom_site_fract_z
Si Si1 0.567960 0.298731 0.741642
Si Si2 0.985296 0.490575 0.164681
Si Si3 0.654353 0.182464 0.987017
Si Si4 0.623308 0.038562 0.978261
Si Si5 0.321768 0.351075 0.279428
Si Si6 0.770933 0.525101 0.344118
Si Si7 0.815973 0.926240 0.410741
Si Si8 0.620630 0.268289 0.482574
O O1 0.331769 0.368087 0.787205
O O2 0.389550 0.369672 0.675401
O O3 0.657470 0.095159 0.570330
O O4 0.873343 0.376317 0.943971
O O5 0.071018 0.374831 0.145133
O O6 0.263437 0.584127 0.358669
O O7 0.569566 0.141954 0.991625
O O8 0.442763 0.136655 0.796786
O O9 0.617809 0.382781 0.168991
O O10 0.009996 0.065523 0.989015
O O11 0.418658 0.898007 0.748388
O O12 0.545907 0.167677 0.149773
O O13 0.500000 0.500000 0.500000
O O14 0.110995 0.407832 0.327088
O O15 0.701310 0.666340 0.526697
O O16 0.081491 0.791485 0.413457
O O17 0.000000 0.000000 0.500000
#
# Coordination Sequence:
#
# PCOD9033416 Si02
#       8
#     2   2   2   2   2   2   2   2
#     4  10  22  44  67  99 141 174 223 281 342 399
#     4  10  24  42  69  99 134 179 225 280 335 408
#     4  11  26  43  71 100 139 178 228 283 333 412
#     4  11  26  46  68 100 139 180 226 282 343 396
#     4  11  27  45  69  95 139 182 223 279 341 403
#     4  11  25  43  69 103 135 177 228 275 343 401
#     4  12  23  40  70 101 137 178 223 281 338 397
#     4  12  25  43  75 102 135 181 230 279 336 411
#
# _framework density 24.474758999999999
#
# number of rings (size 3 to 8) (size 9 to 14) (size 15 to 20)
#    0.000    1.000    2.500    2.250   10.500    3.500 
#    0.000    0.000    0.000    0.000    0.000    0.000 
#    0.000    0.000    0.000    0.000    0.000    0.000 
#
# Total GULP energy -89442.141121 kJ/mol
# GULP energy per Si atom -5590.133820 kJ/mol
# Density = 2.441905 g / cm^3
# Si number density = 24.474759 Si / 1000 Ang^3
#
#
#
# Elastic Constant Matrix: (Units=GPa)
#
#
# Indices 1 2 3 4 5 6 
#
# 1 101.4297 29.4104 48.4860 2.9871 -13.7615 -9.4569
# 2 29.4104 77.2766 12.0350 -0.2685 -19.7304 -6.4861
# 3 48.4860 12.0350 131.9959 0.0732 -14.0093 -16.7522
# 4 2.9871 -0.2685 0.0732 40.7575 -4.5845 -5.9061
# 5 -13.7615 -19.7304 -14.0093 -4.5845 36.4743 3.2310
# 6 -9.4569 -6.4861 -16.7522 -5.9061 3.2310 40.0103
#
#
#
# Elastic Compliance Matrix: (Units=1/GPa)
#
#
# Indices 1 2 3 4 5 6 
#
# 1 0.013336 -0.004108 -0.004360 -0.000818 0.000991 0.000460
# 2 -0.004108 0.016486 0.001055 0.001539 0.007812 0.001739
# 3 -0.004360 0.001055 0.009751 0.001053 0.002522 0.003175
# 4 -0.000818 0.001539 0.001053 0.025606 0.003795 0.003970
# 5 0.000991 0.007812 0.002522 0.003795 0.033425 0.000418
# 6 0.000460 0.001739 0.003175 0.003970 0.000418 0.027266
#
#
# Mechanical properties :
#
#
# Convention : Reuss Voigt Hill
#
# Bulk Modulus (GPa) = 40.40876 54.50722 47.45799
# Shear Modulus (GPa) = 33.56961 38.16648 35.86804
#
# Velocity S-wave (km/s) = 3.70753 3.95324 3.83235
# Velocity P-wave (km/s) = 5.90542 6.56937 6.24622
#
# Compressibility (1/GPa) = 0.02474711
#
# Stress axis : x y z
#
# Youngs Moduli (GPa) = 74.98637 60.65932 102.54865
#
# Poissons Ratio (x) = 0.24916 0.44712
# Poissons Ratio (y) = 0.30801 -0.10817
# Poissons Ratio (z) = 0.32695 -0.06398
#
# Static dielectric constant tensor:
#      x y z
#    x 1.829740 -0.064170 0.285360 
#    y -0.064170 1.375430 0.163410 
#    z 0.285360 0.163410 1.417960 
# 
# From -- ./inp_files/591999.got.cif
#   From: 2010.05.17/outbox.cif.g08.bks.cpg/sg2_296_cif.got.tgz:591999.got - 2010.06.03 11:33:40.
