data_PCOD9033235
_publ_section_title
;
Structure prediction by ZEFSAII (Michael W. Deem and Ramdas Pophale) SiO2 
 PCOD9033235
Probable space group: P -1
;
_chemical_formula_sum "Si O2"
_cell_formula_units_Z 16
_cell_length_a 7.994644
_cell_length_b 8.894291
_cell_length_c 23.852731
_cell_angle_alpha 55.890392
_cell_angle_beta 146.798104
_cell_angle_gamma 129.522717
_cell_volume 714.813769
_symmetry_space_group_name_H-M "P -1"
_symmetry_group_IT_number 2
_symmetry_cell_setting 'triclinic'
loop_
_space_group_symop_operation_xyz
x,y,z
-x,-y,-z
loop_
_atom_site_type_symbol
_atom_site_label
_atom_site_fract_x
_atom_site_fract_y
_atom_site_fract_z
Si Si1 0.039052 0.443289 0.105144
Si Si2 0.639363 0.082304 0.583435
Si Si3 0.116923 0.471089 0.477703
Si Si4 0.610716 0.246500 0.652523
Si Si5 0.799375 0.182522 0.983377
Si Si6 0.276568 0.571440 0.726456
Si Si7 0.199553 0.920219 0.809929
Si Si8 0.362868 0.039690 0.183890
O O1 0.019579 0.655411 0.047984
O O2 0.426475 0.494546 0.193324
O O3 0.929997 0.303220 0.157723
O O4 0.851887 0.308317 0.028650
O O5 0.759940 0.311458 0.556821
O O6 0.468359 0.092176 0.593365
O O7 0.500000 0.000000 0.500000
O O8 0.906443 0.988294 0.694302
O O9 0.384234 0.371994 0.572860
O O10 0.000000 0.500000 0.500000
O O11 0.839683 0.360595 0.378098
O O12 0.973894 0.401064 0.706186
O O13 0.631302 0.130119 0.737959
O O14 0.419202 0.061947 0.890033
O O15 0.999185 0.039509 0.073813
O O16 0.430066 0.754972 0.771354
O O17 0.453737 0.958866 0.822512
#
# Coordination Sequence:
#
# PCOD9033235 Si02
#       8
#     2   2   2   2   2   2   2   2
#     4  10  23  41  71  99 130 182 228 290 350 419
#     4  11  25  42  69 101 135 182 235 281 348 413
#     4  11  25  42  68  99 135 188 227 289 350 412
#     4  11  25  47  68  98 147 182 231 292 344 416
#     4  10  22  44  66  98 137 177 235 282 357 408
#     4  10  23  43  65  97 138 177 237 280 353 407
#     4  12  25  42  68 102 140 177 234 290 347 415
#     4  11  26  41  69 103 134 192 226 290 349 420
#
# _framework density 22.383454
#
# number of rings (size 3 to 8) (size 9 to 14) (size 15 to 20)
#    0.000    1.250    0.000    6.000    7.000    5.000 
#    0.000    0.000    0.000    0.000    0.000    0.000 
#    0.000    0.000    0.000    0.000    0.000    0.000 
#
# Total GULP energy -89380.234863 kJ/mol
# GULP energy per Si atom -5586.264679 kJ/mol
# Density = 2.233251 g / cm^3
# Si number density = 22.383454 Si / 1000 Ang^3
#
#
#
# Elastic Constant Matrix: (Units=GPa)
#
#
# Indices 1 2 3 4 5 6 
#
# 1 43.7678 -37.2332 -19.9412 33.5981 -39.7488 51.0303
# 2 -37.2332 2.9392 -38.0622 28.0931 -47.3719 71.8743
# 3 -19.9412 -38.0622 58.9967 34.9841 -52.6022 62.8274
# 4 33.5981 28.0931 34.9841 10.0582 36.8185 -41.3227
# 5 -39.7488 -47.3719 -52.6022 36.8185 -3.8128 17.1841
# 6 51.0303 71.8743 62.8274 -41.3227 17.1841 -25.4446
#
#
#
# Elastic Compliance Matrix: (Units=1/GPa)
#
#
# Indices 1 2 3 4 5 6 
#
# 1 0.012536 -0.004986 -0.002988 -0.001079 0.006584 0.009877
# 2 -0.004986 0.019710 -0.006416 0.017949 -0.035238 -0.023114
# 3 -0.002988 -0.006416 0.010426 -0.001920 0.014741 0.014702
# 4 -0.001079 0.017949 -0.001920 0.036755 -0.047961 -0.048287
# 5 0.006584 -0.035238 0.014741 -0.047961 0.212161 0.171238
# 6 0.009877 -0.023114 0.014702 -0.048287 0.171238 0.145583
#
#
# Mechanical properties :
#
#
# Convention : Reuss Voigt Hill
#
# Bulk Modulus (GPa) = 71.98635 -9.41883 31.28376
# Shear Modulus (GPa) = 10.62511 9.55619 10.09065
#
# Velocity S-wave (km/s) = 2.18109 2.06847 2.12553
# Velocity P-wave (km/s) = 6.21073 1.21971 4.47554
#
# Compressibility (1/GPa) = 0.01389152
#
# Stress axis : x y z
#
# Youngs Moduli (GPa) = 79.76910 50.73510 95.91350
#
# Poissons Ratio (x) = 0.25299 0.28659
# Poissons Ratio (y) = 0.39777 0.61538
# Poissons Ratio (z) = 0.23835 0.32552
#
# Static dielectric constant tensor:
#      x y z
#    x 1.817110 -0.025780 -0.044110 
#    y -0.025780 1.814010 0.037420 
#    z -0.044110 0.037420 1.880400 
# 
# From -- ./inp_files/606703.got.cif
#   From: 2010.05.17/outbox.cif.g08.bks.cpg/sg2_304_cif.got.tgz:606703.got - 2010.06.03 11:33:40.
