data_PCOD9033689
_publ_section_title
;
Structure prediction by ZEFSAII (Michael W. Deem and Ramdas Pophale) SiO2 
 PCOD9033689
Probable space group: P -1
;
_chemical_formula_sum "Si O2"
_cell_formula_units_Z 14
_cell_length_a 5.705941
_cell_length_b 15.438125
_cell_length_c 11.801202
_cell_angle_alpha 47.971909
_cell_angle_beta 68.453309
_cell_angle_gamma 52.101833
_cell_volume 607.627823
_symmetry_space_group_name_H-M "P -1"
_symmetry_group_IT_number 2
_symmetry_cell_setting 'triclinic'
loop_
_space_group_symop_operation_xyz
x,y,z
-x,-y,-z
loop_
_atom_site_type_symbol
_atom_site_label
_atom_site_fract_x
_atom_site_fract_y
_atom_site_fract_z
Si Si1 0.417528 0.884782 0.610773
Si Si2 0.831842 0.094252 0.608198
Si Si3 0.678949 0.070152 0.890667
Si Si4 0.752296 0.231749 0.908409
Si Si5 0.150054 0.581250 0.449519
Si Si6 0.657078 0.532705 0.050292
Si Si7 0.015300 0.676973 0.638355
O O1 0.331431 0.884355 0.497798
O O2 0.707267 0.737826 0.709113
O O3 0.500000 0.000000 0.500000
O O4 0.122780 0.939937 0.687367
O O5 0.634856 0.123272 0.725288
O O6 0.942687 0.197757 0.502042
O O7 0.566332 0.199974 0.879405
O O8 0.500000 0.000000 0.000000
O O9 0.011189 0.930710 0.962373
O O10 0.873801 0.308877 0.738608
O O11 0.572520 0.322618 0.970036
O O12 0.500000 0.500000 0.500000
O O13 0.995013 0.631231 0.556733
O O14 0.000000 0.500000 0.500000
O O15 0.721447 0.427825 0.235197
O O16 0.500000 0.500000 0.000000
O O17 0.000000 0.500000 0.000000
#
# Coordination Sequence:
#
# PCOD9033689 Si02
#       7
#     2   2   2   2   2   2   2
#     4   9  22  39  68 104 142 189 249 310 372 455
#     4  10  22  44  69 106 148 194 258 312 380 453
#     4  11  27  45  76 108 155 209 257 328 389 467
#     4  11  28  51  72 116 155 205 266 322 402 463
#     4  12  28  47  83 112 151 195 257 323 380 465
#     4  12  32  52  78 113 159 208 258 327 403 478
#     4  11  25  45  77 106 145 199 258 312 393 454
#
# _framework density 23.040420000000001
#
# number of rings (size 3 to 8) (size 9 to 14) (size 15 to 20)
#    0.000    1.143    2.857    0.000   14.000    3.429 
#    0.000    0.000    0.000    0.000    0.000    0.000 
#    0.000    0.000    0.000    0.000    0.000    0.000 
#
# Total GULP energy -77948.741164 kJ/mol
# GULP energy per Si atom -5567.767226 kJ/mol
# Density = 2.298798 g / cm^3
# Si number density = 23.040420 Si / 1000 Ang^3
#
#
#
# Elastic Constant Matrix: (Units=GPa)
#
#
# Indices 1 2 3 4 5 6 
#
# 1 119.9539 67.1573 23.8153 10.0972 -4.6731 41.8043
# 2 67.1573 162.3801 36.3484 11.1892 13.8810 33.1954
# 3 23.8153 36.3484 90.0602 9.5338 8.2269 18.5730
# 4 10.0972 11.1892 9.5338 35.1287 -0.0474 9.1567
# 5 -4.6731 13.8810 8.2269 -0.0474 29.3272 1.5604
# 6 41.8043 33.1954 18.5730 9.1567 1.5604 51.5918
#
#
#
# Elastic Compliance Matrix: (Units=1/GPa)
#
#
# Indices 1 2 3 4 5 6 
#
# 1 0.014062 -0.004343 -0.000640 -0.000270 0.004926 -0.008470
# 2 -0.004343 0.009064 -0.001729 -0.000807 -0.004424 -0.001413
# 3 -0.000640 -0.001729 0.012983 -0.002120 -0.002792 -0.002582
# 4 -0.000270 -0.000807 -0.002120 0.030403 0.001192 -0.003931
# 5 0.004926 -0.004424 -0.002792 0.001192 0.037841 -0.001497
# 6 -0.008470 -0.001413 -0.002582 -0.003931 -0.001497 0.028828
#
#
# Mechanical properties :
#
#
# Convention : Reuss Voigt Hill
#
# Bulk Modulus (GPa) = 44.08348 69.67069 56.87709
# Shear Modulus (GPa) = 32.43229 39.54776 35.99002
#
# Velocity S-wave (km/s) = 3.75590 4.14750 3.95655
# Velocity P-wave (km/s) = 6.16309 7.29656 6.75365
#
# Compressibility (1/GPa) = 0.02268423
#
# Stress axis : x y z
#
# Youngs Moduli (GPa) = 71.11459 110.32126 77.02621
#
# Poissons Ratio (x) = 0.47916 0.04931
# Poissons Ratio (y) = 0.30888 0.13317
# Poissons Ratio (z) = 0.04552 0.19073
#
# Static dielectric constant tensor:
#      x y z
#    x 1.751730 -0.064640 -0.036490 
#    y -0.064640 1.927660 0.002390 
#    z -0.036490 0.002390 1.840640 
# 
# From -- ./inp_files/367455.got.cif
#   From: 2010.05.17/outbox.cif.g08.bks.cpg/sg2_184_cif.got.tgz:367455.got - 2010.06.03 11:33:40.
