data_PCOD9033167
_publ_section_title
;
Structure prediction by ZEFSAII (Michael W. Deem and Ramdas Pophale) SiO2 
 PCOD9033167
Probable space group: P -1
;
_chemical_formula_sum "Si O2"
_cell_formula_units_Z 16
_cell_length_a 9.167876
_cell_length_b 21.985096
_cell_length_c 20.071619
_cell_angle_alpha 19.984069
_cell_angle_beta 37.177918
_cell_angle_gamma 29.400441
_cell_volume 672.881890
_symmetry_space_group_name_H-M "P -1"
_symmetry_group_IT_number 2
_symmetry_cell_setting 'triclinic'
loop_
_space_group_symop_operation_xyz
x,y,z
-x,-y,-z
loop_
_atom_site_type_symbol
_atom_site_label
_atom_site_fract_x
_atom_site_fract_y
_atom_site_fract_z
Si Si1 0.819950 0.794316 0.286809
Si Si2 0.657024 0.794098 0.706363
Si Si3 0.189025 0.719066 0.653443
Si Si4 0.709657 0.091982 0.709196
Si Si5 0.820127 0.429328 0.928305
Si Si6 0.105692 0.013600 0.758374
Si Si7 0.314475 0.772723 0.057787
Si Si8 0.674875 0.694041 0.576832
O O1 0.807460 0.655472 0.493439
O O2 0.146276 0.724710 0.222320
O O3 0.636629 0.801911 0.283110
O O4 0.636029 0.050972 0.113532
O O5 0.867794 0.577199 0.808159
O O6 0.377604 0.816107 0.818663
O O7 0.851030 0.795932 0.693299
O O8 0.500000 0.000000 0.500000
O O9 0.405458 0.453711 0.840535
O O10 0.333650 0.777276 0.599092
O O11 0.209502 0.820407 0.473098
O O12 0.810842 0.139875 0.691278
O O13 0.915440 0.827436 0.899159
O O14 0.793356 0.509463 0.779820
O O15 0.500000 0.500000 0.000000
O O16 0.231273 0.154576 0.584129
O O17 0.083372 0.912246 0.937976
#
# Coordination Sequence:
#
# PCOD9033167 Si02
#       8
#     2   2   2   2   2   2   2   2
#     4   9  22  44  67  90 123 159 206 262 310 356
#     4  12  22  41  63  90 129 165 197 258 308 363
#     4  11  23  40  64  92 125 164 209 246 309 369
#     4  11  22  39  63  95 124 165 205 251 304 371
#     4  12  22  39  63  89 129 164 200 250 304 365
#     4  11  22  41  62  92 129 160 208 253 305 366
#     4  10  22  44  66  91 123 160 207 262 305 363
#     4  10  23  40  62  93 124 163 207 252 303 369
#
# _framework density 23.778319
#
# number of rings (size 3 to 8) (size 9 to 14) (size 15 to 20)
#    0.000    1.250    3.750    1.500    0.000    3.500 
#    4.500    1.250    0.000    6.000    0.000    0.000 
#    0.000    0.000    0.000    0.000    0.000    0.000 
#
# Total GULP energy -89381.846785 kJ/mol
# GULP energy per Si atom -5586.365424 kJ/mol
# Density = 2.372420 g / cm^3
# Si number density = 23.778319 Si / 1000 Ang^3
#
#
#
# Elastic Constant Matrix: (Units=GPa)
#
#
# Indices 1 2 3 4 5 6 
#
# 1 159.9929 12.2064 26.1035 -15.0338 1.7079 -14.3364
# 2 12.2064 45.7694 20.3645 3.0745 -1.8635 -7.4738
# 3 26.1035 20.3645 110.0723 0.2733 6.1809 6.5887
# 4 -15.0338 3.0745 0.2733 36.4820 11.3310 -3.7838
# 5 1.7079 -1.8635 6.1809 11.3310 40.1376 -0.8085
# 6 -14.3364 -7.4738 6.5887 -3.7838 -0.8085 19.4573
#
#
#
# Elastic Compliance Matrix: (Units=1/GPa)
#
#
# Indices 1 2 3 4 5 6 
#
# 1 0.007664 -0.000270 -0.002140 0.004261 -0.001070 0.007052
# 2 -0.000270 0.026632 -0.005723 -0.002010 0.002932 0.011700
# 3 -0.002140 -0.005723 0.011224 -0.000715 -0.001858 -0.007792
# 4 0.004261 -0.002010 -0.000715 0.033143 -0.009346 0.008666
# 5 -0.001070 0.002932 -0.001858 -0.009346 0.028027 0.000314
# 6 0.007052 0.011700 -0.007792 0.008666 0.000314 0.065421
#
#
# Mechanical properties :
#
#
# Convention : Reuss Voigt Hill
#
# Bulk Modulus (GPa) = 34.18436 48.13148 41.15792
# Shear Modulus (GPa) = 25.23622 36.35941 30.79781
#
# Velocity S-wave (km/s) = 3.26131 3.91461 3.60280
# Velocity P-wave (km/s) = 5.34687 6.38106 5.88672
#
# Compressibility (1/GPa) = 0.02925314
#
# Stress axis : x y z
#
# Youngs Moduli (GPa) = 130.48556 37.54887 89.09600
#
# Poissons Ratio (x) = 0.01013 0.19068
# Poissons Ratio (y) = 0.03522 0.50991
# Poissons Ratio (z) = 0.27925 0.21490
#
# Static dielectric constant tensor:
#      x y z
#    x 2.023210 0.026580 -0.076600 
#    y 0.026580 1.883740 -0.006560 
#    z -0.076600 -0.006560 1.890080 
# 
# From -- ./inp_files/222295.got.cif
#   From: 2010.05.17/outbox.cif.g08.bks.cpg/sg2_112_cif.got.tgz:222295.got - 2010.06.03 11:33:40.
