data_PCOD9033545
_publ_section_title
;
Structure prediction by ZEFSAII (Michael W. Deem and Ramdas Pophale) SiO2 
 PCOD9033545
Probable space group: P -1
;
_chemical_formula_sum "Si O2"
_cell_formula_units_Z 16
_cell_length_a 8.529551
_cell_length_b 19.174288
_cell_length_c 20.819837
_cell_angle_alpha 160.063048
_cell_angle_beta 137.226777
_cell_angle_gamma 46.586718
_cell_volume 788.424482
_symmetry_space_group_name_H-M "P -1"
_symmetry_group_IT_number 2
_symmetry_cell_setting 'triclinic'
loop_
_space_group_symop_operation_xyz
x,y,z
-x,-y,-z
loop_
_atom_site_type_symbol
_atom_site_label
_atom_site_fract_x
_atom_site_fract_y
_atom_site_fract_z
Si Si1 0.600964 0.012641 0.430004
Si Si2 0.614939 0.885317 0.179970
Si Si3 0.881468 0.827648 0.564934
Si Si4 0.748158 0.082103 0.162089
Si Si5 0.011181 0.546140 0.467157
Si Si6 0.988384 0.772523 0.413583
Si Si7 0.917297 0.110775 0.007805
Si Si8 0.828005 0.454244 0.849254
O O1 0.335249 0.027327 0.383770
O O2 0.687428 0.246625 0.646041
O O3 0.616124 0.887336 0.259743
O O4 0.774860 0.904230 0.436697
O O5 0.353602 0.926562 0.116095
O O6 0.796607 0.067351 0.376519
O O7 0.685455 0.663439 0.982312
O O8 0.127409 0.939434 0.750497
O O9 0.842462 0.699469 0.508880
O O10 0.918914 0.697723 0.399175
O O11 0.753423 0.325712 0.361038
O O12 0.929535 0.975562 0.077599
O O13 0.500000 0.000000 0.000000
O O14 0.000000 0.500000 0.500000
O O15 0.979919 0.343918 0.242351
O O16 0.051461 0.605836 0.234144
O O17 0.000000 0.000000 0.000000
O O18 0.000000 0.500000 0.000000
#
# Coordination Sequence:
#
# PCOD9033545 Si02
#       8
#     2   2   2   2   2   2   2   2
#     4  11  20  41  65  93 133 176 224 266 326 407
#     4  11  22  40  66  96 128 178 225 270 330 398
#     4  10  23  43  63  98 138 171 222 281 340 393
#     4  10  24  45  64  95 135 166 217 281 341 394
#     4  10  22  44  68  96 127 175 226 277 329 402
#     4  11  23  39  64  98 140 175 214 279 337 390
#     4  12  23  41  72  95 122 175 228 276 334 399
#     4  11  20  40  65  95 130 176 226 271 322 407
#
# _framework density 20.293637
#
# number of rings (size 3 to 8) (size 9 to 14) (size 15 to 20)
#    0.750    0.500    5.000    1.875    1.750    0.500 
#    2.250    0.625    0.000    0.000    0.000    0.000 
#    0.000    0.000    0.000    0.000    0.000    0.000 
#
# Total GULP energy -89113.186306 kJ/mol
# GULP energy per Si atom -5569.574144 kJ/mol
# Density = 2.024745 g / cm^3
# Si number density = 20.293637 Si / 1000 Ang^3
#
#
#
# Elastic Constant Matrix: (Units=GPa)
#
#
# Indices 1 2 3 4 5 6 
#
# 1 75.4840 60.4344 36.9543 -19.9439 -26.1636 -1.9127
# 2 60.4344 112.8520 52.1651 -22.6925 -3.0466 -21.2644
# 3 36.9543 52.1651 127.7575 -11.7335 -13.3488 -8.6707
# 4 -19.9439 -22.6925 -11.7335 32.3860 -2.8280 -4.5686
# 5 -26.1636 -3.0466 -13.3488 -2.8280 44.1184 -9.6819
# 6 -1.9127 -21.2644 -8.6707 -4.5686 -9.6819 27.1338
#
#
#
# Elastic Compliance Matrix: (Units=1/GPa)
#
#
# Indices 1 2 3 4 5 6 
#
# 1 0.038464 -0.017224 -0.000635 0.013190 0.022079 -0.000891
# 2 -0.017224 0.023780 -0.003743 0.006316 -0.005974 0.015158
# 3 -0.000635 -0.003743 0.010020 0.001054 0.002769 0.001389
# 4 0.013190 0.006316 0.001054 0.048035 0.016053 0.020032
# 5 0.022079 -0.005974 0.002769 0.016053 0.040486 0.014909
# 6 -0.000891 0.015158 0.001389 0.020032 0.014909 0.057807
#
#
# Mechanical properties :
#
#
# Convention : Reuss Voigt Hill
#
# Bulk Modulus (GPa) = 34.41208 68.35569 51.38388
# Shear Modulus (GPa) = 18.41730 31.83030 25.12380
#
# Velocity S-wave (km/s) = 3.01581 3.96471 3.52236
# Velocity P-wave (km/s) = 5.39636 7.39696 6.47440
#
# Compressibility (1/GPa) = 0.02905957
#
# Stress axis : x y z
#
# Youngs Moduli (GPa) = 25.99823 42.05182 99.80279
#
# Poissons Ratio (x) = 0.72431 0.06339
# Poissons Ratio (y) = 0.44780 0.37355
# Poissons Ratio (z) = 0.01651 0.15740
#
# Static dielectric constant tensor:
#      x y z
#    x 1.761580 0.023600 0.042330 
#    y 0.023600 1.782910 0.064440 
#    z 0.042330 0.064440 1.846530 
# 
# From -- ./inp_files/591810.got.cif
#   From: 2010.05.17/outbox.cif.g08.bks.cpg/sg2_296_cif.got.tgz:591810.got - 2010.06.03 11:33:40.
