data_PCOD9033010
_publ_section_title
;
Structure prediction by ZEFSAII (Michael W. Deem and Ramdas Pophale) SiO2 
 PCOD9033010
Probable space group: P -1
;
_chemical_formula_sum "Si O2"
_cell_formula_units_Z 15
_cell_length_a 12.278180
_cell_length_b 16.479437
_cell_length_c 5.112329
_cell_angle_alpha 72.246881
_cell_angle_beta 80.232236
_cell_angle_gamma 35.152122
_cell_volume 561.186645
_symmetry_space_group_name_H-M "P -1"
_symmetry_group_IT_number 2
_symmetry_cell_setting 'triclinic'
loop_
_space_group_symop_operation_xyz
x,y,z
-x,-y,-z
loop_
_atom_site_type_symbol
_atom_site_label
_atom_site_fract_x
_atom_site_fract_y
_atom_site_fract_z
Si Si1 0.191275 0.730804 0.841955
Si Si2 0.436119 0.439062 0.360425
Si Si3 0.724770 0.613873 0.842418
Si Si4 0.368311 0.014946 0.256201
Si Si5 0.115167 0.626951 0.667189
Si Si6 0.783048 0.760334 0.496159
Si Si7 0.000000 0.000000 0.000000
Si Si8 0.653447 0.087159 0.117954
O O1 0.339952 0.684567 0.632174
O O2 0.061871 0.748754 0.704878
O O3 0.318268 0.587878 0.112074
O O4 0.078386 0.870050 0.917371
O O5 0.336712 0.500830 0.621086
O O6 0.387347 0.379666 0.309433
O O7 0.882597 0.456605 0.068828
O O8 0.806243 0.645437 0.637892
O O9 0.565575 0.743836 0.989058
O O10 0.272917 0.158028 0.285752
O O11 0.596897 0.889330 0.267852
O O12 0.352247 0.956618 0.558235
O O13 0.300771 0.009131 0.032291
O O14 0.979447 0.685815 0.425269
O O15 0.199456 0.928046 0.930321
#
# Coordination Sequence:
#
# PCOD9033010 Si02
#       8
#     2   2   2   2   2   2   1   2
#     4  10  23  44  66 101 139 183 233 301 367 428
#     4  10  22  44  64  98 142 184 229 297 370 428
#     4  10  23  42  65  99 144 183 238 295 364 422
#     4  10  25  48  69 101 154 190 234 307 383 420
#     4  11  23  42  72 100 139 190 244 293 359 448
#     4  10  23  44  68 104 137 190 244 298 359 438
#     4  12  24  44  78 104 140 188 254 304 354 452
#     4  11  25  46  71 106 146 191 241 306 367 437
#
# _framework density 26.729071999999999
#
# number of rings (size 3 to 8) (size 9 to 14) (size 15 to 20)
#    0.000    1.600    1.333    1.600    5.600    5.867 
#   12.000    0.000    0.000    0.000    0.000    0.000 
#    0.000    0.000    0.000    0.000    0.000    0.000 
#
# Total GULP energy -83835.338440 kJ/mol
# GULP energy per Si atom -5589.022563 kJ/mol
# Density = 2.666824 g / cm^3
# Si number density = 26.729072 Si / 1000 Ang^3
#
#
#
# Elastic Constant Matrix: (Units=GPa)
#
#
# Indices 1 2 3 4 5 6 
#
# 1 194.5066 57.5913 19.1203 -6.2403 10.6214 22.5657
# 2 57.5913 128.8890 18.3397 16.3607 -5.3263 13.9308
# 3 19.1203 18.3397 57.8892 2.1368 -2.3205 12.0500
# 4 -6.2403 16.3607 2.1368 33.9252 -2.7409 4.7088
# 5 10.6214 -5.3263 -2.3205 -2.7409 18.9228 8.8056
# 6 22.5657 13.9308 12.0500 4.7088 8.8056 53.2414
#
#
#
# Elastic Compliance Matrix: (Units=1/GPa)
#
#
# Indices 1 2 3 4 5 6 
#
# 1 0.006635 -0.003151 -0.001163 0.002698 -0.003737 -0.001345
# 2 -0.003151 0.010342 -0.001609 -0.004933 0.004369 -0.001293
# 3 -0.001163 -0.001609 0.019218 0.000306 0.004563 -0.004217
# 4 0.002698 -0.004933 0.000306 0.033094 0.003525 -0.003432
# 5 -0.003737 0.004369 0.004563 0.003525 0.062473 -0.011236
# 6 -0.001345 -0.001293 -0.004217 -0.003432 -0.011236 0.022807
#
#
# Mechanical properties :
#
#
# Convention : Reuss Voigt Hill
#
# Bulk Modulus (GPa) = 41.06944 63.48748 52.27846
# Shear Modulus (GPa) = 28.64824 40.30010 34.47417
#
# Velocity S-wave (km/s) = 3.27739 3.88716 3.59522
# Velocity P-wave (km/s) = 5.45162 6.62951 6.06921
#
# Compressibility (1/GPa) = 0.02434900
#
# Stress axis : x y z
#
# Youngs Moduli (GPa) = 150.71302 96.69314 52.03516
#
# Poissons Ratio (x) = 0.30466 0.06050
# Poissons Ratio (y) = 0.47487 0.08375
# Poissons Ratio (z) = 0.17523 0.15562
#
# Static dielectric constant tensor:
#      x y z
#    x 2.057540 -0.046590 -0.058770 
#    y -0.046590 2.083640 -0.005230 
#    z -0.058770 -0.005230 2.108600 
# 
# From -- ./inp_files/76111.got.cif
#   From: 2010.05.17/outbox.cif.g08.bks.cpg/sg2_39_cif.got.tgz:76111.got - 2010.06.03 11:33:40.
