data_PCOD9033276
_publ_section_title
;
Structure prediction by ZEFSAII (Michael W. Deem and Ramdas Pophale) SiO2 
 PCOD9033276
Probable space group: P -1
;
_chemical_formula_sum "Si O2"
_cell_formula_units_Z 16
_cell_length_a 18.000303
_cell_length_b 5.710988
_cell_length_c 10.713901
_cell_angle_alpha 78.247884
_cell_angle_beta 141.487333
_cell_angle_gamma 117.414801
_cell_volume 583.857282
_symmetry_space_group_name_H-M "P -1"
_symmetry_group_IT_number 2
_symmetry_cell_setting 'triclinic'
loop_
_space_group_symop_operation_xyz
x,y,z
-x,-y,-z
loop_
_atom_site_type_symbol
_atom_site_label
_atom_site_fract_x
_atom_site_fract_y
_atom_site_fract_z
Si Si1 0.137274 0.366560 0.069379
Si Si2 0.382940 0.680564 0.883976
Si Si3 0.120501 0.566750 0.303588
Si Si4 0.061334 0.916901 0.719604
Si Si5 0.298849 0.109917 0.385202
Si Si6 0.535062 0.418497 0.255999
Si Si7 0.093359 0.437930 0.650143
Si Si8 0.333213 0.931458 0.187063
O O1 0.136328 0.484822 0.194015
O O2 0.162409 0.111712 0.153278
O O3 0.276023 0.608829 0.162364
O O4 0.000421 0.359651 0.842099
O O5 0.375280 0.557634 0.749651
O O6 0.235265 0.619679 0.747079
O O7 0.429885 0.513537 0.055122
O O8 0.500000 0.000000 0.000000
O O9 0.070515 0.292969 0.347975
O O10 0.255073 0.866219 0.455346
O O11 0.038660 0.640805 0.613167
O O12 0.101752 0.238724 0.780430
O O13 0.203076 0.939681 0.955580
O O14 0.386194 0.386348 0.546767
O O15 0.364927 0.066178 0.351920
O O16 0.455053 0.107344 0.233758
O O17 0.000000 0.000000 0.500000
#
# Coordination Sequence:
#
# PCOD9033276 Si02
#       8
#     2   2   2   2   2   2   2   2
#     4   9  20  37  62  95 141 181 232 286 341 415
#     4  11  28  49  75 102 142 189 240 299 367 424
#     4   9  20  39  61  95 140 185 227 285 351 418
#     4  10  23  43  70 100 145 176 238 298 356 423
#     4  11  23  38  70 105 138 187 237 283 356 429
#     4  11  26  47  72  98 147 189 239 292 351 439
#     4  11  26  45  74 109 135 184 247 304 362 419
#     4  10  22  44  67 102 142 187 232 287 357 425
#
# _framework density 27.403956999999998
#
# number of rings (size 3 to 8) (size 9 to 14) (size 15 to 20)
#    0.000    1.750    1.250    1.500    5.250    6.500 
#    0.000    0.000    0.000    0.000    0.000    0.000 
#    0.000    0.000    0.000    0.000    0.000    0.000 
#
# Total GULP energy -89415.235771 kJ/mol
# GULP energy per Si atom -5588.452236 kJ/mol
# Density = 2.734158 g / cm^3
# Si number density = 27.403957 Si / 1000 Ang^3
#
#
#
# Elastic Constant Matrix: (Units=GPa)
#
#
# Indices 1 2 3 4 5 6 
#
# 1 130.1928 38.4639 49.1287 14.3920 16.5488 21.4268
# 2 38.4639 175.9773 38.6943 -15.7411 19.5613 40.2726
# 3 49.1287 38.6943 121.6740 -0.2547 0.3704 11.1313
# 4 14.3920 -15.7411 -0.2547 47.1301 -8.3207 12.6304
# 5 16.5488 19.5613 0.3704 -8.3207 53.6169 7.8127
# 6 21.4268 40.2726 11.1313 12.6304 7.8127 52.5692
#
#
#
# Elastic Compliance Matrix: (Units=1/GPa)
#
#
# Indices 1 2 3 4 5 6 
#
# 1 0.010470 -0.001191 -0.003741 -0.003871 -0.003203 -0.001157
# 2 -0.001191 0.008310 -0.001550 0.004713 -0.000969 -0.006540
# 3 -0.003741 -0.001550 0.010215 0.000984 0.001796 0.000046
# 4 -0.003871 0.004713 0.000984 0.027457 0.005129 -0.009600
# 5 -0.003203 -0.000969 0.001796 0.005129 0.021172 -0.002711
# 6 -0.001157 -0.006540 0.000046 -0.009600 -0.002711 0.027204
#
#
# Mechanical properties :
#
#
# Convention : Reuss Voigt Hill
#
# Bulk Modulus (GPa) = 62.38843 75.60198 68.99521
# Shear Modulus (GPa) = 40.60529 50.76707 45.68618
#
# Velocity S-wave (km/s) = 3.85350 4.30879 4.08749
# Velocity P-wave (km/s) = 6.52801 7.23893 6.89264
#
# Compressibility (1/GPa) = 0.01602861
#
# Stress axis : x y z
#
# Youngs Moduli (GPa) = 95.51038 120.33813 97.89797
#
# Poissons Ratio (x) = 0.14337 0.36626
# Poissons Ratio (y) = 0.11379 0.15179
# Poissons Ratio (z) = 0.35732 0.18658
#
# Static dielectric constant tensor:
#      x y z
#    x 2.040460 0.063120 0.048180 
#    y 0.063120 1.943740 -0.155250 
#    z 0.048180 -0.155250 2.087690 
# 
# From -- ./inp_files/411245.got.cif
#   From: 2010.05.17/outbox.cif.g08.bks.cpg/sg2_206_cif.got.tgz:411245.got - 2010.06.03 11:33:40.
