data_PCOD9033228
_publ_section_title
;
Structure prediction by ZEFSAII (Michael W. Deem and Ramdas Pophale) SiO2 
 PCOD9033228
Probable space group: P -1
;
_chemical_formula_sum "Si O2"
_cell_formula_units_Z 16
_cell_length_a 8.358913
_cell_length_b 21.078601
_cell_length_c 6.910291
_cell_angle_alpha 45.384824
_cell_angle_beta 74.950217
_cell_angle_gamma 56.066078
_cell_volume 700.781678
_symmetry_space_group_name_H-M "P -1"
_symmetry_group_IT_number 2
_symmetry_cell_setting 'triclinic'
loop_
_space_group_symop_operation_xyz
x,y,z
-x,-y,-z
loop_
_atom_site_type_symbol
_atom_site_label
_atom_site_fract_x
_atom_site_fract_y
_atom_site_fract_z
Si Si1 0.181927 0.475930 0.355667
Si Si2 0.560854 0.065978 0.966881
Si Si3 0.691812 0.086874 0.243719
Si Si4 0.872367 0.991338 0.755248
Si Si5 0.619225 0.313120 0.685317
Si Si6 0.198619 0.292804 0.543396
Si Si7 0.900862 0.311167 0.274151
Si Si8 0.028409 0.764746 0.994266
O O1 0.391188 0.407471 0.548082
O O2 0.192251 0.400160 0.341322
O O3 0.000000 0.500000 0.500000
O O4 0.164308 0.578855 0.048791
O O5 0.568090 0.056289 0.216794
O O6 0.416801 0.188838 0.695641
O O7 0.500000 0.000000 0.000000
O O8 0.785722 0.016025 0.941840
O O9 0.929543 0.009872 0.310813
O O10 0.690057 0.078575 0.492388
O O11 0.632773 0.202373 0.942566
O O12 0.933566 0.876226 0.900738
O O13 0.733843 0.314369 0.454327
O O14 0.749674 0.310451 0.830063
O O15 0.097519 0.281715 0.792308
O O16 0.075890 0.289077 0.411263
O O17 0.968804 0.229248 0.249922
#
# Coordination Sequence:
#
# PCOD9033228 Si02
#       8
#     2   2   2   2   2   2   2   2
#     4  12  24  47  72  98 133 173 220 286 336 390
#     4  12  24  39  67  98 137 176 214 276 326 393
#     4  10  23  43  64  94 136 173 226 265 324 396
#     4  10  23  40  66  97 131 180 222 260 328 392
#     4  10  24  45  69  98 134 173 226 272 331 402
#     4  11  24  45  64  99 136 172 223 270 338 395
#     4  11  25  45  71  94 133 182 219 277 333 393
#     4  10  22  44  66  98 134 175 221 270 326 396
#
# _framework density 22.831648999999999
#
# number of rings (size 3 to 8) (size 9 to 14) (size 15 to 20)
#    0.000    1.250    3.750    1.125    1.750    6.000 
#    4.500    0.000    0.000    0.000    0.000    0.000 
#    0.000    0.000    0.000    0.000    0.000    0.000 
#
# Total GULP energy -89385.393729 kJ/mol
# GULP energy per Si atom -5586.587108 kJ/mol
# Density = 2.277968 g / cm^3
# Si number density = 22.831649 Si / 1000 Ang^3
#
#
#
# Elastic Constant Matrix: (Units=GPa)
#
#
# Indices 1 2 3 4 5 6 
#
# 1 58.8354 34.3132 15.6853 -1.3322 13.7665 -0.0511
# 2 34.3132 98.9818 37.9128 -0.7617 11.8927 5.4557
# 3 15.6853 37.9128 110.3919 -6.4684 5.0951 4.3376
# 4 -1.3322 -0.7617 -6.4684 38.0801 6.1032 1.7649
# 5 13.7665 11.8927 5.0951 6.1032 38.7571 -1.9662
# 6 -0.0511 5.4557 4.3376 1.7649 -1.9662 30.2881
#
#
#
# Elastic Compliance Matrix: (Units=1/GPa)
#
#
# Indices 1 2 3 4 5 6 
#
# 1 0.022639 -0.006973 -0.000491 0.001494 -0.006027 0.000886
# 2 -0.006973 0.014255 -0.003770 -0.000266 -0.001467 -0.002119
# 3 -0.000491 -0.003770 0.010586 0.001814 -0.000395 -0.000969
# 4 0.001494 -0.000266 0.001814 0.027538 -0.005133 -0.002147
# 5 -0.006027 -0.001467 -0.000395 -0.005133 0.029381 0.002517
# 6 0.000886 -0.002119 -0.000969 -0.002147 0.002517 0.033827
#
#
# Mechanical properties :
#
#
# Convention : Reuss Voigt Hill
#
# Bulk Modulus (GPa) = 39.97996 49.33686 44.65841
# Shear Modulus (GPa) = 29.58046 33.44491 31.51268
#
# Velocity S-wave (km/s) = 3.60334 3.83149 3.71916
# Velocity P-wave (km/s) = 5.90430 6.42103 6.16808
#
# Compressibility (1/GPa) = 0.02501253
#
# Stress axis : x y z
#
# Youngs Moduli (GPa) = 44.17110 70.14997 94.46794
#
# Poissons Ratio (x) = 0.48918 0.04638
# Poissons Ratio (y) = 0.30802 0.35610
# Poissons Ratio (z) = 0.02169 0.26443
#
# Static dielectric constant tensor:
#      x y z
#    x 1.863520 0.015240 -0.015100 
#    y 0.015240 1.853340 0.001740 
#    z -0.015100 0.001740 1.889880 
# 
# From -- ./inp_files/52204.got.cif
#   From: 2010.05.17/outbox.cif.g08.bks.cpg/sg2_27_cif.got.tgz:52204.got - 2010.06.03 11:33:40.
