data_PCOD9033525
_publ_section_title
;
Structure prediction by ZEFSAII (Michael W. Deem and Ramdas Pophale) SiO2 
 PCOD9033525
Probable space group: P -1
;
_chemical_formula_sum "Si O2"
_cell_formula_units_Z 14
_cell_length_a 8.801178
_cell_length_b 11.964521
_cell_length_c 13.034889
_cell_angle_alpha 42.031464
_cell_angle_beta 55.410751
_cell_angle_gamma 42.584761
_cell_volume 621.218513
_symmetry_space_group_name_H-M "P -1"
_symmetry_group_IT_number 2
_symmetry_cell_setting 'triclinic'
loop_
_space_group_symop_operation_xyz
x,y,z
-x,-y,-z
loop_
_atom_site_type_symbol
_atom_site_label
_atom_site_fract_x
_atom_site_fract_y
_atom_site_fract_z
Si Si1 0.241239 0.660713 0.197034
Si Si2 0.001005 0.466761 0.141930
Si Si3 0.190806 0.791151 0.622747
Si Si4 0.578297 0.316035 0.180535
Si Si5 0.519733 0.160824 0.125791
Si Si6 0.814874 0.757725 0.194711
Si Si7 0.372351 0.463112 0.486170
O O1 0.354857 0.437189 0.253863
O O2 0.247539 0.642650 0.328541
O O3 0.996575 0.787822 0.155125
O O4 0.403181 0.727723 0.054536
O O5 0.265413 0.299571 0.169649
O O6 0.860573 0.372179 0.278803
O O7 0.895649 0.671275 0.108727
O O8 0.000000 0.500000 0.000000
O O9 0.229618 0.765089 0.749761
O O10 0.424719 0.725166 0.527294
O O11 0.000000 0.000000 0.500000
O O12 0.644032 0.130516 0.207432
O O13 0.500000 0.500000 0.000000
O O14 0.580469 0.968317 0.167074
O O15 0.796197 0.588661 0.372025
O O16 0.500000 0.500000 0.500000
#
# Coordination Sequence:
#
# PCOD9033525 Si02
#       7
#     2   2   2   2   2   2   2
#     4  10  22  44  68  93 136 182 223 285 345 400
#     4  12  25  45  70  98 141 181 227 290 353 407
#     4  11  24  44  68 102 138 186 228 289 352 405
#     4   9  19  41  72  93 133 182 229 279 342 410
#     4  11  24  44  70 103 130 173 240 286 333 415
#     4  12  25  43  69 102 131 179 232 277 352 407
#     4  11  23  44  65  92 140 181 222 275 348 417
#
# _framework density 22.536353999999999
#
# number of rings (size 3 to 8) (size 9 to 14) (size 15 to 20)
#    0.000    1.143    2.857    4.286    2.000    1.714 
#    5.143    2.143    0.000    0.000    0.000    0.000 
#    0.000    0.000    0.000    0.000    0.000    0.000 
#
# Total GULP energy -77978.140985 kJ/mol
# GULP energy per Si atom -5569.867213 kJ/mol
# Density = 2.248506 g / cm^3
# Si number density = 22.536354 Si / 1000 Ang^3
#
#
#
# Elastic Constant Matrix: (Units=GPa)
#
#
# Indices 1 2 3 4 5 6 
#
# 1 82.2089 26.5202 34.8442 8.0225 22.2437 11.9753
# 2 26.5202 105.1078 14.3492 14.4667 17.9412 25.5025
# 3 34.8442 14.3492 84.2020 19.2455 15.2305 13.0258
# 4 8.0225 14.4667 19.2455 29.2729 -3.9965 2.1464
# 5 22.2437 17.9412 15.2305 -3.9965 43.1494 12.6434
# 6 11.9753 25.5025 13.0258 2.1464 12.6434 36.5855
#
#
#
# Elastic Compliance Matrix: (Units=1/GPa)
#
#
# Indices 1 2 3 4 5 6 
#
# 1 0.016870 -0.002467 -0.005364 -0.000696 -0.005896 0.000186
# 2 -0.002467 0.013272 0.002225 -0.007262 -0.003475 -0.007609
# 3 -0.005364 0.002225 0.017768 -0.011617 -0.004355 -0.003935
# 4 -0.000696 -0.007262 -0.011617 0.046866 0.010975 0.002884
# 5 -0.005896 -0.003475 -0.004355 0.010975 0.031903 -0.005766
# 6 0.000186 -0.007609 -0.003935 0.002884 -0.005766 0.035801
#
#
# Mechanical properties :
#
#
# Convention : Reuss Voigt Hill
#
# Bulk Modulus (GPa) = 27.24979 46.99397 37.12188
# Shear Modulus (GPa) = 26.89279 34.85522 30.87401
#
# Velocity S-wave (km/s) = 3.45818 3.93698 3.70532
# Velocity P-wave (km/s) = 5.29746 6.44703 5.90031
#
# Compressibility (1/GPa) = 0.03669754
#
# Stress axis : x y z
#
# Youngs Moduli (GPa) = 59.27816 75.34901 56.27978
#
# Poissons Ratio (x) = 0.18589 0.30186
# Poissons Ratio (y) = 0.14624 -0.12520
# Poissons Ratio (z) = 0.31794 -0.16762
#
# Static dielectric constant tensor:
#      x y z
#    x 1.937530 0.050540 0.149530 
#    y 0.050540 1.872850 -0.123690 
#    z 0.149530 -0.123690 1.761670 
# 
# From -- ./inp_files/381003.got.cif
#   From: 2010.05.17/outbox.cif.g08.bks.cpg/sg2_191_cif.got.tgz:381003.got - 2010.06.03 11:33:40.
