data_PCOD9033825
_publ_section_title
;
Structure prediction by ZEFSAII (Michael W. Deem and Ramdas Pophale) SiO2 
 PCOD9033825
Probable space group: P -1
;
_chemical_formula_sum "Si O2"
_cell_formula_units_Z 15
_cell_length_a 6.910699
_cell_length_b 14.900850
_cell_length_c 8.799616
_cell_angle_alpha 92.648588
_cell_angle_beta 52.764485
_cell_angle_gamma 110.887451
_cell_volume 656.281357
_symmetry_space_group_name_H-M "P -1"
_symmetry_group_IT_number 2
_symmetry_cell_setting 'triclinic'
loop_
_space_group_symop_operation_xyz
x,y,z
-x,-y,-z
loop_
_atom_site_type_symbol
_atom_site_label
_atom_site_fract_x
_atom_site_fract_y
_atom_site_fract_z
Si Si1 0.296742 0.523361 0.704781
Si Si2 0.766056 0.755099 0.881793
Si Si3 0.264844 0.264186 0.445974
Si Si4 0.697007 0.222211 0.773899
Si Si5 0.201742 0.440842 0.073510
Si Si6 0.793453 0.066444 0.188032
Si Si7 0.428164 0.134614 0.582708
Si Si8 0.500000 0.000000 0.000000
O O1 0.500000 0.500000 0.500000
O O2 0.473356 0.635289 0.686533
O O3 0.027669 0.524836 0.761768
O O4 0.217128 0.453795 0.884967
O O5 0.805370 0.786633 0.689965
O O6 0.869775 0.671201 0.853794
O O7 0.917297 0.845953 0.929040
O O8 0.456712 0.721056 0.065423
O O9 0.308485 0.192989 0.540210
O O10 0.013054 0.282582 0.623810
O O11 0.595644 0.199776 0.647071
O O12 0.617518 0.115778 0.883086
O O13 0.500000 0.500000 0.000000
O O14 0.617445 0.102846 0.384548
O O15 0.792472 0.967326 0.254153
O O16 0.653228 0.042379 0.091557
#
# Coordination Sequence:
#
# PCOD9033825 Si02
#       8
#     2   2   2   2   2   2   2   1
#     4  11  28  46  78 108 143 193 241 303 374 436
#     4  12  26  45  74 101 147 192 237 305 364 428
#     4  12  26  45  70 104 145 189 243 295 365 431
#     4  11  27  42  70 109 140 191 247 291 360 436
#     4  11  26  51  74 108 148 185 246 306 367 440
#     4  10  22  44  70 101 143 187 237 297 361 427
#     4  10  23  44  67 101 142 184 241 296 350 431
#     4  10  24  44  68 106 146 192 244 294 360 428
#
# _framework density 22.856051000000001
#
# number of rings (size 3 to 8) (size 9 to 14) (size 15 to 20)
#    0.000    1.067    2.667    1.600    7.467    2.133 
#    0.000    0.000    0.000    0.000    0.000    0.000 
#    0.000    0.000    0.000    0.000    0.000    0.000 
#
# Total GULP energy -83718.963664 kJ/mol
# GULP energy per Si atom -5581.264244 kJ/mol
# Density = 2.280403 g / cm^3
# Si number density = 22.856051 Si / 1000 Ang^3
#
#
#
# Elastic Constant Matrix: (Units=GPa)
#
#
# Indices 1 2 3 4 5 6 
#
# 1 114.9766 42.1637 62.0484 -4.7456 14.4632 -24.6890
# 2 42.1637 58.1595 12.4271 -10.4321 12.7809 -0.5518
# 3 62.0484 12.4271 97.4055 14.1783 -1.7277 -16.8011
# 4 -4.7456 -10.4321 14.1783 34.8914 -7.9445 -3.2581
# 5 14.4632 12.7809 -1.7277 -7.9445 57.9617 -6.1682
# 6 -24.6890 -0.5518 -16.8011 -3.2581 -6.1682 33.3412
#
#
#
# Elastic Compliance Matrix: (Units=1/GPa)
#
#
# Indices 1 2 3 4 5 6 
#
# 1 0.021870 -0.012239 -0.011243 0.004559 -0.001349 0.010523
# 2 -0.012239 0.026861 0.002431 0.003976 -0.003057 -0.007571
# 3 -0.011243 0.002431 0.018381 -0.007809 0.001805 0.000549
# 4 0.004559 0.003976 -0.007809 0.034613 0.002861 0.003418
# 5 -0.001349 -0.003057 0.001805 0.002861 0.019100 0.003673
# 6 0.010523 -0.007571 0.000549 0.003418 0.003673 0.038950
#
#
# Mechanical properties :
#
#
# Convention : Reuss Voigt Hill
#
# Bulk Modulus (GPa) = 39.98326 55.97998 47.98162
# Shear Modulus (GPa) = 23.78525 35.49901 29.64213
#
# Velocity S-wave (km/s) = 3.22942 3.94529 3.60516
# Velocity P-wave (km/s) = 5.60687 6.73047 6.19420
#
# Compressibility (1/GPa) = 0.02501047
#
# Stress axis : x y z
#
# Youngs Moduli (GPa) = 45.72414 37.22921 54.40295
#
# Poissons Ratio (x) = 0.45564 0.61164
# Poissons Ratio (y) = 0.55961 -0.13224
# Poissons Ratio (z) = 0.51406 -0.09049
#
# Static dielectric constant tensor:
#      x y z
#    x 1.834660 0.004650 -0.065310 
#    y 0.004650 1.835750 -0.016270 
#    z -0.065310 -0.016270 1.881190 
# 
# From -- ./inp_files/135236.got.cif
#   From: 2010.05.17/outbox.cif.g08.bks.cpg/sg2_68_cif.got.tgz:135236.got - 2010.06.03 11:33:40.
