data_PCOD9033564
_publ_section_title
;
Structure prediction by ZEFSAII (Michael W. Deem and Ramdas Pophale) SiO2 
 PCOD9033564
Probable space group: P -1
;
_chemical_formula_sum "Si O2"
_cell_formula_units_Z 14
_cell_length_a 11.319028
_cell_length_b 8.883514
_cell_length_c 17.099240
_cell_angle_alpha 53.992287
_cell_angle_beta 30.106188
_cell_angle_gamma 38.244397
_cell_volume 510.144271
_symmetry_space_group_name_H-M "P -1"
_symmetry_group_IT_number 2
_symmetry_cell_setting 'triclinic'
loop_
_space_group_symop_operation_xyz
x,y,z
-x,-y,-z
loop_
_atom_site_type_symbol
_atom_site_label
_atom_site_fract_x
_atom_site_fract_y
_atom_site_fract_z
Si Si1 0.161413 0.211516 0.485219
Si Si2 0.086912 0.818832 0.933472
Si Si3 0.719849 0.283100 0.607366
Si Si4 0.568364 0.074306 0.019001
Si Si5 0.296691 0.237267 0.797561
Si Si6 0.106537 0.083905 0.716269
Si Si7 0.125907 0.470805 0.665991
O O1 0.000000 0.500000 0.500000
O O2 0.848892 0.261286 0.624723
O O3 0.275987 0.056641 0.547855
O O4 0.428688 0.053585 0.311646
O O5 0.086931 0.620154 0.035809
O O6 0.781396 0.898647 0.030904
O O7 0.263114 0.852846 0.759697
O O8 0.000000 0.000000 0.000000
O O9 0.399970 0.336148 0.772157
O O10 0.712092 0.475951 0.503765
O O11 0.000000 0.000000 0.500000
O O12 0.775902 0.151593 0.864572
O O13 0.223384 0.262175 0.197476
O O14 0.500000 0.000000 0.000000
O O15 0.315659 0.366017 0.670081
O O16 0.051044 0.306061 0.724944
#
# Coordination Sequence:
#
# PCOD9033564 Si02
#       7
#     2   2   2   2   2   2   2
#     4  11  23  42  66 103 132 173 231 274 331 401
#     4  10  22  44  68  97 133 178 221 269 346 404
#     4  10  23  40  67  92 133 177 225 275 342 399
#     4  10  24  40  71  95 136 175 229 278 336 396
#     4  11  24  41  71  95 137 178 220 279 341 406
#     4  10  24  39  71  97 134 177 222 281 338 403
#     4  12  22  45  66  99 133 183 224 276 347 407
#
# _framework density 27.443216
#
# number of rings (size 3 to 8) (size 9 to 14) (size 15 to 20)
#    0.857    0.571    2.857    2.571    6.000    0.571 
#    0.000    2.143    0.000    0.000    0.000    0.000 
#    0.000    0.000    0.000    0.000    0.000    0.000 
#
# Total GULP energy -77992.186861 kJ/mol
# GULP energy per Si atom -5570.870490 kJ/mol
# Density = 2.738075 g / cm^3
# Si number density = 27.443216 Si / 1000 Ang^3
#
#
#
# Elastic Constant Matrix: (Units=GPa)
#
#
# Indices 1 2 3 4 5 6 
#
# 1 161.4120 32.5957 35.5948 -9.1388 -2.2150 30.3162
# 2 32.5957 79.0986 56.8905 -11.1017 -2.2672 5.9926
# 3 35.5948 56.8905 168.8474 -30.3960 19.3824 25.2932
# 4 -9.1388 -11.1017 -30.3960 51.9915 2.7819 -1.7720
# 5 -2.2150 -2.2672 19.3824 2.7819 55.2788 -16.8755
# 6 30.3162 5.9926 25.2932 -1.7720 -16.8755 39.2780
#
#
#
# Elastic Compliance Matrix: (Units=1/GPa)
#
#
# Indices 1 2 3 4 5 6 
#
# 1 0.008084 -0.003447 0.001077 0.001196 -0.002526 -0.007438
# 2 -0.003447 0.018941 -0.007484 -0.000992 0.005410 0.006869
# 3 0.001077 -0.007484 0.011624 0.005452 -0.007745 -0.010256
# 4 0.001196 -0.000992 0.005452 0.022489 -0.004643 -0.005263
# 5 -0.002526 0.005410 -0.007745 -0.004643 0.026428 0.017257
# 6 -0.007438 0.006869 -0.010256 -0.005263 0.017257 0.043934
#
#
# Mechanical properties :
#
#
# Convention : Reuss Voigt Hill
#
# Bulk Modulus (GPa) = 52.79543 73.27999 63.03771
# Shear Modulus (GPa) = 31.74190 48.26146 40.00168
#
# Velocity S-wave (km/s) = 3.40463 4.19811 3.82202
# Velocity P-wave (km/s) = 5.89365 7.08937 6.51899
#
# Compressibility (1/GPa) = 0.01894104
#
# Stress axis : x y z
#
# Youngs Moduli (GPa) = 123.70059 52.79619 86.02976
#
# Poissons Ratio (x) = 0.18197 -0.09262
# Poissons Ratio (y) = 0.42636 0.64383
# Poissons Ratio (z) = -0.13318 0.39511
#
# Static dielectric constant tensor:
#      x y z
#    x 2.235780 -0.082660 -0.028010 
#    y -0.082660 2.392370 0.015410 
#    z -0.028010 0.015410 2.356470 
# 
# From -- ./inp_files/183289.got.cif
#   From: 2010.05.17/outbox.cif.g08.bks.cpg/sg2_92_cif.got.tgz:183289.got - 2010.06.03 11:33:40.
