data_PCOD9033394
_publ_section_title
;
Structure prediction by ZEFSAII (Michael W. Deem and Ramdas Pophale) SiO2 
 PCOD9033394
Probable space group: P -1
;
_chemical_formula_sum "Si O2"
_cell_formula_units_Z 16
_cell_length_a 5.085288
_cell_length_b 8.553674
_cell_length_c 21.321478
_cell_angle_alpha 120.297443
_cell_angle_beta 66.213581
_cell_angle_gamma 119.257007
_cell_volume 683.321846
_symmetry_space_group_name_H-M "P -1"
_symmetry_group_IT_number 2
_symmetry_cell_setting 'triclinic'
loop_
_space_group_symop_operation_xyz
x,y,z
-x,-y,-z
loop_
_atom_site_type_symbol
_atom_site_label
_atom_site_fract_x
_atom_site_fract_y
_atom_site_fract_z
Si Si1 0.644778 0.062898 0.894787
Si Si2 0.313437 0.909163 0.295893
Si Si3 0.809587 0.720057 0.210671
Si Si4 0.848528 0.509843 0.583376
Si Si5 0.737723 0.825048 0.955466
Si Si6 0.846129 0.339263 0.174618
Si Si7 0.304742 0.662688 0.673933
Si Si8 0.265205 0.914079 0.448189
O O1 0.706030 0.926571 0.914500
O O2 0.369570 0.890069 0.851669
O O3 0.924359 0.179151 0.846109
O O4 0.541197 0.212739 0.976757
O O5 0.973913 0.810175 0.279488
O O6 0.346911 0.949112 0.374805
O O7 0.521115 0.781258 0.235488
O O8 0.456975 0.121120 0.295655
O O9 0.722034 0.489779 0.181869
O O10 0.522618 0.538126 0.614515
O O11 0.824431 0.313994 0.580952
O O12 0.000000 0.500000 0.500000
O O13 0.084376 0.666347 0.638223
O O14 0.854167 0.654156 0.891622
O O15 0.000000 0.000000 0.000000
O O16 0.884999 0.398838 0.255918
O O17 0.500000 0.000000 0.500000
O O18 0.000000 0.000000 0.500000
#
# Coordination Sequence:
#
# PCOD9033394 Si02
#       8
#     2   2   2   2   2   2   2   2
#     4  10  22  44  67  98 136 181 223 281 343 402
#     4  12  25  45  64 102 134 177 226 284 347 394
#     4  12  26  42  69 100 139 175 229 284 335 407
#     4  12  25  43  65  99 129 177 229 271 340 406
#     4   9  21  42  69  96 136 178 225 278 339 408
#     4  11  24  41  68 100 133 179 228 280 341 403
#     4  12  24  42  70  94 134 177 222 284 332 398
#     4  12  24  43  67  94 136 178 222 283 341 405
#
# _framework density 23.415026000000001
#
# number of rings (size 3 to 8) (size 9 to 14) (size 15 to 20)
#    0.000    0.750    1.250    6.375    5.250    0.500 
#    0.000    5.625    0.000    0.000    0.000    0.000 
#    0.000    0.000    0.000    0.000    0.000    0.000 
#
# Total GULP energy -89416.078271 kJ/mol
# GULP energy per Si atom -5588.504892 kJ/mol
# Density = 2.336173 g / cm^3
# Si number density = 23.415026 Si / 1000 Ang^3
#
#
#
# Elastic Constant Matrix: (Units=GPa)
#
#
# Indices 1 2 3 4 5 6 
#
# 1 92.2807 -23.1563 27.5413 1.6599 -1.7938 -5.0993
# 2 -23.1563 68.7425 18.6322 -3.3251 -10.9051 -4.3523
# 3 27.5413 18.6322 128.7951 -21.6494 -9.3761 -8.2227
# 4 1.6599 -3.3251 -21.6494 36.3999 -11.3669 0.5657
# 5 -1.7938 -10.9051 -9.3761 -11.3669 47.1307 8.4533
# 6 -5.0993 -4.3523 -8.2227 0.5657 8.4533 26.2710
#
#
#
# Elastic Compliance Matrix: (Units=1/GPa)
#
#
# Indices 1 2 3 4 5 6 
#
# 1 0.013647 0.005716 -0.004016 -0.002525 0.000005 0.002392
# 2 0.005716 0.018087 -0.003389 0.000436 0.003490 0.001913
# 3 -0.004016 -0.003389 0.010538 0.006959 0.002668 0.000949
# 4 -0.002525 0.000436 0.006959 0.035000 0.010241 -0.002289
# 5 0.000005 0.003490 0.002668 0.010241 0.026332 -0.007279
# 6 0.002392 0.001913 0.000949 -0.002289 -0.007279 0.041534
#
#
# Mechanical properties :
#
#
# Convention : Reuss Voigt Hill
#
# Bulk Modulus (GPa) = 25.71201 37.31699 31.51450
# Shear Modulus (GPa) = 30.96305 39.74706 35.35505
#
# Velocity S-wave (km/s) = 3.64037 4.12455 3.89000
# Velocity P-wave (km/s) = 5.35486 6.21726 5.80210
#
# Compressibility (1/GPa) = 0.03889233
#
# Stress axis : x y z
#
# Youngs Moduli (GPa) = 73.27513 55.28832 94.89384
#
# Poissons Ratio (x) = -0.31602 0.38114
# Poissons Ratio (y) = -0.41883 0.32163
# Poissons Ratio (z) = 0.29431 0.18739
#
# Static dielectric constant tensor:
#      x y z
#    x 2.013070 0.235170 0.151700 
#    y 0.235170 1.910060 0.197510 
#    z 0.151700 0.197510 2.132460 
# 
# From -- ./inp_files/582565.got.cif
#   From: 2010.05.17/outbox.cif.g08.bks.cpg/sg2_292_cif.got.tgz:582565.got - 2010.06.03 11:33:40.
