data_PCOD9033846
_publ_section_title
;
Structure prediction by ZEFSAII (Michael W. Deem and Ramdas Pophale) SiO2 
 PCOD9033846
Probable space group: P -1
;
_chemical_formula_sum "Si O2"
_cell_formula_units_Z 11
_cell_length_a 8.922768
_cell_length_b 13.860477
_cell_length_c 11.817819
_cell_angle_alpha 19.616766
_cell_angle_beta 117.359963
_cell_angle_gamma 121.722347
_cell_volume 414.103190
_symmetry_space_group_name_H-M "P -1"
_symmetry_group_IT_number 2
_symmetry_cell_setting 'triclinic'
loop_
_space_group_symop_operation_xyz
x,y,z
-x,-y,-z
loop_
_atom_site_type_symbol
_atom_site_label
_atom_site_fract_x
_atom_site_fract_y
_atom_site_fract_z
Si Si1 0.074160 0.624792 0.172063
Si Si2 0.500000 0.500000 0.500000
Si Si3 0.270218 0.279351 0.475480
Si Si4 0.173719 0.278534 0.776111
Si Si5 0.252254 0.952568 0.362136
Si Si6 0.600175 0.799325 0.634740
O O1 0.220123 0.553280 0.216678
O O2 0.131038 0.559106 0.390570
O O3 0.893161 0.367370 0.362813
O O4 0.108531 0.976557 0.778204
O O5 0.444263 0.291177 0.593948
O O6 0.337756 0.261317 0.776480
O O7 0.311072 0.285152 0.351728
O O8 0.215890 0.227888 0.976421
O O9 0.000000 0.000000 0.000000
O O10 0.446144 0.948527 0.392485
O O11 0.264534 0.998374 0.450514
O O12 0.500000 0.500000 0.000000
#
# Coordination Sequence:
#
# PCOD9033846 Si02
#       6
#     2   1   2   2   2   2
#     4  10  25  48  72 111 142 189 239 309 364 438
#     4  10  22  44  70 102 146 184 234 302 360 428
#     4  11  26  46  74 104 147 187 249 292 377 425
#     4   9  20  43  70 104 140 185 236 297 365 429
#     4  10  24  47  71 103 150 190 243 299 364 435
#     4  11  26  44  72 104 143 200 244 294 362 441
#
# _framework density 26.56343
#
# number of rings (size 3 to 8) (size 9 to 14) (size 15 to 20)
#    0.000    1.818    0.000    1.091   12.727    4.364 
#   16.364    8.182    0.000    0.000    0.000    0.000 
#    0.000    0.000    0.000    0.000    0.000    0.000 
#
# Total GULP energy -61372.704833 kJ/mol
# GULP energy per Si atom -5579.336803 kJ/mol
# Density = 2.650297 g / cm^3
# Si number density = 26.563430 Si / 1000 Ang^3
#
#
#
# Elastic Constant Matrix: (Units=GPa)
#
#
# Indices 1 2 3 4 5 6 
#
# 1 104.2307 58.8978 42.4568 5.2132 -27.4133 -30.0305
# 2 58.8978 163.3454 55.0110 9.7141 -11.8809 -11.0809
# 3 42.4568 55.0110 101.7085 -9.0379 -24.0702 -0.1828
# 4 5.2132 9.7141 -9.0379 39.0015 -7.3870 -8.6701
# 5 -27.4133 -11.8809 -24.0702 -7.3870 52.4415 5.5671
# 6 -30.0305 -11.0809 -0.1828 -8.6701 5.5671 59.5766
#
#
#
# Elastic Compliance Matrix: (Units=1/GPa)
#
#
# Indices 1 2 3 4 5 6 
#
# 1 0.016824 -0.004045 -0.003435 0.000647 0.005619 0.007286
# 2 -0.004045 0.008886 -0.003941 -0.003162 -0.002287 -0.000645
# 3 -0.003435 -0.003941 0.015121 0.005469 0.005247 -0.002112
# 4 0.000647 -0.003162 0.005469 0.029506 0.005917 0.003496
# 5 0.005619 -0.002287 0.005247 0.005917 0.024625 0.000983
# 6 0.007286 -0.000645 -0.002112 0.003496 0.000983 0.020748
#
#
# Mechanical properties :
#
#
# Convention : Reuss Voigt Hill
#
# Bulk Modulus (GPa) = 55.58787 75.77956 65.68371
# Shear Modulus (GPa) = 34.59053 44.39850 39.49452
#
# Velocity S-wave (km/s) = 3.61250 4.09273 3.86009
# Velocity P-wave (km/s) = 6.19452 7.13608 6.68190
#
# Compressibility (1/GPa) = 0.01798954
#
# Stress axis : x y z
#
# Youngs Moduli (GPa) = 59.44005 112.54100 66.13238
#
# Poissons Ratio (x) = 0.45522 0.22714
# Poissons Ratio (y) = 0.24043 0.26062
# Poissons Ratio (z) = 0.20416 0.44352
#
# Static dielectric constant tensor:
#      x y z
#    x 2.215430 0.058330 0.075140 
#    y 0.058330 2.092570 0.034630 
#    z 0.075140 0.034630 2.068050 
# 
# From -- ./inp_files/63546.got.cif
#   From: 2010.05.17/outbox.cif.g08.bks.cpg/sg2_32_cif.got.tgz:63546.got - 2010.06.03 11:33:40.
