data_PCOD9033011
_publ_section_title
;
Structure prediction by ZEFSAII (Michael W. Deem and Ramdas Pophale) SiO2 
 PCOD9033011
Probable space group: P -1
;
_chemical_formula_sum "Si O2"
_cell_formula_units_Z 11
_cell_length_a 8.813907
_cell_length_b 12.569418
_cell_length_c 5.173555
_cell_angle_alpha 60.256408
_cell_angle_beta 103.912332
_cell_angle_gamma 120.941471
_cell_volume 426.744038
_symmetry_space_group_name_H-M "P -1"
_symmetry_group_IT_number 2
_symmetry_cell_setting 'triclinic'
loop_
_space_group_symop_operation_xyz
x,y,z
-x,-y,-z
loop_
_atom_site_type_symbol
_atom_site_label
_atom_site_fract_x
_atom_site_fract_y
_atom_site_fract_z
Si Si1 0.651840 0.448700 0.846583
Si Si2 0.904949 0.240234 0.935726
Si Si3 0.496144 0.335058 0.421994
Si Si4 0.000000 0.500000 0.000000
Si Si5 0.155121 0.118614 0.257156
Si Si6 0.706114 0.074510 0.570416
O O1 0.567354 0.331604 0.736482
O O2 0.547566 0.536156 0.725252
O O3 0.856416 0.546966 0.768327
O O4 0.638932 0.374494 0.204418
O O5 0.805054 0.153034 0.256013
O O6 0.074547 0.212856 0.990935
O O7 0.961513 0.394835 0.862521
O O8 0.773445 0.180125 0.710766
O O9 0.318388 0.208584 0.403581
O O10 0.229426 0.040149 0.196255
O O11 0.000000 0.000000 0.500000
O O12 0.500000 0.000000 0.500000
#
# Coordination Sequence:
#
# PCOD9033011 Si02
#       6
#     2   2   2   1   2   2
#     4  10  24  40  68  93 135 171 219 282 323 401
#     4  11  26  45  67 101 133 181 221 275 342 397
#     4  10  22  44  64  99 126 177 225 266 339 388
#     4  12  26  46  70 102 140 174 226 284 338 394
#     4  10  23  46  70  98 136 180 221 275 332 408
#     4  11  26  45  70  98 134 176 228 280 331 397
#
# _framework density 25.776578000000001
#
# number of rings (size 3 to 8) (size 9 to 14) (size 15 to 20)
#    0.000    1.455    1.818    1.091    5.091    8.727 
#    0.000    0.000    0.000    0.000    0.000    0.000 
#    0.000    0.000    0.000    0.000    0.000    0.000 
#
# Total GULP energy -61326.527754 kJ/mol
# GULP energy per Si atom -5575.138887 kJ/mol
# Density = 2.571791 g / cm^3
# Si number density = 25.776578 Si / 1000 Ang^3
#
#
#
# Elastic Constant Matrix: (Units=GPa)
#
#
# Indices 1 2 3 4 5 6 
#
# 1 67.8108 39.3149 37.2244 7.9918 18.9354 -29.8404
# 2 39.3149 172.3050 52.0180 58.4308 -5.5936 -11.3422
# 3 37.2244 52.0180 90.9597 25.2924 2.5105 -21.9445
# 4 7.9918 58.4308 25.2924 49.1046 1.2122 -4.3583
# 5 18.9354 -5.5936 2.5105 1.2122 21.8034 -0.8066
# 6 -29.8404 -11.3422 -21.9445 -4.3583 -0.8066 48.2386
#
#
#
# Elastic Compliance Matrix: (Units=1/GPa)
#
#
# Indices 1 2 3 4 5 6 
#
# 1 0.049168 -0.013818 -0.009999 0.016780 -0.045162 0.023379
# 2 -0.013818 0.014525 -0.000230 -0.015890 0.016400 -0.006398
# 3 -0.009999 -0.000230 0.017248 -0.007061 0.007071 0.001087
# 4 0.016780 -0.015890 -0.007061 0.041275 -0.019878 0.006828
# 5 -0.045162 0.016400 0.007071 -0.019878 0.088801 -0.021176
# 6 0.023379 -0.006398 0.001087 0.006828 -0.021176 0.034446
#
#
# Mechanical properties :
#
#
# Convention : Reuss Voigt Hill
#
# Bulk Modulus (GPa) = 30.44241 65.35448 47.89844
# Shear Modulus (GPa) = 16.42010 37.33052 26.87531
#
# Velocity S-wave (km/s) = 2.52666 3.80970 3.23247
# Velocity P-wave (km/s) = 4.51085 6.69036 5.70564
#
# Compressibility (1/GPa) = 0.03284891
#
# Stress axis : x y z
#
# Youngs Moduli (GPa) = 20.33841 68.84462 57.97834
#
# Poissons Ratio (x) = 0.95126 0.57970
# Poissons Ratio (y) = 0.28103 0.01334
# Poissons Ratio (z) = 0.20336 0.01584
#
# Static dielectric constant tensor:
#      x y z
#    x 2.099680 0.014320 -0.016890 
#    y 0.014320 2.018890 -0.044670 
#    z -0.016890 -0.044670 2.061210 
# 
# From -- ./inp_files/21097.got.cif
#   From: 2010.05.17/outbox.cif.g08.bks.cpg/sg2_11_cif.got.tgz:21097.got - 2010.06.03 11:33:40.
