data_PCOD9033854
_publ_section_title
;
Structure prediction by ZEFSAII (Michael W. Deem and Ramdas Pophale) SiO2 
 PCOD9033854
Probable space group: P -1
;
_chemical_formula_sum "Si O2"
_cell_formula_units_Z 14
_cell_length_a 5.148802
_cell_length_b 5.053338
_cell_length_c 22.153935
_cell_angle_alpha 104.509873
_cell_angle_beta 65.305066
_cell_angle_gamma 94.096900
_cell_volume 506.633560
_symmetry_space_group_name_H-M "P -1"
_symmetry_group_IT_number 2
_symmetry_cell_setting 'triclinic'
loop_
_space_group_symop_operation_xyz
x,y,z
-x,-y,-z
loop_
_atom_site_type_symbol
_atom_site_label
_atom_site_fract_x
_atom_site_fract_y
_atom_site_fract_z
Si Si1 0.168479 0.476493 0.545698
Si Si2 0.365560 0.772899 0.785621
Si Si3 0.718120 0.339203 0.923434
Si Si4 0.846290 0.417650 0.777896
Si Si5 0.360830 0.216127 0.355385
Si Si6 0.694473 0.787555 0.368057
Si Si7 0.992068 0.135762 0.072682
O O1 0.500000 0.500000 0.500000
O O2 0.176379 0.223799 0.577522
O O3 0.000000 0.500000 0.500000
O O4 0.973334 0.703778 0.613663
O O5 0.065312 0.658087 0.786346
O O6 0.510349 0.924618 0.725499
O O7 0.282296 0.923090 0.863880
O O8 0.594529 0.536569 0.767408
O O9 0.716525 0.335452 0.850389
O O10 0.500000 0.500000 0.000000
O O11 0.014056 0.460253 0.082119
O O12 0.756974 0.031285 0.925654
O O13 0.055495 0.219683 0.706710
O O14 0.525438 0.502383 0.361677
O O15 0.460308 0.025121 0.390010
O O16 0.000000 0.000000 0.000000
#
# Coordination Sequence:
#
# PCOD9033854 Si02
#       7
#     2   2   2   2   2   2   2
#     4  12  26  50  76 112 148 192 240 302 364 436
#     4  10  22  44  70 103 139 188 238 296 353 425
#     4  11  23  41  65 100 139 185 235 294 356 421
#     4  10  22  44  70 103 139 188 238 296 353 425
#     4  11  25  49  75 108 147 192 244 298 361 434
#     4  11  25  49  75 108 147 192 244 298 361 434
#     4  11  23  41  65 100 139 185 235 294 356 421
#
# _framework density 27.633384
#
# number of rings (size 3 to 8) (size 9 to 14) (size 15 to 20)
#    0.000    1.143    2.857    2.571    0.000    4.571 
#    0.000    8.571    0.000    0.000    0.000    0.000 
#    0.000    0.000    0.000    0.000    0.000    0.000 
#
# Total GULP energy -78360.680626 kJ/mol
# GULP energy per Si atom -5597.191473 kJ/mol
# Density = 2.757049 g / cm^3
# Si number density = 27.633384 Si / 1000 Ang^3
#
#
#
# Elastic Constant Matrix: (Units=GPa)
#
#
# Indices 1 2 3 4 5 6 
#
# 1 124.3903 53.4487 49.7269 -7.1316 -16.4928 -13.7850
# 2 53.4487 131.2161 23.4995 -13.2703 -10.8968 -23.9652
# 3 49.7269 23.4995 211.1250 -8.3764 -8.6789 -19.4922
# 4 -7.1316 -13.2703 -8.3764 42.7274 -16.9440 4.3203
# 5 -16.4928 -10.8968 -8.6789 -16.9440 51.5804 -0.5422
# 6 -13.7850 -23.9652 -19.4922 4.3203 -0.5422 59.1039
#
#
#
# Elastic Compliance Matrix: (Units=1/GPa)
#
#
# Indices 1 2 3 4 5 6 
#
# 1 0.010880 -0.003643 -0.001954 0.001394 0.002842 0.000340
# 2 -0.003643 0.010116 0.000227 0.003077 0.002054 0.003121
# 3 -0.001954 0.000227 0.005358 0.000912 0.000639 0.001342
# 4 0.001394 0.003077 0.000912 0.029068 0.010797 -0.000152
# 5 0.002842 0.002054 0.000639 0.010797 0.024396 0.001141
# 6 0.000340 0.003121 0.001342 -0.000152 0.001141 0.018728
#
#
# Mechanical properties :
#
#
# Convention : Reuss Voigt Hill
#
# Bulk Modulus (GPa) = 64.04257 80.00908 72.02583
# Shear Modulus (GPa) = 43.67174 53.35277 48.51225
#
# Velocity S-wave (km/s) = 3.97973 4.39878 4.19449
# Velocity P-wave (km/s) = 6.65912 7.40376 7.04129
#
# Compressibility (1/GPa) = 0.01561461
#
# Stress axis : x y z
#
# Youngs Moduli (GPa) = 91.91285 98.85331 186.64375
#
# Poissons Ratio (x) = 0.36009 0.36461
# Poissons Ratio (y) = 0.33481 -0.04231
# Poissons Ratio (z) = 0.17955 -0.02241
#
# Static dielectric constant tensor:
#      x y z
#    x 2.256310 0.116140 0.051690 
#    y 0.116140 2.212500 0.037870 
#    z 0.051690 0.037870 2.231120 
# 
# From -- ./inp_files/602879.got.cif
#   From: 2010.05.17/outbox.cif.g08.bks.cpg/sg2_302_cif.got.tgz:602879.got - 2010.06.03 11:33:40.
