data_PCOD9033809
_publ_section_title
;
Structure prediction by ZEFSAII (Michael W. Deem and Ramdas Pophale) SiO2 
 PCOD9033809
Probable space group: P -1
;
_chemical_formula_sum "Si O2"
_cell_formula_units_Z 14
_cell_length_a 9.036458
_cell_length_b 10.644435
_cell_length_c 8.434810
_cell_angle_alpha 125.708454
_cell_angle_beta 82.764304
_cell_angle_gamma 105.865973
_cell_volume 633.111044
_symmetry_space_group_name_H-M "P -1"
_symmetry_group_IT_number 2
_symmetry_cell_setting 'triclinic'
loop_
_space_group_symop_operation_xyz
x,y,z
-x,-y,-z
loop_
_atom_site_type_symbol
_atom_site_label
_atom_site_fract_x
_atom_site_fract_y
_atom_site_fract_z
Si Si1 0.435098 0.484536 0.816325
Si Si2 0.825530 0.467338 0.947836
Si Si3 0.950755 0.155207 0.193414
Si Si4 0.389397 0.133911 0.449511
Si Si5 0.745139 0.689028 0.866832
Si Si6 0.327867 0.014951 0.031583
Si Si7 0.734991 0.154864 0.509419
O O1 0.377529 0.303599 0.639104
O O2 0.583114 0.568886 0.754772
O O3 0.500000 0.500000 0.000000
O O4 0.292027 0.562654 0.910206
O O5 0.801870 0.623899 0.973060
O O6 0.776314 0.318531 0.724889
O O7 0.000000 0.500000 0.000000
O O8 0.877509 0.149043 0.372282
O O9 0.106723 0.291628 0.251804
O O10 0.801254 0.148198 0.098413
O O11 0.000000 0.000000 0.000000
O O12 0.310976 0.093981 0.260722
O O13 0.573674 0.144162 0.430143
O O14 0.307948 0.993596 0.475070
O O15 0.698139 0.858118 0.003955
O O16 0.500000 0.000000 0.000000
#
# Coordination Sequence:
#
# PCOD9033809 Si02
#       7
#     2   2   2   2   2   2   2
#     4  10  22  44  70 100 140 187 228 294 361 406
#     4  11  26  45  73 108 140 189 234 298 363 415
#     4  10  24  42  67 103 148 186 224 301 361 405
#     4  11  24  42  74 106 139 185 246 288 351 432
#     4  10  24  44  68  95 151 179 236 286 358 418
#     4  11  24  41  72 109 139 188 234 292 362 417
#     4  11  24  44  72 106 141 184 247 290 350 433
#
# _framework density 22.113026000000001
#
# number of rings (size 3 to 8) (size 9 to 14) (size 15 to 20)
#    0.000    1.429    4.286    0.000   12.000    3.429 
#    0.000    3.571    0.000    0.000    0.000    0.000 
#    0.000    0.000    0.000    0.000    0.000    0.000 
#
# Total GULP energy -78095.429687 kJ/mol
# GULP energy per Si atom -5578.244978 kJ/mol
# Density = 2.206270 g / cm^3
# Si number density = 22.113026 Si / 1000 Ang^3
#
#
#
# Elastic Constant Matrix: (Units=GPa)
#
#
# Indices 1 2 3 4 5 6 
#
# 1 165.1865 63.9465 27.4205 -7.6791 -8.3096 31.2040
# 2 63.9465 88.4338 38.1021 1.4909 -6.6109 20.4707
# 3 27.4205 38.1021 102.4988 1.1034 -9.1781 12.7727
# 4 -7.6791 1.4909 1.1034 17.6867 6.5561 -5.7870
# 5 -8.3096 -6.6109 -9.1781 6.5561 38.6348 -6.1568
# 6 31.2040 20.4707 12.7727 -5.7870 -6.1568 44.3843
#
#
#
# Elastic Compliance Matrix: (Units=1/GPa)
#
#
# Indices 1 2 3 4 5 6 
#
# 1 0.009106 -0.005955 0.000136 0.003427 -0.000130 -0.003266
# 2 -0.005955 0.018668 -0.004735 -0.005470 0.001141 -0.003616
# 3 0.000136 -0.004735 0.011834 -0.001450 0.002082 -0.001217
# 4 0.003427 -0.005470 -0.001450 0.064888 -0.010350 0.007556
# 5 -0.000130 0.001141 0.002082 -0.010350 0.028553 0.001577
# 6 -0.003266 -0.003616 -0.001217 0.007556 0.001577 0.028049
#
#
# Mechanical properties :
#
#
# Convention : Reuss Voigt Hill
#
# Bulk Modulus (GPa) = 54.05199 68.33972 61.19586
# Shear Modulus (GPa) = 26.54323 35.25115 30.89719
#
# Velocity S-wave (km/s) = 3.46836 3.99699 3.74202
# Velocity P-wave (km/s) = 6.36678 7.23001 6.81209
#
# Compressibility (1/GPa) = 0.01850071
#
# Stress axis : x y z
#
# Youngs Moduli (GPa) = 109.81714 53.56667 84.50382
#
# Poissons Ratio (x) = 0.31897 -0.01149
# Poissons Ratio (y) = 0.65392 0.40013
# Poissons Ratio (z) = -0.01493 0.25364
#
# Static dielectric constant tensor:
#      x y z
#    x 1.874260 0.029600 -0.023670 
#    y 0.029600 1.895690 -0.008350 
#    z -0.023670 -0.008350 1.818750 
# 
# From -- ./inp_files/181681.got.cif
#   From: 2010.05.17/outbox.cif.g08.bks.cpg/sg2_91_cif.got.tgz:181681.got - 2010.06.03 11:33:40.
