data_PCOD9033195
_publ_section_title
;
Structure prediction by ZEFSAII (Michael W. Deem and Ramdas Pophale) SiO2 
 PCOD9033195
Probable space group: P -1
;
_chemical_formula_sum "Si O2"
_cell_formula_units_Z 14
_cell_length_a 13.891746
_cell_length_b 9.025905
_cell_length_c 14.035829
_cell_angle_alpha 101.008588
_cell_angle_beta 150.022745
_cell_angle_gamma 60.720287
_cell_volume 648.526453
_symmetry_space_group_name_H-M "P -1"
_symmetry_group_IT_number 2
_symmetry_cell_setting 'triclinic'
loop_
_space_group_symop_operation_xyz
x,y,z
-x,-y,-z
loop_
_atom_site_type_symbol
_atom_site_label
_atom_site_fract_x
_atom_site_fract_y
_atom_site_fract_z
Si Si1 0.512774 0.097022 0.784626
Si Si2 0.898969 0.376781 0.132402
Si Si3 0.367399 0.937519 0.484810
Si Si4 0.909187 0.207208 0.695299
Si Si5 0.002714 0.667873 0.562923
Si Si6 0.654961 0.469934 0.328366
Si Si7 0.147381 0.465917 0.218869
O O1 0.409656 0.317666 0.696959
O O2 0.296979 0.132554 0.672174
O O3 0.510597 0.989300 0.677916
O O4 0.789233 0.973895 0.052722
O O5 0.926776 0.364392 0.269233
O O6 0.974502 0.492131 0.160032
O O7 0.613246 0.474251 0.878019
O O8 0.114271 0.147629 0.251234
O O9 0.251914 0.862059 0.440092
O O10 0.575691 0.757018 0.571770
O O11 0.846460 0.317523 0.555350
O O12 0.824795 0.370440 0.723749
O O13 0.211198 0.639150 0.671258
O O14 0.000000 0.500000 0.500000
O O15 0.000000 0.500000 0.000000
#
# Coordination Sequence:
#
# PCOD9033195 Si02
#       7
#     2   2   2   2   2   2   2
#     4  10  22  44  66  95 136 169 221 270 321 389
#     4  11  23  42  70  96 133 177 218 270 326 395
#     4  11  23  44  66  96 134 174 220 271 326 388
#     4  12  24  43  69  97 137 170 220 272 324 392
#     4   9  20  41  69  93 132 173 218 268 327 386
#     4  11  23  43  69 100 130 178 216 267 334 387
#     4  12  24  42  66  97 133 173 221 272 326 388
#
# _framework density 21.587398
#
# number of rings (size 3 to 8) (size 9 to 14) (size 15 to 20)
#    0.000    1.143    2.857    4.714    0.000    0.571 
#    0.000    5.000    0.000    0.000    0.000    0.000 
#    0.000    0.000    0.000    0.000    0.000    0.000 
#
# Total GULP energy -78216.695256 kJ/mol
# GULP energy per Si atom -5586.906804 kJ/mol
# Density = 2.153826 g / cm^3
# Si number density = 21.587398 Si / 1000 Ang^3
#
#
#
# Elastic Constant Matrix: (Units=GPa)
#
#
# Indices 1 2 3 4 5 6 
#
# 1 87.4414 23.3358 55.0159 -0.2057 8.0601 10.2829
# 2 23.3358 57.2130 2.2710 4.3848 4.6611 12.0252
# 3 55.0159 2.2710 96.4919 4.1931 10.8940 16.6258
# 4 -0.2057 4.3848 4.1931 22.2312 -1.6210 0.7786
# 5 8.0601 4.6611 10.8940 -1.6210 35.5455 -0.5830
# 6 10.2829 12.0252 16.6258 0.7786 -0.5830 27.3414
#
#
#
# Elastic Compliance Matrix: (Units=1/GPa)
#
#
# Indices 1 2 3 4 5 6 
#
# 1 0.021716 -0.009543 -0.013087 0.004460 0.000605 0.003874
# 2 -0.009543 0.024294 0.007568 -0.006179 -0.003813 -0.011603
# 3 -0.013087 0.007568 0.020244 -0.005398 -0.004650 -0.010662
# 4 0.004460 -0.006179 -0.005398 0.047420 0.003666 0.003050
# 5 0.000605 -0.003813 -0.004650 0.003666 0.030167 0.004816
# 6 0.003874 -0.011603 -0.010662 0.003050 0.004816 0.046720
#
#
# Mechanical properties :
#
#
# Convention : Reuss Voigt Hill
#
# Bulk Modulus (GPa) = 27.67892 44.71018 36.19455
# Shear Modulus (GPa) = 21.48435 27.72520 24.60477
#
# Velocity S-wave (km/s) = 3.15814 3.58763 3.37972
# Velocity P-wave (km/s) = 5.11352 6.15773 5.65976
#
# Compressibility (1/GPa) = 0.03612858
#
# Stress axis : x y z
#
# Youngs Moduli (GPa) = 46.04898 41.16327 49.39852
#
# Poissons Ratio (x) = 0.39283 0.64646
# Poissons Ratio (y) = 0.43946 -0.37383
# Poissons Ratio (z) = 0.60262 -0.31151
#
# Static dielectric constant tensor:
#      x y z
#    x 1.810750 -0.006560 0.015920 
#    y -0.006560 1.813850 -0.003290 
#    z 0.015920 -0.003290 1.784580 
# 
# From -- ./inp_files/352361.got.cif
#   From: 2010.05.17/outbox.cif.g08.bks.cpg/sg2_177_cif.got.tgz:352361.got - 2010.06.03 11:33:40.
