data_PCOD9033440
_publ_section_title
;
Structure prediction by ZEFSAII (Michael W. Deem and Ramdas Pophale) SiO2 
 PCOD9033440
Probable space group: P -1
;
_chemical_formula_sum "Si O2"
_cell_formula_units_Z 16
_cell_length_a 17.746674
_cell_length_b 12.011627
_cell_length_c 12.405589
_cell_angle_alpha 111.676882
_cell_angle_beta 46.711004
_cell_angle_gamma 149.269073
_cell_volume 793.107282
_symmetry_space_group_name_H-M "P -1"
_symmetry_group_IT_number 2
_symmetry_cell_setting 'triclinic'
loop_
_space_group_symop_operation_xyz
x,y,z
-x,-y,-z
loop_
_atom_site_type_symbol
_atom_site_label
_atom_site_fract_x
_atom_site_fract_y
_atom_site_fract_z
Si Si1 0.311357 0.249974 0.848165
Si Si2 0.763441 0.092802 0.148795
Si Si3 0.855993 0.204740 0.461713
Si Si4 0.042222 0.582692 0.125009
Si Si5 0.010322 0.915507 0.801935
Si Si6 0.445880 0.793291 0.555966
Si Si7 0.256837 0.797223 0.215067
Si Si8 0.659334 0.590043 0.459891
O O1 0.570845 0.521792 0.642948
O O2 0.249277 0.063728 0.905976
O O3 0.243558 0.303143 0.990814
O O4 0.156030 0.072429 0.827469
O O5 0.994395 0.390144 0.087505
O O6 0.551958 0.900730 0.369744
O O7 0.775530 0.172707 0.051284
O O8 0.742847 0.104204 0.654974
O O9 0.925930 0.143601 0.335628
O O10 0.097377 0.527467 0.327275
O O11 0.659301 0.049992 0.516377
O O12 0.788931 0.374799 0.272558
O O13 0.116373 0.692931 0.210563
O O14 0.091142 0.101864 0.706209
O O15 0.376069 0.586887 0.586253
O O16 0.500000 0.000000 0.000000
O O17 0.500000 0.500000 0.500000
#
# Coordination Sequence:
#
# PCOD9033440 Si02
#       8
#     2   2   2   2   2   2   2   2
#     4   9  17  29  49  84 125 145 179 241 295 352
#     4  10  20  34  56  89 121 149 193 241 301 347
#     4  11  23  40  63  88 122 156 200 247 299 351
#     4  11  23  36  60  88 117 160 199 243 303 350
#     4  10  17  32  55  87 122 148 186 240 305 348
#     4  11  20  36  62  94 122 146 195 254 301 350
#     4  11  27  44  57  83 124 166 205 240 290 362
#     4   9  16  30  51  91 124 145 180 242 309 346
#
# _framework density 20.173815000000001
#
# number of rings (size 3 to 8) (size 9 to 14) (size 15 to 20)
#    0.000    1.750    5.000    1.125    3.500    2.000 
#    2.250    0.000    0.000    3.000    0.000    7.000 
#    0.000    0.000    0.000    0.000    0.000    0.000 
#
# Total GULP energy -89111.072637 kJ/mol
# GULP energy per Si atom -5569.442040 kJ/mol
# Density = 2.012790 g / cm^3
# Si number density = 20.173815 Si / 1000 Ang^3
#
#
#
# Elastic Constant Matrix: (Units=GPa)
#
#
# Indices 1 2 3 4 5 6 
#
# 1 54.5297 21.1871 30.4228 7.0128 5.6965 -14.1525
# 2 21.1871 41.6934 37.8229 16.1104 -2.3741 -6.1165
# 3 30.4228 37.8229 113.4480 22.7324 2.5380 -0.8121
# 4 7.0128 16.1104 22.7324 37.0520 -4.1505 6.2365
# 5 5.6965 -2.3741 2.5380 -4.1505 33.3776 -3.4440
# 6 -14.1525 -6.1165 -0.8121 6.2365 -3.4440 23.7001
#
#
#
# Elastic Compliance Matrix: (Units=1/GPa)
#
#
# Indices 1 2 3 4 5 6 
#
# 1 0.028265 -0.007494 -0.004431 -0.002295 -0.003773 0.014848
# 2 -0.007494 0.043532 -0.010008 -0.012601 0.004643 0.010407
# 3 -0.004431 -0.010008 0.013917 -0.002832 -0.001807 -0.004269
# 4 -0.002295 -0.012601 -0.002832 0.037342 0.002897 -0.014125
# 5 -0.003773 0.004643 -0.001807 0.002897 0.031714 0.002729
# 6 0.014848 0.010407 -0.004269 -0.014125 0.002729 0.057714
#
#
# Mechanical properties :
#
#
# Convention : Reuss Voigt Hill
#
# Bulk Modulus (GPa) = 23.89571 43.17074 33.53322
# Shear Modulus (GPa) = 18.49807 26.84181 22.66994
#
# Velocity S-wave (km/s) = 3.03138 3.65160 3.35585
# Velocity P-wave (km/s) = 4.91151 6.26296 5.62795
#
# Compressibility (1/GPa) = 0.04184852
#
# Stress axis : x y z
#
# Youngs Moduli (GPa) = 35.37905 22.97157 71.85576
#
# Poissons Ratio (x) = 0.17214 0.31838
# Poissons Ratio (y) = 0.26512 0.71914
# Poissons Ratio (z) = 0.15676 0.22990
#
# Static dielectric constant tensor:
#      x y z
#    x 1.738620 -0.016140 -0.009640 
#    y -0.016140 1.769840 -0.006540 
#    z -0.009640 -0.006540 1.794480 
# 
# From -- ./inp_files/464671.got.cif
#   From: 2010.05.17/outbox.cif.g08.bks.cpg/sg2_233_cif.got.tgz:464671.got - 2010.06.03 11:33:40.
