data_PCOD9033322
_publ_section_title
;
Structure prediction by ZEFSAII (Michael W. Deem and Ramdas Pophale) SiO2 
 PCOD9033322
Probable space group: P -1
;
_chemical_formula_sum "Si O2"
_cell_formula_units_Z 16
_cell_length_a 11.579948
_cell_length_b 10.741939
_cell_length_c 15.999251
_cell_angle_alpha 31.576975
_cell_angle_beta 131.167241
_cell_angle_gamma 109.941057
_cell_volume 651.311521
_symmetry_space_group_name_H-M "P -1"
_symmetry_group_IT_number 2
_symmetry_cell_setting 'triclinic'
loop_
_space_group_symop_operation_xyz
x,y,z
-x,-y,-z
loop_
_atom_site_type_symbol
_atom_site_label
_atom_site_fract_x
_atom_site_fract_y
_atom_site_fract_z
Si Si1 0.974253 0.272141 0.227743
Si Si2 0.247719 0.156415 0.785915
Si Si3 0.719714 0.301196 0.226001
Si Si4 0.261981 0.217202 0.957591
Si Si5 0.067275 0.912397 0.325516
Si Si6 0.001782 0.734809 0.062456
Si Si7 0.567327 0.530102 0.303457
Si Si8 0.436023 0.342322 0.500645
O O1 0.935661 0.571780 0.066205
O O2 0.819119 0.252088 0.212379
O O3 0.175885 0.016008 0.504443
O O4 0.980672 0.193699 0.179694
O O5 0.270439 0.161230 0.894999
O O6 0.311516 0.353762 0.666141
O O7 0.045722 0.230948 0.627593
O O8 0.391212 0.826253 0.016689
O O9 0.779765 0.477318 0.209902
O O10 0.500000 0.500000 0.000000
O O11 0.112603 0.182175 0.954359
O O12 0.455119 0.979424 0.229893
O O13 0.287396 0.701913 0.559838
O O14 0.034824 0.004993 0.160406
O O15 0.217837 0.514332 0.304065
O O16 0.500133 0.381536 0.417879
O O17 0.500000 0.500000 0.500000
#
# Coordination Sequence:
#
# PCOD9033322 Si02
#       8
#     2   2   2   2   2   2   2   2
#     4  10  24  43  64  96 128 165 220 261 316 385
#     4  11  25  42  63  97 130 169 210 267 321 376
#     4  10  22  44  67  94 125 170 216 267 317 376
#     4  11  23  41  69  94 127 171 217 262 322 382
#     4  12  23  42  65  92 131 172 208 262 323 381
#     4  11  24  42  66  93 131 168 213 267 320 375
#     4  11  24  41  60  95 132 162 217 256 320 383
#     4  12  23  42  64  96 129 171 214 266 315 383
#
# _framework density 24.565818
#
# number of rings (size 3 to 8) (size 9 to 14) (size 15 to 20)
#    0.000    1.000    3.750    2.250    1.750    4.000 
#    4.500    0.625    0.000    0.000    0.000    0.000 
#    0.000    0.000    0.000    0.000    0.000    0.000 
#
# Total GULP energy -89572.940102 kJ/mol
# GULP energy per Si atom -5598.308756 kJ/mol
# Density = 2.450991 g / cm^3
# Si number density = 24.565818 Si / 1000 Ang^3
#
#
#
# Elastic Constant Matrix: (Units=GPa)
#
#
# Indices 1 2 3 4 5 6 
#
# 1 97.8895 11.7260 33.9027 29.4886 28.3343 -17.3741
# 2 11.7260 59.9534 -3.2494 -3.1602 1.0088 -12.2205
# 3 33.9027 -3.2494 108.1777 -0.0816 17.6028 -5.2553
# 4 29.4886 -3.1602 -0.0816 33.3695 6.4302 7.5406
# 5 28.3343 1.0088 17.6028 6.4302 45.0843 -2.7712
# 6 -17.3741 -12.2205 -5.2553 7.5406 -2.7712 32.6435
#
#
#
# Elastic Compliance Matrix: (Units=1/GPa)
#
#
# Indices 1 2 3 4 5 6 
#
# 1 0.025834 -0.003149 -0.005895 -0.025118 -0.009259 0.016638
# 2 -0.003149 0.018531 0.001660 0.003308 0.000741 0.004827
# 3 -0.005895 0.001660 0.011326 0.006256 -0.001787 -0.002290
# 4 -0.025118 0.003308 0.006256 0.057224 0.003630 -0.024033
# 5 -0.009259 0.000741 -0.001787 0.003630 0.027954 -0.003404
# 6 0.016638 0.004827 -0.002290 -0.024033 -0.003404 0.046191
#
#
# Mechanical properties :
#
#
# Convention : Reuss Voigt Hill
#
# Bulk Modulus (GPa) = 24.43619 38.97546 31.70583
# Shear Modulus (GPa) = 23.20524 37.12890 30.16707
#
# Velocity S-wave (km/s) = 3.07679 3.89190 3.50810
# Velocity P-wave (km/s) = 4.75300 6.00799 5.41697
#
# Compressibility (1/GPa) = 0.04092290
#
# Stress axis : x y z
#
# Youngs Moduli (GPa) = 38.70864 53.96247 88.29465
#
# Poissons Ratio (x) = 0.16993 0.52050
# Poissons Ratio (y) = 0.12190 -0.14657
# Poissons Ratio (z) = 0.22819 -0.08958
#
# Static dielectric constant tensor:
#      x y z
#    x 1.968600 -0.002510 -0.049040 
#    y -0.002510 1.936970 -0.014440 
#    z -0.049040 -0.014440 2.000670 
# 
# From -- ./inp_files/568497.got.cif
#   From: 2010.05.17/outbox.cif.g08.bks.cpg/sg2_285_cif.got.tgz:568497.got - 2010.06.03 11:33:40.
