data_PCOD9033266
_publ_section_title
;
Structure prediction by ZEFSAII (Michael W. Deem and Ramdas Pophale) SiO2 
 PCOD9033266
Probable space group: P -1
;
_chemical_formula_sum "Si O2"
_cell_formula_units_Z 16
_cell_length_a 8.686969
_cell_length_b 13.770358
_cell_length_c 12.204533
_cell_angle_alpha 99.863057
_cell_angle_beta 70.384215
_cell_angle_gamma 148.167136
_cell_volume 706.019865
_symmetry_space_group_name_H-M "P -1"
_symmetry_group_IT_number 2
_symmetry_cell_setting 'triclinic'
loop_
_space_group_symop_operation_xyz
x,y,z
-x,-y,-z
loop_
_atom_site_type_symbol
_atom_site_label
_atom_site_fract_x
_atom_site_fract_y
_atom_site_fract_z
Si Si1 0.531356 0.062228 0.693862
Si Si2 0.222863 0.608965 0.192004
Si Si3 0.782787 0.363703 0.423944
Si Si4 0.242880 0.866271 0.939980
Si Si5 0.669423 0.693979 0.982909
Si Si6 0.220664 0.493067 0.871737
Si Si7 0.517768 0.422885 0.392747
Si Si8 0.179858 0.924736 0.543089
O O1 0.646683 0.225944 0.746112
O O2 0.789094 0.146182 0.568388
O O3 0.432689 0.945135 0.798061
O O4 0.242703 0.923748 0.651962
O O5 0.011794 0.436243 0.291949
O O6 0.987446 0.527252 0.137067
O O7 0.511825 0.691883 0.100472
O O8 0.675844 0.410581 0.406379
O O9 0.000000 0.500000 0.500000
O O10 0.474452 0.145435 0.486916
O O11 0.030183 0.853407 0.956884
O O12 0.996869 0.664008 0.011959
O O13 0.500000 0.000000 0.000000
O O14 0.555983 0.678409 0.888647
O O15 0.500000 0.500000 0.000000
O O16 0.298446 0.462385 0.742937
O O17 0.500000 0.500000 0.500000
O O18 0.162859 0.208865 0.409126
#
# Coordination Sequence:
#
# PCOD9033266 Si02
#       8
#     2   2   2   2   2   2   2   2
#     4  11  24  43  71 102 142 178 236 286 354 403
#     4  11  22  44  68 102 140 185 231 287 356 420
#     4  11  24  42  69 103 138 181 230 290 348 412
#     4  11  23  43  67  98 139 177 232 288 353 411
#     4  10  24  41  66  98 133 183 231 281 349 419
#     4  10  22  44  67 101 139 183 227 289 347 418
#     4  11  25  44  72 104 141 182 239 283 351 420
#     4  11  24  45  72 103 143 186 235 292 344 418
#
# _framework density 22.66225
#
# number of rings (size 3 to 8) (size 9 to 14) (size 15 to 20)
#    0.000    1.250    2.500    3.000    5.250    2.500 
#    0.000    0.000    0.000    0.000    0.000    0.000 
#    0.000    0.000    0.000    0.000    0.000    0.000 
#
# Total GULP energy -89300.133757 kJ/mol
# GULP energy per Si atom -5581.258360 kJ/mol
# Density = 2.261067 g / cm^3
# Si number density = 22.662250 Si / 1000 Ang^3
#
#
#
# Elastic Constant Matrix: (Units=GPa)
#
#
# Indices 1 2 3 4 5 6 
#
# 1 90.4562 37.4538 36.9951 14.0365 0.4603 35.7361
# 2 37.4538 101.0452 41.3083 2.6958 0.5392 12.8749
# 3 36.9951 41.3083 124.8738 15.0338 17.8931 0.3288
# 4 14.0365 2.6958 15.0338 33.8161 -2.6281 1.5973
# 5 0.4603 0.5392 17.8931 -2.6281 45.3718 3.0313
# 6 35.7361 12.8749 0.3288 1.5973 3.0313 55.5212
#
#
#
# Elastic Compliance Matrix: (Units=1/GPa)
#
#
# Indices 1 2 3 4 5 6 
#
# 1 0.019928 -0.004044 -0.004169 -0.005385 0.001967 -0.011817
# 2 -0.004044 0.012835 -0.003540 0.002366 0.001455 -0.000500
# 3 -0.004169 -0.003540 0.011556 -0.003689 -0.004941 0.003812
# 4 -0.005385 0.002366 -0.003689 0.033430 0.003298 0.001798
# 5 0.001967 0.001455 -0.004941 0.003298 0.024343 -0.002998
# 6 -0.011817 -0.000500 0.003812 0.001798 -0.002998 0.025823
#
#
# Mechanical properties :
#
#
# Convention : Reuss Voigt Hill
#
# Bulk Modulus (GPa) = 48.04153 60.87662 54.45908
# Shear Modulus (GPa) = 31.57383 40.31636 35.94509
#
# Velocity S-wave (km/s) = 3.73666 4.22241 3.98694
# Velocity P-wave (km/s) = 6.31361 7.11987 6.72883
#
# Compressibility (1/GPa) = 0.02081532
#
# Stress axis : x y z
#
# Youngs Moduli (GPa) = 50.17944 77.90937 86.53269
#
# Poissons Ratio (x) = 0.31504 0.36074
# Poissons Ratio (y) = 0.20291 0.30632
# Poissons Ratio (z) = 0.20919 0.27580
#
# Static dielectric constant tensor:
#      x y z
#    x 1.850650 0.021850 -0.005460 
#    y 0.021850 1.944240 0.002550 
#    z -0.005460 0.002550 1.903160 
# 
# From -- ./inp_files/399189.got.cif
#   From: 2010.05.17/outbox.cif.g08.bks.cpg/sg2_200_cif.got.tgz:399189.got - 2010.06.03 11:33:40.
