data_PCOD9033188
_publ_section_title
;
Structure prediction by ZEFSAII (Michael W. Deem and Ramdas Pophale) SiO2 
 PCOD9033188
Probable space group: P -1
;
_chemical_formula_sum "Si O2"
_cell_formula_units_Z 16
_cell_length_a 10.930902
_cell_length_b 14.369257
_cell_length_c 8.630183
_cell_angle_alpha 121.342022
_cell_angle_beta 85.418983
_cell_angle_gamma 129.341517
_cell_volume 828.828598
_symmetry_space_group_name_H-M "P -1"
_symmetry_group_IT_number 2
_symmetry_cell_setting 'triclinic'
loop_
_space_group_symop_operation_xyz
x,y,z
-x,-y,-z
loop_
_atom_site_type_symbol
_atom_site_label
_atom_site_fract_x
_atom_site_fract_y
_atom_site_fract_z
Si Si1 0.460423 0.850286 0.844186
Si Si2 0.999074 0.956130 0.722700
Si Si3 0.285918 0.806592 0.520548
Si Si4 0.285831 0.172737 0.138563
Si Si5 0.907895 0.100335 0.653116
Si Si6 0.566024 0.887200 0.344399
Si Si7 0.594329 0.356421 0.086246
Si Si8 0.975059 0.601450 0.172834
O O1 0.343387 0.778480 0.641998
O O2 0.633273 0.885679 0.841913
O O3 0.373154 0.735264 0.898415
O O4 0.500000 0.000000 0.000000
O O5 0.828243 0.831810 0.732689
O O6 0.020050 0.890193 0.516320
O O7 0.982368 0.065447 0.742099
O O8 0.157011 0.056483 0.913420
O O9 0.393173 0.826927 0.381865
O O10 0.089510 0.674400 0.380313
O O11 0.349941 0.971846 0.658260
O O12 0.456549 0.333776 0.188401
O O13 0.948987 0.251660 0.807617
O O14 0.705447 0.959354 0.526808
O O15 0.515426 0.746931 0.140858
O O16 0.778927 0.509431 0.149980
O O17 0.000000 0.500000 0.000000
#
# Coordination Sequence:
#
# PCOD9033188 Si02
#       8
#     2   2   2   2   2   2   2   2
#     4  10  19  33  58  87 113 148 198 240 292 341
#     4  10  19  38  62  88 111 149 205 249 272 339
#     4  10  19  31  56  82 111 158 185 236 284 347
#     4   9  20  35  59  85 117 145 191 251 294 325
#     4  10  21  35  63  89 109 150 204 243 285 336
#     4  10  17  32  55  82 112 145 200 235 282 332
#     4  10  20  36  53  80 124 151 184 239 295 346
#     4  11  23  38  56  87 128 153 188 237 304 352
#
# _framework density 19.304354
#
# number of rings (size 3 to 8) (size 9 to 14) (size 15 to 20)
#    0.750    1.250    3.750    0.750    1.750    1.500 
#    0.000    1.250    5.500    0.000    0.000    0.000 
#    0.000    0.000    0.000    0.000    0.000    0.000 
#
# Total GULP energy -89083.022588 kJ/mol
# GULP energy per Si atom -5567.688912 kJ/mol
# Density = 1.926042 g / cm^3
# Si number density = 19.304354 Si / 1000 Ang^3
#
#
#
# Elastic Constant Matrix: (Units=GPa)
#
#
# Indices 1 2 3 4 5 6 
#
# 1 74.2204 13.4734 15.6485 6.8544 14.8606 11.4856
# 2 13.4734 38.5072 25.0206 3.3537 10.1280 13.7577
# 3 15.6485 25.0206 53.4474 7.2798 17.5771 0.3655
# 4 6.8544 3.3537 7.2798 20.1151 3.1980 6.2417
# 5 14.8606 10.1280 17.5771 3.1980 33.3936 -4.4953
# 6 11.4856 13.7577 0.3655 6.2417 -4.4953 48.7319
#
#
#
# Elastic Compliance Matrix: (Units=1/GPa)
#
#
# Indices 1 2 3 4 5 6 
#
# 1 0.016100 -0.001436 -0.001665 -0.002555 -0.006095 -0.003612
# 2 -0.001436 0.044720 -0.019481 0.004973 -0.004928 -0.013232
# 3 -0.001665 -0.019481 0.032288 -0.008311 -0.008755 0.005907
# 4 -0.002555 0.004973 -0.008311 0.055658 -0.002416 -0.008091
# 5 -0.006095 -0.004928 -0.008755 -0.002416 0.039919 0.006885
# 6 -0.003612 -0.013232 0.005907 -0.008091 0.006885 0.026734
#
#
# Mechanical properties :
#
#
# Convention : Reuss Voigt Hill
#
# Bulk Modulus (GPa) = 20.85715 30.49556 25.67635
# Shear Modulus (GPa) = 18.07899 27.91696 22.99798
#
# Velocity S-wave (km/s) = 3.06359 3.80695 3.45532
# Velocity P-wave (km/s) = 4.83135 5.92920 5.40820
#
# Compressibility (1/GPa) = 0.04794519
#
# Stress axis : x y z
#
# Youngs Moduli (GPa) = 62.11122 22.36133 30.97139
#
# Poissons Ratio (x) = 0.03211 0.05156
# Poissons Ratio (y) = 0.08918 0.60335
# Poissons Ratio (z) = 0.10340 0.43562
#
# Static dielectric constant tensor:
#      x y z
#    x 1.710940 0.032240 -0.006080 
#    y 0.032240 1.691030 -0.020350 
#    z -0.006080 -0.020350 1.694480 
# 
# From -- ./inp_files/169577.got.cif
#   From: 2010.05.17/outbox.cif.g08.bks.cpg/sg2_85_cif.got.tgz:169577.got - 2010.06.03 11:33:40.
