data_PCOD9033032
_publ_section_title
;
Structure prediction by ZEFSAII (Michael W. Deem and Ramdas Pophale) SiO2 
 PCOD9033032
Probable space group: P -1
;
_chemical_formula_sum "Si O2"
_cell_formula_units_Z 16
_cell_length_a 9.219959
_cell_length_b 9.265616
_cell_length_c 11.746364
_cell_angle_alpha 82.800548
_cell_angle_beta 122.487012
_cell_angle_gamma 119.036042
_cell_volume 727.485745
_symmetry_space_group_name_H-M "P -1"
_symmetry_group_IT_number 2
_symmetry_cell_setting 'triclinic'
loop_
_space_group_symop_operation_xyz
x,y,z
-x,-y,-z
loop_
_atom_site_type_symbol
_atom_site_label
_atom_site_fract_x
_atom_site_fract_y
_atom_site_fract_z
Si Si1 0.298756 0.505365 0.908177
Si Si2 0.113938 0.651533 0.947896
Si Si3 0.106955 0.181302 0.741371
Si Si4 0.402706 0.416402 0.642983
Si Si5 0.555946 0.273374 0.249691
Si Si6 0.295389 0.849952 0.476671
Si Si7 0.766758 0.478941 0.644297
Si Si8 0.834254 0.996482 0.014944
O O1 0.295581 0.625146 0.991130
O O2 0.135721 0.312274 0.843539
O O3 0.281598 0.590124 0.777800
O O4 0.500000 0.500000 0.000000
O O5 0.964896 0.600939 0.783511
O O6 0.160799 0.827432 0.999441
O O7 0.000000 0.500000 0.000000
O O8 0.268073 0.284932 0.698595
O O9 0.136434 0.046697 0.838483
O O10 0.886000 0.113627 0.607766
O O11 0.502611 0.608762 0.713308
O O12 0.581006 0.402613 0.661935
O O13 0.270189 0.419508 0.481686
O O14 0.648917 0.186975 0.372383
O O15 0.374383 0.144616 0.109755
O O16 0.231952 0.679375 0.396442
O O17 0.500000 0.000000 0.500000
O O18 0.000000 0.000000 0.000000
#
# Coordination Sequence:
#
# PCOD9033032 Si02
#       8
#     2   2   2   2   2   2   2   2
#     4  11  23  45  70 100 137 179 232 289 351 415
#     4  12  28  42  72  98 138 187 235 283 356 421
#     4  11  23  43  73 103 135 185 234 287 357 415
#     4   9  22  41  72  96 138 182 226 289 349 417
#     4  10  23  40  69  97 137 180 227 285 350 410
#     4  11  24  43  68  98 135 186 235 286 346 415
#     4  10  22  44  65 101 134 180 236 284 346 422
#     4  12  25  44  69 104 143 179 236 294 352 414
#
# _framework density 21.993556999999999
#
# number of rings (size 3 to 8) (size 9 to 14) (size 15 to 20)
#    0.000    1.250    2.500    2.250    7.000    4.000 
#    2.250    1.250    0.000    0.000    0.000    0.000 
#    0.000    0.000    0.000    0.000    0.000    0.000 
#
# Total GULP energy -89362.350992 kJ/mol
# GULP energy per Si atom -5585.146937 kJ/mol
# Density = 2.194350 g / cm^3
# Si number density = 21.993557 Si / 1000 Ang^3
#
#
#
# Elastic Constant Matrix: (Units=GPa)
#
#
# Indices 1 2 3 4 5 6 
#
# 1 104.9225 22.3394 30.6476 -14.0757 4.7289 -8.3723
# 2 22.3394 86.8946 21.5871 -19.6579 1.1684 -0.2610
# 3 30.6476 21.5871 97.0586 -20.2842 11.1652 6.8163
# 4 -14.0757 -19.6579 -20.2842 35.0136 7.1291 -1.2477
# 5 4.7289 1.1684 11.1652 7.1291 33.3569 0.1745
# 6 -8.3723 -0.2610 6.8163 -1.2477 0.1745 25.1962
#
#
#
# Elastic Compliance Matrix: (Units=1/GPa)
#
#
# Indices 1 2 3 4 5 6 
#
# 1 0.011496 -0.001653 -0.002973 0.002365 -0.001107 0.004732
# 2 -0.001653 0.013724 -0.000974 0.006762 -0.001366 0.000201
# 3 -0.002973 -0.000974 0.013970 0.007371 -0.005773 -0.004372
# 4 0.002365 0.006762 0.007371 0.039969 -0.011586 0.000922
# 5 -0.001107 -0.001366 -0.005773 -0.011586 0.034590 0.000366
# 6 0.004732 0.000201 -0.004372 0.000922 0.000366 0.042489
#
#
# Mechanical properties :
#
#
# Convention : Reuss Voigt Hill
#
# Bulk Modulus (GPa) = 35.72760 48.66933 42.19846
# Shear Modulus (GPa) = 28.28564 33.00011 30.64288
#
# Velocity S-wave (km/s) = 3.59010 3.87776 3.73670
# Velocity P-wave (km/s) = 5.78489 6.49818 6.15188
#
# Compressibility (1/GPa) = 0.02798956
#
# Stress axis : x y z
#
# Youngs Moduli (GPa) = 86.98732 72.86643 71.58153
#
# Poissons Ratio (x) = 0.12042 0.21282
# Poissons Ratio (y) = 0.14376 0.06974
# Poissons Ratio (z) = 0.25862 0.07100
#
# Static dielectric constant tensor:
#      x y z
#    x 1.807220 -0.023530 0.003040 
#    y -0.023530 1.804100 -0.008870 
#    z 0.003040 -0.008870 1.829890 
# 
# From -- ./inp_files/382072.got.cif
#   From: 2010.05.17/outbox.cif.g08.bks.cpg/sg2_192_cif.got.tgz:382072.got - 2010.06.03 11:33:40.
