data_PCOD9033090
_publ_section_title
;
Structure prediction by ZEFSAII (Michael W. Deem and Ramdas Pophale) SiO2 
 PCOD9033090
Probable space group: P -1
;
_chemical_formula_sum "Si O2"
_cell_formula_units_Z 14
_cell_length_a 13.627455
_cell_length_b 9.531414
_cell_length_c 13.525108
_cell_angle_alpha 52.079791
_cell_angle_beta 30.857211
_cell_angle_gamma 73.206160
_cell_volume 574.005509
_symmetry_space_group_name_H-M "P -1"
_symmetry_group_IT_number 2
_symmetry_cell_setting 'triclinic'
loop_
_space_group_symop_operation_xyz
x,y,z
-x,-y,-z
loop_
_atom_site_type_symbol
_atom_site_label
_atom_site_fract_x
_atom_site_fract_y
_atom_site_fract_z
Si Si1 0.970239 0.297591 0.376030
Si Si2 0.703746 0.338770 0.203496
Si Si3 0.859462 0.064304 0.898597
Si Si4 0.247130 0.580514 0.341337
Si Si5 0.314652 0.282639 0.969497
Si Si6 0.444330 0.077655 0.239697
Si Si7 0.782537 0.002346 0.334108
O O1 0.876754 0.310065 0.555967
O O2 0.153858 0.237662 0.224721
O O3 0.747198 0.126014 0.574886
O O4 0.122429 0.545101 0.092257
O O5 0.434319 0.154630 0.483657
O O6 0.806910 0.228973 0.220478
O O7 0.703399 0.542403 0.152515
O O8 0.054403 0.323784 0.604427
O O9 0.981946 0.980286 0.896241
O O10 0.783445 0.925153 0.923687
O O11 0.621328 0.030160 0.155656
O O12 0.427788 0.616886 0.254986
O O13 0.396811 0.711092 0.058785
O O14 0.310495 0.106134 0.430006
#
# Coordination Sequence:
#
# PCOD9033090 Si02
#       7
#     2   2   2   2   2   2   2
#     4  10  22  44  65  97 135 172 219 272 332 383
#     4   9  22  46  72  90 138 174 219 287 327 389
#     4  12  24  42  68 101 132 179 225 264 335 398
#     4  12  25  45  65 100 144 170 222 274 326 399
#     4  10  23  44  70  99 127 183 220 269 338 385
#     4  12  26  40  67 100 139 175 219 274 332 396
#     4  11  22  47  66 101 132 176 225 274 337 389
#
# _framework density 24.39001
#
# number of rings (size 3 to 8) (size 9 to 14) (size 15 to 20)
#    0.857    0.286    4.286    1.714    0.000    4.571 
#    2.571    3.571    0.000    0.000    0.000    0.000 
#    0.000    0.000    0.000    0.000    0.000    0.000 
#
# Total GULP energy -78281.936184 kJ/mol
# GULP energy per Si atom -5591.566870 kJ/mol
# Density = 2.433450 g / cm^3
# Si number density = 24.390010 Si / 1000 Ang^3
#
#
#
# Elastic Constant Matrix: (Units=GPa)
#
#
# Indices 1 2 3 4 5 6 
#
# 1 69.4683 12.3508 23.7259 -8.6483 -33.7507 -3.8397
# 2 12.3508 70.9523 25.8144 -9.7761 -26.9545 9.6209
# 3 23.7259 25.8144 66.6534 -5.1284 -26.7675 -5.7711
# 4 -8.6483 -9.7761 -5.1284 32.2289 4.6644 -5.3281
# 5 -33.7507 -26.9545 -26.7675 4.6644 45.8930 9.6774
# 6 -3.8397 9.6209 -5.7711 -5.3281 9.6774 31.9848
#
#
#
# Elastic Compliance Matrix: (Units=1/GPa)
#
#
# Indices 1 2 3 4 5 6 
#
# 1 0.024435 0.005674 -0.002874 0.004117 0.020203 -0.004719
# 2 0.005674 0.023583 -0.004982 0.003399 0.017299 -0.011979
# 3 -0.002874 -0.004982 0.020841 0.000616 0.006405 0.003079
# 4 0.004117 0.003399 0.000616 0.033956 0.000884 0.004972
# 5 0.020203 0.017299 0.006405 0.000884 0.054225 -0.017882
# 6 -0.004719 -0.011979 0.003079 0.004972 -0.017882 0.041096
#
#
# Mechanical properties :
#
#
# Convention : Reuss Voigt Hill
#
# Bulk Modulus (GPa) = 15.50458 36.76179 26.13319
# Shear Modulus (GPa) = 22.32162 31.70021 27.01091
#
# Velocity S-wave (km/s) = 3.02850 3.60908 3.33146
# Velocity P-wave (km/s) = 4.31275 5.69846 5.05333
#
# Compressibility (1/GPa) = 0.06449706
#
# Stress axis : x y z
#
# Youngs Moduli (GPa) = 40.92483 42.40259 47.98127
#
# Poissons Ratio (x) = -0.24061 0.13789
# Poissons Ratio (y) = -0.23222 0.23904
# Poissons Ratio (z) = 0.11761 0.21125
#
# Static dielectric constant tensor:
#      x y z
#    x 1.951550 -0.037760 0.028590 
#    y -0.037760 1.903150 -0.003910 
#    z 0.028590 -0.003910 1.915880 
# 
# From -- ./inp_files/264915.got.cif
#   From: 2010.05.17/outbox.cif.g08.bks.cpg/sg2_133_cif.got.tgz:264915.got - 2010.06.03 11:33:40.
