data_PCOD9033259
_publ_section_title
;
Structure prediction by ZEFSAII (Michael W. Deem and Ramdas Pophale) SiO2 
 PCOD9033259
Probable space group: P -1
;
_chemical_formula_sum "Si O2"
_cell_formula_units_Z 16
_cell_length_a 8.558245
_cell_length_b 8.972011
_cell_length_c 10.220907
_cell_angle_alpha 81.545482
_cell_angle_beta 113.720083
_cell_angle_gamma 89.297495
_cell_volume 708.488711
_symmetry_space_group_name_H-M "P -1"
_symmetry_group_IT_number 2
_symmetry_cell_setting 'triclinic'
loop_
_space_group_symop_operation_xyz
x,y,z
-x,-y,-z
loop_
_atom_site_type_symbol
_atom_site_label
_atom_site_fract_x
_atom_site_fract_y
_atom_site_fract_z
Si Si1 0.320343 0.344775 0.736531
Si Si2 0.382212 0.149130 0.537439
Si Si3 0.201271 0.352302 0.233958
Si Si4 0.019092 0.908163 0.883221
Si Si5 0.582279 0.155108 0.027459
Si Si6 0.763540 0.116596 0.595879
Si Si7 0.493909 0.409365 0.146246
Si Si8 0.045163 0.585790 0.369202
O O1 0.303082 0.259419 0.606803
O O2 0.482711 0.258814 0.871775
O O3 0.370090 0.516951 0.724706
O O4 0.141330 0.342604 0.751256
O O5 0.331530 0.234147 0.373388
O O6 0.587616 0.131802 0.619282
O O7 0.298641 0.988852 0.529132
O O8 0.312279 0.428763 0.152675
O O9 0.067341 0.250665 0.132399
O O10 0.120535 0.471368 0.297647
O O11 0.216761 0.871496 0.921327
O O12 0.916390 0.015507 0.729806
O O13 0.000000 0.000000 0.000000
O O14 0.539758 0.237635 0.140402
O O15 0.500000 0.000000 0.000000
O O16 0.832996 0.280025 0.579293
O O17 0.500000 0.500000 0.000000
O O18 0.000000 0.500000 0.500000
#
# Coordination Sequence:
#
# PCOD9033259 Si02
#       8
#     2   2   2   2   2   2   2   2
#     4  11  23  43  65  99 140 172 236 274 350 405
#     4  10  22  44  67 101 133 185 225 289 345 408
#     4  11  24  44  71  99 139 183 231 287 344 417
#     4  11  23  44  70 102 135 180 235 287 347 405
#     4  11  23  43  67  98 134 184 230 287 339 410
#     4  10  24  42  66 102 141 176 233 284 342 408
#     4  10  24  44  68  99 136 184 230 284 346 415
#     4  12  25  43  66 107 143 183 225 281 348 416
#
# _framework density 22.583282000000001
#
# number of rings (size 3 to 8) (size 9 to 14) (size 15 to 20)
#    0.000    1.250    1.250    3.750    1.750    5.500 
#    2.250    5.625    0.000    0.000    0.000    0.000 
#    0.000    0.000    0.000    0.000    0.000    0.000 
#
# Total GULP energy -89419.244488 kJ/mol
# GULP energy per Si atom -5588.702780 kJ/mol
# Density = 2.253188 g / cm^3
# Si number density = 22.583282 Si / 1000 Ang^3
#
#
#
# Elastic Constant Matrix: (Units=GPa)
#
#
# Indices 1 2 3 4 5 6 
#
# 1 178.8209 86.1637 65.1167 24.7739 15.3143 -6.8453
# 2 86.1637 172.9520 57.2191 59.0954 -2.6038 13.3728
# 3 65.1167 57.2191 74.7802 7.8422 9.3524 -0.6142
# 4 24.7739 59.0954 7.8422 52.8416 -11.6317 7.8909
# 5 15.3143 -2.6038 9.3524 -11.6317 45.9110 6.6036
# 6 -6.8453 13.3728 -0.6142 7.8909 6.6036 50.4282
#
#
#
# Elastic Compliance Matrix: (Units=1/GPa)
#
#
# Indices 1 2 3 4 5 6 
#
# 1 0.009485 -0.002350 -0.005861 -0.001981 -0.002970 0.002538
# 2 -0.002350 0.014059 -0.007346 -0.013216 0.000028 -0.002073
# 3 -0.005861 -0.007346 0.023556 0.007044 -0.001553 0.000541
# 4 -0.001981 -0.013216 0.007044 0.035857 0.008042 -0.003342
# 5 -0.002970 0.000028 -0.001553 0.008042 0.025857 -0.005074
# 6 0.002538 -0.002073 0.000541 -0.003342 -0.005074 0.021918
#
#
# Mechanical properties :
#
#
# Convention : Reuss Voigt Hill
#
# Bulk Modulus (GPa) = 62.54919 93.72805 78.13862
# Shear Modulus (GPa) = 29.90859 44.37305 37.14082
#
# Velocity S-wave (km/s) = 3.64314 4.43749 4.05979
# Velocity P-wave (km/s) = 6.74195 8.23702 7.52669
#
# Compressibility (1/GPa) = 0.01598742
#
# Stress axis : x y z
#
# Youngs Moduli (GPa) = 105.43094 71.12690 42.45116
#
# Poissons Ratio (x) = 0.16717 0.24879
# Poissons Ratio (y) = 0.24780 0.31183
# Poissons Ratio (z) = 0.61790 0.52247
#
# Static dielectric constant tensor:
#      x y z
#    x 1.802100 0.021960 -0.001910 
#    y 0.021960 1.838960 0.039900 
#    z -0.001910 0.039900 1.878240 
# 
# From -- ./inp_files/379302.got.cif
#   From: 2010.05.17/outbox.cif.g08.bks.cpg/sg2_190_cif.got.tgz:379302.got - 2010.06.03 11:33:40.
