data_PCOD9033829
_publ_section_title
;
Structure prediction by ZEFSAII (Michael W. Deem and Ramdas Pophale) SiO2 
 PCOD9033829
Probable space group: P -1
;
_chemical_formula_sum "Si O2"
_cell_formula_units_Z 11
_cell_length_a 12.375999
_cell_length_b 11.758658
_cell_length_c 10.491094
_cell_angle_alpha 50.887031
_cell_angle_beta 126.800280
_cell_angle_gamma 156.394054
_cell_volume 473.279408
_symmetry_space_group_name_H-M "P -1"
_symmetry_group_IT_number 2
_symmetry_cell_setting 'triclinic'
loop_
_space_group_symop_operation_xyz
x,y,z
-x,-y,-z
loop_
_atom_site_type_symbol
_atom_site_label
_atom_site_fract_x
_atom_site_fract_y
_atom_site_fract_z
Si Si1 0.270560 0.674491 0.523598
Si Si2 0.637579 0.472402 0.100636
Si Si3 0.000000 0.500000 0.000000
Si Si4 0.266499 0.571276 0.306595
Si Si5 0.158699 0.918399 0.991209
Si Si6 0.206076 0.069779 0.641493
O O1 0.300097 0.548763 0.707360
O O2 0.286959 0.661615 0.394171
O O3 0.000000 0.500000 0.500000
O O4 0.500000 0.000000 0.500000
O O5 0.500000 0.500000 0.000000
O O6 0.913725 0.748380 0.022681
O O7 0.426813 0.171976 0.086473
O O8 0.711726 0.313270 0.887402
O O9 0.056774 0.668483 0.039257
O O10 0.494266 0.660276 0.394294
O O11 0.951372 0.227236 0.305029
O O12 0.213037 0.070571 0.798098
O O13 0.000000 0.000000 0.500000
#
# Coordination Sequence:
#
# PCOD9033829 Si02
#       6
#     2   2   1   2   2   2
#     4  12  26  45  71 103 141 188 236 289 345 423
#     4  12  27  45  71 102 147 191 232 288 356 433
#     4  10  22  44  70 102 132 174 236 294 352 404
#     4  11  24  41  69  99 134 176 227 288 347 408
#     4  11  25  44  71 101 137 184 234 288 353 422
#     4  11  25  41  68  97 135 176 225 289 345 408
#
# _framework density 23.242086
#
# number of rings (size 3 to 8) (size 9 to 14) (size 15 to 20)
#    0.000    0.727    0.000    7.636    5.091    8.000 
#    0.000    0.000    0.000    0.000    0.000    0.000 
#    0.000    0.000    0.000    0.000    0.000    0.000 
#
# Total GULP energy -61280.844944 kJ/mol
# GULP energy per Si atom -5570.985904 kJ/mol
# Density = 2.318919 g / cm^3
# Si number density = 23.242086 Si / 1000 Ang^3
#
#
#
# Elastic Constant Matrix: (Units=GPa)
#
#
# Indices 1 2 3 4 5 6 
#
# 1 75.4046 36.0029 38.3962 9.3287 -10.7695 10.5505
# 2 36.0029 116.3659 21.6153 18.9433 -19.3844 10.7951
# 3 38.3962 21.6153 119.6853 36.4726 -12.2149 7.0775
# 4 9.3287 18.9433 36.4726 35.9082 -2.7475 2.2524
# 5 -10.7695 -19.3844 -12.2149 -2.7475 39.8307 14.9017
# 6 10.5505 10.7951 7.0775 2.2524 14.9017 45.8743
#
#
#
# Elastic Compliance Matrix: (Units=1/GPa)
#
#
# Indices 1 2 3 4 5 6 
#
# 1 0.018858 -0.004649 -0.005984 0.004034 0.002529 -0.003340
# 2 -0.004649 0.012118 0.002219 -0.006716 0.006294 -0.003840
# 3 -0.005984 0.002219 0.014665 -0.014108 0.003704 -0.001919
# 4 0.004034 -0.006716 -0.014108 0.044224 -0.004212 0.002026
# 5 0.002529 0.006294 0.003704 -0.004212 0.034841 -0.013745
# 6 -0.003340 -0.003840 -0.001919 0.002026 -0.013745 0.028132
#
#
# Mechanical properties :
#
#
# Convention : Reuss Voigt Hill
#
# Bulk Modulus (GPa) = 34.70645 55.94273 45.32459
# Shear Modulus (GPa) = 27.89110 38.68540 33.28825
#
# Velocity S-wave (km/s) = 3.46790 4.08420 3.78860
# Velocity P-wave (km/s) = 5.56777 6.80902 6.21944
#
# Compressibility (1/GPa) = 0.02881309
#
# Stress axis : x y z
#
# Youngs Moduli (GPa) = 53.02855 82.52396 68.19025
#
# Poissons Ratio (x) = 0.38362 0.40805
# Poissons Ratio (y) = 0.24651 -0.15132
# Poissons Ratio (z) = 0.31733 -0.18312
#
# Static dielectric constant tensor:
#      x y z
#    x 1.981550 -0.143600 0.592120 
#    y -0.143600 1.895910 -0.438400 
#    z 0.592120 -0.438400 3.730760 
# 
# From -- ./inp_files/32583.got.cif
#   From: 2010.05.17/outbox.cif.g08.bks.cpg/sg2_17_cif.got.tgz:32583.got - 2010.06.03 11:33:40.
