data_PCOD9033355
_publ_section_title
;
Structure prediction by ZEFSAII (Michael W. Deem and Ramdas Pophale) SiO2 
 PCOD9033355
Probable space group: P -1
;
_chemical_formula_sum "Si O2"
_cell_formula_units_Z 16
_cell_length_a 8.605407
_cell_length_b 15.114972
_cell_length_c 25.578334
_cell_angle_alpha 161.540638
_cell_angle_beta 41.955614
_cell_angle_gamma 131.594464
_cell_volume 690.578253
_symmetry_space_group_name_H-M "P -1"
_symmetry_group_IT_number 2
_symmetry_cell_setting 'triclinic'
loop_
_space_group_symop_operation_xyz
x,y,z
-x,-y,-z
loop_
_atom_site_type_symbol
_atom_site_label
_atom_site_fract_x
_atom_site_fract_y
_atom_site_fract_z
Si Si1 0.516706 0.320440 0.659726
Si Si2 0.590021 0.047057 0.795137
Si Si3 0.104671 0.863742 0.841535
Si Si4 0.581728 0.146691 0.438138
Si Si5 0.269982 0.886044 0.011617
Si Si6 0.188863 0.278735 0.538458
Si Si7 0.066785 0.174290 0.321593
Si Si8 0.674700 0.371622 0.761282
O O1 0.656584 0.287067 0.551458
O O2 0.609597 0.444990 0.758030
O O3 0.500000 0.000000 0.500000
O O4 0.289468 0.547008 0.824899
O O5 0.371375 0.892481 0.776414
O O6 0.693970 0.991359 0.678639
O O7 0.809329 0.914499 0.703844
O O8 0.461895 0.371313 0.024484
O O9 0.107903 0.531618 0.659943
O O10 0.936267 0.001935 0.914651
O O11 0.000000 0.000000 0.000000
O O12 0.404699 0.352239 0.560109
O O13 0.836929 0.036483 0.289280
O O14 0.435671 0.902523 0.350387
O O15 0.251196 0.017150 0.146681
O O16 0.500000 0.000000 0.000000
O O17 0.961522 0.285792 0.637193
O O18 0.000000 0.500000 0.500000
#
# Coordination Sequence:
#
# PCOD9033355 Si02
#       8
#     2   2   2   2   2   2   2   2
#     4  10  22  44  67  96 134 181 230 283 345 410
#     4  12  25  44  70 102 142 181 234 287 355 416
#     4  12  23  41  70 101 142 180 230 290 354 410
#     4  11  25  45  70 100 136 184 236 284 352 417
#     4  12  23  41  70 102 135 179 235 286 347 420
#     4  12  24  45  69 102 143 182 228 293 351 418
#     4  12  24  44  69  99 136 176 235 293 347 414
#     4  11  24  47  68 101 139 186 234 285 352 421
#
# _framework density 23.168989
#
# number of rings (size 3 to 8) (size 9 to 14) (size 15 to 20)
#    0.000    0.500    2.500    6.750    0.000    1.000 
#    4.500    0.000    0.000    0.000    0.000    0.000 
#    0.000    0.000    0.000    0.000    0.000    0.000 
#
# Total GULP energy -89215.026032 kJ/mol
# GULP energy per Si atom -5575.939127 kJ/mol
# Density = 2.311625 g / cm^3
# Si number density = 23.168989 Si / 1000 Ang^3
#
#
#
# Elastic Constant Matrix: (Units=GPa)
#
#
# Indices 1 2 3 4 5 6 
#
# 1 97.2183 19.3795 25.3789 -7.7848 -30.1427 -3.5265
# 2 19.3795 56.5240 26.9583 -4.1673 -17.3337 18.0915
# 3 25.3789 26.9583 125.7579 -3.5796 -1.2043 -0.0529
# 4 -7.7848 -4.1673 -3.5796 41.4127 -8.8561 -5.9426
# 5 -30.1427 -17.3337 -1.2043 -8.8561 49.9220 -11.3980
# 6 -3.5265 18.0915 -0.0529 -5.9426 -11.3980 43.8665
#
#
#
# Elastic Compliance Matrix: (Units=1/GPa)
#
#
# Indices 1 2 3 4 5 6 
#
# 1 0.015314 -0.002270 -0.002341 0.005550 0.010686 0.005693
# 2 -0.002270 0.025553 -0.004924 0.001619 0.005604 -0.009052
# 3 -0.002341 -0.004924 0.009438 -0.000555 -0.002751 0.001064
# 4 0.005550 0.001619 -0.000555 0.028435 0.010389 0.006330
# 5 0.010686 0.005604 -0.002751 0.010389 0.032099 0.008293
# 6 0.005693 -0.009052 0.001064 0.006330 0.008293 0.030001
#
#
# Mechanical properties :
#
#
# Convention : Reuss Voigt Hill
#
# Bulk Modulus (GPa) = 32.01464 46.99263 39.50363
# Shear Modulus (GPa) = 29.35623 40.89248 35.12435
#
# Velocity S-wave (km/s) = 3.56342 4.20571 3.89782
# Velocity P-wave (km/s) = 5.54784 6.62650 6.11102
#
# Compressibility (1/GPa) = 0.03123571
#
# Stress axis : x y z
#
# Youngs Moduli (GPa) = 65.29964 39.13442 105.95428
#
# Poissons Ratio (x) = 0.08882 0.24806
# Poissons Ratio (y) = 0.14821 0.52169
# Poissons Ratio (z) = 0.15288 0.19269
#
# Static dielectric constant tensor:
#      x y z
#    x 1.916650 -0.012660 -0.018310 
#    y -0.012660 1.848190 0.096820 
#    z -0.018310 0.096820 1.691740 
# 
# From -- ./inp_files/617314.got.cif
#   From: 2010.05.17/outbox.cif.g08.bks.cpg/sg2_309_cif.got.tgz:617314.got - 2010.06.03 11:33:40.
