data_PCOD9033346
_publ_section_title
;
Structure prediction by ZEFSAII (Michael W. Deem and Ramdas Pophale) SiO2 
 PCOD9033346
Probable space group: P -1
;
_chemical_formula_sum "Si O2"
_cell_formula_units_Z 14
_cell_length_a 8.238834
_cell_length_b 13.623813
_cell_length_c 8.852494
_cell_angle_alpha 121.404495
_cell_angle_beta 48.836911
_cell_angle_gamma 116.679663
_cell_volume 629.718439
_symmetry_space_group_name_H-M "P -1"
_symmetry_group_IT_number 2
_symmetry_cell_setting 'triclinic'
loop_
_space_group_symop_operation_xyz
x,y,z
-x,-y,-z
loop_
_atom_site_type_symbol
_atom_site_label
_atom_site_fract_x
_atom_site_fract_y
_atom_site_fract_z
Si Si1 0.870175 0.260246 0.825156
Si Si2 0.616584 0.375415 0.665735
Si Si3 0.009989 0.271257 0.417654
Si Si4 0.794106 0.020094 0.238287
Si Si5 0.475474 0.368484 0.098715
Si Si6 0.401134 0.995473 0.222883
Si Si7 0.257605 0.176350 0.634372
O O1 0.003050 0.299226 0.622078
O O2 0.047836 0.240610 0.824423
O O3 0.731472 0.132821 0.778247
O O4 0.690148 0.341511 0.031994
O O5 0.867746 0.358324 0.494018
O O6 0.572884 0.501479 0.744670
O O7 0.469927 0.273926 0.581094
O O8 0.533308 0.355885 0.875764
O O9 0.870042 0.143383 0.372287
O O10 0.254502 0.283670 0.214217
O O11 0.593361 0.019662 0.247587
O O12 0.741962 0.913961 0.301795
O O13 0.000000 0.000000 0.000000
O O14 0.253117 0.094859 0.423366
O O15 0.500000 0.000000 0.000000
#
# Coordination Sequence:
#
# PCOD9033346 Si02
#       7
#     2   2   2   2   2   2   2
#     4  11  25  40  63  97 136 172 219 273 324 393
#     4  10  22  44  67  96 129 174 226 275 320 394
#     4  11  21  42  67  96 131 172 223 271 330 387
#     4  12  23  39  66 100 130 174 218 267 333 402
#     4  10  23  42  69  95 129 176 225 270 329 385
#     4  12  25  41  66  98 137 175 217 273 336 390
#     4  12  24  43  65  99 138 174 216 272 330 398
#
# _framework density 22.232158999999999
#
# number of rings (size 3 to 8) (size 9 to 14) (size 15 to 20)
#    0.000    0.857    2.857    5.571    4.000    0.571 
#    0.000    0.714    0.000    0.000    0.000    0.000 
#    0.000    0.000    0.000    0.000    0.000    0.000 
#
# Total GULP energy -78347.213444 kJ/mol
# GULP energy per Si atom -5596.229532 kJ/mol
# Density = 2.218156 g / cm^3
# Si number density = 22.232159 Si / 1000 Ang^3
#
#
#
# Elastic Constant Matrix: (Units=GPa)
#
#
# Indices 1 2 3 4 5 6 
#
# 1 92.3418 27.5732 21.6885 -5.8379 -30.1038 -23.4687
# 2 27.5732 57.3756 -8.9177 4.5250 1.0691 -10.9943
# 3 21.6885 -8.9177 55.7349 -7.3918 -15.4238 -17.9116
# 4 -5.8379 4.5250 -7.3918 38.0357 -0.8337 -13.2371
# 5 -30.1038 1.0691 -15.4238 -0.8337 37.8436 8.4527
# 6 -23.4687 -10.9943 -17.9116 -13.2371 8.4527 26.4274
#
#
#
# Elastic Compliance Matrix: (Units=1/GPa)
#
#
# Indices 1 2 3 4 5 6 
#
# 1 0.024110 -0.008754 0.001709 0.012400 0.015919 0.020047
# 2 -0.008754 0.025589 0.010032 0.001813 -0.006377 0.012619
# 3 0.001709 0.010032 0.035248 0.018804 0.007695 0.036538
# 4 0.012400 0.001813 0.018804 0.047743 0.008306 0.045768
# 5 0.015919 -0.006377 0.007695 0.008306 0.040846 0.007795
# 6 0.020047 0.012619 0.036538 0.045768 0.007795 0.106087
#
#
# Mechanical properties :
#
#
# Convention : Reuss Voigt Hill
#
# Bulk Modulus (GPa) = 10.99848 31.79338 21.39593
# Shear Modulus (GPa) = 16.44975 31.46857 23.95916
#
# Velocity S-wave (km/s) = 2.72308 3.76633 3.28637
# Velocity P-wave (km/s) = 3.85288 5.76588 4.90357
#
# Compressibility (1/GPa) = 0.09092169
#
# Stress axis : x y z
#
# Youngs Moduli (GPa) = 41.47602 39.07913 28.37058
#
# Poissons Ratio (x) = 0.34211 -0.04850
# Poissons Ratio (y) = 0.36309 -0.28462
# Poissons Ratio (z) = -0.07090 -0.39205
#
# Static dielectric constant tensor:
#      x y z
#    x 1.865990 -0.024860 -0.041930 
#    y -0.024860 1.800670 0.004910 
#    z -0.041930 0.004910 1.855760 
# 
# From -- ./inp_files/189689.got.cif
#   From: 2010.05.17/outbox.cif.g08.bks.cpg/sg2_95_cif.got.tgz:189689.got - 2010.06.03 11:33:40.
