data_PCOD9033683
_publ_section_title
;
Structure prediction by ZEFSAII (Michael W. Deem and Ramdas Pophale) SiO2 
 PCOD9033683
Probable space group: P -1
;
_chemical_formula_sum "Si O2"
_cell_formula_units_Z 14
_cell_length_a 16.214697
_cell_length_b 12.341021
_cell_length_c 9.549472
_cell_angle_alpha 59.942820
_cell_angle_beta 129.934005
_cell_angle_gamma 155.281924
_cell_volume 592.210220
_symmetry_space_group_name_H-M "P -1"
_symmetry_group_IT_number 2
_symmetry_cell_setting 'triclinic'
loop_
_space_group_symop_operation_xyz
x,y,z
-x,-y,-z
loop_
_atom_site_type_symbol
_atom_site_label
_atom_site_fract_x
_atom_site_fract_y
_atom_site_fract_z
Si Si1 0.246138 0.232618 0.822208
Si Si2 0.572345 0.886378 0.240034
Si Si3 0.019409 0.259538 0.640334
Si Si4 0.466473 0.836472 0.650450
Si Si5 0.522910 0.479958 0.698978
Si Si6 0.256654 0.780880 0.044102
Si Si7 0.196826 0.028943 0.149016
O O1 0.108129 0.216313 0.712725
O O2 0.299757 0.271544 0.691674
O O3 0.500000 0.500000 0.000000
O O4 0.132995 0.005093 0.937633
O O5 0.453107 0.644528 0.195136
O O6 0.385282 0.780345 0.178907
O O7 0.765333 0.029256 0.459740
O O8 0.710836 0.117814 0.134000
O O9 0.202745 0.543241 0.592242
O O10 0.999788 0.238495 0.800501
O O11 0.583510 0.838139 0.701915
O O12 0.500000 0.000000 0.500000
O O13 0.606010 0.992186 0.844900
O O14 0.500000 0.500000 0.500000
O O15 0.723835 0.766482 0.808305
O O16 0.000000 0.500000 0.000000
#
# Coordination Sequence:
#
# PCOD9033683 Si02
#       7
#     2   2   2   2   2   2   2
#     4  10  22  44  69 105 156 189 246 300 371 444
#     4  11  26  45  73 109 146 187 257 298 376 440
#     4  12  24  45  76 110 148 196 245 314 374 444
#     4  12  26  46  76 106 151 194 258 307 369 446
#     4  11  22  44  71 106 153 194 241 305 365 447
#     4  11  27  52  72 101 145 199 246 312 368 441
#     4  11  24  46  70 111 147 198 250 299 373 445
#
# _framework density 23.640253000000001
#
# number of rings (size 3 to 8) (size 9 to 14) (size 15 to 20)
#    0.000    0.857    4.286    3.000    2.000    6.286 
#    5.143    0.000    0.000    0.000    0.000    0.000 
#    0.000    0.000    0.000    0.000    0.000    0.000 
#
# Total GULP energy -78372.469062 kJ/mol
# GULP energy per Si atom -5598.033504 kJ/mol
# Density = 2.358645 g / cm^3
# Si number density = 23.640253 Si / 1000 Ang^3
#
#
#
# Elastic Constant Matrix: (Units=GPa)
#
#
# Indices 1 2 3 4 5 6 
#
# 1 131.8607 55.2812 41.5306 -8.0411 10.5869 27.7397
# 2 55.2812 114.5617 32.8331 -23.6020 15.3208 24.9354
# 3 41.5306 32.8331 111.7902 -20.0912 8.1274 26.8830
# 4 -8.0411 -23.6020 -20.0912 42.0849 5.5207 -6.4115
# 5 10.5869 15.3208 8.1274 5.5207 43.5922 -9.9376
# 6 27.7397 24.9354 26.8830 -6.4115 -9.9376 43.4479
#
#
#
# Elastic Compliance Matrix: (Units=1/GPa)
#
#
# Indices 1 2 3 4 5 6 
#
# 1 0.010694 -0.003798 -0.002051 -0.001459 -0.001598 -0.003960
# 2 -0.003798 0.014221 0.000622 0.007419 -0.006623 -0.006542
# 3 -0.002051 0.000622 0.012488 0.005425 -0.004323 -0.006963
# 4 -0.001459 0.007419 0.005425 0.030682 -0.008062 -0.003999
# 5 -0.001598 -0.006623 -0.004323 -0.008062 0.030511 0.013285
# 6 -0.003960 -0.006542 -0.006963 -0.003999 0.013285 0.036055
#
#
# Mechanical properties :
#
#
# Convention : Reuss Voigt Hill
#
# Bulk Modulus (GPa) = 37.10579 68.61140 52.85859
# Shear Modulus (GPa) = 32.44869 41.06285 36.75577
#
# Velocity S-wave (km/s) = 3.70889 4.17224 3.94737
# Velocity P-wave (km/s) = 5.83705 7.23162 6.57143
#
# Compressibility (1/GPa) = 0.02694997
#
# Stress axis : x y z
#
# Youngs Moduli (GPa) = 93.50730 70.31730 80.07420
#
# Poissons Ratio (x) = 0.26704 0.16427
# Poissons Ratio (y) = 0.35511 -0.04981
# Poissons Ratio (z) = 0.19183 -0.04374
#
# Static dielectric constant tensor:
#      x y z
#    x 1.680640 -0.287280 0.197700 
#    y -0.287280 1.510740 0.316930 
#    z 0.197700 0.316930 1.652380 
# 
# From -- ./inp_files/306808.got.cif
#   From: 2010.05.17/outbox.cif.g08.bks.cpg/sg2_154_cif.got.tgz:306808.got - 2010.06.03 11:33:40.
