data_PCOD9033473
_publ_section_title
;
Structure prediction by ZEFSAII (Michael W. Deem and Ramdas Pophale) SiO2 
 PCOD9033473
Probable space group: P -1
;
_chemical_formula_sum "Si O2"
_cell_formula_units_Z 16
_cell_length_a 8.874909
_cell_length_b 6.455689
_cell_length_c 22.539040
_cell_angle_alpha 125.818699
_cell_angle_beta 138.031548
_cell_angle_gamma 72.033316
_cell_volume 680.859141
_symmetry_space_group_name_H-M "P -1"
_symmetry_group_IT_number 2
_symmetry_cell_setting 'triclinic'
loop_
_space_group_symop_operation_xyz
x,y,z
-x,-y,-z
loop_
_atom_site_type_symbol
_atom_site_label
_atom_site_fract_x
_atom_site_fract_y
_atom_site_fract_z
Si Si1 0.091357 0.936431 0.422655
Si Si2 0.287261 0.452895 0.383815
Si Si3 0.965844 0.562684 0.132513
Si Si4 0.679126 0.793940 0.848648
Si Si5 0.722413 0.036199 0.782992
Si Si6 0.438558 0.914698 0.035819
Si Si7 0.084008 0.982216 0.735313
Si Si8 0.675684 0.717383 0.351376
O O1 0.234581 0.735274 0.405585
O O2 0.939161 0.032034 0.343953
O O3 0.908220 0.790155 0.393269
O O4 0.263794 0.171846 0.546615
O O5 0.500000 0.500000 0.500000
O O6 0.306031 0.259401 0.301648
O O7 0.067096 0.278901 0.324386
O O8 0.028304 0.774523 0.238515
O O9 0.129304 0.363911 0.137708
O O10 0.720391 0.375416 0.047538
O O11 0.033009 0.767547 0.131403
O O12 0.700973 0.022571 0.845105
O O13 0.434400 0.590116 0.733857
O O14 0.694570 0.892246 0.936841
O O15 0.517525 0.147487 0.711825
O O16 0.670527 0.948868 0.148540
O O17 0.500000 0.000000 0.000000
#
# Coordination Sequence:
#
# PCOD9033473 Si02
#       8
#     2   2   2   2   2   2   2   2
#     4  11  23  41  67  99 144 183 229 272 346 415
#     4  11  23  41  68 102 140 183 225 282 335 409
#     4  10  25  47  71 101 136 182 234 290 343 404
#     4  11  24  46  73 101 140 181 229 295 340 416
#     4  10  22  44  68 103 140 178 233 278 342 408
#     4  12  28  49  73 102 137 183 236 296 356 405
#     4  11  26  45  69 103 135 186 229 289 342 411
#     4  10  23  40  65 104 140 183 222 279 340 417
#
# _framework density 23.499718999999999
#
# number of rings (size 3 to 8) (size 9 to 14) (size 15 to 20)
#    0.000    1.250    1.250    3.000    8.750    1.000 
#    4.500    3.125    0.000    0.000    0.000    0.000 
#    0.000    0.000    0.000    0.000    0.000    0.000 
#
# Total GULP energy -89425.488416 kJ/mol
# GULP energy per Si atom -5589.093026 kJ/mol
# Density = 2.344623 g / cm^3
# Si number density = 23.499719 Si / 1000 Ang^3
#
#
#
# Elastic Constant Matrix: (Units=GPa)
#
#
# Indices 1 2 3 4 5 6 
#
# 1 62.5372 14.0165 29.6214 -4.6203 -19.6065 7.3146
# 2 14.0165 40.8506 49.2525 -4.3362 -29.9414 -5.3186
# 3 29.6214 49.2525 97.2917 2.7294 -11.2913 24.7277
# 4 -4.6203 -4.3362 2.7294 46.8158 9.4099 3.5134
# 5 -19.6065 -29.9414 -11.2913 9.4099 30.6654 0.4871
# 6 7.3146 -5.3186 24.7277 3.5134 0.4871 43.0289
#
#
#
# Elastic Compliance Matrix: (Units=1/GPa)
#
#
# Indices 1 2 3 4 5 6 
#
# 1 0.016079 -0.020822 0.007098 0.001509 -0.007750 -0.009422
# 2 -0.020822 -0.068026 0.039968 0.004643 -0.066005 -0.027469
# 3 0.007098 0.039968 -0.009537 -0.003990 0.041131 0.009074
# 4 0.001509 0.004643 -0.003990 0.022706 -0.002951 0.000790
# 5 -0.007750 -0.066005 0.041131 -0.002951 -0.020264 -0.030008
# 6 -0.009422 -0.027469 0.009074 0.000790 -0.030008 0.016507
#
#
# Mechanical properties :
#
#
# Convention : Reuss Voigt Hill
#
# Bulk Modulus (GPa) = -111.16182 42.94005 -34.11089
# Shear Modulus (GPa) = -51.00863 31.28796 -9.86034
#
# Velocity S-wave (km/s) = -4.66403 3.65282 -2.05062
# Velocity P-wave (km/s) = 8.74130 6.00858 4.48929
#
# Compressibility (1/GPa) = -0.00899589
#
# Stress axis : x y z
#
# Youngs Moduli (GPa) = 62.19347 -14.70022 -104.85633
#
# Poissons Ratio (x) = -0.30609 0.74432
# Poissons Ratio (y) = 1.29501 4.19089
# Poissons Ratio (z) = -0.44148 0.58754
#
# Static dielectric constant tensor:
#      x y z
#    x 1.956280 -0.041810 0.007850 
#    y -0.041810 1.898290 -0.005830 
#    z 0.007850 -0.005830 1.876180 
# 
# From -- ./inp_files/448455.got.cif
#   From: 2010.05.17/outbox.cif.g08.bks.cpg/sg2_225_cif.got.tgz:448455.got - 2010.06.03 11:33:40.
