data_PCOD9033568
_publ_section_title
;
Structure prediction by ZEFSAII (Michael W. Deem and Ramdas Pophale) SiO2 
 PCOD9033568
Probable space group: P -1
;
_chemical_formula_sum "Si O2"
_cell_formula_units_Z 14
_cell_length_a 7.283576
_cell_length_b 25.537106
_cell_length_c 6.179907
_cell_angle_alpha 131.015997
_cell_angle_beta 122.234065
_cell_angle_gamma 40.252295
_cell_volume 559.166868
_symmetry_space_group_name_H-M "P -1"
_symmetry_group_IT_number 2
_symmetry_cell_setting 'triclinic'
loop_
_space_group_symop_operation_xyz
x,y,z
-x,-y,-z
loop_
_atom_site_type_symbol
_atom_site_label
_atom_site_fract_x
_atom_site_fract_y
_atom_site_fract_z
Si Si1 0.248832 0.783231 0.876423
Si Si2 0.278776 0.527661 0.126123
Si Si3 0.296866 0.859704 0.738855
Si Si4 0.724872 0.009776 0.579035
Si Si5 0.701610 0.361430 0.185062
Si Si6 0.693529 0.855494 0.678126
Si Si7 0.869898 0.699723 0.100396
O O1 0.306235 0.783313 0.652969
O O2 0.275958 0.713446 0.869968
O O3 0.911636 0.871439 0.924394
O O4 0.530297 0.767218 0.076744
O O5 0.406543 0.431701 0.052928
O O6 0.292178 0.580691 0.470267
O O7 0.984570 0.606010 0.032794
O O8 0.500000 0.500000 0.000000
O O9 0.578087 0.830682 0.725994
O O10 0.252070 0.926390 0.081269
O O11 0.039572 0.913663 0.551121
O O12 0.575392 0.062747 0.405220
O O13 0.500000 0.000000 0.500000
O O14 0.960394 0.324038 0.080246
O O15 0.913126 0.761549 0.428093
#
# Coordination Sequence:
#
# PCOD9033568 Si02
#       7
#     2   2   2   2   2   2   2
#     4  12  24  41  69 101 128 176 224 268 332 391
#     4   9  20  43  68  95 138 175 216 276 326 382
#     4  11  26  45  66 101 133 167 230 269 320 409
#     4  11  24  47  68  96 133 177 215 270 337 387
#     4  10  22  44  68  97 136 172 223 275 319 399
#     4  12  25  44  67  98 136 174 213 280 330 385
#     4  11  24  43  67  99 135 173 220 273 331 387
#
# _framework density 25.037248000000002
#
# number of rings (size 3 to 8) (size 9 to 14) (size 15 to 20)
#    0.000    1.143    4.286    1.286    0.000    3.429 
#    0.000    6.429    0.000    0.000    0.000    0.000 
#    0.000    0.000    0.000    0.000    0.000    0.000 
#
# Total GULP energy -78019.653787 kJ/mol
# GULP energy per Si atom -5572.832413 kJ/mol
# Density = 2.498026 g / cm^3
# Si number density = 25.037248 Si / 1000 Ang^3
#
#
#
# Elastic Constant Matrix: (Units=GPa)
#
#
# Indices 1 2 3 4 5 6 
#
# 1 185.5539 50.4147 34.6037 -10.1241 -5.6428 20.6009
# 2 50.4147 150.5979 49.6792 -41.7061 -3.4412 15.1985
# 3 34.6037 49.6792 68.7326 -8.7514 -17.4550 -1.0717
# 4 -10.1241 -41.7061 -8.7514 42.1999 -8.2159 -7.9339
# 5 -5.6428 -3.4412 -17.4550 -8.2159 32.8782 -14.7174
# 6 20.6009 15.1985 -1.0717 -7.9339 -14.7174 43.7358
#
#
#
# Elastic Compliance Matrix: (Units=1/GPa)
#
#
# Indices 1 2 3 4 5 6 
#
# 1 0.006654 -0.001160 -0.003611 -0.001715 -0.003210 -0.004211
# 2 -0.001160 0.012470 -0.007753 0.009517 -0.001930 -0.002900
# 3 -0.003611 -0.007753 0.027518 0.003262 0.019458 0.012209
# 4 -0.001715 0.009517 0.003262 0.038508 0.016601 0.010152
# 5 -0.003210 -0.001930 0.019458 0.016601 0.054958 0.024165
# 6 -0.004211 -0.002900 0.012209 0.010152 0.024165 0.036129
#
#
# Mechanical properties :
#
#
# Convention : Reuss Voigt Hill
#
# Bulk Modulus (GPa) = 46.30734 74.91995 60.61365
# Shear Modulus (GPa) = 23.98267 41.77524 32.87895
#
# Velocity S-wave (km/s) = 3.09832 4.08919 3.62774
# Velocity P-wave (km/s) = 5.59777 7.23074 6.46601
#
# Compressibility (1/GPa) = 0.02159485
#
# Stress axis : x y z
#
# Youngs Moduli (GPa) = 150.28258 80.19050 36.33948
#
# Poissons Ratio (x) = 0.09300 0.13123
# Poissons Ratio (y) = 0.17429 0.28174
# Poissons Ratio (z) = 0.54269 0.62172
#
# Static dielectric constant tensor:
#      x y z
#    x 1.948510 0.015160 0.032980 
#    y 0.015160 2.041430 -0.030690 
#    z 0.032980 -0.030690 2.074470 
# 
# From -- ./inp_files/13616.got.cif
#   From: 2010.05.17/outbox.cif.g08.bks.cpg/sg2_7_cif.got.tgz:13616.got - 2010.06.03 11:33:40.
