data_PCOD9033995
_publ_section_title
;
Structure prediction by ZEFSAII (Michael W. Deem and Ramdas Pophale) SiO2 
 PCOD9033995
Probable space group: P -1
;
_chemical_formula_sum "Si O2"
_cell_formula_units_Z 16
_cell_length_a 26.031538
_cell_length_b 11.768124
_cell_length_c 6.158205
_cell_angle_alpha 65.633451
_cell_angle_beta 123.613328
_cell_angle_gamma 153.348079
_cell_volume 687.467675
_symmetry_space_group_name_H-M "P -1"
_symmetry_group_IT_number 2
_symmetry_cell_setting 'triclinic'
loop_
_space_group_symop_operation_xyz
x,y,z
-x,-y,-z
loop_
_atom_site_type_symbol
_atom_site_label
_atom_site_fract_x
_atom_site_fract_y
_atom_site_fract_z
Si Si1 0.094660 0.407911 0.700550
Si Si2 0.131350 0.961733 0.273301
Si Si3 0.339556 0.462919 0.662398
Si Si4 0.772783 0.107897 0.240768
Si Si5 0.906579 0.227714 0.089806
Si Si6 0.708767 0.405477 0.241492
Si Si7 0.494079 0.136504 0.637233
Si Si8 0.512829 0.635275 0.257219
O O1 0.191685 0.686794 0.791257
O O2 0.169864 0.436220 0.723067
O O3 0.002992 0.211557 0.843591
O O4 0.995311 0.299342 0.392206
O O5 0.130853 0.816776 0.470915
O O6 0.244297 0.233938 0.444818
O O7 0.150189 0.970029 0.059584
O O8 0.270434 0.440474 0.673378
O O9 0.454980 0.733562 0.582974
O O10 0.398986 0.464910 0.958573
O O11 0.795878 0.108250 0.048087
O O12 0.636137 0.836909 0.235430
O O13 0.000000 0.500000 0.000000
O O14 0.634528 0.172847 0.401417
O O15 0.608359 0.265649 0.926748
O O16 0.470750 0.215525 0.668784
O O17 0.500000 0.500000 0.500000
#
# Coordination Sequence:
#
# PCOD9033995 Si02
#       8
#     2   2   2   2   2   2   2   2
#     4  11  22  41  69 101 134 181 240 287 348 417
#     4  11  24  42  64 100 143 182 230 285 354 418
#     4  11  26  46  68 101 146 187 230 294 353 421
#     4  11  22  40  68 100 138 176 234 289 352 423
#     4  11  21  40  66  99 138 183 230 288 347 412
#     4  10  23  44  70 101 136 190 244 287 342 415
#     4  10  22  44  70  98 142 184 240 290 344 417
#     4  11  25  44  71 107 143 183 229 291 365 426
#
# _framework density 23.273821000000002
#
# number of rings (size 3 to 8) (size 9 to 14) (size 15 to 20)
#    0.000    1.250    3.750    1.875    0.000   11.500 
#    0.000    1.875    0.000    0.000    0.000    0.000 
#    0.000    0.000    0.000    0.000    0.000    0.000 
#
# Total GULP energy -89533.684972 kJ/mol
# GULP energy per Si atom -5595.855311 kJ/mol
# Density = 2.322085 g / cm^3
# Si number density = 23.273821 Si / 1000 Ang^3
#
#
#
# Elastic Constant Matrix: (Units=GPa)
#
#
# Indices 1 2 3 4 5 6 
#
# 1 194.4885 62.7878 53.9596 15.5888 -20.1693 36.8536
# 2 62.7878 105.0258 39.9261 -7.4595 -11.7685 17.5522
# 3 53.9596 39.9261 63.4926 -3.9130 -14.6143 -1.5493
# 4 15.5888 -7.4595 -3.9130 28.3595 -5.0948 -11.0635
# 5 -20.1693 -11.7685 -14.6143 -5.0948 35.3531 1.0653
# 6 36.8536 17.5522 -1.5493 -11.0635 1.0653 43.9410
#
#
#
# Elastic Compliance Matrix: (Units=1/GPa)
#
#
# Indices 1 2 3 4 5 6 
#
# 1 0.012402 -0.002229 -0.010208 -0.013946 0.000508 -0.013395
# 2 -0.002229 0.014325 -0.006726 0.002974 0.001247 -0.003372
# 3 -0.010208 -0.006726 0.031575 0.015717 0.006768 0.016155
# 4 -0.013946 0.002974 0.015717 0.056979 0.006981 0.025240
# 5 0.000508 0.001247 0.006768 0.006981 0.032786 0.000278
# 6 -0.013395 -0.003372 0.016155 0.025240 0.000278 0.042257
#
#
# Mechanical properties :
#
#
# Convention : Reuss Voigt Hill
#
# Bulk Modulus (GPa) = 50.05732 75.15045 62.60388
# Shear Modulus (GPa) = 21.24857 35.28628 28.26743
#
# Velocity S-wave (km/s) = 3.02484 3.89798 3.48883
# Velocity P-wave (km/s) = 5.80984 7.25388 6.57164
#
# Compressibility (1/GPa) = 0.01997710
#
# Stress axis : x y z
#
# Youngs Moduli (GPa) = 80.63138 69.80688 31.67025
#
# Poissons Ratio (x) = 0.15559 0.32329
# Poissons Ratio (y) = 0.17971 0.21301
# Poissons Ratio (z) = 0.82309 0.46952
#
# Static dielectric constant tensor:
#      x y z
#    x 1.876820 0.030170 -0.038280 
#    y 0.030170 1.928450 -0.034860 
#    z -0.038280 -0.034860 1.930880 
# 
# From -- ./inp_files/123641.got.cif
#   From: 2010.05.17/outbox.cif.g08.bks.cpg/sg2_62_cif.got.tgz:123641.got - 2010.06.03 11:33:40.
