data_PCOD9033296
_publ_section_title
;
Structure prediction by ZEFSAII (Michael W. Deem and Ramdas Pophale) SiO2 
 PCOD9033296
Probable space group: P -1
;
_chemical_formula_sum "Si O2"
_cell_formula_units_Z 16
_cell_length_a 8.278729
_cell_length_b 9.010536
_cell_length_c 14.832031
_cell_angle_alpha 140.299054
_cell_angle_beta 107.574139
_cell_angle_gamma 71.293598
_cell_volume 666.626710
_symmetry_space_group_name_H-M "P -1"
_symmetry_group_IT_number 2
_symmetry_cell_setting 'triclinic'
loop_
_space_group_symop_operation_xyz
x,y,z
-x,-y,-z
loop_
_atom_site_type_symbol
_atom_site_label
_atom_site_fract_x
_atom_site_fract_y
_atom_site_fract_z
Si Si1 0.595146 0.875330 0.371053
Si Si2 0.282610 0.529580 0.692123
Si Si3 0.407142 0.839221 0.010544
Si Si4 0.812142 0.690319 0.000315
Si Si5 0.002817 0.868074 0.746822
Si Si6 0.174093 0.306425 0.199019
Si Si7 0.289475 0.762670 0.153982
Si Si8 0.596156 0.369562 0.539598
O O1 0.746850 0.687835 0.349754
O O2 0.458429 0.740982 0.233573
O O3 0.500000 0.000000 0.500000
O O4 0.632555 0.086754 0.411838
O O5 0.459536 0.444604 0.631249
O O6 0.317248 0.733550 0.861853
O O7 0.135268 0.630620 0.643554
O O8 0.344593 0.747343 0.052243
O O9 0.345066 0.116164 0.132888
O O10 0.608781 0.777821 0.006897
O O11 0.881112 0.637495 0.885768
O O12 0.819995 0.445207 0.940064
O O13 0.894268 0.915134 0.150296
O O14 0.818887 0.976677 0.724520
O O15 0.951752 0.819763 0.819588
O O16 0.229863 0.528586 0.362304
O O17 0.500000 0.500000 0.500000
#
# Coordination Sequence:
#
# PCOD9033296 Si02
#       8
#     2   2   2   2   2   2   2   2
#     4  10  22  44  67  88 120 174 220 261 306 367
#     4  11  22  43  66  94 128 172 209 265 320 388
#     4  11  21  38  66  97 132 163 215 261 324 386
#     4  12  20  37  60  96 130 171 203 256 321 391
#     4  11  25  39  60  98 138 171 199 256 341 388
#     4  11  22  39  62  93 133 170 207 258 323 389
#     4  11  24  40  63 100 135 163 208 273 322 381
#     4  11  22  42  67  92 121 169 227 267 305 365
#
# _framework density 24.001439999999999
#
# number of rings (size 3 to 8) (size 9 to 14) (size 15 to 20)
#    0.000    1.000    3.750    4.500    1.750    0.000 
#    0.000    6.250    0.000    0.000    0.000    0.000 
#    0.000    0.000    0.000    0.000    0.000    0.000 
#
# Total GULP energy -89403.858721 kJ/mol
# GULP energy per Si atom -5587.741170 kJ/mol
# Density = 2.394681 g / cm^3
# Si number density = 24.001440 Si / 1000 Ang^3
#
#
#
# Elastic Constant Matrix: (Units=GPa)
#
#
# Indices 1 2 3 4 5 6 
#
# 1 67.2324 19.1924 7.1148 14.6956 3.9742 -0.5394
# 2 19.1924 123.8591 15.1781 31.3169 10.8394 12.2884
# 3 7.1148 15.1781 53.7524 16.6769 16.0080 6.1723
# 4 14.6956 31.3169 16.6769 46.6265 3.0302 -4.3966
# 5 3.9742 10.8394 16.0080 3.0302 13.6405 5.1777
# 6 -0.5394 12.2884 6.1723 -4.3966 5.1777 50.9759
#
#
#
# Elastic Compliance Matrix: (Units=1/GPa)
#
#
# Indices 1 2 3 4 5 6 
#
# 1 0.016313 -0.001253 0.000525 -0.004216 -0.003594 0.000412
# 2 -0.001253 0.010848 0.002100 -0.007373 -0.008056 -0.002700
# 3 0.000525 0.002100 0.032534 -0.010965 -0.036946 -0.001633
# 4 -0.004216 -0.007373 -0.010965 0.031356 0.011235 0.004624
# 5 -0.003594 -0.008056 -0.036946 0.011235 0.123600 -0.005208
# 6 0.000412 -0.002700 -0.001633 0.004624 -0.005208 0.021398
#
#
# Mechanical properties :
#
#
# Convention : Reuss Voigt Hill
#
# Bulk Modulus (GPa) = 16.01561 36.42384 26.21973
# Shear Modulus (GPa) = 19.67601 35.80581 27.74091
#
# Velocity S-wave (km/s) = 2.86629 3.86660 3.40340
# Velocity P-wave (km/s) = 4.20017 5.92813 5.13732
#
# Compressibility (1/GPa) = 0.06243910
#
# Stress axis : x y z
#
# Youngs Moduli (GPa) = 61.30090 92.18584 30.73713
#
# Poissons Ratio (x) = 0.11548 -0.01615
# Poissons Ratio (y) = 0.07679 -0.06453
# Poissons Ratio (z) = -0.03221 -0.19355
#
# Static dielectric constant tensor:
#      x y z
#    x 1.947090 -0.028370 -0.010510 
#    y -0.028370 2.001360 0.047280 
#    z -0.010510 0.047280 1.908180 
# 
# From -- ./inp_files/318987.got.cif
#   From: 2010.05.17/outbox.cif.g08.bks.cpg/sg2_160_cif.got.tgz:318987.got - 2010.06.03 11:33:40.
