data_PCOD9033289
_publ_section_title
;
Structure prediction by ZEFSAII (Michael W. Deem and Ramdas Pophale) SiO2 
 PCOD9033289
Probable space group: P -1
;
_chemical_formula_sum "Si O2"
_cell_formula_units_Z 16
_cell_length_a 8.891065
_cell_length_b 9.551401
_cell_length_c 13.592742
_cell_angle_alpha 45.560049
_cell_angle_beta 76.887732
_cell_angle_gamma 105.759073
_cell_volume 630.421027
_symmetry_space_group_name_H-M "P -1"
_symmetry_group_IT_number 2
_symmetry_cell_setting 'triclinic'
loop_
_space_group_symop_operation_xyz
x,y,z
-x,-y,-z
loop_
_atom_site_type_symbol
_atom_site_label
_atom_site_fract_x
_atom_site_fract_y
_atom_site_fract_z
Si Si1 0.109622 0.940010 0.617330
Si Si2 0.800101 0.228626 0.135133
Si Si3 0.645212 0.470427 0.935298
Si Si4 0.831795 0.295835 0.444584
Si Si5 0.090700 0.853679 0.043238
Si Si6 0.139586 0.378811 0.496225
Si Si7 0.515841 0.714594 0.168237
Si Si8 0.349575 0.489483 0.598229
O O1 0.232561 0.914137 0.690876
O O2 0.177053 0.905924 0.519890
O O3 0.873985 0.719273 0.771624
O O4 0.148497 0.192360 0.517538
O O5 0.654000 0.274418 0.090810
O O6 0.850403 0.121066 0.091884
O O7 0.000000 0.500000 0.000000
O O8 0.565088 0.379456 0.882044
O O9 0.500000 0.500000 0.000000
O O10 0.637785 0.267777 0.508218
O O11 0.955878 0.559706 0.234503
O O12 0.945553 0.333322 0.509236
O O13 0.294944 0.997305 0.000722
O O14 0.000000 0.000000 0.000000
O O15 0.339508 0.643130 0.301485
O O16 0.156012 0.332329 0.631191
O O17 0.608717 0.590058 0.266767
O O18 0.500000 0.500000 0.500000
#
# Coordination Sequence:
#
# PCOD9033289 Si02
#       8
#     2   2   2   2   2   2   2   2
#     4  11  24  45  74  98 141 191 233 282 357 418
#     4  10  22  44  67 105 140 180 236 280 353 425
#     4  11  25  41  69 107 146 174 231 301 343 416
#     4  12  23  43  72 102 134 185 235 284 353 417
#     4  12  24  41  76 103 136 188 228 294 357 414
#     4  11  24  47  71 100 140 186 239 289 341 422
#     4  11  24  43  68 101 146 172 239 282 353 404
#     4  10  24  44  68  99 141 182 227 290 345 421
#
# _framework density 25.379864000000001
#
# number of rings (size 3 to 8) (size 9 to 14) (size 15 to 20)
#    0.000    1.000    5.000    1.500    5.250    2.000 
#    0.000    7.500    0.000    0.000    0.000    0.000 
#    0.000    0.000    0.000    0.000    0.000    0.000 
#
# Total GULP energy -89464.143457 kJ/mol
# GULP energy per Si atom -5591.508966 kJ/mol
# Density = 2.532210 g / cm^3
# Si number density = 25.379864 Si / 1000 Ang^3
#
#
#
# Elastic Constant Matrix: (Units=GPa)
#
#
# Indices 1 2 3 4 5 6 
#
# 1 176.0600 57.9609 37.7901 12.6714 27.6296 14.3402
# 2 57.9609 120.3653 15.6896 20.2655 7.7310 10.5714
# 3 37.7901 15.6896 53.6875 0.6222 22.8209 17.3240
# 4 12.6714 20.2655 0.6222 42.8317 11.6660 9.7134
# 5 27.6296 7.7310 22.8209 11.6660 59.2666 2.7095
# 6 14.3402 10.5714 17.3240 9.7134 2.7095 60.8216
#
#
#
# Elastic Compliance Matrix: (Units=1/GPa)
#
#
# Indices 1 2 3 4 5 6 
#
# 1 0.007820 -0.003095 -0.003849 -0.000313 -0.001695 -0.000084
# 2 -0.003095 0.010662 -0.001523 -0.004515 0.001529 -0.000037
# 3 -0.003849 -0.001523 0.028188 0.005745 -0.009656 -0.007344
# 4 -0.000313 -0.004515 0.005745 0.028500 -0.006858 -0.005024
# 5 -0.001695 0.001529 -0.009656 -0.006858 0.022395 0.002982
# 6 -0.000084 -0.000037 -0.007344 -0.005024 0.002982 0.019229
#
#
# Mechanical properties :
#
#
# Convention : Reuss Voigt Hill
#
# Bulk Modulus (GPa) = 33.62866 63.66599 48.64733
# Shear Modulus (GPa) = 34.80885 48.49547 41.65216
#
# Velocity S-wave (km/s) = 3.70741 4.37600 4.05551
# Velocity P-wave (km/s) = 5.62187 7.11844 6.41395
#
# Compressibility (1/GPa) = 0.02973654
#
# Stress axis : x y z
#
# Youngs Moduli (GPa) = 127.87213 93.78876 35.47551
#
# Poissons Ratio (x) = 0.29030 0.13655
# Poissons Ratio (y) = 0.39579 0.05403
# Poissons Ratio (z) = 0.49218 0.14284
#
# Static dielectric constant tensor:
#      x y z
#    x 2.049400 -0.023450 -0.056570 
#    y -0.023450 2.025410 -0.037120 
#    z -0.056570 -0.037120 2.144240 
# 
# From -- ./inp_files/492024.got.cif
#   From: 2010.05.17/outbox.cif.g08.bks.cpg/sg2_247_cif.got.tgz:492024.got - 2010.06.03 11:33:40.
