data_PCOD9033417
_publ_section_title
;
Structure prediction by ZEFSAII (Michael W. Deem and Ramdas Pophale) SiO2 
 PCOD9033417
Probable space group: P -1
;
_chemical_formula_sum "Si O2"
_cell_formula_units_Z 14
_cell_length_a 9.004956
_cell_length_b 16.395257
_cell_length_c 15.161328
_cell_angle_alpha 154.000443
_cell_angle_beta 138.742913
_cell_angle_gamma 43.996201
_cell_volume 639.624150
_symmetry_space_group_name_H-M "P -1"
_symmetry_group_IT_number 2
_symmetry_cell_setting 'triclinic'
loop_
_space_group_symop_operation_xyz
x,y,z
-x,-y,-z
loop_
_atom_site_type_symbol
_atom_site_label
_atom_site_fract_x
_atom_site_fract_y
_atom_site_fract_z
Si Si1 0.979960 0.049107 0.642914
Si Si2 0.060327 0.217304 0.493425
Si Si3 0.841950 0.063594 0.865088
Si Si4 0.545435 0.914181 0.034635
Si Si5 0.222056 0.216744 0.289234
Si Si6 0.678262 0.442372 0.443415
Si Si7 0.432354 0.724623 0.204113
O O1 0.756704 0.184820 0.718248
O O2 0.993771 0.839718 0.488123
O O3 0.000000 0.000000 0.500000
O O4 0.198073 0.132890 0.860152
O O5 0.328386 0.212217 0.603853
O O6 0.914647 0.395470 0.557420
O O7 0.993367 0.040055 0.236907
O O8 0.651764 0.189649 0.845597
O O9 0.782714 0.880449 0.712351
O O10 0.982284 0.183720 0.106485
O O11 0.414454 0.736283 0.812448
O O12 0.500000 0.000000 0.000000
O O13 0.425622 0.080325 0.202756
O O14 0.275315 0.419517 0.480892
O O15 0.500000 0.500000 0.500000
O O16 0.500000 0.500000 0.000000
#
# Coordination Sequence:
#
# PCOD9033417 Si02
#       7
#     2   2   2   2   2   2   2
#     4  11  25  45  74 102 146 198 242 300 373 438
#     4  11  23  44  69  96 141 190 244 287 375 437
#     4  10  22  44  67  99 141 188 234 304 364 430
#     4  12  22  44  69 102 143 188 242 299 372 436
#     4  11  23  41  70 102 140 178 246 304 359 431
#     4  12  24  41  72 106 138 188 242 302 370 440
#     4  11  25  46  72 101 145 192 247 301 370 445
#
# _framework density 21.887854000000001
#
# number of rings (size 3 to 8) (size 9 to 14) (size 15 to 20)
#    0.000    0.857    4.286    3.429    6.000    0.571 
#    2.571    0.714    0.000    0.000    0.000    0.000 
#    0.000    0.000    0.000    0.000    0.000    0.000 
#
# Total GULP energy -78000.186494 kJ/mol
# GULP energy per Si atom -5571.441892 kJ/mol
# Density = 2.183804 g / cm^3
# Si number density = 21.887854 Si / 1000 Ang^3
#
#
#
# Elastic Constant Matrix: (Units=GPa)
#
#
# Indices 1 2 3 4 5 6 
#
# 1 111.7940 77.6129 39.4580 -12.3071 13.2266 20.3988
# 2 77.6129 168.9742 67.1791 -8.1310 20.2606 10.8591
# 3 39.4580 67.1791 103.5999 -0.2588 28.7967 18.4153
# 4 -12.3071 -8.1310 -0.2588 43.0095 3.8468 12.0199
# 5 13.2266 20.2606 28.7967 3.8468 36.5704 -0.2999
# 6 20.3988 10.8591 18.4153 12.0199 -0.2999 52.1219
#
#
#
# Elastic Compliance Matrix: (Units=1/GPa)
#
#
# Indices 1 2 3 4 5 6 
#
# 1 0.015017 -0.005927 -0.000101 0.005028 -0.002644 -0.005781
# 2 -0.005927 0.010424 -0.004940 -0.000334 0.000309 0.001972
# 3 -0.000101 -0.004940 0.016804 0.001571 -0.010667 -0.005292
# 4 0.005028 -0.000334 0.001571 0.027635 -0.005851 -0.008860
# 5 -0.002644 0.000309 -0.010667 -0.005851 0.037197 0.006303
# 6 -0.005781 0.001972 -0.005292 -0.008860 0.006303 0.024987
#
#
# Mechanical properties :
#
#
# Convention : Reuss Voigt Hill
#
# Bulk Modulus (GPa) = 49.23613 83.65200 66.44406
# Shear Modulus (GPa) = 31.10075 39.68157 35.39116
#
# Velocity S-wave (km/s) = 3.77359 4.26249 4.02547
# Velocity P-wave (km/s) = 6.44439 7.90737 7.21307
#
# Compressibility (1/GPa) = 0.02031029
#
# Stress axis : x y z
#
# Youngs Moduli (GPa) = 66.59324 95.92984 59.51063
#
# Poissons Ratio (x) = 0.56854 0.00601
# Poissons Ratio (y) = 0.39468 0.29395
# Poissons Ratio (z) = 0.00672 0.47385
#
# Static dielectric constant tensor:
#      x y z
#    x 1.906420 0.025580 -0.058680 
#    y 0.025580 1.856130 -0.031630 
#    z -0.058680 -0.031630 1.876100 
# 
# From -- ./inp_files/399889.got.cif
#   From: 2010.05.17/outbox.cif.g08.bks.cpg/sg2_200_cif.got.tgz:399889.got - 2010.06.03 11:33:40.
