data_PCOD9033908
_publ_section_title
;
Structure prediction by ZEFSAII (Michael W. Deem and Ramdas Pophale) SiO2 
 PCOD9033908
Probable space group: P -1
;
_chemical_formula_sum "Si O2"
_cell_formula_units_Z 16
_cell_length_a 9.398168
_cell_length_b 12.428646
_cell_length_c 10.533661
_cell_angle_alpha 107.370762
_cell_angle_beta 151.661889
_cell_angle_gamma 72.521495
_cell_volume 555.481942
_symmetry_space_group_name_H-M "P -1"
_symmetry_group_IT_number 2
_symmetry_cell_setting 'triclinic'
loop_
_space_group_symop_operation_xyz
x,y,z
-x,-y,-z
loop_
_atom_site_type_symbol
_atom_site_label
_atom_site_fract_x
_atom_site_fract_y
_atom_site_fract_z
Si Si1 0.747641 0.480387 0.578141
Si Si2 0.794845 0.125248 0.349353
Si Si3 0.952825 0.294337 0.052456
Si Si4 0.075109 0.766571 0.271551
Si Si5 0.332635 0.640700 0.772485
Si Si6 0.640578 0.903358 0.670020
Si Si7 0.637572 0.053397 0.945215
Si Si8 0.634354 0.703716 0.276868
O O1 0.500000 0.500000 0.500000
O O2 0.906674 0.358801 0.698376
O O3 0.639722 0.459484 0.342658
O O4 0.938932 0.587006 0.778719
O O5 0.013770 0.156546 0.647080
O O6 0.602697 0.245296 0.214135
O O7 0.597439 0.030034 0.213532
O O8 0.862559 0.084208 0.244234
O O9 0.056096 0.259616 0.978986
O O10 0.594773 0.304364 0.789759
O O11 0.104565 0.188913 0.215325
O O12 0.376794 0.827123 0.486979
O O13 0.014995 0.332192 0.448516
O O14 0.527175 0.630688 0.047771
O O15 0.500000 0.000000 0.500000
O O16 0.777986 0.975455 0.916164
O O17 0.455487 0.166957 0.792229
#
# Coordination Sequence:
#
# PCOD9033908 Si02
#       8
#     2   2   2   2   2   2   2   2
#     4  11  24  49  80 111 149 193 252 322 388 450
#     4   8  18  42  67 103 142 188 249 307 376 445
#     4  12  27  44  74 108 153 203 253 314 384 458
#     4  10  22  44  70 111 142 187 253 310 382 453
#     4  10  25  47  73 112 147 200 254 317 378 470
#     4  11  24  43  71 107 151 196 255 310 378 461
#     4   9  19  41  69 102 144 199 247 315 376 448
#     4  11  26  45  72 106 157 201 255 306 387 463
#
# _framework density 28.803816999999999
#
# number of rings (size 3 to 8) (size 9 to 14) (size 15 to 20)
#    0.000    1.750    1.250    1.125    3.500    6.500 
#   20.250    0.000    0.000    0.000    0.000    0.000 
#    0.000    0.000    0.000    0.000    0.000    0.000 
#
# Total GULP energy -89707.818238 kJ/mol
# GULP energy per Si atom -5606.738640 kJ/mol
# Density = 2.873826 g / cm^3
# Si number density = 28.803817 Si / 1000 Ang^3
#
#
#
# Elastic Constant Matrix: (Units=GPa)
#
#
# Indices 1 2 3 4 5 6 
#
# 1 165.3564 36.5687 60.8958 15.2927 -22.5366 -6.5223
# 2 36.5687 167.1392 53.4240 30.6571 -4.2712 -9.4198
# 3 60.8958 53.4240 191.9080 32.2637 -38.7756 -6.0757
# 4 15.2927 30.6571 32.2637 49.5462 -6.6399 -3.2922
# 5 -22.5366 -4.2712 -38.7756 -6.6399 66.9837 5.4175
# 6 -6.5223 -9.4198 -6.0757 -3.2922 5.4175 38.4922
#
#
#
# Elastic Compliance Matrix: (Units=1/GPa)
#
#
# Indices 1 2 3 4 5 6 
#
# 1 0.007086 -0.000893 -0.001666 -0.000343 0.001288 0.000509
# 2 -0.000893 0.007278 -0.001342 -0.003410 -0.001054 0.001275
# 3 -0.001666 -0.001342 0.007268 -0.002960 0.003282 -0.000179
# 4 -0.000343 -0.003410 -0.002960 0.024415 0.000318 0.000683
# 5 0.001288 -0.001054 0.003282 0.000318 0.017384 -0.001941
# 6 0.000509 0.001275 -0.000179 0.000683 -0.001941 0.026681
#
#
# Mechanical properties :
#
#
# Convention : Reuss Voigt Hill
#
# Bulk Modulus (GPa) = 72.30756 91.79785 82.05271
# Shear Modulus (GPa) = 48.76920 55.90542 52.33731
#
# Velocity S-wave (km/s) = 4.11926 4.41035 4.26728
# Velocity P-wave (km/s) = 6.91248 7.60750 7.26830
#
# Compressibility (1/GPa) = 0.01382981
#
# Stress axis : x y z
#
# Youngs Moduli (GPa) = 141.12595 137.40354 137.58426
#
# Poissons Ratio (x) = 0.12275 0.22919
# Poissons Ratio (y) = 0.12608 0.18463
# Poissons Ratio (z) = 0.23509 0.18438
#
# Static dielectric constant tensor:
#      x y z
#    x -18.394260 14.577440 10.864520 
#    y 14.577440 -7.989880 -7.677130 
#    z 10.864520 -7.677130 -3.472970 
# 
# From -- ./inp_files/254643.got.cif
#   From: 2010.05.17/outbox.cif.g08.bks.cpg/sg2_128_cif.got.tgz:254643.got - 2010.06.03 11:33:40.
