data_PCOD9033366
_publ_section_title
;
Structure prediction by ZEFSAII (Michael W. Deem and Ramdas Pophale) SiO2 
 PCOD9033366
Probable space group: P -1
;
_chemical_formula_sum "Si O2"
_cell_formula_units_Z 16
_cell_length_a 12.055125
_cell_length_b 16.317519
_cell_length_c 13.234823
_cell_angle_alpha 142.084180
_cell_angle_beta 150.173637
_cell_angle_gamma 57.359673
_cell_volume 700.387701
_symmetry_space_group_name_H-M "P -1"
_symmetry_group_IT_number 2
_symmetry_cell_setting 'triclinic'
loop_
_space_group_symop_operation_xyz
x,y,z
-x,-y,-z
loop_
_atom_site_type_symbol
_atom_site_label
_atom_site_fract_x
_atom_site_fract_y
_atom_site_fract_z
Si Si1 0.586278 0.734628 0.082249
Si Si2 0.117277 0.926953 0.595716
Si Si3 0.310342 0.032548 0.448795
Si Si4 0.265404 0.471906 0.890723
Si Si5 0.824638 0.742451 0.794919
Si Si6 0.233130 0.264316 0.491323
Si Si7 0.550274 0.211525 0.334070
Si Si8 0.242199 0.566292 0.464185
O O1 0.540555 0.844551 0.227128
O O2 0.553031 0.584215 0.965378
O O3 0.886685 0.818539 0.379001
O O4 0.423479 0.691117 0.810379
O O5 0.223553 0.830763 0.524305
O O6 0.000000 0.000000 0.500000
O O7 0.333783 0.064464 0.962646
O O8 0.174369 0.107253 0.344766
O O9 0.500000 0.000000 0.500000
O O10 0.087128 0.881796 0.174760
O O11 0.155819 0.361988 0.600511
O O12 0.040907 0.458987 0.770071
O O13 0.458156 0.641633 0.175901
O O14 0.859561 0.741636 0.701163
O O15 0.584221 0.768942 0.654493
O O16 0.770419 0.590387 0.663435
O O17 0.647506 0.361146 0.486378
#
# Coordination Sequence:
#
# PCOD9033366 Si02
#       8
#     2   2   2   2   2   2   2   2
#     4  11  22  43  67  97 131 176 226 272 329 405
#     4  11  22  43  69  96 131 178 227 268 331 400
#     4  11  25  43  65  99 138 174 226 282 339 397
#     4  10  22  44  67  97 131 177 226 282 319 406
#     4  12  25  44  65 104 139 176 224 278 341 400
#     4  10  23  43  66  94 137 172 229 278 337 392
#     4  11  25  43  67 102 139 175 220 283 330 398
#     4  12  24  42  73  96 137 181 225 267 343 396
#
# _framework density 22.84449
#
# number of rings (size 3 to 8) (size 9 to 14) (size 15 to 20)
#    0.000    1.000    5.000    1.500    1.750    1.500 
#    2.250    1.250    0.000    0.000    0.000    0.000 
#    0.000    0.000    0.000    0.000    0.000    0.000 
#
# Total GULP energy -89472.274224 kJ/mol
# GULP energy per Si atom -5592.017139 kJ/mol
# Density = 2.279249 g / cm^3
# Si number density = 22.844490 Si / 1000 Ang^3
#
#
#
# Elastic Constant Matrix: (Units=GPa)
#
#
# Indices 1 2 3 4 5 6 
#
# 1 62.2697 7.8209 -3.3607 3.0279 13.9375 -12.0563
# 2 7.8209 66.9435 8.4515 16.9478 -5.5508 -2.9494
# 3 -3.3607 8.4515 67.5058 18.1509 19.0126 -1.0242
# 4 3.0279 16.9478 18.1509 29.2775 4.7804 5.1605
# 5 13.9375 -5.5508 19.0126 4.7804 30.5840 -2.4344
# 6 -12.0563 -2.9494 -1.0242 5.1605 -2.4344 38.3263
#
#
#
# Elastic Compliance Matrix: (Units=1/GPa)
#
#
# Indices 1 2 3 4 5 6 
#
# 1 0.021014 -0.003268 0.005988 -0.002955 -0.012945 0.006094
# 2 -0.003268 0.019213 -0.001707 -0.011469 0.008026 0.002459
# 3 0.005988 -0.001707 0.022814 -0.011832 -0.015134 0.002994
# 4 -0.002955 -0.011469 -0.011832 0.050349 -0.001969 -0.009033
# 5 -0.012945 0.008026 -0.015134 -0.001969 0.049734 -0.000435
# 6 0.006094 0.002459 0.002994 -0.009033 -0.000435 0.029467
#
#
# Mechanical properties :
#
#
# Convention : Reuss Voigt Hill
#
# Bulk Modulus (GPa) = 15.36895 24.72694 20.04794
# Shear Modulus (GPa) = 23.55669 31.89137 27.72403
#
# Velocity S-wave (km/s) = 3.21468 3.74039 3.48745
# Velocity P-wave (km/s) = 4.53002 5.43153 5.00113
#
# Compressibility (1/GPa) = 0.06506626
#
# Stress axis : x y z
#
# Youngs Moduli (GPa) = 47.58783 52.04885 43.83194
#
# Poissons Ratio (x) = 0.17009 -0.26247
# Poissons Ratio (y) = 0.15551 0.07484
# Poissons Ratio (z) = -0.28496 0.08887
#
# Static dielectric constant tensor:
#      x y z
#    x 1.914610 0.069490 0.043410 
#    y 0.069490 1.892970 0.063030 
#    z 0.043410 0.063030 1.910060 
# 
# From -- ./inp_files/400116.got.cif
#   From: 2010.05.17/outbox.cif.g08.bks.cpg/sg2_201_cif.got.tgz:400116.got - 2010.06.03 11:33:40.
