data_PCOD9033450
_publ_section_title
;
Structure prediction by ZEFSAII (Michael W. Deem and Ramdas Pophale) SiO2 
 PCOD9033450
Probable space group: P -1
;
_chemical_formula_sum "Si O2"
_cell_formula_units_Z 14
_cell_length_a 10.702099
_cell_length_b 10.840068
_cell_length_c 13.399500
_cell_angle_alpha 132.824598
_cell_angle_beta 31.665640
_cell_angle_gamma 124.122169
_cell_volume 597.896753
_symmetry_space_group_name_H-M "P -1"
_symmetry_group_IT_number 2
_symmetry_cell_setting 'triclinic'
loop_
_space_group_symop_operation_xyz
x,y,z
-x,-y,-z
loop_
_atom_site_type_symbol
_atom_site_label
_atom_site_fract_x
_atom_site_fract_y
_atom_site_fract_z
Si Si1 0.154798 0.509752 0.800468
Si Si2 0.454079 0.944119 0.110808
Si Si3 0.238346 0.625052 0.142413
Si Si4 0.274187 0.076233 0.796437
Si Si5 0.042973 0.171518 0.202688
Si Si6 0.347443 0.648265 0.315757
Si Si7 0.535652 0.221248 0.352404
O O1 0.371842 0.372571 0.590296
O O2 0.263485 0.687783 0.798031
O O3 0.993358 0.457707 0.788226
O O4 0.000000 0.500000 0.000000
O O5 0.705364 0.859118 0.931783
O O6 0.258890 0.807579 0.180537
O O7 0.500000 0.000000 0.000000
O O8 0.396498 0.105101 0.307210
O O9 0.258462 0.645409 0.259596
O O10 0.471320 0.512424 0.886149
O O11 0.486580 0.193234 0.689768
O O12 0.105455 0.999299 0.785956
O O13 0.372508 0.909948 0.697933
O O14 0.117557 0.183942 0.043142
O O15 0.878202 0.322175 0.442173
#
# Coordination Sequence:
#
# PCOD9033450 Si02
#       7
#     2   2   2   2   2   2   2
#     4  11  26  45  67  98 134 178 220 277 331 396
#     4  11  24  46  67 101 134 175 225 269 334 403
#     4  11  26  44  65 103 138 169 227 277 327 400
#     4  10  22  44  68 102 130 168 235 271 323 406
#     4  10  23  40  72  95 130 182 215 272 333 388
#     4  11  24  44  66 101 138 172 220 280 336 383
#     4  10  24  45  69  96 131 176 223 271 331 394
#
# _framework density 23.415416
#
# number of rings (size 3 to 8) (size 9 to 14) (size 15 to 20)
#    0.000    1.429    2.857    1.286   10.000    4.571 
#    0.000    0.000    0.000    0.000    0.000    0.000 
#    0.000    0.000    0.000    0.000    0.000    0.000 
#
# Total GULP energy -78352.945410 kJ/mol
# GULP energy per Si atom -5596.638958 kJ/mol
# Density = 2.336212 g / cm^3
# Si number density = 23.415416 Si / 1000 Ang^3
#
#
#
# Elastic Constant Matrix: (Units=GPa)
#
#
# Indices 1 2 3 4 5 6 
#
# 1 25.8592 7.6642 -15.7855 1.3803 -7.4397 4.4504
# 2 7.6642 125.9989 12.6654 15.7627 -0.1046 -1.6607
# 3 -15.7855 12.6654 127.7579 -2.9761 10.9081 -11.9269
# 4 1.3803 15.7627 -2.9761 26.0551 -4.9173 -6.4041
# 5 -7.4397 -0.1046 10.9081 -4.9173 14.8881 -1.4960
# 6 4.4504 -1.6607 -11.9269 -6.4041 -1.4960 25.7277
#
#
#
# Elastic Compliance Matrix: (Units=1/GPa)
#
#
# Indices 1 2 3 4 5 6 
#
# 1 0.049423 -0.003880 0.004231 0.003227 0.022159 -0.004746
# 2 -0.003880 0.009081 -0.001370 -0.006299 -0.003065 -0.001124
# 3 0.004231 -0.001370 0.009185 0.001875 -0.003634 0.003693
# 4 0.003227 -0.006299 0.001875 0.048771 0.017616 0.013069
# 5 0.022159 -0.003065 -0.003634 0.017616 0.087075 0.003733
# 6 -0.004746 -0.001124 0.003693 0.013069 0.003733 0.044799
#
#
# Mechanical properties :
#
#
# Convention : Reuss Voigt Hill
#
# Bulk Modulus (GPa) = 15.23148 32.07824 23.65486
# Shear Modulus (GPa) = 18.36519 31.67230 25.01875
#
# Velocity S-wave (km/s) = 2.80361 3.68180 3.27230
# Velocity P-wave (km/s) = 4.12302 5.63946 4.93978
#
# Compressibility (1/GPa) = 0.06565350
#
# Stress axis : x y z
#
# Youngs Moduli (GPa) = 20.23333 110.12075 108.87759
#
# Poissons Ratio (x) = 0.42722 -0.46071
# Poissons Ratio (y) = 0.07850 0.14912
# Poissons Ratio (z) = -0.08562 0.15082
#
# Static dielectric constant tensor:
#      x y z
#    x 1.896580 0.038120 -0.015300 
#    y 0.038120 1.907350 -0.009530 
#    z -0.015300 -0.009530 1.898900 
# 
# From -- ./inp_files/519199.got.cif
#   From: 2010.05.17/outbox.cif.g08.bks.cpg/sg2_260_cif.got.tgz:519199.got - 2010.06.03 11:33:40.
