data_PCOD9033744
_publ_section_title
;
Structure prediction by ZEFSAII (Michael W. Deem and Ramdas Pophale) SiO2 
 PCOD9033744
Probable space group: P -1
;
_chemical_formula_sum "Si O2"
_cell_formula_units_Z 14
_cell_length_a 19.243704
_cell_length_b 5.895885
_cell_length_c 6.231755
_cell_angle_alpha 71.134753
_cell_angle_beta 57.822065
_cell_angle_gamma 68.888874
_cell_volume 550.477373
_symmetry_space_group_name_H-M "P -1"
_symmetry_group_IT_number 2
_symmetry_cell_setting 'triclinic'
loop_
_space_group_symop_operation_xyz
x,y,z
-x,-y,-z
loop_
_atom_site_type_symbol
_atom_site_label
_atom_site_fract_x
_atom_site_fract_y
_atom_site_fract_z
Si Si1 0.808993 0.446353 0.793984
Si Si2 0.184059 0.957372 0.730528
Si Si3 0.575046 0.782402 0.352230
Si Si4 0.542120 0.353608 0.769827
Si Si5 0.061189 0.795246 0.712943
Si Si6 0.319628 0.092832 0.186299
Si Si7 0.104673 0.321240 0.075532
O O1 0.869168 0.301827 0.555609
O O2 0.722966 0.618709 0.789137
O O3 0.795914 0.272135 0.066821
O O4 0.858085 0.632729 0.771893
O O5 0.094608 0.990519 0.742721
O O6 0.251535 0.955250 0.434642
O O7 0.175656 0.184605 0.835924
O O8 0.597242 0.540173 0.535658
O O9 0.533513 0.673573 0.252113
O O10 0.500000 0.000000 0.500000
O O11 0.651928 0.895388 0.112167
O O12 0.596137 0.076244 0.798188
O O13 0.500000 0.500000 0.000000
O O14 0.067176 0.581928 0.947170
O O15 0.968522 0.829531 0.753871
#
# Coordination Sequence:
#
# PCOD9033744 Si02
#       7
#     2   2   2   2   2   2   2
#     4  11  25  43  65 102 134 178 227 273 340 387
#     4  11  25  43  65 102 134 178 227 273 340 387
#     4  11  25  48  73 103 130 174 224 268 333 404
#     4  11  25  48  73 103 130 174 224 268 333 404
#     4  10  22  44  69  96 135 180 231 278 325 396
#     4  12  25  46  69  98 145 172 213 286 332 396
#     4  10  22  44  69  96 135 180 231 278 325 396
#
# _framework density 25.432473000000002
#
# number of rings (size 3 to 8) (size 9 to 14) (size 15 to 20)
#    0.000    1.143    2.857    2.143    2.000    2.857 
#    0.000    0.000    0.000    0.000    0.000    0.000 
#    0.000    0.000    0.000    0.000    0.000    0.000 
#
# Total GULP energy -78211.707080 kJ/mol
# GULP energy per Si atom -5586.550506 kJ/mol
# Density = 2.537459 g / cm^3
# Si number density = 25.432473 Si / 1000 Ang^3
#
#
#
# Elastic Constant Matrix: (Units=GPa)
#
#
# Indices 1 2 3 4 5 6 
#
# 1 64.7317 20.8344 26.0209 12.3294 5.1900 -6.1687
# 2 20.8344 90.4446 38.1545 -8.1935 10.9102 -22.8273
# 3 26.0209 38.1545 146.4219 -12.3308 -20.1500 0.8084
# 4 12.3294 -8.1935 -12.3308 62.7227 7.9016 9.4133
# 5 5.1900 10.9102 -20.1500 7.9016 36.0800 9.2048
# 6 -6.1687 -22.8273 0.8084 9.4133 9.2048 41.5383
#
#
#
# Elastic Compliance Matrix: (Units=1/GPa)
#
#
# Indices 1 2 3 4 5 6 
#
# 1 0.019283 -0.001532 -0.004094 -0.004848 -0.004612 0.004222
# 2 -0.001532 0.018974 -0.006379 0.001187 -0.012618 0.012851
# 3 -0.004094 -0.006379 0.010778 0.001886 0.009896 -0.006944
# 4 -0.004848 0.001187 0.001886 0.018206 -0.001607 -0.003874
# 5 -0.004612 -0.012618 0.009896 -0.001607 0.042369 -0.016837
# 6 0.004222 0.012851 -0.006944 -0.003874 -0.016837 0.036507
#
#
# Mechanical properties :
#
#
# Convention : Reuss Voigt Hill
#
# Bulk Modulus (GPa) = 39.96136 52.40198 46.18167
# Shear Modulus (GPa) = 28.01609 42.50741 35.26175
#
# Velocity S-wave (km/s) = 3.32262 4.09269 3.72759
# Velocity P-wave (km/s) = 5.51965 6.55611 6.06008
#
# Compressibility (1/GPa) = 0.02502417
#
# Stress axis : x y z
#
# Youngs Moduli (GPa) = 51.86010 52.70487 92.77805
#
# Poissons Ratio (x) = 0.08075 0.37982
# Poissons Ratio (y) = 0.07945 0.59186
# Poissons Ratio (z) = 0.21231 0.33622
#
# Static dielectric constant tensor:
#      x y z
#    x 2.049110 0.031700 -0.047340 
#    y 0.031700 2.007880 -0.085470 
#    z -0.047340 -0.085470 2.039120 
# 
# From -- ./inp_files/102825.got.cif
#   From: 2010.05.17/outbox.cif.g08.bks.cpg/sg2_52_cif.got.tgz:102825.got - 2010.06.03 11:33:40.
