data_PCOD9033507
_publ_section_title
;
Structure prediction by ZEFSAII (Michael W. Deem and Ramdas Pophale) SiO2 
 PCOD9033507
Probable space group: P -1
;
_chemical_formula_sum "Si O2"
_cell_formula_units_Z 12
_cell_length_a 13.015483
_cell_length_b 20.468153
_cell_length_c 8.526994
_cell_angle_alpha 140.028119
_cell_angle_beta 31.057502
_cell_angle_gamma 158.008515
_cell_volume 434.227818
_symmetry_space_group_name_H-M "P -1"
_symmetry_group_IT_number 2
_symmetry_cell_setting 'triclinic'
loop_
_space_group_symop_operation_xyz
x,y,z
-x,-y,-z
loop_
_atom_site_type_symbol
_atom_site_label
_atom_site_fract_x
_atom_site_fract_y
_atom_site_fract_z
Si Si1 0.223151 0.688266 0.488979
Si Si2 0.374068 0.215472 0.228012
Si Si3 0.882398 0.182540 0.888041
Si Si4 0.679177 0.447313 0.509837
Si Si5 0.877335 0.854827 0.065915
Si Si6 0.239208 0.330052 0.386690
O O1 0.622527 0.831701 0.273622
O O2 0.000000 0.500000 0.500000
O O3 0.055891 0.626088 0.419922
O O4 0.127099 0.748021 0.823600
O O5 0.655203 0.340931 0.228096
O O6 0.061085 0.146532 0.597634
O O7 0.445844 0.322892 0.185687
O O8 0.200006 0.041166 0.071580
O O9 0.050158 0.299308 0.725502
O O10 0.500000 0.000000 0.000000
O O11 0.395095 0.313397 0.770482
O O12 0.583474 0.505900 0.638573
O O13 0.985871 0.821264 0.727964
#
# Coordination Sequence:
#
# PCOD9033507 Si02
#       6
#     2   2   2   2   2   2
#     4  10  23  41  66  93 135 173 216 266 327 385
#     4  10  23  40  70  93 134 172 222 262 330 386
#     4  10  22  44  68  90 133 177 216 263 334 384
#     4  11  24  41  66 104 131 175 214 275 326 395
#     4  11  22  44  67 100 132 175 218 272 324 391
#     4  10  24  40  72  96 133 171 223 268 330 387
#
# _framework density 27.635262000000001
#
# number of rings (size 3 to 8) (size 9 to 14) (size 15 to 20)
#    1.000    0.667    1.667    2.000    7.000    0.000 
#    0.000   10.833    0.000    0.000    0.000    0.000 
#    0.000    0.000    0.000    0.000    0.000    0.000 
#
# Total GULP energy -67120.341414 kJ/mol
# GULP energy per Si atom -5593.361784 kJ/mol
# Density = 2.757236 g / cm^3
# Si number density = 27.635262 Si / 1000 Ang^3
#
#
#
# Elastic Constant Matrix: (Units=GPa)
#
#
# Indices 1 2 3 4 5 6 
#
# 1 123.9696 42.0494 45.6453 3.8572 25.4089 2.8948
# 2 42.0494 145.5323 41.8991 30.0593 21.2714 15.9666
# 3 45.6453 41.8991 97.2110 42.5440 22.9835 33.1977
# 4 3.8572 30.0593 42.5440 63.9565 19.0918 14.3614
# 5 25.4089 21.2714 22.9835 19.0918 50.6618 7.5835
# 6 2.8948 15.9666 33.1977 14.3614 7.5835 55.3923
#
#
#
# Elastic Compliance Matrix: (Units=1/GPa)
#
#
# Indices 1 2 3 4 5 6 
#
# 1 0.012285 -0.002341 -0.007502 0.005890 -0.004537 0.003623
# 2 -0.002341 0.008610 -0.000801 -0.002896 -0.000835 -0.001014
# 3 -0.007502 -0.000801 0.022899 -0.012101 -0.000243 -0.009930
# 4 0.005890 -0.002896 -0.012101 0.026181 -0.006394 0.001867
# 5 -0.004537 -0.000835 -0.000243 -0.006394 0.025057 -0.001149
# 6 0.003623 -0.001014 -0.009930 0.001867 -0.001149 0.023781
#
#
# Mechanical properties :
#
#
# Convention : Reuss Voigt Hill
#
# Bulk Modulus (GPa) = 44.42963 69.54447 56.98705
# Shear Modulus (GPa) = 33.87534 49.81004 41.84269
#
# Velocity S-wave (km/s) = 3.50494 4.25008 3.89537
# Velocity P-wave (km/s) = 5.70014 7.02168 6.39514
#
# Compressibility (1/GPa) = 0.02250750
#
# Stress axis : x y z
#
# Youngs Moduli (GPa) = 81.40292 116.15037 43.66954
#
# Poissons Ratio (x) = 0.27186 0.32759
# Poissons Ratio (y) = 0.19053 0.03497
# Poissons Ratio (z) = 0.61065 0.09300
#
# Static dielectric constant tensor:
#      x y z
#    x 2.253250 0.066990 0.031980 
#    y 0.066990 2.254900 -0.096530 
#    z 0.031980 -0.096530 2.215690 
# 
# From -- ./inp_files/320201.got.cif
#   From: 2010.05.17/outbox.cif.g08.bks.cpg/sg2_161_cif.got.tgz:320201.got - 2010.06.03 11:33:40.
