data_PCOD9033637
_publ_section_title
;
Structure prediction by ZEFSAII (Michael W. Deem and Ramdas Pophale) SiO2 
 PCOD9033637
Probable space group: P -1
;
_chemical_formula_sum "Si O2"
_cell_formula_units_Z 14
_cell_length_a 8.575826
_cell_length_b 12.306008
_cell_length_c 9.339382
_cell_angle_alpha 115.832627
_cell_angle_beta 46.571552
_cell_angle_gamma 129.209491
_cell_volume 554.623807
_symmetry_space_group_name_H-M "P -1"
_symmetry_group_IT_number 2
_symmetry_cell_setting 'triclinic'
loop_
_space_group_symop_operation_xyz
x,y,z
-x,-y,-z
loop_
_atom_site_type_symbol
_atom_site_label
_atom_site_fract_x
_atom_site_fract_y
_atom_site_fract_z
Si Si1 0.357023 0.111926 0.271339
Si Si2 0.757158 0.512267 0.286831
Si Si3 0.261681 0.570921 0.446686
Si Si4 0.092825 0.167302 0.032171
Si Si5 0.592899 0.143294 0.442700
Si Si6 0.096518 0.815682 0.142720
Si Si7 0.431842 0.347968 0.169083
O O1 0.419374 0.120012 0.402639
O O2 0.298973 0.224428 0.301355
O O3 0.150157 0.955704 0.270036
O O4 0.625457 0.150138 0.054304
O O5 0.500000 0.500000 0.500000
O O6 0.793241 0.432350 0.349592
O O7 0.707129 0.436894 0.120503
O O8 0.956379 0.674666 0.240925
O O9 0.407927 0.731886 0.400218
O O10 0.366932 0.470860 0.280712
O O11 0.000000 0.500000 0.500000
O O12 0.875736 0.187776 0.251711
O O13 0.337920 0.263407 0.030614
O O14 0.069929 0.203663 0.903060
O O15 0.000000 0.000000 0.000000
O O16 0.500000 0.000000 0.500000
#
# Coordination Sequence:
#
# PCOD9033637 Si02
#       7
#     2   2   2   2   2   2   2
#     4  10  22  44  69 101 136 181 235 278 344 408
#     4  10  24  43  66  98 137 179 231 277 342 411
#     4  11  23  44  66  96 140 177 227 285 344 409
#     4  11  23  43  67 100 139 175 232 285 340 407
#     4  11  25  44  71 100 134 182 229 287 345 409
#     4  10  23  43  68  97 139 186 225 286 341 410
#     4  11  22  43  69  97 140 178 227 285 337 411
#
# _framework density 25.242335000000001
#
# number of rings (size 3 to 8) (size 9 to 14) (size 15 to 20)
#    0.000    1.429    4.286    0.000    2.000    3.429 
#    0.000    6.429    0.000    0.000    0.000    0.000 
#    0.000    0.000    0.000    0.000    0.000    0.000 
#
# Total GULP energy -78266.701595 kJ/mol
# GULP energy per Si atom -5590.478685 kJ/mol
# Density = 2.518488 g / cm^3
# Si number density = 25.242335 Si / 1000 Ang^3
#
#
#
# Elastic Constant Matrix: (Units=GPa)
#
#
# Indices 1 2 3 4 5 6 
#
# 1 119.7932 49.2613 36.2300 17.1593 21.6064 4.8206
# 2 49.2613 239.2500 45.5634 28.5719 14.2452 -11.0772
# 3 36.2300 45.5634 76.9308 16.5743 5.4468 4.2120
# 4 17.1593 28.5719 16.5743 41.9788 5.8884 1.9256
# 5 21.6064 14.2452 5.4468 5.8884 40.3796 9.2511
# 6 4.8206 -11.0772 4.2120 1.9256 9.2511 59.8173
#
#
#
# Elastic Compliance Matrix: (Units=1/GPa)
#
#
# Indices 1 2 3 4 5 6 
#
# 1 0.011052 -0.001061 -0.003895 -0.001586 -0.004777 -0.000023
# 2 -0.001061 0.005185 -0.002107 -0.002191 -0.000982 0.001417
# 3 -0.003895 -0.002107 0.016868 -0.003769 0.001414 -0.001361
# 4 -0.001586 -0.002191 -0.003769 0.027726 -0.001768 -0.000631
# 5 -0.004777 -0.000982 0.001414 -0.001768 0.028716 -0.004281
# 6 -0.000023 0.001417 -0.001361 -0.000631 -0.004281 0.017760
#
#
# Mechanical properties :
#
#
# Convention : Reuss Voigt Hill
#
# Bulk Modulus (GPa) = 52.69328 77.56481 65.12905
# Shear Modulus (GPa) = 39.13602 48.76309 43.94956
#
# Velocity S-wave (km/s) = 3.94180 4.39999 4.17718
# Velocity P-wave (km/s) = 6.45270 7.52383 7.00876
#
# Compressibility (1/GPa) = 0.01897775
#
# Stress axis : x y z
#
# Youngs Moduli (GPa) = 90.48257 192.85639 59.28489
#
# Poissons Ratio (x) = 0.20461 0.23092
# Poissons Ratio (y) = 0.09600 0.12494
# Poissons Ratio (z) = 0.35244 0.40643
#
# Static dielectric constant tensor:
#      x y z
#    x 2.034590 -0.011990 -0.044030 
#    y -0.011990 1.967330 0.038340 
#    z -0.044030 0.038340 2.057180 
# 
# From -- ./inp_files/189081.got.cif
#   From: 2010.05.17/outbox.cif.g08.bks.cpg/sg2_95_cif.got.tgz:189081.got - 2010.06.03 11:33:40.
