data_PCOD9033149
_publ_section_title
;
Structure prediction by ZEFSAII (Michael W. Deem and Ramdas Pophale) SiO2 
 PCOD9033149
Probable space group: P -1
;
_chemical_formula_sum "Si O2"
_cell_formula_units_Z 16
_cell_length_a 19.192919
_cell_length_b 9.457200
_cell_length_c 5.388532
_cell_angle_alpha 97.631343
_cell_angle_beta 77.711797
_cell_angle_gamma 137.884288
_cell_volume 640.432182
_symmetry_space_group_name_H-M "P -1"
_symmetry_group_IT_number 2
_symmetry_cell_setting 'triclinic'
loop_
_space_group_symop_operation_xyz
x,y,z
-x,-y,-z
loop_
_atom_site_type_symbol
_atom_site_label
_atom_site_fract_x
_atom_site_fract_y
_atom_site_fract_z
Si Si1 0.629510 0.050740 0.686814
Si Si2 0.330719 0.493933 0.580629
Si Si3 0.117445 0.848311 0.504332
Si Si4 0.466300 0.153789 0.785847
Si Si5 0.880090 0.853221 0.635283
Si Si6 0.927110 0.481358 0.864664
Si Si7 0.671485 0.828660 0.347347
Si Si8 0.231125 0.532308 0.037823
O O1 0.581898 0.009423 0.442979
O O2 0.720552 0.297456 0.740652
O O3 0.653343 0.916213 0.603499
O O4 0.553901 0.939961 0.954565
O O5 0.413481 0.643183 0.333881
O O6 0.210594 0.318621 0.534909
O O7 0.360761 0.381179 0.632397
O O8 0.324330 0.599159 0.827305
O O9 0.124314 0.709447 0.324441
O O10 0.003319 0.687348 0.680634
O O11 0.130668 0.991462 0.324055
O O12 0.201594 0.985515 0.695970
O O13 0.395921 0.195774 0.822126
O O14 0.842015 0.704668 0.863103
O O15 0.000000 0.000000 0.500000
O O16 0.841651 0.458993 0.047977
O O17 0.000000 0.500000 0.000000
#
# Coordination Sequence:
#
# PCOD9033149 Si02
#       8
#     2   2   2   2   2   2   2   2
#     4  10  25  45  79 103 155 194 259 307 385 441
#     4  11  27  43  74 109 147 199 251 310 389 451
#     4  10  22  44  66 104 138 199 247 310 374 456
#     4  10  24  48  78 111 150 201 256 317 376 460
#     4  11  26  47  69 100 156 190 250 312 380 449
#     4  11  24  39  73  98 142 191 259 304 380 450
#     4   9  22  44  69 106 148 195 249 311 373 457
#     4  12  27  46  71 111 147 203 248 321 382 460
#
# _framework density 24.983128000000001
#
# number of rings (size 3 to 8) (size 9 to 14) (size 15 to 20)
#    0.750    0.750    2.500    0.375    7.000    6.000 
#    0.000    0.000    0.000    0.000    0.000    0.000 
#    0.000    0.000    0.000    0.000    0.000    0.000 
#
# Total GULP energy -89377.946828 kJ/mol
# GULP energy per Si atom -5586.121677 kJ/mol
# Density = 2.492627 g / cm^3
# Si number density = 24.983128 Si / 1000 Ang^3
#
#
#
# Elastic Constant Matrix: (Units=GPa)
#
#
# Indices 1 2 3 4 5 6 
#
# 1 137.6279 36.4761 14.4539 -3.6869 -10.0305 -19.0383
# 2 36.4761 96.0092 31.9353 -17.7763 -17.9872 -4.9529
# 3 14.4539 31.9353 79.4148 -10.8993 -14.3216 -11.7628
# 4 -3.6869 -17.7763 -10.8993 25.7470 -1.1969 1.4821
# 5 -10.0305 -17.9872 -14.3216 -1.1969 22.9456 4.2335
# 6 -19.0383 -4.9529 -11.7628 1.4821 4.2335 35.9243
#
#
#
# Elastic Compliance Matrix: (Units=1/GPa)
#
#
# Indices 1 2 3 4 5 6 
#
# 1 0.008704 -0.003290 0.000321 -0.001106 0.000586 0.004241
# 2 -0.003290 0.016408 -0.003031 0.010183 0.010456 -0.002126
# 3 0.000321 -0.003031 0.016392 0.005009 0.007513 0.004027
# 4 -0.001106 0.010183 0.005009 0.048518 0.013363 -0.001118
# 5 0.000586 0.010456 0.007513 0.013363 0.058006 -0.003175
# 6 0.004241 -0.002126 0.004027 -0.001118 -0.003175 0.031529
#
#
# Mechanical properties :
#
#
# Convention : Reuss Voigt Hill
#
# Bulk Modulus (GPa) = 33.89432 53.19805 43.54618
# Shear Modulus (GPa) = 24.82713 32.26916 28.54814
#
# Velocity S-wave (km/s) = 3.15581 3.59784 3.38405
# Velocity P-wave (km/s) = 5.18413 6.21281 5.72164
#
# Compressibility (1/GPa) = 0.02950347
#
# Stress axis : x y z
#
# Youngs Moduli (GPa) = 114.89135 60.94424 61.00655
#
# Poissons Ratio (x) = 0.20049 -0.01957
# Poissons Ratio (y) = 0.37796 0.18493
# Poissons Ratio (z) = -0.03686 0.18474
#
# Static dielectric constant tensor:
#      x y z
#    x 2.058540 0.005700 0.006890 
#    y 0.005700 1.975330 0.018390 
#    z 0.006890 0.018390 1.976820 
# 
# From -- ./inp_files/106894.got.cif
#   From: 2010.05.17/outbox.cif.g08.bks.cpg/sg2_54_cif.got.tgz:106894.got - 2010.06.03 11:33:40.
