data_PCOD9033028
_publ_section_title
;
Structure prediction by ZEFSAII (Michael W. Deem and Ramdas Pophale) SiO2 
 PCOD9033028
Probable space group: P -1
;
_chemical_formula_sum "Si O2"
_cell_formula_units_Z 14
_cell_length_a 6.251489
_cell_length_b 27.879835
_cell_length_c 15.148985
_cell_angle_alpha 160.738497
_cell_angle_beta 48.465164
_cell_angle_gamma 132.635711
_cell_volume 637.714592
_symmetry_space_group_name_H-M "P -1"
_symmetry_group_IT_number 2
_symmetry_cell_setting 'triclinic'
loop_
_space_group_symop_operation_xyz
x,y,z
-x,-y,-z
loop_
_atom_site_type_symbol
_atom_site_label
_atom_site_fract_x
_atom_site_fract_y
_atom_site_fract_z
Si Si1 0.647963 0.396730 0.339695
Si Si2 0.827580 0.863163 0.689753
Si Si3 0.292669 0.127696 0.068200
Si Si4 0.824477 0.975527 0.404978
Si Si5 0.381027 0.134906 0.430091
Si Si6 0.242648 0.646888 0.172058
Si Si7 0.253032 0.359269 0.114888
O O1 0.500000 0.500000 0.500000
O O2 0.439577 0.243165 0.156544
O O3 0.703684 0.494767 0.583503
O O4 0.944240 0.362557 0.158173
O O5 0.732760 0.801307 0.705204
O O6 0.593133 0.853637 0.661801
O O7 0.059744 0.775064 0.432729
O O8 0.982463 0.033969 0.959604
O O9 0.475147 0.000220 0.811971
O O10 0.500000 0.000000 0.500000
O O11 0.799487 0.797899 0.091917
O O12 0.000000 0.000000 0.500000
O O13 0.054082 0.082294 0.465151
O O14 0.546054 0.290067 0.694994
O O15 0.465059 0.633973 0.010701
O O16 0.000000 0.500000 0.000000
#
# Coordination Sequence:
#
# PCOD9033028 Si02
#       7
#     2   2   2   2   2   2   2
#     4  11  26  43  70 101 145 197 244 314 381 453
#     4  10  23  41  70 102 136 195 238 309 373 448
#     4  10  22  44  65 100 147 183 250 304 369 454
#     4  12  26  44  77 112 154 195 247 321 379 462
#     4  11  23  40  72 105 138 193 252 304 380 445
#     4  11  24  45  67  98 145 184 246 307 373 448
#     4  11  25  44  65 107 144 188 248 304 381 451
#
# _framework density 21.953396000000001
#
# number of rings (size 3 to 8) (size 9 to 14) (size 15 to 20)
#    0.000    1.143    2.857    2.143    6.000    1.714 
#    0.000    7.143    0.000    0.000    0.000    0.000 
#    0.000    0.000    0.000    0.000    0.000    0.000 
#
# Total GULP energy -78048.675041 kJ/mol
# GULP energy per Si atom -5574.905360 kJ/mol
# Density = 2.190343 g / cm^3
# Si number density = 21.953396 Si / 1000 Ang^3
#
#
#
# Elastic Constant Matrix: (Units=GPa)
#
#
# Indices 1 2 3 4 5 6 
#
# 1 88.2824 43.8022 31.2414 -0.6994 -11.8272 15.4246
# 2 43.8022 130.1897 40.9920 -1.4006 0.3490 23.2804
# 3 31.2414 40.9920 78.1462 -1.4960 -11.2246 11.7171
# 4 -0.6994 -1.4006 -1.4960 33.2215 7.7047 -1.8098
# 5 -11.8272 0.3490 -11.2246 7.7047 39.2328 -6.1246
# 6 15.4246 23.2804 11.7171 -1.8098 -6.1246 33.4382
#
#
#
# Elastic Compliance Matrix: (Units=1/GPa)
#
#
# Indices 1 2 3 4 5 6 
#
# 1 0.015221 -0.003603 -0.003305 -0.000926 0.003423 -0.002778
# 2 -0.003603 0.011127 -0.004074 0.000691 -0.003302 -0.005224
# 3 -0.003305 -0.004074 0.016930 -0.000415 0.003826 -0.000894
# 4 -0.000926 0.000691 -0.000415 0.031638 -0.006522 0.000609
# 5 0.003423 -0.003302 0.003826 -0.006522 0.029621 0.004452
# 6 -0.002778 -0.005224 -0.000894 0.000609 0.004452 0.035986
#
#
# Mechanical properties :
#
#
# Convention : Reuss Voigt Hill
#
# Bulk Modulus (GPa) = 46.91553 58.74325 52.82939
# Shear Modulus (GPa) = 29.48295 33.21736 31.35015
#
# Velocity S-wave (km/s) = 3.66864 3.89406 3.78303
# Velocity P-wave (km/s) = 6.27393 6.85817 6.57254
#
# Compressibility (1/GPa) = 0.02131490
#
# Stress axis : x y z
#
# Youngs Moduli (GPa) = 65.69867 89.87552 59.06633
#
# Poissons Ratio (x) = 0.32382 0.19519
# Poissons Ratio (y) = 0.23671 0.24062
# Poissons Ratio (z) = 0.21711 0.36613
#
# Static dielectric constant tensor:
#      x y z
#    x 1.890580 0.033270 0.000850 
#    y 0.033270 1.794390 -0.035620 
#    z 0.000850 -0.035620 1.785650 
# 
# From -- ./inp_files/68192.got.cif
#   From: 2010.05.17/outbox.cif.g08.bks.cpg/sg2_35_cif.got.tgz:68192.got - 2010.06.03 11:33:40.
