data_PCOD9033143
_publ_section_title
;
Structure prediction by ZEFSAII (Michael W. Deem and Ramdas Pophale) SiO2 
 PCOD9033143
Probable space group: P -1
;
_chemical_formula_sum "Si O2"
_cell_formula_units_Z 12
_cell_length_a 5.229192
_cell_length_b 9.344057
_cell_length_c 9.928230
_cell_angle_alpha 82.801859
_cell_angle_beta 113.068645
_cell_angle_gamma 98.028560
_cell_volume 440.617710
_symmetry_space_group_name_H-M "P -1"
_symmetry_group_IT_number 2
_symmetry_cell_setting 'triclinic'
loop_
_space_group_symop_operation_xyz
x,y,z
-x,-y,-z
loop_
_atom_site_type_symbol
_atom_site_label
_atom_site_fract_x
_atom_site_fract_y
_atom_site_fract_z
Si Si1 0.639127 0.379434 0.286005
Si Si2 0.047406 0.173565 0.490607
Si Si3 0.238283 0.080349 0.885777
Si Si4 0.398979 0.647095 0.139048
Si Si5 0.055323 0.209467 0.112869
Si Si6 0.328693 0.676274 0.415374
O O1 0.877181 0.269407 0.338239
O O2 0.596641 0.519781 0.173085
O O3 0.346089 0.283557 0.216820
O O4 0.676145 0.432188 0.444453
O O5 0.897858 0.219659 0.592698
O O6 0.368881 0.232763 0.532385
O O7 0.000000 0.000000 0.500000
O O8 0.403296 0.204904 0.818824
O O9 0.105785 0.157395 0.975191
O O10 0.030842 0.943591 0.813102
O O11 0.500000 0.000000 0.000000
O O12 0.258141 0.615903 0.259985
O O13 0.181309 0.680411 0.973989
#
# Coordination Sequence:
#
# PCOD9033143 Si02
#       6
#     2   2   2   2   2   2
#     4  10  25  42  70 105 147 185 238 298 362 428
#     4  10  24  45  69 104 145 189 239 296 356 427
#     4   9  22  40  65  94 140 184 238 285 354 424
#     4  11  23  43  69 105 140 193 235 296 361 433
#     4  10  22  44  66 103 138 189 238 300 352 430
#     4  10  25  44  71 103 145 188 241 293 360 429
#
# _framework density 27.234494000000002
#
# number of rings (size 3 to 8) (size 9 to 14) (size 15 to 20)
#    1.000    1.000    0.000    1.500    2.333   10.667 
#    0.000    0.000    0.000    0.000    0.000    0.000 
#    0.000    0.000    0.000    0.000    0.000    0.000 
#
# Total GULP energy -67113.236294 kJ/mol
# GULP energy per Si atom -5592.769691 kJ/mol
# Density = 2.717251 g / cm^3
# Si number density = 27.234494 Si / 1000 Ang^3
#
#
#
# Elastic Constant Matrix: (Units=GPa)
#
#
# Indices 1 2 3 4 5 6 
#
# 1 136.0829 33.9534 21.1289 -3.5696 41.1596 -3.7002
# 2 33.9534 107.0707 20.6470 -13.5952 16.7262 -4.2753
# 3 21.1289 20.6470 118.3500 -10.3342 18.4232 -10.7555
# 4 -3.5696 -13.5952 -10.3342 36.2326 -8.6986 4.9167
# 5 41.1596 16.7262 18.4232 -8.6986 53.8073 11.5497
# 6 -3.7002 -4.2753 -10.7555 4.9167 11.5497 58.9094
#
#
#
# Elastic Compliance Matrix: (Units=1/GPa)
#
#
# Indices 1 2 3 4 5 6 
#
# 1 0.010336 -0.002168 -0.000209 -0.002064 -0.007964 0.002187
# 2 -0.002168 0.010797 -0.001039 0.003279 -0.000889 0.000358
# 3 -0.000209 -0.001039 0.009438 0.001275 -0.002997 0.002116
# 4 -0.002064 0.003279 0.001275 0.030849 0.005835 -0.003378
# 5 -0.007964 -0.000889 -0.002997 0.005835 0.028464 -0.007180
# 6 0.002187 0.000358 0.002116 -0.003378 -0.007180 0.019214
#
#
# Mechanical properties :
#
#
# Convention : Reuss Voigt Hill
#
# Bulk Modulus (GPa) = 42.12412 56.99579 49.55995
# Shear Modulus (GPa) = 40.37341 48.84148 44.60745
#
# Velocity S-wave (km/s) = 3.85442 4.23941 4.05149
# Velocity P-wave (km/s) = 5.94218 6.70349 6.33428
#
# Compressibility (1/GPa) = 0.02373937
#
# Stress axis : x y z
#
# Youngs Moduli (GPa) = 96.74929 92.61779 105.95231
#
# Poissons Ratio (x) = 0.20079 0.02211
# Poissons Ratio (y) = 0.20975 0.11012
# Poissons Ratio (z) = 0.02019 0.09626
#
# Static dielectric constant tensor:
#      x y z
#    x 2.219060 -0.053960 -0.107010 
#    y -0.053960 2.133270 -0.056390 
#    z -0.107010 -0.056390 2.310580 
# 
# From -- ./inp_files/360140.got.cif
#   From: 2010.05.17/outbox.cif.g08.bks.cpg/sg2_181_cif.got.tgz:360140.got - 2010.06.03 11:33:40.
