data_PCOD9033169
_publ_section_title
;
Structure prediction by ZEFSAII (Michael W. Deem and Ramdas Pophale) SiO2 
 PCOD9033169
Probable space group: P -1
;
_chemical_formula_sum "Si O2"
_cell_formula_units_Z 16
_cell_length_a 15.569191
_cell_length_b 9.099335
_cell_length_c 9.321057
_cell_angle_alpha 86.035848
_cell_angle_beta 105.194846
_cell_angle_gamma 38.071008
_cell_volume 696.541807
_symmetry_space_group_name_H-M "P -1"
_symmetry_group_IT_number 2
_symmetry_cell_setting 'triclinic'
loop_
_space_group_symop_operation_xyz
x,y,z
-x,-y,-z
loop_
_atom_site_type_symbol
_atom_site_label
_atom_site_fract_x
_atom_site_fract_y
_atom_site_fract_z
Si Si1 0.221805 0.121026 0.303051
Si Si2 0.775489 0.205659 0.770621
Si Si3 0.489073 0.199841 0.342667
Si Si4 0.636281 0.040424 0.130195
Si Si5 0.672464 0.820195 0.893310
Si Si6 0.940313 0.463452 0.362902
Si Si7 0.116704 0.720430 0.806241
Si Si8 0.307345 0.736922 0.938137
O O1 0.224786 0.205897 0.151251
O O2 0.042884 0.367343 0.274080
O O3 0.273348 0.879539 0.321089
O O4 0.349370 0.010633 0.479746
O O5 0.657035 0.507055 0.668195
O O6 0.751415 0.202754 0.928509
O O7 0.959421 0.980939 0.815259
O O8 0.437431 0.109369 0.277310
O O9 0.517221 0.235986 0.195724
O O10 0.750056 0.754969 0.258301
O O11 0.751552 0.020343 0.154011
O O12 0.577157 0.049966 0.954989
O O13 0.778100 0.544706 0.035296
O O14 0.949349 0.273556 0.364982
O O15 0.000000 0.500000 0.500000
O O16 0.228810 0.706441 0.826245
O O17 0.500000 0.500000 0.000000
#
# Coordination Sequence:
#
# PCOD9033169 Si02
#       8
#     2   2   2   2   2   2   2   2
#     4  11  24  41  64  92 130 174 214 259 328 387
#     4  11  23  41  64  92 133 166 214 265 324 381
#     4  12  23  41  63  93 135 173 210 267 325 385
#     4  11  23  39  67  91 128 168 219 269 320 374
#     4  11  23  40  63  99 122 168 220 269 316 379
#     4  10  22  44  66  91 131 171 212 269 327 379
#     4  10  24  41  70  94 128 168 220 268 322 378
#     4  12  22  41  64  99 127 168 216 268 318 383
#
# _framework density 22.970623
#
# number of rings (size 3 to 8) (size 9 to 14) (size 15 to 20)
#    0.000    1.000    5.000    1.500    1.750    2.500 
#    0.000    0.625    0.000    0.000    0.000    0.000 
#    0.000    0.000    0.000    0.000    0.000    0.000 
#
# Total GULP energy -89162.452408 kJ/mol
# GULP energy per Si atom -5572.653275 kJ/mol
# Density = 2.291834 g / cm^3
# Si number density = 22.970623 Si / 1000 Ang^3
#
#
#
# Elastic Constant Matrix: (Units=GPa)
#
#
# Indices 1 2 3 4 5 6 
#
# 1 148.8004 37.6896 31.9854 14.7791 21.5571 8.2155
# 2 37.6896 112.2826 19.0662 17.9882 7.8759 -5.2911
# 3 31.9854 19.0662 54.9976 22.7511 28.5267 6.4023
# 4 14.7791 17.9882 22.7511 29.4583 8.3715 8.0356
# 5 21.5571 7.8759 28.5267 8.3715 39.3851 5.6717
# 6 8.2155 -5.2911 6.4023 8.0356 5.6717 30.3909
#
#
#
# Elastic Compliance Matrix: (Units=1/GPa)
#
#
# Indices 1 2 3 4 5 6 
#
# 1 0.008269 -0.002315 -0.003285 0.000756 -0.001577 -0.001852
# 2 -0.002315 0.010975 -0.000295 -0.006501 0.000048 0.004309
# 3 -0.003285 -0.000295 0.042847 -0.025187 -0.024255 0.002997
# 4 0.000756 -0.006501 -0.025187 0.058075 0.008657 -0.013001
# 5 -0.001577 0.000048 -0.024255 0.008657 0.042649 -0.004704
# 6 -0.001852 0.004309 0.002997 -0.013001 -0.004704 0.037840
#
#
# Mechanical properties :
#
#
# Convention : Reuss Voigt Hill
#
# Bulk Modulus (GPa) = 19.88145 54.84034 37.36089
# Shear Modulus (GPa) = 21.81387 35.00283 28.40835
#
# Velocity S-wave (km/s) = 3.08497 3.90783 3.52053
# Velocity P-wave (km/s) = 4.62205 6.65489 5.72935
#
# Compressibility (1/GPa) = 0.05029815
#
# Stress axis : x y z
#
# Youngs Moduli (GPa) = 120.93748 91.11972 23.33897
#
# Poissons Ratio (x) = 0.21098 0.07668
# Poissons Ratio (y) = 0.28003 0.00689
# Poissons Ratio (z) = 0.39732 0.02690
#
# Static dielectric constant tensor:
#      x y z
#    x 1.921900 0.099900 -0.010170 
#    y 0.099900 2.006190 -0.056630 
#    z -0.010170 -0.056630 1.957520 
# 
# From -- ./inp_files/238489.got.cif
#   From: 2010.05.17/outbox.cif.g08.bks.cpg/sg2_120_cif.got.tgz:238489.got - 2010.06.03 11:33:40.
