data_PCOD9033612
_publ_section_title
;
Structure prediction by ZEFSAII (Michael W. Deem and Ramdas Pophale) SiO2 
 PCOD9033612
Probable space group: P -1
;
_chemical_formula_sum "Si O2"
_cell_formula_units_Z 12
_cell_length_a 13.660945
_cell_length_b 5.227501
_cell_length_c 16.443301
_cell_angle_alpha 67.075075
_cell_angle_beta 147.847478
_cell_angle_gamma 96.914400
_cell_volume 520.384892
_symmetry_space_group_name_H-M "P -1"
_symmetry_group_IT_number 2
_symmetry_cell_setting 'triclinic'
loop_
_space_group_symop_operation_xyz
x,y,z
-x,-y,-z
loop_
_atom_site_type_symbol
_atom_site_label
_atom_site_fract_x
_atom_site_fract_y
_atom_site_fract_z
Si Si1 0.746017 0.610923 0.966916
Si Si2 0.818753 0.776304 0.383674
Si Si3 0.052544 0.928779 0.949808
Si Si4 0.637560 0.389679 0.365252
Si Si5 0.059668 0.864480 0.692259
Si Si6 0.595350 0.245878 0.530620
O O1 0.843720 0.408623 0.978005
O O2 0.829213 0.380772 0.130173
O O3 0.813707 0.882552 0.995054
O O4 0.504953 0.725314 0.771763
O O5 0.634630 0.687847 0.281848
O O6 0.923606 0.786245 0.541107
O O7 0.000000 0.500000 0.500000
O O8 0.787229 0.057621 0.266940
O O9 0.834368 0.077971 0.734983
O O10 0.000000 0.000000 0.000000
O O11 0.559202 0.416754 0.398142
O O12 0.876718 0.160189 0.566945
O O13 0.500000 0.500000 0.500000
O O14 0.500000 0.000000 0.500000
#
# Coordination Sequence:
#
# PCOD9033612 Si02
#       6
#     2   2   2   2   2   2
#     4  12  26  42  71 100 137 182 221 283 338 401
#     4   9  21  42  70  97 133 178 224 285 340 404
#     4  12  25  46  65 100 142 177 230 283 331 399
#     4  11  24  42  68  98 137 179 228 277 340 403
#     4  10  22  44  68  99 135 178 229 280 344 399
#     4  12  25  42  69 100 133 180 227 274 333 401
#
# _framework density 23.059854999999999
#
# number of rings (size 3 to 8) (size 9 to 14) (size 15 to 20)
#    0.000    1.000    1.667    4.500    7.000    0.667 
#    0.000    7.500    0.000    0.000    0.000    0.000 
#    0.000    0.000    0.000    0.000    0.000    0.000 
#
# Total GULP energy -67049.532987 kJ/mol
# GULP energy per Si atom -5587.461082 kJ/mol
# Density = 2.300737 g / cm^3
# Si number density = 23.059855 Si / 1000 Ang^3
#
#
#
# Elastic Constant Matrix: (Units=GPa)
#
#
# Indices 1 2 3 4 5 6 
#
# 1 104.6287 40.9218 45.3060 13.2643 -8.2536 20.4969
# 2 40.9218 79.0200 6.5583 32.9363 10.6605 12.0080
# 3 45.3060 6.5583 77.9784 -1.0191 5.2080 25.4709
# 4 13.2643 32.9363 -1.0191 43.2028 4.1497 5.7044
# 5 -8.2536 10.6605 5.2080 4.1497 48.6118 12.3057
# 6 20.4969 12.0080 25.4709 5.7044 12.3057 47.6924
#
#
#
# Elastic Compliance Matrix: (Units=1/GPa)
#
#
# Indices 1 2 3 4 5 6 
#
# 1 0.018319 -0.009795 -0.009533 0.001263 0.006729 -0.002203
# 2 -0.009795 0.024541 0.004103 -0.014919 -0.006001 -0.000828
# 3 -0.009533 0.004103 0.020647 0.001547 -0.002996 -0.007375
# 4 0.001263 -0.014919 0.001547 0.034342 0.000882 -0.001948
# 5 0.006729 -0.006001 -0.002996 0.000882 0.024871 -0.006304
# 6 -0.002203 -0.000828 -0.007375 -0.001948 -0.006304 0.027921
#
#
# Mechanical properties :
#
#
# Convention : Reuss Voigt Hill
#
# Bulk Modulus (GPa) = 30.25058 49.68881 39.96969
# Shear Modulus (GPa) = 26.02681 39.15747 32.59214
#
# Velocity S-wave (km/s) = 3.36320 4.12525 3.76356
# Velocity P-wave (km/s) = 5.31303 6.65468 6.02134
#
# Compressibility (1/GPa) = 0.03305722
#
# Stress axis : x y z
#
# Youngs Moduli (GPa) = 54.58874 40.74835 48.43323
#
# Poissons Ratio (x) = 0.39913 0.46171
# Poissons Ratio (y) = 0.53469 -0.19873
# Poissons Ratio (z) = 0.52039 -0.16720
#
# Static dielectric constant tensor:
#      x y z
#    x 1.962770 -0.053890 -0.004750 
#    y -0.053890 1.971010 -0.014750 
#    z -0.004750 -0.014750 1.817700 
# 
# From -- ./inp_files/123955.got.cif
#   From: 2010.05.17/outbox.cif.g08.bks.cpg/sg2_62_cif.got.tgz:123955.got - 2010.06.03 11:33:40.
