data_PCOD9033056
_publ_section_title
;
Structure prediction by ZEFSAII (Michael W. Deem and Ramdas Pophale) SiO2 
 PCOD9033056
Probable space group: P -1
;
_chemical_formula_sum "Si O2"
_cell_formula_units_Z 14
_cell_length_a 15.456155
_cell_length_b 7.703824
_cell_length_c 15.689489
_cell_angle_alpha 107.508666
_cell_angle_beta 26.706578
_cell_angle_gamma 125.198254
_cell_volume 557.481057
_symmetry_space_group_name_H-M "P -1"
_symmetry_group_IT_number 2
_symmetry_cell_setting 'triclinic'
loop_
_space_group_symop_operation_xyz
x,y,z
-x,-y,-z
loop_
_atom_site_type_symbol
_atom_site_label
_atom_site_fract_x
_atom_site_fract_y
_atom_site_fract_z
Si Si1 0.688532 0.661850 0.942975
Si Si2 0.922077 0.727121 0.312161
Si Si3 0.808538 0.167272 0.563299
Si Si4 0.378259 0.596712 0.804274
Si Si5 0.302456 0.669485 0.696986
Si Si6 0.138572 0.933827 0.814895
Si Si7 0.840180 0.599818 0.554561
O O1 0.955722 0.718031 0.697518
O O2 0.500000 0.500000 0.000000
O O3 0.445339 0.480844 0.200489
O O4 0.838852 0.960715 0.864560
O O5 0.626418 0.628579 0.567886
O O6 0.877473 0.554535 0.249759
O O7 0.955415 0.664886 0.367807
O O8 0.766297 0.352745 0.621941
O O9 0.930746 0.178129 0.547064
O O10 0.525435 0.871756 0.752958
O O11 0.243883 0.562250 0.826835
O O12 0.120822 0.336779 0.042535
O O13 0.288439 0.878988 0.730804
O O14 0.622938 0.834058 0.421751
O O15 0.000000 0.000000 0.000000
#
# Coordination Sequence:
#
# PCOD9033056 Si02
#       7
#     2   2   2   2   2   2   2
#     4   9  21  42  65  94 129 172 213 267 322 374
#     4  11  24  41  69  99 128 176 217 264 326 392
#     4   9  22  42  66  95 126 174 217 271 318 385
#     4  11  24  43  67  94 133 172 217 268 330 378
#     4  11  26  45  64  98 135 164 222 272 318 398
#     4  11  25  44  68  95 127 178 217 267 329 383
#     4  10  22  44  65  92 136 166 220 268 322 382
#
# _framework density 25.112963000000001
#
# number of rings (size 3 to 8) (size 9 to 14) (size 15 to 20)
#    0.000    1.714    1.429    0.857    6.000    8.571 
#    0.000    7.857    0.000    0.000    0.000    0.000 
#    0.000    0.000    0.000    0.000    0.000    0.000 
#
# Total GULP energy -78319.628138 kJ/mol
# GULP energy per Si atom -5594.259153 kJ/mol
# Density = 2.505580 g / cm^3
# Si number density = 25.112963 Si / 1000 Ang^3
#
#
#
# Elastic Constant Matrix: (Units=GPa)
#
#
# Indices 1 2 3 4 5 6 
#
# 1 93.2424 17.6947 8.6594 4.7653 3.8231 27.8940
# 2 17.6947 108.2708 33.9818 -8.9917 1.5749 22.6145
# 3 8.6594 33.9818 123.6360 -15.3011 1.7174 17.5705
# 4 4.7653 -8.9917 -15.3011 45.7299 0.3961 -11.0948
# 5 3.8231 1.5749 1.7174 0.3961 34.7223 7.2233
# 6 27.8940 22.6145 17.5705 -11.0948 7.2233 35.0328
#
#
#
# Elastic Compliance Matrix: (Units=1/GPa)
#
#
# Indices 1 2 3 4 5 6 
#
# 1 0.015068 -0.000081 0.000324 -0.004864 0.001278 -0.013912
# 2 -0.000081 0.011238 -0.002209 -0.000055 0.000917 -0.006288
# 3 0.000324 -0.002209 0.009327 0.001939 0.000192 -0.002936
# 4 -0.004864 -0.000055 0.001939 0.025843 -0.002263 0.011587
# 5 0.001278 0.000917 0.000192 -0.002263 0.030444 -0.008700
# 6 -0.013912 -0.006288 -0.002936 0.011587 -0.008700 0.050616
#
#
# Mechanical properties :
#
#
# Convention : Reuss Voigt Hill
#
# Bulk Modulus (GPa) = 31.54409 49.53568 40.53988
# Shear Modulus (GPa) = 31.83991 40.75122 36.29557
#
# Velocity S-wave (km/s) = 3.56458 4.03267 3.80582
# Velocity P-wave (km/s) = 5.43413 6.43826 5.95739
#
# Compressibility (1/GPa) = 0.03170166
#
# Stress axis : x y z
#
# Youngs Moduli (GPa) = 66.36611 88.98162 107.21337
#
# Poissons Ratio (x) = 0.00722 -0.03477
# Poissons Ratio (y) = 0.00539 0.23684
# Poissons Ratio (z) = -0.02152 0.19656
#
# Static dielectric constant tensor:
#      x y z
#    x 2.039690 -0.000790 -0.001540 
#    y -0.000790 1.979860 0.029350 
#    z -0.001540 0.029350 2.010360 
# 
# From -- ./inp_files/529971.got.cif
#   From: 2010.05.17/outbox.cif.g08.bks.cpg/sg2_265_cif.got.tgz:529971.got - 2010.06.03 11:33:40.
