data_PCOD9033892
_publ_section_title
;
Structure prediction by ZEFSAII (Michael W. Deem and Ramdas Pophale) SiO2 
 PCOD9033892
Probable space group: P -1
;
_chemical_formula_sum "Si O2"
_cell_formula_units_Z 16
_cell_length_a 15.121850
_cell_length_b 13.084544
_cell_length_c 5.368790
_cell_angle_alpha 72.126158
_cell_angle_beta 85.138955
_cell_angle_gamma 136.625566
_cell_volume 612.497338
_symmetry_space_group_name_H-M "P -1"
_symmetry_group_IT_number 2
_symmetry_cell_setting 'triclinic'
loop_
_space_group_symop_operation_xyz
x,y,z
-x,-y,-z
loop_
_atom_site_type_symbol
_atom_site_label
_atom_site_fract_x
_atom_site_fract_y
_atom_site_fract_z
Si Si1 0.878481 0.307833 0.050353
Si Si2 0.852260 0.553132 0.317003
Si Si3 0.224926 0.999900 0.479392
Si Si4 0.049475 0.182498 0.569810
Si Si5 0.512340 0.314806 0.924977
Si Si6 0.651656 0.534388 0.215938
Si Si7 0.202676 0.138394 0.771053
Si Si8 0.637650 0.206615 0.877442
O O1 0.796329 0.146740 0.371572
O O2 0.757672 0.258208 0.969494
O O3 0.000000 0.500000 0.000000
O O4 0.985557 0.334996 0.841821
O O5 0.861498 0.626763 0.518945
O O6 0.789089 0.584109 0.128243
O O7 0.732983 0.344377 0.519432
O O8 0.066112 0.897644 0.548486
O O9 0.339475 0.133263 0.137094
O O10 0.278165 0.113726 0.626212
O O11 0.155710 0.182937 0.539610
O O12 0.941314 0.047546 0.925681
O O13 0.567831 0.442151 0.045504
O O14 0.563267 0.407896 0.575728
O O15 0.575792 0.254985 0.984157
O O16 0.289289 0.293700 0.836393
O O17 0.500000 0.000000 0.000000
#
# Coordination Sequence:
#
# PCOD9033892 Si02
#       8
#     2   2   2   2   2   2   2   2
#     4  12  26  44  72 109 147 199 260 320 379 449
#     4  10  22  45  74 104 147 190 253 312 376 454
#     4  12  27  41  75 103 151 189 257 309 374 455
#     4  10  22  44  70 107 142 184 247 309 382 439
#     4  11  28  48  73 107 158 202 245 309 386 464
#     4  10  25  48  74 108 151 199 246 309 386 457
#     4  10  23  44  73 106 142 193 245 313 370 454
#     4  11  27  46  77 108 154 203 255 317 386 456
#
# _framework density 26.122561999999999
#
# number of rings (size 3 to 8) (size 9 to 14) (size 15 to 20)
#    0.000    1.250    1.250    2.250   10.500    3.500 
#    0.000    0.000    0.000    0.000    0.000    0.000 
#    0.000    0.000    0.000    0.000    0.000    0.000 
#
# Total GULP energy -89618.399501 kJ/mol
# GULP energy per Si atom -5601.149969 kJ/mol
# Density = 2.606311 g / cm^3
# Si number density = 26.122562 Si / 1000 Ang^3
#
#
#
# Elastic Constant Matrix: (Units=GPa)
#
#
# Indices 1 2 3 4 5 6 
#
# 1 117.3593 66.5663 33.2205 -14.7234 21.0941 -9.8901
# 2 66.5663 156.1037 30.9134 -19.5049 3.6323 3.1961
# 3 33.2205 30.9134 113.2276 -27.2019 -7.2591 -1.7266
# 4 -14.7234 -19.5049 -27.2019 52.6802 0.1776 1.9697
# 5 21.0941 3.6323 -7.2591 0.1776 32.6927 -5.4008
# 6 -9.8901 3.1961 -1.7266 1.9697 -5.4008 47.0681
#
#
#
# Elastic Compliance Matrix: (Units=1/GPa)
#
#
# Indices 1 2 3 4 5 6 
#
# 1 0.014229 -0.005227 -0.003208 0.000333 -0.008953 0.002186
# 2 -0.005227 0.008907 -0.000386 0.001689 0.002031 -0.001555
# 3 -0.003208 -0.000386 0.011327 0.004790 0.004618 0.000097
# 4 0.000333 0.001689 0.004790 0.022201 0.000416 -0.000750
# 5 -0.008953 0.002031 0.004618 0.000416 0.037566 0.002443
# 6 0.002186 -0.001555 0.000097 -0.000750 0.002443 0.022126
#
#
# Mechanical properties :
#
#
# Convention : Reuss Voigt Hill
#
# Bulk Modulus (GPa) = 59.45198 72.01010 65.73104
# Shear Modulus (GPa) = 35.81547 43.55422 39.68485
#
# Velocity S-wave (km/s) = 3.70679 4.08769 3.90189
# Velocity P-wave (km/s) = 6.41317 7.06435 6.74662
#
# Compressibility (1/GPa) = 0.01682030
#
# Stress axis : x y z
#
# Youngs Moduli (GPa) = 70.27882 112.27186 88.28706
#
# Poissons Ratio (x) = 0.58685 0.28325
# Poissons Ratio (y) = 0.36735 0.03407
# Poissons Ratio (z) = 0.22547 0.04333
#
# Static dielectric constant tensor:
#      x y z
#    x 2.113000 0.084640 -0.016870 
#    y 0.084640 2.250420 0.055860 
#    z -0.016870 0.055860 2.061490 
# 
# From -- ./inp_files/97743.got.cif
#   From: 2010.05.17/outbox.cif.g08.bks.cpg/sg2_49_cif.got.tgz:97743.got - 2010.06.03 11:33:40.
