data_PCOD9033404
_publ_section_title
;
Structure prediction by ZEFSAII (Michael W. Deem and Ramdas Pophale) SiO2 
 PCOD9033404
Probable space group: P -1
;
_chemical_formula_sum "Si O2"
_cell_formula_units_Z 16
_cell_length_a 9.452748
_cell_length_b 15.734520
_cell_length_c 5.100268
_cell_angle_alpha 96.439805
_cell_angle_beta 107.893806
_cell_angle_gamma 61.308836
_cell_volume 632.689342
_symmetry_space_group_name_H-M "P -1"
_symmetry_group_IT_number 2
_symmetry_cell_setting 'triclinic'
loop_
_space_group_symop_operation_xyz
x,y,z
-x,-y,-z
loop_
_atom_site_type_symbol
_atom_site_label
_atom_site_fract_x
_atom_site_fract_y
_atom_site_fract_z
Si Si1 0.658291 0.156498 0.054860
Si Si2 0.184175 0.019946 0.559457
Si Si3 0.285420 0.592546 0.645875
Si Si4 0.081182 0.292833 0.346677
Si Si5 0.553751 0.370398 0.731813
Si Si6 0.612800 0.732404 0.695417
Si Si7 0.009480 0.867158 0.000385
Si Si8 0.607823 0.875995 0.388387
O O1 0.503085 0.252684 0.118159
O O2 0.794341 0.167730 0.958028
O O3 0.756742 0.086402 0.330149
O O4 0.562842 0.105013 0.839109
O O5 0.087405 0.046843 0.237997
O O6 0.338890 0.042777 0.604853
O O7 0.064532 0.093073 0.742568
O O8 0.394822 0.477460 0.634494
O O9 0.309656 0.643032 0.418686
O O10 0.090830 0.627242 0.604365
O O11 0.366075 0.621493 0.946686
O O12 0.186349 0.330265 0.237416
O O13 0.034576 0.217518 0.142648
O O14 0.221845 0.225439 0.620880
O O15 0.476212 0.299354 0.591232
O O16 0.595408 0.838986 0.659895
#
# Coordination Sequence:
#
# PCOD9033404 Si02
#       8
#     2   2   2   2   2   2   2   2
#     4  12  24  39  68  88 127 169 219 265 321 368
#     4  11  25  44  63  89 129 167 217 268 318 374
#     4  10  22  44  67  99 125 170 200 264 309 377
#     4   9  22  40  63  90 131 162 210 253 318 371
#     4  10  23  41  69  96 131 159 216 250 317 374
#     4  10  24  40  61  97 126 170 208 261 309 389
#     4  11  25  41  64  93 123 166 216 271 316 372
#     4   9  24  41  58  93 124 171 209 261 310 382
#
# _framework density 25.288869999999999
#
# number of rings (size 3 to 8) (size 9 to 14) (size 15 to 20)
#    0.750    1.000    0.000    2.625    7.000    4.000 
#    0.000    0.000    0.000    5.250    0.000    0.000 
#    0.000    0.000    0.000    0.000    0.000    0.000 
#
# Total GULP energy -89451.545976 kJ/mol
# GULP energy per Si atom -5590.721624 kJ/mol
# Density = 2.523131 g / cm^3
# Si number density = 25.288870 Si / 1000 Ang^3
#
#
#
# Elastic Constant Matrix: (Units=GPa)
#
#
# Indices 1 2 3 4 5 6 
#
# 1 233.8911 41.8830 54.3815 21.5911 -3.1820 -21.8345
# 2 41.8830 50.9322 8.0777 6.4779 -6.5281 -19.1276
# 3 54.3815 8.0777 109.3655 13.4704 -12.8217 0.3605
# 4 21.5911 6.4779 13.4704 29.0011 -6.9741 -4.0536
# 5 -3.1820 -6.5281 -12.8217 -6.9741 44.0005 3.7701
# 6 -21.8345 -19.1276 0.3605 -4.0536 3.7701 43.7676
#
#
#
# Elastic Compliance Matrix: (Units=1/GPa)
#
#
# Indices 1 2 3 4 5 6 
#
# 1 0.005864 -0.003852 -0.002485 -0.002520 -0.001369 0.001147
# 2 -0.003852 0.026805 0.000394 -0.001312 0.002798 0.009427
# 3 -0.002485 0.000394 0.011042 -0.002933 0.002775 -0.001669
# 4 -0.002520 -0.001312 -0.002933 0.039387 0.004890 0.001420
# 5 -0.001369 0.002798 0.002775 0.004890 0.024726 -0.001160
# 6 0.001147 0.009427 -0.001669 0.001420 -0.001160 0.027785
#
#
# Mechanical properties :
#
#
# Convention : Reuss Voigt Hill
#
# Bulk Modulus (GPa) = 31.42213 66.98590 49.20402
# Shear Modulus (GPa) = 31.62445 42.67696 37.15071
#
# Velocity S-wave (km/s) = 3.54012 4.11247 3.83698
# Velocity P-wave (km/s) = 5.40020 7.00683 6.25531
#
# Compressibility (1/GPa) = 0.03182470
#
# Stress axis : x y z
#
# Youngs Moduli (GPa) = 170.52331 37.30631 90.55998
#
# Poissons Ratio (x) = 0.14372 0.22508
# Poissons Ratio (y) = 0.65694 -0.03571
# Poissons Ratio (z) = 0.42382 -0.01471
#
# Static dielectric constant tensor:
#      x y z
#    x 2.007620 -0.031290 -0.021560 
#    y -0.031290 2.111720 -0.026920 
#    z -0.021560 -0.026920 2.011640 
# 
# From -- ./inp_files/47870.got.cif
#   From: 2010.05.17/outbox.cif.g08.bks.cpg/sg2_24_cif.got.tgz:47870.got - 2010.06.03 11:33:40.
