data_PCOD9033008
_publ_section_title
;
Structure prediction by ZEFSAII (Michael W. Deem and Ramdas Pophale) SiO2 
 PCOD9033008
Probable space group: P -1
;
_chemical_formula_sum "Si O2"
_cell_formula_units_Z 16
_cell_length_a 14.260783
_cell_length_b 9.368411
_cell_length_c 14.387721
_cell_angle_alpha 58.784323
_cell_angle_beta 151.276742
_cell_angle_gamma 122.719117
_cell_volume 772.532178
_symmetry_space_group_name_H-M "P -1"
_symmetry_group_IT_number 2
_symmetry_cell_setting 'triclinic'
loop_
_space_group_symop_operation_xyz
x,y,z
-x,-y,-z
loop_
_atom_site_type_symbol
_atom_site_label
_atom_site_fract_x
_atom_site_fract_y
_atom_site_fract_z
Si Si1 0.414036 0.317462 0.117869
Si Si2 0.149555 0.128443 0.296062
Si Si3 0.216184 0.773969 0.945568
Si Si4 0.176132 0.494796 0.582863
Si Si5 0.029003 0.749534 0.242605
Si Si6 0.196075 0.379162 0.082982
Si Si7 0.427919 0.993089 0.718348
Si Si8 0.919055 0.168190 0.393446
O O1 0.600446 0.461129 0.199350
O O2 0.375698 0.348035 0.183305
O O3 0.460799 0.134190 0.197206
O O4 0.194680 0.317370 0.887176
O O5 0.193863 0.281225 0.209801
O O6 0.964342 0.154713 0.189065
O O7 0.334010 0.112026 0.527409
O O8 0.093249 0.948786 0.252599
O O9 0.185587 0.775659 0.807721
O O10 0.205697 0.579485 0.032997
O O11 0.420899 0.894488 0.116393
O O12 0.000000 0.500000 0.500000
O O13 0.168404 0.643120 0.450801
O O14 0.107745 0.313485 0.536128
O O15 0.995586 0.704948 0.119696
O O16 0.242325 0.875102 0.650332
O O17 0.000000 0.000000 0.500000
#
# Coordination Sequence:
#
# PCOD9033008 Si02
#       8
#     2   2   2   2   2   2   2   2
#     4  10  23  43  64  98 130 166 225 268 328 385
#     4  12  23  45  70  95 135 175 226 269 333 387
#     4  12  25  47  64  97 140 174 224 266 332 401
#     4  12  23  43  69  96 134 172 221 272 328 394
#     4  10  22  44  64  98 132 167 224 272 329 387
#     4  10  25  44  67  99 130 180 218 279 326 390
#     4  12  25  43  67 100 130 179 221 271 332 393
#     4  12  25  44  69  98 136 178 212 277 333 397
#
# _framework density 20.711110999999999
#
# number of rings (size 3 to 8) (size 9 to 14) (size 15 to 20)
#    0.750    0.000    6.250    1.125    1.750    1.500 
#    6.750    0.000    0.000    0.000    0.000    0.000 
#    0.000    0.000    0.000    0.000    0.000    0.000 
#
# Total GULP energy -89399.155640 kJ/mol
# GULP energy per Si atom -5587.447228 kJ/mol
# Density = 2.066397 g / cm^3
# Si number density = 20.711111 Si / 1000 Ang^3
#
#
#
# Elastic Constant Matrix: (Units=GPa)
#
#
# Indices 1 2 3 4 5 6 
#
# 1 24.5677 -11.9525 -0.2438 -9.2530 -6.1138 3.0069
# 2 -11.9525 112.1376 26.0177 -10.0116 -9.3131 -7.7478
# 3 -0.2438 26.0177 81.3383 6.0583 -2.5465 7.5082
# 4 -9.2530 -10.0116 6.0583 26.8423 2.4931 0.3780
# 5 -6.1138 -9.3131 -2.5465 2.4931 28.9263 -7.5705
# 6 3.0069 -7.7478 7.5082 0.3780 -7.5705 23.8582
#
#
#
# Elastic Compliance Matrix: (Units=1/GPa)
#
#
# Indices 1 2 3 4 5 6 
#
# 1 0.057960 0.010630 -0.004712 0.023720 0.013626 0.001578
# 2 0.010630 0.013101 -0.005222 0.008989 0.006964 0.006625
# 3 -0.004712 -0.005222 0.014966 -0.006627 -0.002489 -0.006496
# 4 0.023720 0.008989 -0.006627 0.049908 0.003646 0.002381
# 5 0.013626 0.006964 -0.002489 0.003646 0.043069 0.014936
# 6 0.001578 0.006625 -0.006496 0.002381 0.014936 0.050613
#
#
# Mechanical properties :
#
#
# Convention : Reuss Voigt Hill
#
# Bulk Modulus (GPa) = 11.43926 27.29848 19.36887
# Shear Modulus (GPa) = 19.42771 29.54016 24.48394
#
# Velocity S-wave (km/s) = 3.06606 3.78073 3.44199
# Velocity P-wave (km/s) = 4.25082 5.68047 5.01684
#
# Compressibility (1/GPa) = 0.08741823
#
# Stress axis : x y z
#
# Youngs Moduli (GPa) = 17.25321 76.33123 66.81879
#
# Poissons Ratio (x) = -0.81137 0.31486
# Poissons Ratio (y) = -0.18339 0.34891
# Poissons Ratio (z) = 0.08130 0.39858
#
# Static dielectric constant tensor:
#      x y z
#    x 1.745110 -0.009640 -0.000650 
#    y -0.009640 1.719220 0.018900 
#    z -0.000650 0.018900 1.738420 
# 
# From -- ./inp_files/529491.got.cif
#   From: 2010.05.17/outbox.cif.g08.bks.cpg/sg2_265_cif.got.tgz:529491.got - 2010.06.03 11:33:40.
