data_PCOD9033071
_publ_section_title
;
Structure prediction by ZEFSAII (Michael W. Deem and Ramdas Pophale) SiO2 
 PCOD9033071
Probable space group: P -1
;
_chemical_formula_sum "Si O2"
_cell_formula_units_Z 14
_cell_length_a 12.142976
_cell_length_b 21.950795
_cell_length_c 8.134443
_cell_angle_alpha 45.412302
_cell_angle_beta 147.063353
_cell_angle_gamma 145.457538
_cell_volume 668.046233
_symmetry_space_group_name_H-M "P -1"
_symmetry_group_IT_number 2
_symmetry_cell_setting 'triclinic'
loop_
_space_group_symop_operation_xyz
x,y,z
-x,-y,-z
loop_
_atom_site_type_symbol
_atom_site_label
_atom_site_fract_x
_atom_site_fract_y
_atom_site_fract_z
Si Si1 0.414281 0.570332 0.822160
Si Si2 0.868147 0.325342 0.183303
Si Si3 0.945306 0.784216 0.165325
Si Si4 0.447786 0.957347 0.327227
Si Si5 0.348822 0.119172 0.793236
Si Si6 0.082934 0.501169 0.857430
Si Si7 0.871581 0.950792 0.705763
O O1 0.279238 0.529124 0.907815
O O2 0.197729 0.554960 0.463882
O O3 0.500000 0.500000 0.000000
O O4 0.670485 0.689965 0.931311
O O5 0.839365 0.389565 0.167163
O O6 0.980344 0.266111 0.508666
O O7 0.595191 0.235096 0.932988
O O8 0.054348 0.418379 0.110259
O O9 0.175846 0.840121 0.216463
O O10 0.935982 0.881608 0.018770
O O11 0.663756 0.953073 0.533137
O O12 0.500000 0.000000 0.500000
O O13 0.423980 0.037988 0.041560
O O14 0.239676 0.110167 0.493812
O O15 0.124760 0.066342 0.748877
#
# Coordination Sequence:
#
# PCOD9033071 Si02
#       7
#     2   2   2   2   2   2   2
#     4  11  23  44  66  93 126 169 217 260 320 384
#     4  11  22  45  63  98 130 165 216 269 321 372
#     4  11  24  39  66  96 130 167 212 262 321 383
#     4  11  23  41  66  99 131 165 214 265 313 386
#     4  10  22  44  65  95 130 168 216 262 316 385
#     4  10  25  43  68  91 131 169 213 271 317 377
#     4  10  24  42  68  95 129 175 211 257 323 384
#
# _framework density 20.956634000000001
#
# number of rings (size 3 to 8) (size 9 to 14) (size 15 to 20)
#    0.000    1.429    2.857    1.286    2.000    5.143 
#    0.000    0.000    0.000    0.000    0.000    0.000 
#    0.000    0.000    0.000    0.000    0.000    0.000 
#
# Total GULP energy -78278.521377 kJ/mol
# GULP energy per Si atom -5591.322955 kJ/mol
# Density = 2.090894 g / cm^3
# Si number density = 20.956634 Si / 1000 Ang^3
#
#
#
# Elastic Constant Matrix: (Units=GPa)
#
#
# Indices 1 2 3 4 5 6 
#
# 1 114.1459 43.3784 51.0661 -9.3194 25.4830 14.6246
# 2 43.3784 107.8975 51.0689 21.0987 6.5344 15.7623
# 3 51.0661 51.0689 90.6443 -12.9240 15.9819 10.1882
# 4 -9.3194 21.0987 -12.9240 40.7398 1.7612 -17.4650
# 5 25.4830 6.5344 15.9819 1.7612 41.9802 15.0726
# 6 14.6246 15.7623 10.1882 -17.4650 15.0726 2.0882
#
#
#
# Elastic Compliance Matrix: (Units=1/GPa)
#
#
# Indices 1 2 3 4 5 6 
#
# 1 0.013535 -0.002749 -0.004578 0.001634 -0.004741 -0.003823
# 2 -0.002749 0.009879 -0.005152 0.001513 -0.005230 0.020215
# 3 -0.004578 -0.005152 0.017979 0.001630 0.001387 -0.013143
# 4 0.001634 0.001513 0.001630 0.008666 0.010788 -0.036206
# 5 -0.004741 -0.005230 0.001387 0.010788 0.018554 0.022222
# 6 -0.003823 0.020215 -0.013143 -0.036206 0.022222 -0.046028
#
#
# Mechanical properties :
#
#
# Convention : Reuss Voigt Hill
#
# Bulk Modulus (GPa) = 60.84156 67.07940 63.96048
# Shear Modulus (GPa) = 94.30342 28.10659 61.20500
#
# Velocity S-wave (km/s) = 6.71543 3.66618 5.41008
# Velocity P-wave (km/s) = 9.44587 7.07102 8.34338
#
# Compressibility (1/GPa) = 0.01643613
#
# Stress axis : x y z
#
# Youngs Moduli (GPa) = 73.88237 101.22335 55.62044
#
# Poissons Ratio (x) = 0.27821 0.25464
# Poissons Ratio (y) = 0.20307 0.28655
# Poissons Ratio (z) = 0.33824 0.52149
#
# Static dielectric constant tensor:
#      x y z
#    x 1.742870 -0.006780 -0.047480 
#    y -0.006780 1.751900 0.011860 
#    z -0.047480 0.011860 1.781590 
# 
# From -- ./inp_files/285146.got.cif
#   From: 2010.05.17/outbox.cif.g08.bks.cpg/sg2_143_cif.got.tgz:285146.got - 2010.06.03 11:33:40.
