data_PCOD9033709
_publ_section_title
;
Structure prediction by ZEFSAII (Michael W. Deem and Ramdas Pophale) SiO2 
 PCOD9033709
Probable space group: P -1
;
_chemical_formula_sum "Si O2"
_cell_formula_units_Z 12
_cell_length_a 8.844828
_cell_length_b 11.236004
_cell_length_c 9.100674
_cell_angle_alpha 64.719116
_cell_angle_beta 66.433768
_cell_angle_gamma 40.851062
_cell_volume 530.397820
_symmetry_space_group_name_H-M "P -1"
_symmetry_group_IT_number 2
_symmetry_cell_setting 'triclinic'
loop_
_space_group_symop_operation_xyz
x,y,z
-x,-y,-z
loop_
_atom_site_type_symbol
_atom_site_label
_atom_site_fract_x
_atom_site_fract_y
_atom_site_fract_z
Si Si1 0.063202 0.018071 0.804085
Si Si2 0.756529 0.741418 0.665723
Si Si3 0.825273 0.562271 0.168076
Si Si4 0.321538 0.147651 0.688718
Si Si5 0.605165 0.376462 0.670422
Si Si6 0.519140 0.610805 0.824204
O O1 0.178361 0.094236 0.751924
O O2 0.845502 0.159371 0.704799
O O3 0.264527 0.808853 0.776277
O O4 0.000000 0.000000 0.000000
O O5 0.730592 0.746357 0.497879
O O6 0.658681 0.657036 0.805902
O O7 0.015831 0.611362 0.689629
O O8 0.590856 0.950649 0.678743
O O9 0.743844 0.735430 0.202494
O O10 0.597790 0.605088 0.197620
O O11 0.000000 0.500000 0.000000
O O12 0.500000 0.500000 0.500000
O O13 0.646111 0.477099 0.707195
O O14 0.500000 0.500000 0.000000
#
# Coordination Sequence:
#
# PCOD9033709 Si02
#       6
#     2   2   2   2   2   2
#     4  11  24  42  73  93 126 179 227 269 320 393
#     4  10  22  44  69  93 125 178 225 269 322 392
#     4  12  26  39  63  99 140 166 206 276 345 383
#     4  10  23  44  69  93 126 174 230 266 320 405
#     4  12  26  43  66 102 137 171 218 278 338 391
#     4  11  22  42  71  96 129 175 230 266 323 401
#
# _framework density 22.624528000000002
#
# number of rings (size 3 to 8) (size 9 to 14) (size 15 to 20)
#    0.000    1.000    1.667    4.500    4.667    2.667 
#    0.000    0.000    0.000    0.000    0.000    0.000 
#    0.000    0.000    0.000    0.000    0.000    0.000 
#
# Total GULP energy -67087.414423 kJ/mol
# GULP energy per Si atom -5590.617869 kJ/mol
# Density = 2.257303 g / cm^3
# Si number density = 22.624528 Si / 1000 Ang^3
#
#
#
# Elastic Constant Matrix: (Units=GPa)
#
#
# Indices 1 2 3 4 5 6 
#
# 1 57.4794 43.6591 9.0295 -14.1599 -7.4389 -13.5484
# 2 43.6591 140.5209 14.2580 -7.6611 10.7088 -9.2038
# 3 9.0295 14.2580 89.6581 -10.8881 -8.5826 16.8538
# 4 -14.1599 -7.6611 -10.8881 38.3692 2.2098 10.1970
# 5 -7.4389 10.7088 -8.5826 2.2098 35.5440 2.7742
# 6 -13.5484 -9.2038 16.8538 10.1970 2.7742 36.9131
#
#
#
# Elastic Compliance Matrix: (Units=1/GPa)
#
#
# Indices 1 2 3 4 5 6 
#
# 1 0.027886 -0.008317 -0.001284 0.006122 0.007143 0.006520
# 2 -0.008317 0.010258 -0.001675 -0.001480 -0.005228 0.001072
# 3 -0.001284 -0.001675 0.014348 0.005490 0.004082 -0.009263
# 4 0.006122 -0.001480 0.005490 0.032035 0.001812 -0.009614
# 5 0.007143 -0.005228 0.004082 0.001812 0.032348 -0.003477
# 6 0.006520 0.001072 -0.009263 -0.009614 -0.003477 0.036898
#
#
# Mechanical properties :
#
#
# Convention : Reuss Voigt Hill
#
# Bulk Modulus (GPa) = 33.40139 46.83907 40.12023
# Shear Modulus (GPa) = 26.83750 36.87938 31.85844
#
# Velocity S-wave (km/s) = 3.44788 4.04178 3.75659
# Velocity P-wave (km/s) = 5.53587 6.52143 6.04876
#
# Compressibility (1/GPa) = 0.02993888
#
# Stress axis : x y z
#
# Youngs Moduli (GPa) = 35.86026 97.48117 69.69603
#
# Poissons Ratio (x) = 0.81078 0.08950
# Poissons Ratio (y) = 0.29826 0.11677
# Poissons Ratio (z) = 0.04605 0.16332
#
# Static dielectric constant tensor:
#      x y z
#    x 1.774140 0.102380 -0.110580 
#    y 0.102380 1.347120 0.393750 
#    z -0.110580 0.393750 1.651940 
# 
# From -- ./inp_files/157030.got.cif
#   From: 2010.05.17/outbox.cif.g08.bks.cpg/sg2_79_cif.got.tgz:157030.got - 2010.06.03 11:33:40.
