data_PCOD9033050
_publ_section_title
;
Structure prediction by ZEFSAII (Michael W. Deem and Ramdas Pophale) SiO2 
 PCOD9033050
Probable space group: P -1
;
_chemical_formula_sum "Si O2"
_cell_formula_units_Z 14
_cell_length_a 11.556503
_cell_length_b 9.027610
_cell_length_c 13.584005
_cell_angle_alpha 49.604774
_cell_angle_beta 93.625090
_cell_angle_gamma 56.344499
_cell_volume 669.945678
_symmetry_space_group_name_H-M "P -1"
_symmetry_group_IT_number 2
_symmetry_cell_setting 'triclinic'
loop_
_space_group_symop_operation_xyz
x,y,z
-x,-y,-z
loop_
_atom_site_type_symbol
_atom_site_label
_atom_site_fract_x
_atom_site_fract_y
_atom_site_fract_z
Si Si1 0.446160 0.250362 0.581256
Si Si2 0.387682 0.638451 0.573591
Si Si3 0.086499 0.592285 0.494347
Si Si4 0.448681 0.660226 0.083242
Si Si5 0.648185 0.588741 0.931669
Si Si6 0.283731 0.246877 0.856101
Si Si7 0.958334 0.170916 0.263080
O O1 0.477911 0.352970 0.632279
O O2 0.515376 0.284599 0.478357
O O3 0.226432 0.489064 0.463239
O O4 0.554666 0.908738 0.752211
O O5 0.413711 0.549418 0.726832
O O6 0.174041 0.928015 0.401611
O O7 0.221027 0.385589 0.683885
O O8 0.000000 0.500000 0.500000
O O9 0.945513 0.950663 0.361706
O O10 0.544558 0.644346 0.001886
O O11 0.378241 0.547481 0.088908
O O12 0.279228 0.018969 0.956936
O O13 0.862162 0.343011 0.079658
O O14 0.154935 0.544048 0.791087
O O15 0.500000 0.000000 0.000000
#
# Coordination Sequence:
#
# PCOD9033050 Si02
#       7
#     2   2   2   2   2   2   2
#     4  10  22  44  65  91 127 172 201 256 316 383
#     4  10  24  42  66  91 127 166 214 250 313 377
#     4  11  23  37  63  96 125 156 206 266 309 362
#     4  11  23  39  61  95 124 171 203 261 316 377
#     4  11  23  38  64  91 128 162 211 256 321 364
#     4  12  21  37  60  90 125 163 203 257 310 364
#     4  11  23  37  61  98 124 160 214 263 305 369
#
# _framework density 20.897217999999999
#
# number of rings (size 3 to 8) (size 9 to 14) (size 15 to 20)
#    0.000    1.143    2.857    3.857    4.000    1.143 
#    0.000    1.429    0.000    9.429    0.000    0.000 
#    0.000    0.000    0.000    0.000    0.000    0.000 
#
# Total GULP energy -78167.221171 kJ/mol
# GULP energy per Si atom -5583.372941 kJ/mol
# Density = 2.084966 g / cm^3
# Si number density = 20.897218 Si / 1000 Ang^3
#
#
#
# Elastic Constant Matrix: (Units=GPa)
#
#
# Indices 1 2 3 4 5 6 
#
# 1 101.7184 42.8321 25.9314 -18.3886 -28.3437 17.1461
# 2 42.8321 86.1842 45.9585 -27.0294 -12.0903 28.8939
# 3 25.9314 45.9585 92.7042 -34.5263 -20.7036 10.6407
# 4 -18.3886 -27.0294 -34.5263 38.8848 8.4801 -8.9062
# 5 -28.3437 -12.0903 -20.7036 8.4801 29.7002 -3.1924
# 6 17.1461 28.8939 10.6407 -8.9062 -3.1924 26.7768
#
#
#
# Elastic Compliance Matrix: (Units=1/GPa)
#
#
# Indices 1 2 3 4 5 6 
#
# 1 0.016524 -0.006045 0.002728 0.002312 0.014262 -0.002673
# 2 -0.006045 0.026966 -0.008599 0.004409 -0.004286 -0.020855
# 3 0.002728 -0.008599 0.020760 0.012533 0.010501 0.004703
# 4 0.002312 0.004409 0.012533 0.041351 0.001219 0.002681
# 5 0.014262 -0.004286 0.010501 0.001219 0.052289 -0.002041
# 6 -0.002673 -0.020855 0.004703 0.002681 -0.002041 0.060340
#
#
# Mechanical properties :
#
#
# Convention : Reuss Voigt Hill
#
# Bulk Modulus (GPa) = 24.74204 56.67231 40.70718
# Shear Modulus (GPa) = 19.56685 30.13134 24.84909
#
# Velocity S-wave (km/s) = 3.06328 3.80133 3.45209
# Velocity P-wave (km/s) = 4.93733 6.81508 5.95073
#
# Compressibility (1/GPa) = 0.04041704
#
# Stress axis : x y z
#
# Youngs Moduli (GPa) = 60.51946 37.08407 48.16936
#
# Poissons Ratio (x) = 0.22416 -0.13138
# Poissons Ratio (y) = 0.36582 0.41421
# Poissons Ratio (z) = -0.16507 0.31889
#
# Static dielectric constant tensor:
#      x y z
#    x 1.804790 -0.012170 -0.001300 
#    y -0.012170 1.798300 -0.022790 
#    z -0.001300 -0.022790 1.755180 
# 
# From -- ./inp_files/514011.got.cif
#   From: 2010.05.17/outbox.cif.g08.bks.cpg/sg2_258_cif.got.tgz:514011.got - 2010.06.03 11:33:40.
