data_PCOD9033408
_publ_section_title
;
Structure prediction by ZEFSAII (Michael W. Deem and Ramdas Pophale) SiO2 
 PCOD9033408
Probable space group: P -1
;
_chemical_formula_sum "Si O2"
_cell_formula_units_Z 15
_cell_length_a 13.136426
_cell_length_b 4.966197
_cell_length_c 13.036534
_cell_angle_alpha 67.372220
_cell_angle_beta 50.931119
_cell_angle_gamma 84.535132
_cell_volume 596.469341
_symmetry_space_group_name_H-M "P -1"
_symmetry_group_IT_number 2
_symmetry_cell_setting 'triclinic'
loop_
_space_group_symop_operation_xyz
x,y,z
-x,-y,-z
loop_
_atom_site_type_symbol
_atom_site_label
_atom_site_fract_x
_atom_site_fract_y
_atom_site_fract_z
Si Si1 0.145623 0.935417 0.390668
Si Si2 0.363500 0.756867 0.625990
Si Si3 0.500000 0.500000 0.000000
Si Si4 0.104688 0.952081 0.814644
Si Si5 0.761124 0.391738 0.811647
Si Si6 0.063210 0.606829 0.100198
Si Si7 0.651183 0.307517 0.576570
Si Si8 0.515855 0.352293 0.237176
O O1 0.160249 0.745406 0.307295
O O2 0.209928 0.775776 0.464413
O O3 0.237990 0.259569 0.264206
O O4 0.000000 0.000000 0.500000
O O5 0.239413 0.918905 0.679274
O O6 0.355125 0.578016 0.551916
O O7 0.372413 0.591884 0.752168
O O8 0.500000 0.000000 0.500000
O O9 0.603720 0.273783 0.935429
O O10 0.444526 0.495285 0.917623
O O11 0.985001 0.720238 0.868716
O O12 0.065405 0.269157 0.797550
O O13 0.115936 0.829969 0.940650
O O14 0.837102 0.377961 0.871637
O O15 0.608122 0.528888 0.652326
O O16 0.539532 0.998844 0.697046
#
# Coordination Sequence:
#
# PCOD9033408 Si02
#       8
#     2   2   1   2   2   2   2   2
#     4  12  26  46  66 101 136 182 227 281 335 412
#     4  10  24  43  70 100 136 175 225 281 341 406
#     4  12  24  46  72  98 144 174 226 286 336 418
#     4  10  22  44  67  99 133 173 224 277 339 394
#     4  12  26  44  71 101 135 181 229 278 349 403
#     4  10  23  42  68  97 132 174 225 277 331 408
#     4  11  23  44  64  98 134 175 226 273 336 398
#     4  11  24  43  66  98 135 176 220 276 339 401
#
# _framework density 25.147981999999999
#
# number of rings (size 3 to 8) (size 9 to 14) (size 15 to 20)
#    0.000    1.067    2.667    2.400    3.733    6.400 
#    0.000    4.000    0.000    0.000    0.000    0.000 
#    0.000    0.000    0.000    0.000    0.000    0.000 
#
# Total GULP energy -83764.437408 kJ/mol
# GULP energy per Si atom -5584.295827 kJ/mol
# Density = 2.509074 g / cm^3
# Si number density = 25.147982 Si / 1000 Ang^3
#
#
#
# Elastic Constant Matrix: (Units=GPa)
#
#
# Indices 1 2 3 4 5 6 
#
# 1 152.9706 12.3393 62.2443 18.3896 39.6115 -6.4859
# 2 12.3393 88.5144 27.2380 4.7530 18.8410 0.4175
# 3 62.2443 27.2380 87.1551 32.4008 27.3891 0.7309
# 4 18.3896 4.7530 32.4008 31.2672 3.4089 -7.4243
# 5 39.6115 18.8410 27.3891 3.4089 56.4065 16.2127
# 6 -6.4859 0.4175 0.7309 -7.4243 16.2127 33.6581
#
#
#
# Elastic Compliance Matrix: (Units=1/GPa)
#
#
# Indices 1 2 3 4 5 6 
#
# 1 0.011158 0.002078 -0.007849 0.003490 -0.006744 0.006313
# 2 0.002078 0.013507 -0.005905 0.004108 -0.004313 0.003345
# 3 -0.007849 -0.005905 0.030083 -0.026724 -0.003728 -0.006191
# 4 0.003490 0.004108 -0.026724 0.060075 0.001588 0.013688
# 5 -0.006744 -0.004313 -0.003728 0.001588 0.030008 -0.015269
# 6 0.006313 0.003345 -0.006191 0.013688 -0.015269 0.041394
#
#
# Mechanical properties :
#
#
# Convention : Reuss Voigt Hill
#
# Bulk Modulus (GPa) = 31.85152 59.14255 45.49704
# Shear Modulus (GPa) = 22.72277 39.38758 31.05518
#
# Velocity S-wave (km/s) = 3.00919 3.96186 3.51792
# Velocity P-wave (km/s) = 4.97662 6.67063 5.88490
#
# Compressibility (1/GPa) = 0.03139568
#
# Stress axis : x y z
#
# Youngs Moduli (GPa) = 89.62253 74.03660 33.24092
#
# Poissons Ratio (x) = -0.15387 0.26091
# Poissons Ratio (y) = -0.18626 0.19630
# Poissons Ratio (z) = 0.70346 0.43721
#
# Static dielectric constant tensor:
#      x y z
#    x 2.008820 0.005640 -0.069590 
#    y 0.005640 1.936620 -0.035070 
#    z -0.069590 -0.035070 2.091670 
# 
# From -- ./inp_files/410218.got.cif
#   From: 2010.05.17/outbox.cif.g08.bks.cpg/sg2_206_cif.got.tgz:410218.got - 2010.06.03 11:33:40.
