data_PCOD9033468
_publ_section_title
;
Structure prediction by ZEFSAII (Michael W. Deem and Ramdas Pophale) SiO2 
 PCOD9033468
Probable space group: P -1
;
_chemical_formula_sum "Si O2"
_cell_formula_units_Z 16
_cell_length_a 6.558716
_cell_length_b 11.055576
_cell_length_c 17.303650
_cell_angle_alpha 126.261829
_cell_angle_beta 130.931712
_cell_angle_gamma 62.594370
_cell_volume 758.847331
_symmetry_space_group_name_H-M "P -1"
_symmetry_group_IT_number 2
_symmetry_cell_setting 'triclinic'
loop_
_space_group_symop_operation_xyz
x,y,z
-x,-y,-z
loop_
_atom_site_type_symbol
_atom_site_label
_atom_site_fract_x
_atom_site_fract_y
_atom_site_fract_z
Si Si1 0.656703 0.145560 0.086386
Si Si2 0.437800 0.734278 0.065173
Si Si3 0.228006 0.221075 0.270764
Si Si4 0.436734 0.396856 0.252760
Si Si5 0.704574 0.081324 0.530236
Si Si6 0.410684 0.395486 0.509917
Si Si7 0.948354 0.490780 0.073817
Si Si8 0.695508 0.972448 0.316945
O O1 0.560906 0.267034 0.175722
O O2 0.984578 0.119744 0.163394
O O3 0.590037 0.209611 0.008496
O O4 0.500000 0.000000 0.000000
O O5 0.701012 0.609870 0.084642
O O6 0.513655 0.856638 0.190899
O O7 0.162854 0.668125 0.995597
O O8 0.241259 0.331833 0.243691
O O9 0.193844 0.308261 0.377133
O O10 0.531211 0.131826 0.312249
O O11 0.638551 0.488879 0.387171
O O12 0.228497 0.507876 0.192346
O O13 0.612512 0.253618 0.542774
O O14 0.989927 0.065568 0.640888
O O15 0.500000 0.000000 0.500000
O O16 0.715764 0.980047 0.417034
O O17 0.500000 0.500000 0.500000
O O18 0.000000 0.500000 0.000000
#
# Coordination Sequence:
#
# PCOD9033468 Si02
#       8
#     2   2   2   2   2   2   2   2
#     4  12  26  40  64  96 132 179 229 273 333 408
#     4  11  24  40  61  95 128 172 222 270 331 404
#     4  10  23  43  63  95 134 174 229 279 334 395
#     4  11  22  42  66  93 131 175 226 280 338 401
#     4  10  22  44  68 103 132 171 228 278 339 408
#     4   9  21  42  70  96 132 174 219 283 335 406
#     4  11  23  41  64  90 131 172 222 274 335 399
#     4  10  23  41  67  92 134 174 214 279 337 391
#
# _framework density 21.084609
#
# number of rings (size 3 to 8) (size 9 to 14) (size 15 to 20)
#    0.000    1.500    2.500    1.500    1.750    7.500 
#    0.000    5.000    0.000    0.000    0.000    0.000 
#    0.000    0.000    0.000    0.000    0.000    0.000 
#
# Total GULP energy -89167.592934 kJ/mol
# GULP energy per Si atom -5572.974558 kJ/mol
# Density = 2.103662 g / cm^3
# Si number density = 21.084609 Si / 1000 Ang^3
#
#
#
# Elastic Constant Matrix: (Units=GPa)
#
#
# Indices 1 2 3 4 5 6 
#
# 1 55.7316 32.8984 19.5415 1.5890 -3.0521 8.6523
# 2 32.8984 80.4477 45.1625 -6.2791 3.1271 2.2427
# 3 19.5415 45.1625 134.7026 2.1179 -13.3464 9.2827
# 4 1.5890 -6.2791 2.1179 35.9827 -3.2017 -0.0669
# 5 -3.0521 3.1271 -13.3464 -3.2017 35.1517 -1.8198
# 6 8.6523 2.2427 9.2827 -0.0669 -1.8198 26.6182
#
#
#
# Elastic Compliance Matrix: (Units=1/GPa)
#
#
# Indices 1 2 3 4 5 6 
#
# 1 0.025578 -0.011060 0.000844 -0.002867 0.002876 -0.007487
# 2 -0.011060 0.020793 -0.006138 0.004078 -0.004579 0.003681
# 3 0.000844 -0.006138 0.009995 -0.001334 0.004139 -0.002963
# 4 -0.002867 0.004078 -0.001334 0.028850 0.001573 0.001234
# 5 0.002876 -0.004579 0.004139 0.001573 0.030826 0.000119
# 6 -0.007487 0.003681 -0.002963 0.001234 0.000119 0.040736
#
#
# Mechanical properties :
#
#
# Convention : Reuss Voigt Hill
#
# Bulk Modulus (GPa) = 42.27326 51.78739 47.03032
# Shear Modulus (GPa) = 25.33266 31.10247 28.21757
#
# Velocity S-wave (km/s) = 3.46999 3.84490 3.66225
# Velocity P-wave (km/s) = 6.01227 6.65778 6.34324
#
# Compressibility (1/GPa) = 0.02365562
#
# Stress axis : x y z
#
# Youngs Moduli (GPa) = 39.09630 48.09287 100.05328
#
# Poissons Ratio (x) = 0.53192 -0.08441
# Poissons Ratio (y) = 0.43242 0.61416
# Poissons Ratio (z) = -0.03298 0.29521
#
# Static dielectric constant tensor:
#      x y z
#    x 1.730150 0.046030 -0.020050 
#    y 0.046030 1.667770 0.069080 
#    z -0.020050 0.069080 1.752980 
# 
# From -- ./inp_files/411011.got.cif
#   From: 2010.05.17/outbox.cif.g08.bks.cpg/sg2_206_cif.got.tgz:411011.got - 2010.06.03 11:33:40.
