data_PCOD9033160
_publ_section_title
;
Structure prediction by ZEFSAII (Michael W. Deem and Ramdas Pophale) SiO2 
 PCOD9033160
Probable space group: P -1
;
_chemical_formula_sum "Si O2"
_cell_formula_units_Z 16
_cell_length_a 7.527188
_cell_length_b 6.911239
_cell_length_c 19.094437
_cell_angle_alpha 46.164006
_cell_angle_beta 60.548154
_cell_angle_gamma 63.555359
_cell_volume 615.177120
_symmetry_space_group_name_H-M "P -1"
_symmetry_group_IT_number 2
_symmetry_cell_setting 'triclinic'
loop_
_space_group_symop_operation_xyz
x,y,z
-x,-y,-z
loop_
_atom_site_type_symbol
_atom_site_label
_atom_site_fract_x
_atom_site_fract_y
_atom_site_fract_z
Si Si1 0.540064 0.332246 0.791377
Si Si2 0.097445 0.673677 0.126377
Si Si3 0.123682 0.648547 0.518901
Si Si4 0.324133 0.306982 0.082546
Si Si5 0.325164 0.062250 0.579492
Si Si6 0.252830 0.533757 0.679494
Si Si7 0.175540 0.241493 0.978074
Si Si8 0.717134 0.832817 0.640422
O O1 0.468111 0.430230 0.702408
O O2 0.344366 0.375834 0.869994
O O3 0.697380 0.521874 0.741723
O O4 0.596455 0.011681 0.854838
O O5 0.219118 0.376618 0.160501
O O6 0.904978 0.664194 0.216948
O O7 0.009904 0.732965 0.048540
O O8 0.226052 0.911381 0.058437
O O9 0.191585 0.361660 0.538134
O O10 0.245872 0.583245 0.586114
O O11 0.887119 0.754023 0.563733
O O12 0.199510 0.911538 0.405351
O O13 0.500000 0.500000 0.000000
O O14 0.183212 0.344138 0.030034
O O15 0.500000 0.000000 0.500000
O O16 0.187018 0.829226 0.653860
O O17 0.478391 0.969457 0.638078
#
# Coordination Sequence:
#
# PCOD9033160 Si02
#       8
#     2   2   2   2   2   2   2   2
#     4  10  23  44  63  98 134 176 228 285 337 420
#     4  10  23  42  66  98 130 181 230 283 344 415
#     4  11  24  46  71 100 138 183 225 290 348 408
#     4  12  24  40  66  99 133 183 227 286 357 402
#     4  11  23  45  70  97 140 181 221 285 348 412
#     4  10  24  44  65  98 134 177 230 274 350 414
#     4  10  22  44  66  88 141 175 228 289 341 417
#     4  10  24  44  68 103 134 179 237 275 346 410
#
# _framework density 26.008769999999998
#
# number of rings (size 3 to 8) (size 9 to 14) (size 15 to 20)
#    0.000    1.500    2.500    1.125    3.500    0.500 
#    9.000    0.000    0.000    0.000    0.000    0.000 
#    0.000    0.000    0.000    0.000    0.000    0.000 
#
# Total GULP energy -89250.721763 kJ/mol
# GULP energy per Si atom -5578.170110 kJ/mol
# Density = 2.594957 g / cm^3
# Si number density = 26.008770 Si / 1000 Ang^3
#
#
#
# Elastic Constant Matrix: (Units=GPa)
#
#
# Indices 1 2 3 4 5 6 
#
# 1 79.9670 15.1468 8.2472 -8.0417 15.2232 19.4991
# 2 15.1468 132.7776 36.2560 -36.2708 -11.2407 13.8955
# 3 8.2472 36.2560 116.1197 -37.4850 -13.8793 15.8619
# 4 -8.0417 -36.2708 -37.4850 44.5514 1.8111 3.9207
# 5 15.2232 -11.2407 -13.8793 1.8111 36.3062 -5.4315
# 6 19.4991 13.8955 15.8619 3.9207 -5.4315 36.8091
#
#
#
# Elastic Compliance Matrix: (Units=1/GPa)
#
#
# Indices 1 2 3 4 5 6 
#
# 1 0.017491 -0.000487 0.000979 0.004953 -0.009058 -0.011368
# 2 -0.000487 0.010717 0.000737 0.009568 0.002618 -0.004738
# 3 0.000979 0.000737 0.013997 0.013098 0.003359 -0.007728
# 4 0.004953 0.009568 0.013098 0.043535 0.001278 -0.016328
# 5 -0.009058 0.002618 0.003359 0.001278 0.034466 0.007312
# 6 -0.011368 -0.004738 -0.007728 -0.016328 0.007312 0.041126
#
#
# Mechanical properties :
#
#
# Convention : Reuss Voigt Hill
#
# Bulk Modulus (GPa) = 22.38963 49.79605 36.09284
# Shear Modulus (GPa) = 28.77510 41.48095 35.12803
#
# Velocity S-wave (km/s) = 3.32981 3.99793 3.67907
# Velocity P-wave (km/s) = 4.83846 6.36386 5.65285
#
# Compressibility (1/GPa) = 0.04466354
#
# Stress axis : x y z
#
# Youngs Moduli (GPa) = 57.17309 93.31189 71.44203
#
# Poissons Ratio (x) = 0.04542 -0.06993
# Poissons Ratio (y) = 0.02783 -0.05267
# Poissons Ratio (z) = -0.05596 -0.06880
#
# Static dielectric constant tensor:
#      x y z
#    x 2.217220 -0.058000 0.134070 
#    y -0.058000 2.071010 -0.004830 
#    z 0.134070 -0.004830 2.147220 
# 
# From -- ./inp_files/585470.got.cif
#   From: 2010.05.17/outbox.cif.g08.bks.cpg/sg2_293_cif.got.tgz:585470.got - 2010.06.03 11:33:40.
