data_PCOD9033594
_publ_section_title
;
Structure prediction by ZEFSAII (Michael W. Deem and Ramdas Pophale) SiO2 
 PCOD9033594
Probable space group: P -1
;
_chemical_formula_sum "Si O2"
_cell_formula_units_Z 15
_cell_length_a 6.437801
_cell_length_b 7.558552
_cell_length_c 13.513015
_cell_angle_alpha 97.815501
_cell_angle_beta 100.737349
_cell_angle_gamma 60.189661
_cell_volume 559.824736
_symmetry_space_group_name_H-M "P -1"
_symmetry_group_IT_number 2
_symmetry_cell_setting 'triclinic'
loop_
_space_group_symop_operation_xyz
x,y,z
-x,-y,-z
loop_
_atom_site_type_symbol
_atom_site_label
_atom_site_fract_x
_atom_site_fract_y
_atom_site_fract_z
Si Si1 0.859893 0.786591 0.475364
Si Si2 0.285766 0.514103 0.915288
Si Si3 0.638870 0.195303 0.793184
Si Si4 0.201457 0.231075 0.026391
Si Si5 0.494828 0.168221 0.231695
Si Si6 0.657478 0.598462 0.559669
Si Si7 0.977084 0.010011 0.337584
Si Si8 0.000000 0.000000 0.000000
O O1 0.633598 0.764019 0.487665
O O2 0.845657 0.945599 0.404911
O O3 0.065122 0.575802 0.432650
O O4 0.955032 0.837382 0.588856
O O5 0.409325 0.414608 0.815254
O O6 0.051748 0.735507 0.934387
O O7 0.500000 0.500000 0.000000
O O8 0.187452 0.368934 0.943802
O O9 0.784827 0.170857 0.703614
O O10 0.543812 0.029333 0.772049
O O11 0.838669 0.128274 0.892292
O O12 0.340198 0.272178 0.128806
O O13 0.257591 0.008042 0.984034
O O14 0.397849 0.310223 0.329741
O O15 0.772002 0.113058 0.245313
O O16 0.500000 0.500000 0.500000
#
# Coordination Sequence:
#
# PCOD9033594 Si02
#       8
#     2   2   2   2   2   2   2   1
#     4  10  24  44  71  98 141 186 233 294 345 421
#     4  11  24  46  70 101 142 184 228 290 354 413
#     4  11  25  41  69 104 139 185 232 286 348 422
#     4  10  25  45  72 102 139 180 238 286 353 419
#     4  11  25  41  70 105 136 181 235 290 347 420
#     4  11  22  45  70 102 140 182 228 291 360 406
#     4  11  24  44  69 105 140 181 242 287 349 418
#     4  10  22  44  68  98 138 180 222 290 346 408
#
# _framework density 26.7941
#
# number of rings (size 3 to 8) (size 9 to 14) (size 15 to 20)
#    0.000    1.333    4.000    0.000    3.733    4.800 
#    0.000    1.333    0.000    0.000    0.000    0.000 
#    0.000    0.000    0.000    0.000    0.000    0.000 
#
# Total GULP energy -83812.638808 kJ/mol
# GULP energy per Si atom -5587.509254 kJ/mol
# Density = 2.673312 g / cm^3
# Si number density = 26.794100 Si / 1000 Ang^3
#
#
#
# Elastic Constant Matrix: (Units=GPa)
#
#
# Indices 1 2 3 4 5 6 
#
# 1 126.0446 37.4082 64.6121 13.2479 -10.4377 8.5536
# 2 37.4082 85.2734 41.7464 23.1472 -10.3795 3.1239
# 3 64.6121 41.7464 136.5589 41.2540 4.4608 -20.7620
# 4 13.2479 23.1472 41.2540 47.4967 -10.8848 -12.0609
# 5 -10.4377 -10.3795 4.4608 -10.8848 54.8811 8.9927
# 6 8.5536 3.1239 -20.7620 -12.0609 8.9927 61.4722
#
#
#
# Elastic Compliance Matrix: (Units=1/GPa)
#
#
# Indices 1 2 3 4 5 6 
#
# 1 0.012392 -0.002440 -0.006920 0.003655 0.003802 -0.003776
# 2 -0.002440 0.015793 -0.002683 -0.004851 0.002212 -0.002645
# 3 -0.006920 -0.002683 0.015508 -0.010283 -0.005974 0.005194
# 4 0.003655 -0.004851 -0.010283 0.033377 0.006939 0.001798
# 5 0.003802 0.002212 -0.005974 0.006939 0.021964 -0.004511
# 6 -0.003776 -0.002645 0.005194 0.001798 -0.004511 0.019694
#
#
# Mechanical properties :
#
#
# Convention : Reuss Voigt Hill
#
# Bulk Modulus (GPa) = 50.99683 70.60116 60.79900
# Shear Modulus (GPa) = 33.47865 46.37734 39.92800
#
# Velocity S-wave (km/s) = 3.53863 4.16490 3.86447
# Velocity P-wave (km/s) = 5.98081 7.03813 6.53090
#
# Compressibility (1/GPa) = 0.01960906
#
# Stress axis : x y z
#
# Youngs Moduli (GPa) = 80.69803 63.31736 64.48168
#
# Poissons Ratio (x) = 0.15446 0.44621
# Poissons Ratio (y) = 0.19686 0.17299
# Poissons Ratio (z) = 0.55843 0.16987
#
# Static dielectric constant tensor:
#      x y z
#    x 2.221660 0.046730 0.008430 
#    y 0.046730 2.531290 0.030530 
#    z 0.008430 0.030530 2.131220 
# 
# From -- ./inp_files/54905.got.cif
#   From: 2010.05.17/outbox.cif.g08.bks.cpg/sg2_28_cif.got.tgz:54905.got - 2010.06.03 11:33:40.
