data_PCOD9033528
_publ_section_title
;
Structure prediction by ZEFSAII (Michael W. Deem and Ramdas Pophale) SiO2 
 PCOD9033528
Probable space group: P -1
;
_chemical_formula_sum "Si O2"
_cell_formula_units_Z 16
_cell_length_a 16.207674
_cell_length_b 7.515167
_cell_length_c 13.135227
_cell_angle_alpha 77.500440
_cell_angle_beta 141.150014
_cell_angle_gamma 74.752869
_cell_volume 695.231333
_symmetry_space_group_name_H-M "P -1"
_symmetry_group_IT_number 2
_symmetry_cell_setting 'triclinic'
loop_
_space_group_symop_operation_xyz
x,y,z
-x,-y,-z
loop_
_atom_site_type_symbol
_atom_site_label
_atom_site_fract_x
_atom_site_fract_y
_atom_site_fract_z
Si Si1 0.590151 0.385923 0.831432
Si Si2 0.047814 0.516034 0.376772
Si Si3 0.485392 0.127002 0.864175
Si Si4 0.085014 0.769733 0.532407
Si Si5 0.832482 0.961496 0.520318
Si Si6 0.124043 0.058315 0.997752
Si Si7 0.796890 0.082291 0.685817
Si Si8 0.400272 0.336676 0.033996
O O1 0.560480 0.256198 0.903786
O O2 0.397234 0.633163 0.564493
O O3 0.662928 0.489666 0.950113
O O4 0.724781 0.183662 0.899306
O O5 0.268462 0.341631 0.601580
O O6 0.988658 0.686482 0.400130
O O7 0.047769 0.296207 0.400222
O O8 0.946450 0.695986 0.159909
O O9 0.600106 0.880775 0.930041
O O10 0.500000 0.000000 0.000000
O O11 0.112009 0.882006 0.450792
O O12 0.276726 0.519304 0.797993
O O13 0.000000 0.000000 0.500000
O O14 0.835900 0.909998 0.649123
O O15 0.619411 0.165372 0.251918
O O16 0.202920 0.011809 0.192354
O O17 0.952728 0.085922 0.839080
#
# Coordination Sequence:
#
# PCOD9033528 Si02
#       8
#     2   2   2   2   2   2   2   2
#     4  11  23  42  67  93 129 168 210 257 319 380
#     4  11  22  41  61  91 128 162 214 254 315 377
#     4  11  22  39  62  89 129 169 206 258 303 372
#     4  12  23  36  56  88 130 162 208 260 301 372
#     4  10  23  39  63  85 121 168 207 257 314 376
#     4  11  22  42  71  93 123 170 208 269 326 363
#     4  10  22  44  68  94 126 162 216 268 317 376
#     4  10  23  36  62  87 123 167 209 249 310 374
#
# _framework density 23.013922000000001
#
# number of rings (size 3 to 8) (size 9 to 14) (size 15 to 20)
#    0.000    1.250    3.750    2.250    3.500    2.000 
#    0.000    0.000    0.000    3.000    0.000    0.000 
#    0.000    0.000    0.000    0.000    0.000    0.000 
#
# Total GULP energy -89453.803060 kJ/mol
# GULP energy per Si atom -5590.862691 kJ/mol
# Density = 2.296154 g / cm^3
# Si number density = 23.013922 Si / 1000 Ang^3
#
#
#
# Elastic Constant Matrix: (Units=GPa)
#
#
# Indices 1 2 3 4 5 6 
#
# 1 58.1427 27.0809 40.0143 3.6884 -16.4081 -4.9828
# 2 27.0809 146.8766 58.9224 -13.3445 -19.0022 -2.1498
# 3 40.0143 58.9224 134.5688 4.2552 -27.1634 -14.6606
# 4 3.6884 -13.3445 4.2552 38.3124 -3.2235 -2.7285
# 5 -16.4081 -19.0022 -27.1634 -3.2235 32.7052 9.4584
# 6 -4.9828 -2.1498 -14.6606 -2.7285 9.4584 34.3734
#
#
#
# Elastic Compliance Matrix: (Units=1/GPa)
#
#
# Indices 1 2 3 4 5 6 
#
# 1 0.023256 -0.001634 -0.004873 -0.001757 0.006729 -0.000801
# 2 -0.001634 0.009064 -0.003248 0.003786 0.002543 -0.001454
# 3 -0.004873 -0.003248 0.011511 -0.001385 0.004310 0.002704
# 4 -0.001757 0.003786 -0.001385 0.028031 0.002675 0.000880
# 5 0.006729 0.002543 0.004310 0.002675 0.041667 -0.008281
# 6 -0.000801 -0.001454 0.002704 0.000880 -0.008281 0.032387
#
#
# Mechanical properties :
#
#
# Convention : Reuss Voigt Hill
#
# Bulk Modulus (GPa) = 41.11687 65.73592 53.42640
# Shear Modulus (GPa) = 28.81315 35.31625 32.06470
#
# Velocity S-wave (km/s) = 3.54218 3.92160 3.73671
# Velocity P-wave (km/s) = 5.88509 7.00933 6.47167
#
# Compressibility (1/GPa) = 0.02432092
#
# Stress axis : x y z
#
# Youngs Moduli (GPa) = 43.00054 110.32309 86.87607
#
# Poissons Ratio (x) = 0.18024 0.42336
# Poissons Ratio (y) = 0.07025 0.28217
# Poissons Ratio (z) = 0.20955 0.35832
#
# Static dielectric constant tensor:
#      x y z
#    x 1.903640 -0.061680 0.025850 
#    y -0.061680 1.924990 0.002880 
#    z 0.025850 0.002880 1.838330 
# 
# From -- ./inp_files/462142.got.cif
#   From: 2010.05.17/outbox.cif.g08.bks.cpg/sg2_232_cif.got.tgz:462142.got - 2010.06.03 11:33:40.
