data_PCOD9033268
_publ_section_title
;
Structure prediction by ZEFSAII (Michael W. Deem and Ramdas Pophale) SiO2 
 PCOD9033268
Probable space group: P -1
;
_chemical_formula_sum "Si O2"
_cell_formula_units_Z 11
_cell_length_a 17.142078
_cell_length_b 13.148634
_cell_length_c 5.532282
_cell_angle_alpha 107.828807
_cell_angle_beta 62.087363
_cell_angle_gamma 153.936150
_cell_volume 462.664371
_symmetry_space_group_name_H-M "P -1"
_symmetry_group_IT_number 2
_symmetry_cell_setting 'triclinic'
loop_
_space_group_symop_operation_xyz
x,y,z
-x,-y,-z
loop_
_atom_site_type_symbol
_atom_site_label
_atom_site_fract_x
_atom_site_fract_y
_atom_site_fract_z
Si Si1 0.659184 0.284823 0.143128
Si Si2 0.500000 0.500000 0.000000
Si Si3 0.977518 0.271380 0.409142
Si Si4 0.575075 0.803054 0.340257
Si Si5 0.083493 0.143056 0.232897
Si Si6 0.294605 0.891694 0.025355
O O1 0.625266 0.359610 0.382718
O O2 0.446933 0.044018 0.138836
O O3 0.699578 0.219284 0.182686
O O4 0.840676 0.491324 0.844578
O O5 0.440512 0.338192 0.786099
O O6 0.680275 0.619801 0.935193
O O7 0.917574 0.294635 0.711199
O O8 0.029269 0.208970 0.377441
O O9 0.773675 0.035172 0.381257
O O10 0.618191 0.919563 0.125455
O O11 0.000000 0.000000 0.500000
O O12 0.000000 0.000000 0.000000
#
# Coordination Sequence:
#
# PCOD9033268 Si02
#       6
#     2   1   2   2   2   2
#     4  10  23  42  70 100 139 185 246 301 372 440
#     4  12  26  46  74 102 154 196 246 310 374 442
#     4  11  24  43  68 104 142 185 249 302 375 444
#     4  11  24  42  68 103 143 192 244 302 371 443
#     4  12  28  49  75 109 150 200 254 309 376 454
#     4  10  22  44  67 101 140 188 238 308 369 444
#
# _framework density 23.775334999999998
#
# number of rings (size 3 to 8) (size 9 to 14) (size 15 to 20)
#    0.000    1.091    1.818    3.273    2.545    4.364 
#    0.000    0.000    0.000    0.000    0.000    0.000 
#    0.000    0.000    0.000    0.000    0.000    0.000 
#
# Total GULP energy -61238.598666 kJ/mol
# GULP energy per Si atom -5567.145333 kJ/mol
# Density = 2.372122 g / cm^3
# Si number density = 23.775335 Si / 1000 Ang^3
#
#
#
# Elastic Constant Matrix: (Units=GPa)
#
#
# Indices 1 2 3 4 5 6 
#
# 1 105.1015 2.0913 74.0304 22.5628 -55.9532 10.8386
# 2 2.0913 61.7027 14.8186 7.0923 -17.8479 24.2039
# 3 74.0304 14.8186 105.1436 -35.5455 -39.2666 -25.5585
# 4 22.5628 7.0923 -35.5455 27.9300 6.7674 -1.2531
# 5 -55.9532 -17.8479 -39.2666 6.7674 53.7482 12.2934
# 6 10.8386 24.2039 -25.5585 -1.2531 12.2934 50.4106
#
#
#
# Elastic Compliance Matrix: (Units=1/GPa)
#
#
# Indices 1 2 3 4 5 6 
#
# 1 -0.001276 -0.007703 0.008571 0.014675 -0.001545 0.009060
# 2 -0.007703 0.013899 0.007665 0.012183 0.000903 -0.001048
# 3 0.008571 0.007665 0.004325 -0.007932 0.017404 -0.007772
# 4 0.014675 0.012183 -0.007932 0.005966 0.016651 -0.016939
# 5 -0.001545 0.000903 0.017404 0.016651 0.027350 0.002467
# 6 0.009060 -0.001048 -0.007772 -0.016939 0.002467 0.013430
#
#
# Mechanical properties :
#
#
# Convention : Reuss Voigt Hill
#
# Bulk Modulus (GPa) = 29.39951 50.42539 39.91245
# Shear Modulus (GPa) = 86.26080 38.48492 62.37286
#
# Velocity S-wave (km/s) = 6.02996 4.02766 5.12750
# Velocity P-wave (km/s) = 7.80211 6.54863 7.20269
#
# Compressibility (1/GPa) = 0.03401418
#
# Stress axis : x y z
#
# Youngs Moduli (GPa) = -783.53326 71.94886 231.23392
#
# Poissons Ratio (x) = 0.55419 -1.98185
# Poissons Ratio (y) = -6.03523 -1.77249
# Poissons Ratio (z) = 6.71549 -0.55151
#
# Static dielectric constant tensor:
#      x y z
#    x 1.874540 -0.006750 0.022730 
#    y -0.006750 1.937990 0.051820 
#    z 0.022730 0.051820 2.006990 
# 
# From -- ./inp_files/3892.got.cif
#   From: 2010.05.17/outbox.cif.g08.bks.cpg/sg2_2_cif.got.tgz:3892.got - 2010.06.03 11:33:40.
