data_PCOD9033066
_publ_section_title
;
Structure prediction by ZEFSAII (Michael W. Deem and Ramdas Pophale) SiO2 
 PCOD9033066
Probable space group: P -1
;
_chemical_formula_sum "Si O2"
_cell_formula_units_Z 15
_cell_length_a 15.540594
_cell_length_b 18.888143
_cell_length_c 11.267127
_cell_angle_alpha 44.043865
_cell_angle_beta 149.502721
_cell_angle_gamma 154.208869
_cell_volume 705.509493
_symmetry_space_group_name_H-M "P -1"
_symmetry_group_IT_number 2
_symmetry_cell_setting 'triclinic'
loop_
_space_group_symop_operation_xyz
x,y,z
-x,-y,-z
loop_
_atom_site_type_symbol
_atom_site_label
_atom_site_fract_x
_atom_site_fract_y
_atom_site_fract_z
Si Si1 0.136741 0.360555 0.847088
Si Si2 0.703686 0.499219 0.886307
Si Si3 0.229884 0.042295 0.561601
Si Si4 0.174782 0.602642 0.199967
Si Si5 0.180400 0.227198 0.421798
Si Si6 0.500000 0.000000 0.500000
Si Si7 0.769536 0.955910 0.710255
Si Si8 0.591386 0.405480 0.325504
O O1 0.184880 0.442374 0.682420
O O2 0.306116 0.500352 0.984106
O O3 0.313111 0.340561 0.070169
O O4 0.810169 0.189006 0.692825
O O5 0.435264 0.334137 0.690218
O O6 0.771002 0.645156 0.743417
O O7 0.962678 0.551553 0.100326
O O8 0.564352 0.201054 0.758446
O O9 0.161107 0.123235 0.432873
O O10 0.128430 0.976991 0.384880
O O11 0.093736 0.903467 0.663505
O O12 0.289891 0.552213 0.452282
O O13 0.000000 0.500000 0.000000
O O14 0.675004 0.010720 0.601185
O O15 0.503807 0.753324 0.629523
O O16 0.000000 0.000000 0.000000
#
# Coordination Sequence:
#
# PCOD9033066 Si02
#       8
#     2   2   2   2   2   1   2   2
#     4  11  24  45  70 102 133 180 231 281 339 420
#     4  11  23  40  67  94 135 170 230 274 337 408
#     4  10  22  44  65  94 135 170 230 276 347 393
#     4  11  22  42  63  95 135 177 212 282 335 400
#     4  10  23  41  68  98 126 184 224 281 339 410
#     4  12  26  44  68 106 132 180 236 268 356 408
#     4  11  23  43  70  99 140 177 221 296 341 404
#     4  10  24  45  69  95 141 179 222 282 352 399
#
# _framework density 21.261230000000001
#
# number of rings (size 3 to 8) (size 9 to 14) (size 15 to 20)
#    0.000    1.333    2.667    3.200    3.733    2.667 
#    2.400    0.000    0.000    0.000    0.000    0.000 
#    0.000    0.000    0.000    0.000    0.000    0.000 
#
# Total GULP energy -83510.006357 kJ/mol
# GULP energy per Si atom -5567.333757 kJ/mol
# Density = 2.121284 g / cm^3
# Si number density = 21.261230 Si / 1000 Ang^3
#
#
#
# Elastic Constant Matrix: (Units=GPa)
#
#
# Indices 1 2 3 4 5 6 
#
# 1 122.8345 18.7380 24.3763 -4.7877 -4.0988 -9.2836
# 2 18.7380 28.3238 13.1816 0.2391 -1.0496 8.9139
# 3 24.3763 13.1816 79.4486 15.6068 -13.3735 18.0893
# 4 -4.7877 0.2391 15.6068 22.3999 -1.1526 6.4691
# 5 -4.0988 -1.0496 -13.3735 -1.1526 32.3080 0.6894
# 6 -9.2836 8.9139 18.0893 6.4691 0.6894 33.0374
#
#
#
# Elastic Compliance Matrix: (Units=1/GPa)
#
#
# Indices 1 2 3 4 5 6 
#
# 1 0.010742 -0.007215 -0.004438 0.003484 -0.000728 0.006728
# 2 -0.007215 0.045728 -0.003162 0.004032 -0.000309 -0.013417
# 3 -0.004438 -0.003162 0.020179 -0.011914 0.007460 -0.009265
# 4 0.003484 0.004032 -0.011914 0.054757 -0.002314 -0.004259
# 5 -0.000728 -0.000309 0.007460 -0.002314 0.033950 -0.004461
# 6 0.006728 -0.013417 -0.009265 -0.004259 -0.004461 0.041780
#
#
# Mechanical properties :
#
#
# Convention : Reuss Voigt Hill
#
# Bulk Modulus (GPa) = 21.26818 38.13318 29.70068
# Shear Modulus (GPa) = 19.80678 29.16979 24.48829
#
# Velocity S-wave (km/s) = 3.05551 3.70803 3.39747
# Velocity P-wave (km/s) = 4.74059 6.02554 5.42127
#
# Compressibility (1/GPa) = 0.04701861
#
# Stress axis : x y z
#
# Youngs Moduli (GPa) = 93.08903 21.86840 49.55742
#
# Poissons Ratio (x) = 0.15779 0.21992
# Poissons Ratio (y) = 0.67167 0.15671
# Poissons Ratio (z) = 0.41311 0.06915
#
# Static dielectric constant tensor:
#      x y z
#    x 1.811890 -0.035950 -0.038360 
#    y -0.035950 1.771940 -0.008350 
#    z -0.038360 -0.008350 1.754340 
# 
# From -- ./inp_files/202850.got.cif
#   From: 2010.05.17/outbox.cif.g08.bks.cpg/sg2_102_cif.got.tgz:202850.got - 2010.06.03 11:33:40.
