data_PCOD9033880
_publ_section_title
;
Structure prediction by ZEFSAII (Michael W. Deem and Ramdas Pophale) SiO2 
 PCOD9033880
Probable space group: P -1
;
_chemical_formula_sum "Si O2"
_cell_formula_units_Z 12
_cell_length_a 15.026339
_cell_length_b 6.143840
_cell_length_c 11.923678
_cell_angle_alpha 80.934073
_cell_angle_beta 150.518890
_cell_angle_gamma 87.074972
_cell_volume 493.229628
_symmetry_space_group_name_H-M "P -1"
_symmetry_group_IT_number 2
_symmetry_cell_setting 'triclinic'
loop_
_space_group_symop_operation_xyz
x,y,z
-x,-y,-z
loop_
_atom_site_type_symbol
_atom_site_label
_atom_site_fract_x
_atom_site_fract_y
_atom_site_fract_z
Si Si1 0.022266 0.362331 0.700701
Si Si2 0.349285 0.773591 0.295739
Si Si3 0.007779 0.616651 0.879912
Si Si4 0.846262 0.875376 0.349199
Si Si5 0.626965 0.276434 0.233811
Si Si6 0.602472 0.017820 0.433303
O O1 0.949882 0.624846 0.545134
O O2 0.831030 0.296404 0.492357
O O3 0.079780 0.404547 0.885092
O O4 0.180210 0.186044 0.803050
O O5 0.500000 0.500000 0.500000
O O6 0.448499 0.907511 0.313686
O O7 0.322532 0.897717 0.377910
O O8 0.152612 0.756655 0.033506
O O9 0.788700 0.804504 0.600457
O O10 0.000000 0.500000 0.000000
O O11 0.673660 0.051988 0.220285
O O12 0.000000 0.000000 0.500000
O O13 0.536884 0.232294 0.254593
O O14 0.500000 0.500000 0.000000
#
# Coordination Sequence:
#
# PCOD9033880 Si02
#       6
#     2   2   2   2   2   2
#     4  10  22  44  70 105 142 187 253 301 367 448
#     4  11  25  48  72 114 147 190 247 304 381 445
#     4  12  23  46  79 105 147 195 233 309 382 438
#     4   9  20  45  67  99 140 182 249 301 356 432
#     4  11  24  46  71 104 147 202 248 305 369 434
#     4  11  25  49  71 108 152 189 251 306 363 461
#
# _framework density 24.329438
#
# number of rings (size 3 to 8) (size 9 to 14) (size 15 to 20)
#    0.000    1.333    3.333    1.500    0.000    0.667 
#   12.000    0.000    0.000    0.000    0.000    0.000 
#    0.000    0.000    0.000    0.000    0.000    0.000 
#
# Total GULP energy -67226.420807 kJ/mol
# GULP energy per Si atom -5602.201734 kJ/mol
# Density = 2.427406 g / cm^3
# Si number density = 24.329438 Si / 1000 Ang^3
#
#
#
# Elastic Constant Matrix: (Units=GPa)
#
#
# Indices 1 2 3 4 5 6 
#
# 1 167.7833 69.4818 50.1504 23.7402 -34.9764 -3.7699
# 2 69.4818 123.9344 34.0999 23.0283 -12.1659 -6.6092
# 3 50.1504 34.0999 82.3388 23.8312 -12.4766 11.7035
# 4 23.7402 23.0283 23.8312 58.9112 10.7848 3.1864
# 5 -34.9764 -12.1659 -12.4766 10.7848 36.1704 3.9247
# 6 -3.7699 -6.6092 11.7035 3.1864 3.9247 57.9842
#
#
#
# Elastic Compliance Matrix: (Units=1/GPa)
#
#
# Indices 1 2 3 4 5 6 
#
# 1 0.010701 -0.003701 -0.002629 -0.003507 0.009201 0.000374
# 2 -0.003701 0.011166 -0.001971 -0.002154 -0.000029 0.001550
# 3 -0.002629 -0.001971 0.017647 -0.006029 0.005110 -0.003972
# 4 -0.003507 -0.002154 -0.006029 0.024108 -0.013419 0.000327
# 5 0.009201 -0.000029 0.005110 -0.013419 0.042579 -0.002581
# 6 0.000374 0.001550 -0.003972 0.000327 -0.002581 0.018406
#
#
# Mechanical properties :
#
#
# Convention : Reuss Voigt Hill
#
# Bulk Modulus (GPa) = 43.64728 75.72451 59.68589
# Shear Modulus (GPa) = 33.59151 45.30146 39.44648
#
# Velocity S-wave (km/s) = 3.71980 4.31977 4.03096
# Velocity P-wave (km/s) = 6.03558 7.48818 6.80077
#
# Compressibility (1/GPa) = 0.02291094
#
# Stress axis : x y z
#
# Youngs Moduli (GPa) = 93.44532 89.55417 56.66817
#
# Poissons Ratio (x) = 0.33148 0.14898
# Poissons Ratio (y) = 0.34588 0.11171
# Poissons Ratio (z) = 0.24567 0.17654
#
# Static dielectric constant tensor:
#      x y z
#    x 1.943180 -0.029270 -0.002830 
#    y -0.029270 1.918270 -0.014790 
#    z -0.002830 -0.014790 1.981440 
# 
# From -- ./inp_files/92326.got.cif
#   From: 2010.05.17/outbox.cif.g08.bks.cpg/sg2_47_cif.got.tgz:92326.got - 2010.06.03 11:33:40.
