data_PCOD9033840
_publ_section_title
;
Structure prediction by ZEFSAII (Michael W. Deem and Ramdas Pophale) SiO2 
 PCOD9033840
Probable space group: P -1
;
_chemical_formula_sum "Si O2"
_cell_formula_units_Z 16
_cell_length_a 18.913029
_cell_length_b 5.379554
_cell_length_c 8.336742
_cell_angle_alpha 100.549841
_cell_angle_beta 97.970815
_cell_angle_gamma 52.697798
_cell_volume 662.887422
_symmetry_space_group_name_H-M "P -1"
_symmetry_group_IT_number 2
_symmetry_cell_setting 'triclinic'
loop_
_space_group_symop_operation_xyz
x,y,z
-x,-y,-z
loop_
_atom_site_type_symbol
_atom_site_label
_atom_site_fract_x
_atom_site_fract_y
_atom_site_fract_z
Si Si1 0.005934 0.158161 0.677669
Si Si2 0.504716 0.768101 0.111271
Si Si3 0.165521 0.558823 0.815272
Si Si4 0.845342 0.865144 0.427069
Si Si5 0.100712 0.361697 0.057537
Si Si6 0.775740 0.160708 0.759982
Si Si7 0.331413 0.143760 0.322210
Si Si8 0.684863 0.534494 0.309435
O O1 0.061525 0.280815 0.646810
O O2 0.915536 0.420585 0.768784
O O3 0.074179 0.899671 0.798263
O O4 0.000000 0.000000 0.500000
O O5 0.595612 0.602950 0.221308
O O6 0.424553 0.953146 0.235742
O O7 0.500000 0.500000 0.000000
O O8 0.500000 0.000000 0.000000
O O9 0.169840 0.397164 0.626490
O O10 0.264457 0.457274 0.828205
O O11 0.149297 0.406511 0.937776
O O12 0.845250 0.974798 0.615503
O O13 0.761128 0.179911 0.354563
O O14 0.163452 0.996656 0.083371
O O15 0.000000 0.500000 0.000000
O O16 0.727056 0.524195 0.752746
O O17 0.710712 0.050828 0.719628
O O18 0.337398 0.235835 0.518634
#
# Coordination Sequence:
#
# PCOD9033840 Si02
#       8
#     2   2   2   2   2   2   2   2
#     4  11  25  42  69  98 137 193 253 307 352 432
#     4  12  29  49  76 117 154 187 234 299 375 448
#     4  11  23  44  69 100 144 190 246 301 376 423
#     4  10  22  44  70 102 139 190 249 304 361 421
#     4  12  27  43  65 104 148 195 242 306 372 427
#     4  11  26  45  75 108 146 191 251 303 358 435
#     4  11  25  51  78 110 141 196 246 298 363 434
#     4  10  25  47  77 105 145 193 245 300 364 447
#
# _framework density 24.136828999999999
#
# number of rings (size 3 to 8) (size 9 to 14) (size 15 to 20)
#    0.000    1.000    2.500    2.250    8.750    3.000 
#    0.000    3.125    0.000    0.000    0.000    0.000 
#    0.000    0.000    0.000    0.000    0.000    0.000 
#
# Total GULP energy -89504.323180 kJ/mol
# GULP energy per Si atom -5594.020199 kJ/mol
# Density = 2.408189 g / cm^3
# Si number density = 24.136829 Si / 1000 Ang^3
#
#
#
# Elastic Constant Matrix: (Units=GPa)
#
#
# Indices 1 2 3 4 5 6 
#
# 1 129.3437 49.8681 55.5508 -0.8508 -8.0660 -13.0827
# 2 49.8681 88.5848 42.4222 6.6821 -9.9656 -7.9495
# 3 55.5508 42.4222 127.5552 2.6835 -5.7647 -17.0520
# 4 -0.8508 6.6821 2.6835 51.1058 -3.9737 -7.2926
# 5 -8.0660 -9.9656 -5.7647 -3.9737 53.4171 5.1438
# 6 -13.0827 -7.9495 -17.0520 -7.2926 5.1438 35.6504
#
#
#
# Elastic Compliance Matrix: (Units=1/GPa)
#
#
# Indices 1 2 3 4 5 6 
#
# 1 0.011038 -0.004652 -0.003033 0.001233 0.000394 0.001758
# 2 -0.004652 0.015717 -0.003126 -0.001878 0.001785 -0.000340
# 3 -0.003033 -0.003126 0.010635 0.000264 -0.000197 0.003359
# 4 0.001233 -0.001878 0.000264 0.020497 0.000984 0.004211
# 5 0.000394 0.001785 -0.000197 0.000984 0.019372 -0.002146
# 6 0.001758 -0.000340 0.003359 0.004211 -0.002146 0.031397
#
#
# Mechanical properties :
#
#
# Convention : Reuss Voigt Hill
#
# Bulk Modulus (GPa) = 63.42445 71.24065 67.33255
# Shear Modulus (GPa) = 36.89116 41.21084 39.05100
#
# Velocity S-wave (km/s) = 3.91374 4.13653 4.02668
# Velocity P-wave (km/s) = 6.83793 7.23837 7.04099
#
# Compressibility (1/GPa) = 0.01576679
#
# Stress axis : x y z
#
# Youngs Moduli (GPa) = 90.59513 63.62669 94.02977
#
# Poissons Ratio (x) = 0.29601 0.28519
# Poissons Ratio (y) = 0.42147 0.29395
# Poissons Ratio (z) = 0.27478 0.19891
#
# Static dielectric constant tensor:
#      x y z
#    x 1.961780 0.061750 0.045900 
#    y 0.061750 1.943680 0.003760 
#    z 0.045900 0.003760 2.005360 
# 
# From -- ./inp_files/323892.got.cif
#   From: 2010.05.17/outbox.cif.g08.bks.cpg/sg2_162_cif.got.tgz:323892.got - 2010.06.03 11:33:40.
