data_PCOD9033688
_publ_section_title
;
Structure prediction by ZEFSAII (Michael W. Deem and Ramdas Pophale) SiO2 
 PCOD9033688
Probable space group: P -1
;
_chemical_formula_sum "Si O2"
_cell_formula_units_Z 14
_cell_length_a 14.003497
_cell_length_b 11.790335
_cell_length_c 6.255400
_cell_angle_alpha 56.901137
_cell_angle_beta 90.694379
_cell_angle_gamma 53.330533
_cell_volume 599.643902
_symmetry_space_group_name_H-M "P -1"
_symmetry_group_IT_number 2
_symmetry_cell_setting 'triclinic'
loop_
_space_group_symop_operation_xyz
x,y,z
-x,-y,-z
loop_
_atom_site_type_symbol
_atom_site_label
_atom_site_fract_x
_atom_site_fract_y
_atom_site_fract_z
Si Si1 0.852365 0.154903 0.216915
Si Si2 0.107118 0.668112 0.295094
Si Si3 0.940612 0.538756 0.715440
Si Si4 0.814635 0.931771 0.230127
Si Si5 0.369626 0.259201 0.930779
Si Si6 0.422831 0.436991 0.073722
Si Si7 0.587229 0.083805 0.753893
O O1 0.788907 0.069862 0.266884
O O2 0.862151 0.216596 0.920009
O O3 0.738047 0.360520 0.121416
O O4 0.000000 0.000000 0.500000
O O5 0.086886 0.591781 0.166751
O O6 0.225019 0.470107 0.633440
O O7 0.968976 0.810251 0.283077
O O8 0.817792 0.772869 0.469569
O O9 0.000000 0.500000 0.500000
O O10 0.000000 0.500000 0.000000
O O11 0.713220 0.031813 0.924677
O O12 0.475604 0.152230 0.851953
O O13 0.432010 0.309051 0.033278
O O14 0.359608 0.111277 0.154386
O O15 0.498351 0.284396 0.423287
O O16 0.500000 0.500000 0.000000
#
# Coordination Sequence:
#
# PCOD9033688 Si02
#       7
#     2   2   2   2   2   2   2
#     4  12  26  44  67 104 144 188 235 302 367 444
#     4  11  23  45  70 105 140 189 240 305 370 435
#     4  10  22  44  69 106 146 192 247 308 372 441
#     4  11  24  43  71 105 142 189 243 299 370 445
#     4  11  24  48  72 103 139 185 242 297 372 434
#     4  12  28  46  72 105 142 192 236 300 377 450
#     4  11  25  48  71 103 141 185 242 295 373 438
#
# _framework density 23.347189
#
# number of rings (size 3 to 8) (size 9 to 14) (size 15 to 20)
#    0.000    0.857    2.857    3.429    4.000    2.286 
#    5.143    0.000    0.000    0.000    0.000    0.000 
#    0.000    0.000    0.000    0.000    0.000    0.000 
#
# Total GULP energy -78009.978248 kJ/mol
# GULP energy per Si atom -5572.141303 kJ/mol
# Density = 2.329405 g / cm^3
# Si number density = 23.347189 Si / 1000 Ang^3
#
#
#
# Elastic Constant Matrix: (Units=GPa)
#
#
# Indices 1 2 3 4 5 6 
#
# 1 80.1917 24.7715 38.0151 -8.3337 6.2406 14.7723
# 2 24.7715 86.8326 29.1606 -23.6887 -9.4109 23.7111
# 3 38.0151 29.1606 115.2230 -30.9201 -8.1426 13.1930
# 4 -8.3337 -23.6887 -30.9201 36.0536 3.7647 3.0015
# 5 6.2406 -9.4109 -8.1426 3.7647 29.1021 -3.5059
# 6 14.7723 23.7111 13.1930 3.0015 -3.5059 52.2075
#
#
#
# Elastic Compliance Matrix: (Units=1/GPa)
#
#
# Indices 1 2 3 4 5 6 
#
# 1 0.016826 -0.003790 -0.005481 -0.002485 -0.006279 -0.001933
# 2 -0.003790 0.018192 0.001155 0.012256 0.004483 -0.007885
# 3 -0.005481 0.001155 0.013773 0.011164 0.003615 -0.002853
# 4 -0.002485 0.012256 0.011164 0.045593 0.000484 -0.010273
# 5 -0.006279 0.004483 0.003615 0.000484 0.038272 0.001369
# 6 -0.001933 -0.007885 -0.002853 -0.010273 0.001369 0.024686
#
#
# Mechanical properties :
#
#
# Convention : Reuss Voigt Hill
#
# Bulk Modulus (GPa) = 30.71410 51.79350 41.25380
# Shear Modulus (GPa) = 27.11087 36.15931 31.63509
#
# Velocity S-wave (km/s) = 3.41134 3.93970 3.68501
# Velocity P-wave (km/s) = 5.35726 6.55189 5.98446
#
# Compressibility (1/GPa) = 0.03255834
#
# Stress axis : x y z
#
# Youngs Moduli (GPa) = 59.43271 54.96793 72.60640
#
# Poissons Ratio (x) = 0.20832 0.39798
# Poissons Ratio (y) = 0.22524 -0.08385
# Poissons Ratio (z) = 0.32577 -0.06348
#
# Static dielectric constant tensor:
#      x y z
#    x 2.067900 0.223560 0.171110 
#    y 0.223560 2.223380 0.287790 
#    z 0.171110 0.287790 1.972300 
# 
# From -- ./inp_files/94416.got.cif
#   From: 2010.05.17/outbox.cif.g08.bks.cpg/sg2_48_cif.got.tgz:94416.got - 2010.06.03 11:33:40.
