data_PCOD9033121
_publ_section_title
;
Structure prediction by ZEFSAII (Michael W. Deem and Ramdas Pophale) SiO2 
 PCOD9033121
Probable space group: P -1
;
_chemical_formula_sum "Si O2"
_cell_formula_units_Z 14
_cell_length_a 9.362263
_cell_length_b 14.400755
_cell_length_c 17.706983
_cell_angle_alpha 162.032563
_cell_angle_beta 130.874461
_cell_angle_gamma 48.740946
_cell_volume 549.808812
_symmetry_space_group_name_H-M "P -1"
_symmetry_group_IT_number 2
_symmetry_cell_setting 'triclinic'
loop_
_space_group_symop_operation_xyz
x,y,z
-x,-y,-z
loop_
_atom_site_type_symbol
_atom_site_label
_atom_site_fract_x
_atom_site_fract_y
_atom_site_fract_z
Si Si1 0.606866 0.061853 0.509103
Si Si2 0.532418 0.255281 0.892576
Si Si3 0.444108 0.527698 0.589884
Si Si4 0.111805 0.479941 0.752253
Si Si5 0.933196 0.679810 0.695518
Si Si6 0.215421 0.347081 0.968748
Si Si7 0.771829 0.815340 0.988588
O O1 0.438272 0.048344 0.379930
O O2 0.804090 0.822258 0.405119
O O3 0.500000 0.000000 0.500000
O O4 0.670132 0.378860 0.764061
O O5 0.500000 0.500000 0.000000
O O6 0.704152 0.356139 0.074180
O O7 0.335315 0.219162 0.838271
O O8 0.500000 0.500000 0.500000
O O9 0.298710 0.286211 0.363076
O O10 0.640410 0.556814 0.723509
O O11 0.320459 0.858021 0.822767
O O12 0.003408 0.454358 0.616322
O O13 0.973721 0.697461 0.928920
O O14 0.000000 0.500000 0.500000
O O15 0.000000 0.000000 0.000000
O O16 0.222175 0.144286 0.888156
O O17 0.000000 0.500000 0.000000
#
# Coordination Sequence:
#
# PCOD9033121 Si02
#       7
#     2   2   2   2   2   2   2
#     4  11  24  44  71 103 150 198 241 305 388 451
#     4  10  22  44  66 100 147 187 244 303 372 446
#     4  11  26  52  76 103 157 198 252 320 399 453
#     4  11  24  47  74 107 148 199 241 320 389 450
#     4  12  29  49  79 118 149 202 269 326 386 471
#     4  12  26  42  73 111 144 192 255 305 369 467
#     4  11  27  47  75 109 152 203 254 320 391 461
#
# _framework density 25.463398000000002
#
# number of rings (size 3 to 8) (size 9 to 14) (size 15 to 20)
#    0.000    0.857    4.286    2.571    6.000    5.714 
#    0.000    0.000    0.000    0.000    0.000    0.000 
#    0.000    0.000    0.000    0.000    0.000    0.000 
#
# Total GULP energy -78076.232008 kJ/mol
# GULP energy per Si atom -5576.873715 kJ/mol
# Density = 2.540544 g / cm^3
# Si number density = 25.463398 Si / 1000 Ang^3
#
#
#
# Elastic Constant Matrix: (Units=GPa)
#
#
# Indices 1 2 3 4 5 6 
#
# 1 151.3775 14.5416 5.2672 -5.3256 -10.4072 -4.1798
# 2 14.5416 82.5314 -5.0383 -13.8748 -6.0431 10.9050
# 3 5.2672 -5.0383 94.8049 -5.3269 15.3756 0.6614
# 4 -5.3256 -13.8748 -5.3269 43.9144 -4.8721 -5.6144
# 5 -10.4072 -6.0431 15.3756 -4.8721 47.5824 -7.2956
# 6 -4.1798 10.9050 0.6614 -5.6144 -7.2956 43.2492
#
#
#
# Elastic Compliance Matrix: (Units=1/GPa)
#
#
# Indices 1 2 3 4 5 6 
#
# 1 0.006941 -0.001184 -0.000722 0.000769 0.001895 0.001400
# 2 -0.001184 0.013505 0.000839 0.003994 0.001162 -0.002818
# 3 -0.000722 0.000839 0.011304 0.001011 -0.003747 -0.000955
# 4 0.000769 0.003994 0.001011 0.024986 0.003346 0.002860
# 5 0.001895 0.001162 -0.003747 0.003346 0.023806 0.004397
# 6 0.001400 -0.002818 -0.000955 0.002860 0.004397 0.025095
#
#
# Mechanical properties :
#
#
# Convention : Reuss Voigt Hill
#
# Bulk Modulus (GPa) = 33.76597 39.80610 36.78604
# Shear Modulus (GPa) = 42.50130 47.87874 45.19002
#
# Velocity S-wave (km/s) = 4.08991 4.34094 4.21730
# Velocity P-wave (km/s) = 5.96595 6.38683 6.17998
#
# Compressibility (1/GPa) = 0.02961561
#
# Stress axis : x y z
#
# Youngs Moduli (GPa) = 144.07494 74.04504 88.46524
#
# Poissons Ratio (x) = 0.08767 0.06390
# Poissons Ratio (y) = 0.17058 -0.07423
# Poissons Ratio (z) = 0.10407 -0.06213
#
# Static dielectric constant tensor:
#      x y z
#    x 1.786750 0.607830 -0.083380 
#    y 0.607830 7.427860 -1.149190 
#    z -0.083380 -1.149190 2.434860 
# 
# From -- ./inp_files/561473.got.cif
#   From: 2010.05.17/outbox.cif.g08.bks.cpg/sg2_281_cif.got.tgz:561473.got - 2010.06.03 11:33:40.
