data_PCOD9033429
_publ_section_title
;
Structure prediction by ZEFSAII (Michael W. Deem and Ramdas Pophale) SiO2 
 PCOD9033429
Probable space group: P -1
;
_chemical_formula_sum "Si O2"
_cell_formula_units_Z 16
_cell_length_a 13.257758
_cell_length_b 11.482536
_cell_length_c 9.008448
_cell_angle_alpha 85.225273
_cell_angle_beta 33.638267
_cell_angle_gamma 72.649684
_cell_volume 688.879091
_symmetry_space_group_name_H-M "P -1"
_symmetry_group_IT_number 2
_symmetry_cell_setting 'triclinic'
loop_
_space_group_symop_operation_xyz
x,y,z
-x,-y,-z
loop_
_atom_site_type_symbol
_atom_site_label
_atom_site_fract_x
_atom_site_fract_y
_atom_site_fract_z
Si Si1 0.691006 0.422968 0.670787
Si Si2 0.189515 0.804271 0.243038
Si Si3 0.197561 0.979504 0.426822
Si Si4 0.925043 0.925029 0.984189
Si Si5 0.001871 0.533382 0.319869
Si Si6 0.799685 0.804263 0.395871
Si Si7 0.580815 0.183387 0.307527
Si Si8 0.537685 0.599608 0.334689
O O1 0.813228 0.307924 0.643160
O O2 0.600342 0.386249 0.640917
O O3 0.836133 0.492608 0.451396
O O4 0.500000 0.500000 0.000000
O O5 0.966025 0.906058 0.477972
O O6 0.314923 0.871946 0.172816
O O7 0.284082 0.769676 0.967912
O O8 0.269492 0.058247 0.446900
O O9 0.076103 0.908948 0.667953
O O10 0.706453 0.030428 0.193803
O O11 0.923599 0.809541 0.095587
O O12 0.000000 0.000000 0.000000
O O13 0.000000 0.500000 0.500000
O O14 0.923219 0.684579 0.362296
O O15 0.228055 0.457447 0.991488
O O16 0.612969 0.790421 0.553577
O O17 0.527625 0.264944 0.514383
O O18 0.500000 0.500000 0.500000
#
# Coordination Sequence:
#
# PCOD9033429 Si02
#       8
#     2   2   2   2   2   2   2   2
#     4  12  25  47  76 102 146 193 240 303 361 428
#     4  10  22  44  68 100 138 182 240 291 355 439
#     4   9  21  40  71  99 128 187 233 289 361 422
#     4   9  21  40  67  98 136 184 231 290 358 425
#     4  12  27  48  74 111 145 191 249 302 363 432
#     4  11  23  42  71 100 145 178 236 304 356 427
#     4  11  25  44  67 106 146 180 239 298 364 434
#     4  12  29  45  73 106 148 196 242 299 366 432
#
# _framework density 23.226139
#
# number of rings (size 3 to 8) (size 9 to 14) (size 15 to 20)
#    0.000    1.250    1.250    3.375    8.750    3.500 
#    0.000    3.750    0.000    0.000    0.000    0.000 
#    0.000    0.000    0.000    0.000    0.000    0.000 
#
# Total GULP energy -89380.441072 kJ/mol
# GULP energy per Si atom -5586.277567 kJ/mol
# Density = 2.317328 g / cm^3
# Si number density = 23.226139 Si / 1000 Ang^3
#
#
#
# Elastic Constant Matrix: (Units=GPa)
#
#
# Indices 1 2 3 4 5 6 
#
# 1 120.3790 26.1823 34.7973 -0.2378 7.3409 4.5097
# 2 26.1823 94.2976 37.9815 -20.0630 4.9522 -11.8348
# 3 34.7973 37.9815 110.6224 -6.4207 8.1468 6.5994
# 4 -0.2378 -20.0630 -6.4207 29.9591 4.0176 13.1365
# 5 7.3409 4.9522 8.1468 4.0176 39.7409 -5.5200
# 6 4.5097 -11.8348 6.5994 13.1365 -5.5200 48.7407
#
#
#
# Elastic Compliance Matrix: (Units=1/GPa)
#
#
# Indices 1 2 3 4 5 6 
#
# 1 0.009491 -0.002062 -0.002224 -0.001271 -0.001030 -0.000852
# 2 -0.002062 0.014886 -0.003999 0.008410 -0.001235 0.001940
# 3 -0.002224 -0.003999 0.011508 0.001309 -0.001985 -0.002901
# 4 -0.001271 0.008410 0.001309 0.045052 -0.007160 -0.010971
# 5 -0.001030 -0.001235 -0.001985 -0.007160 0.027345 0.005091
# 6 -0.000852 0.001940 -0.002901 -0.010971 0.005091 0.024993
#
#
# Mechanical properties :
#
#
# Convention : Reuss Voigt Hill
#
# Bulk Modulus (GPa) = 51.77882 58.13571 54.95727
# Shear Modulus (GPa) = 31.99322 38.77735 35.38528
#
# Velocity S-wave (km/s) = 3.71545 4.09045 3.90745
# Velocity P-wave (km/s) = 6.38340 6.88431 6.63858
#
# Compressibility (1/GPa) = 0.01931291
#
# Stress axis : x y z
#
# Youngs Moduli (GPa) = 105.36414 67.17826 86.89873
#
# Poissons Ratio (x) = 0.13855 0.19330
# Poissons Ratio (y) = 0.21731 0.34749
# Poissons Ratio (z) = 0.23437 0.26863
#
# Static dielectric constant tensor:
#      x y z
#    x 1.893850 0.057290 0.011940 
#    y 0.057290 1.852810 -0.063110 
#    z 0.011940 -0.063110 3.376920 
# 
# From -- ./inp_files/307235.got.cif
#   From: 2010.05.17/outbox.cif.g08.bks.cpg/sg2_154_cif.got.tgz:307235.got - 2010.06.03 11:33:40.
