data_PCOD9033514
_publ_section_title
;
Structure prediction by ZEFSAII (Michael W. Deem and Ramdas Pophale) SiO2 
 PCOD9033514
Probable space group: P -1
;
_chemical_formula_sum "Si O2"
_cell_formula_units_Z 16
_cell_length_a 8.932964
_cell_length_b 11.966701
_cell_length_c 16.982056
_cell_angle_alpha 139.866144
_cell_angle_beta 135.266260
_cell_angle_gamma 71.426497
_cell_volume 715.542774
_symmetry_space_group_name_H-M "P -1"
_symmetry_group_IT_number 2
_symmetry_cell_setting 'triclinic'
loop_
_space_group_symop_operation_xyz
x,y,z
-x,-y,-z
loop_
_atom_site_type_symbol
_atom_site_label
_atom_site_fract_x
_atom_site_fract_y
_atom_site_fract_z
Si Si1 0.544825 0.287233 0.376477
Si Si2 0.629084 0.387696 0.152665
Si Si3 0.950272 0.255072 0.589747
Si Si4 0.385111 0.994449 0.037221
Si Si5 0.902022 0.940173 0.800065
Si Si6 0.631161 0.564108 0.415197
Si Si7 0.875962 0.873946 0.269413
Si Si8 0.332730 0.070183 0.433834
O O1 0.756201 0.331856 0.542961
O O2 0.715410 0.844141 0.749734
O O3 0.547432 0.452571 0.407708
O O4 0.585029 0.148377 0.253914
O O5 0.632280 0.435502 0.272883
O O6 0.808671 0.592628 0.286882
O O7 0.723962 0.229019 0.092071
O O8 0.359420 0.272074 0.949969
O O9 0.036675 0.246884 0.706012
O O10 0.837150 0.027145 0.392929
O O11 0.180819 0.060864 0.991190
O O12 0.500000 0.000000 0.000000
O O13 0.886878 0.757848 0.642147
O O14 0.789553 0.037768 0.752736
O O15 0.517051 0.695452 0.407651
O O16 0.103670 0.013933 0.374263
O O17 0.500000 0.000000 0.500000
#
# Coordination Sequence:
#
# PCOD9033514 Si02
#       8
#     2   2   2   2   2   2   2   2
#     4  12  23  43  68 103 142 179 227 284 354 402
#     4  12  23  43  67 108 135 178 239 280 342 413
#     4  11  24  41  71  97 139 183 227 286 346 403
#     4  12  24  39  69 103 140 182 226 279 344 411
#     4  10  24  42  64  99 139 183 223 283 341 413
#     4  10  24  38  72  94 139 176 226 285 344 405
#     4  11  23  44  68  99 136 182 234 287 336 407
#     4  10  22  44  68  92 129 183 230 275 350 405
#
# _framework density 22.360647
#
# number of rings (size 3 to 8) (size 9 to 14) (size 15 to 20)
#    0.750    0.250    3.750    3.375    1.750    1.000 
#    0.000    0.625    0.000    0.000    0.000    0.000 
#    0.000    0.000    0.000    0.000    0.000    0.000 
#
# Total GULP energy -89148.105906 kJ/mol
# GULP energy per Si atom -5571.756619 kJ/mol
# Density = 2.230975 g / cm^3
# Si number density = 22.360647 Si / 1000 Ang^3
#
#
#
# Elastic Constant Matrix: (Units=GPa)
#
#
# Indices 1 2 3 4 5 6 
#
# 1 70.9985 24.8399 7.0521 -13.8001 12.3338 24.3477
# 2 24.8399 161.9427 17.5318 -22.1426 14.1377 20.2076
# 3 7.0521 17.5318 65.0726 -18.4556 1.7917 -2.1775
# 4 -13.8001 -22.1426 -18.4556 39.1130 -0.6432 -1.3046
# 5 12.3338 14.1377 1.7917 -0.6432 32.6949 1.4898
# 6 24.3477 20.2076 -2.1775 -1.3046 1.4898 37.7759
#
#
#
# Elastic Compliance Matrix: (Units=1/GPa)
#
#
# Indices 1 2 3 4 5 6 
#
# 1 0.021221 0.000001 -0.000667 0.006614 -0.007238 -0.013203
# 2 0.000001 0.007515 -0.001057 0.003580 -0.002947 -0.003842
# 3 -0.000667 -0.001057 0.018002 0.007734 -0.000231 0.002309
# 4 0.006614 0.003580 0.007734 0.033369 -0.003608 -0.004437
# 5 -0.007238 -0.002947 -0.000231 -0.003608 0.034315 0.004750
# 6 -0.013203 -0.003842 0.002309 -0.004437 0.004750 0.036829
#
#
# Mechanical properties :
#
#
# Convention : Reuss Voigt Hill
#
# Bulk Modulus (GPa) = 23.09895 44.09571 33.59733
# Shear Modulus (GPa) = 29.56334 38.48942 34.02638
#
# Velocity S-wave (km/s) = 3.64003 4.15336 3.90514
# Velocity P-wave (km/s) = 5.29330 6.53938 5.94906
#
# Compressibility (1/GPa) = 0.04329202
#
# Stress axis : x y z
#
# Youngs Moduli (GPa) = 47.12258 133.05980 55.55090
#
# Poissons Ratio (x) = -0.00010 0.03704
# Poissons Ratio (y) = -0.00004 0.05872
# Poissons Ratio (z) = 0.03142 0.14066
#
# Static dielectric constant tensor:
#      x y z
#    x 1.855370 -0.029850 -0.060320 
#    y -0.029850 1.919160 0.007260 
#    z -0.060320 0.007260 1.856370 
# 
# From -- ./inp_files/594990.got.cif
#   From: 2010.05.17/outbox.cif.g08.bks.cpg/sg2_298_cif.got.tgz:594990.got - 2010.06.03 11:33:40.
