data_PCOD9033808
_publ_section_title
;
Structure prediction by ZEFSAII (Michael W. Deem and Ramdas Pophale) SiO2 
 PCOD9033808
Probable space group: P -1
;
_chemical_formula_sum "Si O2"
_cell_formula_units_Z 16
_cell_length_a 6.365832
_cell_length_b 11.866505
_cell_length_c 27.667491
_cell_angle_alpha 30.245834
_cell_angle_beta 130.431022
_cell_angle_gamma 128.857919
_cell_volume 788.965001
_symmetry_space_group_name_H-M "P -1"
_symmetry_group_IT_number 2
_symmetry_cell_setting 'triclinic'
loop_
_space_group_symop_operation_xyz
x,y,z
-x,-y,-z
loop_
_atom_site_type_symbol
_atom_site_label
_atom_site_fract_x
_atom_site_fract_y
_atom_site_fract_z
Si Si1 0.255444 0.820634 0.053303
Si Si2 0.832447 0.918571 0.623864
Si Si3 0.954497 0.377396 0.314301
Si Si4 0.475526 0.729440 0.225719
Si Si5 0.277054 0.388966 0.078076
Si Si6 0.682636 0.650016 0.794542
Si Si7 0.783848 0.330613 0.409679
Si Si8 0.332711 0.172140 0.065382
O O1 0.367753 0.755734 0.145573
O O2 0.193630 0.582158 0.103754
O O3 0.965146 0.913375 0.973122
O O4 0.500000 0.000000 0.000000
O O5 0.842663 0.827841 0.713613
O O6 0.519649 0.803871 0.602908
O O7 0.017491 0.812492 0.651419
O O8 0.870170 0.187156 0.520518
O O9 0.641807 0.425506 0.241908
O O10 0.973280 0.314535 0.396735
O O11 0.207401 0.582635 0.266460
O O12 0.725465 0.583572 0.317596
O O13 0.528251 0.982396 0.160827
O O14 0.313308 0.274797 0.177301
O O15 0.276135 0.225139 0.092903
O O16 0.525765 0.600179 0.025481
O O17 0.000000 0.500000 0.000000
#
# Coordination Sequence:
#
# PCOD9033808 Si02
#       8
#     2   2   2   2   2   2   2   2
#     4  12  21  36  57  85 121 151 180 231 290 345
#     4   9  18  31  51  81 113 145 187 227 282 348
#     4  10  17  32  56  80 116 144 184 226 295 335
#     4  11  21  35  54  84 116 146 183 232 288 350
#     4  11  24  41  59  78 114 157 202 240 269 324
#     4  11  20  35  56  81 113 149 189 233 281 332
#     4   9  18  31  51  80 115 147 178 230 291 340
#     4  11  25  38  58  84 114 156 201 229 278 340
#
# _framework density 20.279733
#
# number of rings (size 3 to 8) (size 9 to 14) (size 15 to 20)
#    0.000    1.500    5.000    3.000    0.000    1.000 
#    0.000    0.000    0.000    0.750    0.000    2.625 
#    0.000    0.000    0.000    0.000    0.000    0.000 
#
# Total GULP energy -89270.917804 kJ/mol
# GULP energy per Si atom -5579.432363 kJ/mol
# Density = 2.023358 g / cm^3
# Si number density = 20.279733 Si / 1000 Ang^3
#
#
#
# Elastic Constant Matrix: (Units=GPa)
#
#
# Indices 1 2 3 4 5 6 
#
# 1 99.3458 22.0396 45.0494 2.8553 -18.8540 -22.2790
# 2 22.0396 43.4741 29.5864 1.7390 -6.2017 -25.4796
# 3 45.0494 29.5864 123.1850 -2.0415 -19.0519 -29.6844
# 4 2.8553 1.7390 -2.0415 16.5921 -12.3247 2.4760
# 5 -18.8540 -6.2017 -19.0519 -12.3247 22.1968 2.8510
# 6 -22.2790 -25.4796 -29.6844 2.4760 2.8510 37.5414
#
#
#
# Elastic Compliance Matrix: (Units=1/GPa)
#
#
# Indices 1 2 3 4 5 6 
#
# 1 0.014684 -0.002004 -0.001469 0.007283 0.014100 0.004641
# 2 -0.002004 0.040970 -0.003614 -0.009280 -0.001657 0.024498
# 3 -0.001469 -0.003614 0.013512 0.013532 0.016181 0.005239
# 4 0.007283 -0.009280 0.013532 0.126738 0.086375 -0.006195
# 5 0.014100 -0.001657 0.016181 0.086375 0.117719 0.005401
# 6 0.004641 0.024498 0.005239 -0.006195 0.005401 0.050159
#
#
# Mechanical properties :
#
#
# Convention : Reuss Voigt Hill
#
# Bulk Modulus (GPa) = 18.18430 51.03953 34.61192
# Shear Modulus (GPa) = 12.61711 26.55470 19.58591
#
# Velocity S-wave (km/s) = 2.49701 3.62252 3.11108
# Velocity P-wave (km/s) = 4.15928 6.53600 5.47808
#
# Compressibility (1/GPa) = 0.05499248
#
# Stress axis : x y z
#
# Youngs Moduli (GPa) = 68.10163 24.40787 74.00726
#
# Poissons Ratio (x) = 0.04892 0.10870
# Poissons Ratio (y) = 0.13650 0.26746
# Poissons Ratio (z) = 0.10003 0.08821
#
# Static dielectric constant tensor:
#      x y z
#    x 1.757740 -0.032040 0.013360 
#    y -0.032040 1.724010 -0.008520 
#    z 0.013360 -0.008520 1.791510 
# 
# From -- ./inp_files/77307.got.cif
#   From: 2010.05.17/outbox.cif.g08.bks.cpg/sg2_39_cif.got.tgz:77307.got - 2010.06.03 11:33:40.
