data_PCOD9033332
_publ_section_title
;
Structure prediction by ZEFSAII (Michael W. Deem and Ramdas Pophale) SiO2 
 PCOD9033332
Probable space group: P -1
;
_chemical_formula_sum "Si O2"
_cell_formula_units_Z 16
_cell_length_a 15.473327
_cell_length_b 8.835723
_cell_length_c 13.254020
_cell_angle_alpha 78.222195
_cell_angle_beta 38.282639
_cell_angle_gamma 106.187455
_cell_volume 758.287159
_symmetry_space_group_name_H-M "P -1"
_symmetry_group_IT_number 2
_symmetry_cell_setting 'triclinic'
loop_
_space_group_symop_operation_xyz
x,y,z
-x,-y,-z
loop_
_atom_site_type_symbol
_atom_site_label
_atom_site_fract_x
_atom_site_fract_y
_atom_site_fract_z
Si Si1 0.832467 0.358224 0.902799
Si Si2 0.534543 0.284204 0.055733
Si Si3 0.281873 0.328900 0.547307
Si Si4 0.488184 0.176469 0.405427
Si Si5 0.745359 0.153271 0.496082
Si Si6 0.439609 0.351915 0.925249
Si Si7 0.550783 0.275371 0.558957
Si Si8 0.845129 0.999149 0.934076
O O1 0.872517 0.207546 0.878524
O O2 0.035062 0.613872 0.707137
O O3 0.727461 0.335061 0.900056
O O4 0.670041 0.268902 0.152609
O O5 0.576812 0.487132 0.037824
O O6 0.349687 0.047992 0.313215
O O7 0.484779 0.273946 0.986742
O O8 0.440272 0.320022 0.423334
O O9 0.371735 0.488555 0.345574
O O10 0.289369 0.458606 0.613173
O O11 0.056714 0.096926 0.759721
O O12 0.540178 0.189678 0.471632
O O13 0.284195 0.942454 0.575225
O O14 0.605770 0.193929 0.605453
O O15 0.245820 0.142246 0.066848
O O16 0.331572 0.167806 0.799704
#
# Coordination Sequence:
#
# PCOD9033332 Si02
#       8
#     2   2   2   2   2   2   2   2
#     4  11  23  42  64  94 130 167 207 258 312 377
#     4  10  22  44  67  95 122 165 212 259 313 376
#     4  11  23  43  62  96 128 167 208 261 313 372
#     4  11  24  41  66  93 126 172 216 254 311 368
#     4  11  22  40  65  95 127 162 211 259 309 371
#     4  10  23  43  68  91 128 163 209 263 313 373
#     4  11  23  42  64  92 133 166 210 264 308 373
#     4  11  24  41  66  93 132 166 204 260 320 366
#
# _framework density 21.100185
#
# number of rings (size 3 to 8) (size 9 to 14) (size 15 to 20)
#    0.000    1.250    6.250    0.750    1.750    3.500 
#    0.000    3.750    0.000    0.000    0.000    0.000 
#    0.000    0.000    0.000    0.000    0.000    0.000 
#
# Total GULP energy -89308.340828 kJ/mol
# GULP energy per Si atom -5581.771302 kJ/mol
# Density = 2.105216 g / cm^3
# Si number density = 21.100185 Si / 1000 Ang^3
#
#
#
# Elastic Constant Matrix: (Units=GPa)
#
#
# Indices 1 2 3 4 5 6 
#
# 1 80.4612 10.8599 39.0403 -8.0455 0.8489 -3.6596
# 2 10.8599 85.1399 18.5741 -16.8056 -6.1152 3.2355
# 3 39.0403 18.5741 80.2098 -25.3050 -24.7835 6.3724
# 4 -8.0455 -16.8056 -25.3050 34.0385 5.7318 -11.3125
# 5 0.8489 -6.1152 -24.7835 5.7318 25.2483 -4.9243
# 6 -3.6596 3.2355 6.3724 -11.3125 -4.9243 35.2186
#
#
#
# Elastic Compliance Matrix: (Units=1/GPa)
#
#
# Indices 1 2 3 4 5 6 
#
# 1 0.019907 -0.001147 -0.015540 -0.004409 -0.014910 0.001485
# 2 -0.001147 0.013231 0.000016 0.006249 0.002026 0.000953
# 3 -0.015540 0.000016 0.035244 0.017960 0.031469 0.002176
# 4 -0.004409 0.006249 0.017960 0.047026 0.011027 0.012365
# 5 -0.014910 0.002026 0.031469 0.011027 0.070139 0.005920
# 6 0.001485 0.000953 0.002176 0.012365 0.005920 0.032867
#
#
# Mechanical properties :
#
#
# Convention : Reuss Voigt Hill
#
# Bulk Modulus (GPa) = 28.53843 42.52886 35.53364
# Shear Modulus (GPa) = 18.98003 30.72351 24.85177
#
# Velocity S-wave (km/s) = 3.00245 3.82000 3.43563
# Velocity P-wave (km/s) = 5.05709 6.29730 5.71096
#
# Compressibility (1/GPa) = 0.03504048
#
# Stress axis : x y z
#
# Youngs Moduli (GPa) = 50.23325 75.58067 28.37381
#
# Poissons Ratio (x) = 0.08667 0.44093
# Poissons Ratio (y) = 0.05761 -0.00045
# Poissons Ratio (z) = 0.78062 -0.00121
#
# Static dielectric constant tensor:
#      x y z
#    x 1.779750 -0.020620 0.016230 
#    y -0.020620 1.831790 -0.012010 
#    z 0.016230 -0.012010 1.744090 
# 
# From -- ./inp_files/528377.got.cif
#   From: 2010.05.17/outbox.cif.g08.bks.cpg/sg2_265_cif.got.tgz:528377.got - 2010.06.03 11:33:40.
