data_PCOD9033049
_publ_section_title
;
Structure prediction by ZEFSAII (Michael W. Deem and Ramdas Pophale) SiO2 
 PCOD9033049
Probable space group: P -1
;
_chemical_formula_sum "Si O2"
_cell_formula_units_Z 16
_cell_length_a 9.005036
_cell_length_b 22.545051
_cell_length_c 9.203689
_cell_angle_alpha 131.208020
_cell_angle_beta 84.170410
_cell_angle_gamma 57.052537
_cell_volume 808.217569
_symmetry_space_group_name_H-M "P -1"
_symmetry_group_IT_number 2
_symmetry_cell_setting 'triclinic'
loop_
_space_group_symop_operation_xyz
x,y,z
-x,-y,-z
loop_
_atom_site_type_symbol
_atom_site_label
_atom_site_fract_x
_atom_site_fract_y
_atom_site_fract_z
Si Si1 0.955181 0.993218 0.829367
Si Si2 0.585405 0.000906 0.841435
Si Si3 0.043990 0.703028 0.213181
Si Si4 0.420841 0.744355 0.898962
Si Si5 0.372847 0.716068 0.185443
Si Si6 0.720393 0.465901 0.373391
Si Si7 0.192423 0.289586 0.250407
Si Si8 0.940595 0.451712 0.824818
O O1 0.765521 0.999303 0.852159
O O2 0.815322 0.120229 0.952265
O O3 0.220937 0.850454 0.500277
O O4 0.000000 0.000000 0.000000
O O5 0.759425 0.863845 0.514592
O O6 0.500000 0.000000 0.000000
O O7 0.337595 0.143619 0.015227
O O8 0.241315 0.689979 0.199295
O O9 0.073910 0.620985 0.194747
O O10 0.116562 0.637104 0.943254
O O11 0.573393 0.610053 0.583046
O O12 0.620878 0.729813 0.881480
O O13 0.340343 0.744004 0.061720
O O14 0.669363 0.585549 0.989753
O O15 0.500000 0.500000 0.500000
O O16 0.920465 0.397213 0.371835
O O17 0.146374 0.345573 0.505718
O O18 0.000000 0.500000 0.000000
#
# Coordination Sequence:
#
# PCOD9033049 Si02
#       8
#     2   2   2   2   2   2   2   2
#     4  10  25  42  67  97 124 170 222 267 325 385
#     4  10  22  44  65  90 133 167 211 271 322 384
#     4  11  24  43  66  97 131 170 222 264 328 386
#     4  11  23  44  65  91 137 167 214 269 326 391
#     4  11  24  44  65  93 134 175 211 272 324 389
#     4  12  24  42  67  97 133 169 216 267 326 391
#     4  11  24  43  66  96 130 173 213 271 328 380
#     4  12  25  40  69  97 131 171 222 270 322 384
#
# _framework density 19.796648999999999
#
# number of rings (size 3 to 8) (size 9 to 14) (size 15 to 20)
#    0.000    1.000    3.750    1.875    7.000    1.500 
#    0.000    0.000    0.000    0.000    0.000    0.000 
#    0.000    0.000    0.000    0.000    0.000    0.000 
#
# Total GULP energy -89458.585142 kJ/mol
# GULP energy per Si atom -5591.161571 kJ/mol
# Density = 1.975159 g / cm^3
# Si number density = 19.796649 Si / 1000 Ang^3
#
#
#
# Elastic Constant Matrix: (Units=GPa)
#
#
# Indices 1 2 3 4 5 6 
#
# 1 31.8140 30.4195 9.4221 12.0608 6.5615 10.1954
# 2 30.4195 96.3813 48.9244 19.5804 14.3884 12.9683
# 3 9.4221 48.9244 161.5354 10.1697 22.2890 2.1903
# 4 12.0608 19.5804 10.1697 41.3140 1.5451 3.4029
# 5 6.5615 14.3884 22.2890 1.5451 30.8060 -4.2859
# 6 10.1954 12.9683 2.1903 3.4029 -4.2859 33.1873
#
#
#
# Elastic Compliance Matrix: (Units=1/GPa)
#
#
# Indices 1 2 3 4 5 6 
#
# 1 0.051696 -0.013409 0.002802 -0.008225 -0.007894 -0.011003
# 2 -0.013409 0.018154 -0.004069 -0.003355 -0.002892 -0.002736
# 3 0.002802 -0.004069 0.007916 -0.000648 -0.004433 -0.000299
# 4 -0.008225 -0.003355 -0.000648 0.028150 0.002560 0.001324
# 5 -0.007894 -0.002892 -0.004433 0.002560 0.039786 0.008723
# 6 -0.011003 -0.002736 -0.000299 0.001324 0.008723 0.035592
#
#
# Mechanical properties :
#
#
# Convention : Reuss Voigt Hill
#
# Bulk Modulus (GPa) = 20.65484 51.91811 36.28647
# Shear Modulus (GPa) = 22.04749 34.45910 28.25329
#
# Velocity S-wave (km/s) = 3.34083 4.17664 3.78190
# Velocity P-wave (km/s) = 5.03366 7.03859 6.11880
#
# Compressibility (1/GPa) = 0.04841480
#
# Stress axis : x y z
#
# Youngs Moduli (GPa) = 19.34392 55.08387 126.32576
#
# Poissons Ratio (x) = 0.73859 -0.35396
# Poissons Ratio (y) = 0.25937 0.51402
# Poissons Ratio (z) = -0.05420 0.22414
#
# Static dielectric constant tensor:
#      x y z
#    x 1.684660 0.014460 0.001490 
#    y 0.014460 1.667280 0.004810 
#    z 0.001490 0.004810 1.710890 
# 
# From -- ./inp_files/204198.got.cif
#   From: 2010.05.17/outbox.cif.g08.bks.cpg/sg2_103_cif.got.tgz:204198.got - 2010.06.03 11:33:40.
