data_PCOD9033772
_publ_section_title
;
Structure prediction by ZEFSAII (Michael W. Deem and Ramdas Pophale) SiO2 
 PCOD9033772
Probable space group: P -1
;
_chemical_formula_sum "Si O2"
_cell_formula_units_Z 16
_cell_length_a 8.260182
_cell_length_b 13.935152
_cell_length_c 11.639175
_cell_angle_alpha 102.861223
_cell_angle_beta 128.737418
_cell_angle_gamma 115.038083
_cell_volume 685.598703
_symmetry_space_group_name_H-M "P -1"
_symmetry_group_IT_number 2
_symmetry_cell_setting 'triclinic'
loop_
_space_group_symop_operation_xyz
x,y,z
-x,-y,-z
loop_
_atom_site_type_symbol
_atom_site_label
_atom_site_fract_x
_atom_site_fract_y
_atom_site_fract_z
Si Si1 0.320307 0.201198 0.483849
Si Si2 0.329000 0.640788 0.545598
Si Si3 0.481121 0.602274 0.192254
Si Si4 0.266243 0.656598 0.915559
Si Si5 0.664104 0.673056 0.921113
Si Si6 0.147454 0.786370 0.493933
Si Si7 0.705305 0.158699 0.680872
Si Si8 0.399235 0.021310 0.845784
O O1 0.415792 0.235168 0.402025
O O2 0.492606 0.357031 0.653432
O O3 0.481591 0.168764 0.617421
O O4 0.956080 0.071148 0.310204
O O5 0.503764 0.645452 0.724492
O O6 0.173749 0.687770 0.537479
O O7 0.057782 0.479282 0.327293
O O8 0.417301 0.465882 0.115051
O O9 0.833794 0.737485 0.347089
O O10 0.267528 0.595496 0.018443
O O11 0.530762 0.700501 0.964086
O O12 0.373471 0.806130 0.023243
O O13 0.033030 0.794746 0.111286
O O14 0.149182 0.756154 0.353061
O O15 0.382609 0.940935 0.707316
O O16 0.500000 0.000000 0.500000
O O17 0.500000 0.000000 0.000000
#
# Coordination Sequence:
#
# PCOD9033772 Si02
#       8
#     2   2   2   2   2   2   2   2
#     4  10  26  46  66 104 142 178 229 290 349 408
#     4  11  25  45  74 103 139 182 236 288 343 415
#     4  11  23  42  71  98 138 176 237 284 335 410
#     4  12  24  42  75 107 134 184 241 280 342 417
#     4  12  24  42  73 101 137 184 233 285 346 408
#     4  10  22  44  69  98 136 185 226 280 343 416
#     4  11  24  42  67  99 137 180 230 283 346 411
#     4  11  26  45  73 103 145 180 229 285 356 416
#
# _framework density 23.337268000000002
#
# number of rings (size 3 to 8) (size 9 to 14) (size 15 to 20)
#    0.000    1.000    2.500    3.750    5.250    4.500 
#    0.000    3.125    0.000    0.000    0.000    0.000 
#    0.000    0.000    0.000    0.000    0.000    0.000 
#
# Total GULP energy -89360.369269 kJ/mol
# GULP energy per Si atom -5585.023079 kJ/mol
# Density = 2.328415 g / cm^3
# Si number density = 23.337268 Si / 1000 Ang^3
#
#
#
# Elastic Constant Matrix: (Units=GPa)
#
#
# Indices 1 2 3 4 5 6 
#
# 1 53.4777 -4.2830 23.9499 -2.9622 9.0928 -7.6381
# 2 -4.2830 85.3177 50.8090 -3.3853 -1.0823 -21.5764
# 3 23.9499 50.8090 157.0168 -1.9079 15.0490 -32.5089
# 4 -2.9622 -3.3853 -1.9079 42.3359 -10.0431 -1.2227
# 5 9.0928 -1.0823 15.0490 -10.0431 38.8172 7.2222
# 6 -7.6381 -21.5764 -32.5089 -1.2227 7.2222 23.5561
#
#
#
# Elastic Compliance Matrix: (Units=1/GPa)
#
#
# Indices 1 2 3 4 5 6 
#
# 1 0.022799 0.005236 -0.002316 0.000771 -0.006127 0.010910
# 2 0.005236 0.017526 -0.003541 0.001656 -0.001427 0.013387
# 3 -0.002316 -0.003541 0.011336 -0.001151 -0.006792 0.013672
# 4 0.000771 0.001656 -0.001151 0.025398 0.007004 -0.000650
# 5 -0.006127 -0.001427 -0.006792 0.007004 0.035942 -0.023324
# 6 0.010910 0.013387 0.013672 -0.000650 -0.023324 0.084236
#
#
# Mechanical properties :
#
#
# Convention : Reuss Voigt Hill
#
# Bulk Modulus (GPa) = 19.83461 48.52935 34.18198
# Shear Modulus (GPa) = 23.22497 35.96427 29.59462
#
# Velocity S-wave (km/s) = 3.15808 3.92990 3.56494
# Velocity P-wave (km/s) = 4.67071 6.43678 5.62351
#
# Compressibility (1/GPa) = 0.05041693
#
# Stress axis : x y z
#
# Youngs Moduli (GPa) = 43.86185 57.05891 88.21748
#
# Poissons Ratio (x) = -0.29876 0.20435
# Poissons Ratio (y) = -0.22966 0.31240
# Poissons Ratio (z) = 0.10160 0.20206
#
# Static dielectric constant tensor:
#      x y z
#    x 1.910000 -0.040850 0.015000 
#    y -0.040850 1.763860 0.080720 
#    z 0.015000 0.080720 1.821120 
# 
# From -- ./inp_files/399338.got.cif
#   From: 2010.05.17/outbox.cif.g08.bks.cpg/sg2_200_cif.got.tgz:399338.got - 2010.06.03 11:33:40.
