data_PCOD9033891
_publ_section_title
;
Structure prediction by ZEFSAII (Michael W. Deem and Ramdas Pophale) SiO2 
 PCOD9033891
Probable space group: P -1
;
_chemical_formula_sum "Si O2"
_cell_formula_units_Z 13
_cell_length_a 8.835754
_cell_length_b 8.501656
_cell_length_c 11.827981
_cell_angle_alpha 94.314434
_cell_angle_beta 59.574072
_cell_angle_gamma 58.705289
_cell_volume 581.596473
_symmetry_space_group_name_H-M "P -1"
_symmetry_group_IT_number 2
_symmetry_cell_setting 'triclinic'
loop_
_space_group_symop_operation_xyz
x,y,z
-x,-y,-z
loop_
_atom_site_type_symbol
_atom_site_label
_atom_site_fract_x
_atom_site_fract_y
_atom_site_fract_z
Si Si1 0.738671 0.845192 0.563790
Si Si2 0.500000 0.500000 0.500000
Si Si3 0.522102 0.074361 0.116129
Si Si4 0.821649 0.249760 0.572998
Si Si5 0.945866 0.701679 0.081342
Si Si6 0.354165 0.276099 0.621206
Si Si7 0.435398 0.575541 0.901818
O O1 0.676724 0.862990 0.718756
O O2 0.644135 0.759656 0.515876
O O3 0.010730 0.706437 0.446422
O O4 0.590413 0.076270 0.578585
O O5 0.721520 0.336864 0.491127
O O6 0.343524 0.469585 0.638347
O O7 0.527417 0.259968 0.119030
O O8 0.751544 0.889583 0.086142
O O9 0.500000 0.000000 0.000000
O O10 0.606792 0.376466 0.746460
O O11 0.000000 0.000000 0.500000
O O12 0.838483 0.719591 0.245859
O O13 0.171030 0.677322 0.993792
O O14 0.000000 0.500000 0.000000
O O15 0.500000 0.500000 0.000000
#
# Coordination Sequence:
#
# PCOD9033891 Si02
#       7
#     2   1   2   2   2   2   2
#     4  10  23  45  70  99 148 183 240 306 368 428
#     4  12  24  42  76 108 142 188 250 292 380 428
#     4  11  26  46  73 107 146 196 249 304 373 445
#     4  12  27  47  74 110 150 190 248 308 368 445
#     4  11  24  45  73 105 152 189 247 307 369 446
#     4  10  22  44  70 107 138 191 239 305 363 441
#     4  12  27  47  73 108 150 198 247 304 378 440
#
# _framework density 22.352267999999999
#
# number of rings (size 3 to 8) (size 9 to 14) (size 15 to 20)
#    0.000    0.923    1.538    4.154    4.308    6.154 
#    2.769    0.000    0.000    0.000    0.000    0.000 
#    0.000    0.000    0.000    0.000    0.000    0.000 
#
# Total GULP energy -72374.705446 kJ/mol
# GULP energy per Si atom -5567.285034 kJ/mol
# Density = 2.230139 g / cm^3
# Si number density = 22.352268 Si / 1000 Ang^3
#
#
#
# Elastic Constant Matrix: (Units=GPa)
#
#
# Indices 1 2 3 4 5 6 
#
# 1 85.7108 27.7411 45.0048 -5.9501 -4.1016 -22.2188
# 2 27.7411 130.3043 36.1312 -10.3035 5.6766 -8.8785
# 3 45.0048 36.1312 121.9798 -5.7532 -1.8265 -19.8477
# 4 -5.9501 -10.3035 -5.7532 32.5952 -5.0435 2.9437
# 5 -4.1016 5.6766 -1.8265 -5.0435 45.9804 2.4048
# 6 -22.2188 -8.8785 -19.8477 2.9437 2.4048 38.3100
#
#
#
# Elastic Compliance Matrix: (Units=1/GPa)
#
#
# Indices 1 2 3 4 5 6 
#
# 1 0.016415 -0.001788 -0.004363 0.001261 0.001301 0.006667
# 2 -0.001788 0.008773 -0.001872 0.001951 -0.001100 -0.000054
# 3 -0.004363 -0.001872 0.010802 0.000310 0.000169 0.002598
# 4 0.001261 0.001951 0.000310 0.032243 0.003491 -0.001353
# 5 0.001301 -0.001100 0.000169 0.003491 0.022447 -0.001090
# 6 0.006667 -0.000054 0.002598 -0.001353 -0.001090 0.031475
#
#
# Mechanical properties :
#
#
# Convention : Reuss Voigt Hill
#
# Bulk Modulus (GPa) = 50.14115 61.74989 55.94552
# Shear Modulus (GPa) = 34.51888 38.65163 36.58526
#
# Velocity S-wave (km/s) = 3.93404 4.16288 4.05008
# Velocity P-wave (km/s) = 6.56631 7.12684 6.85231
#
# Compressibility (1/GPa) = 0.01994370
#
# Stress axis : x y z
#
# Youngs Moduli (GPa) = 60.92119 113.99219 92.57341
#
# Poissons Ratio (x) = 0.20377 0.40390
# Poissons Ratio (y) = 0.10890 0.17332
# Poissons Ratio (z) = 0.26580 0.21343
#
# Static dielectric constant tensor:
#      x y z
#    x 1.865820 0.054500 -0.045080 
#    y 0.054500 1.804770 -0.057500 
#    z -0.045080 -0.057500 1.952280 
# 
# From -- ./inp_files/199205.got.cif
#   From: 2010.05.17/outbox.cif.g08.bks.cpg/sg2_100_cif.got.tgz:199205.got - 2010.06.03 11:33:40.
