data_PCOD9033998
_publ_section_title
;
Structure prediction by ZEFSAII (Michael W. Deem and Ramdas Pophale) SiO2 
 PCOD9033998
Probable space group: P -1
;
_chemical_formula_sum "Si O2"
_cell_formula_units_Z 16
_cell_length_a 9.772524
_cell_length_b 13.983637
_cell_length_c 11.121577
_cell_angle_alpha 147.741270
_cell_angle_beta 80.898805
_cell_angle_gamma 83.102556
_cell_volume 701.940390
_symmetry_space_group_name_H-M "P -1"
_symmetry_group_IT_number 2
_symmetry_cell_setting 'triclinic'
loop_
_space_group_symop_operation_xyz
x,y,z
-x,-y,-z
loop_
_atom_site_type_symbol
_atom_site_label
_atom_site_fract_x
_atom_site_fract_y
_atom_site_fract_z
Si Si1 0.093689 0.994164 0.101416
Si Si2 0.348183 0.495511 0.243464
Si Si3 0.661339 0.857782 0.756160
Si Si4 0.787556 0.664301 0.306610
Si Si5 0.676378 0.465549 0.438489
Si Si6 0.177339 0.905465 0.581440
Si Si7 0.362438 0.619549 0.046410
Si Si8 0.135122 0.333068 0.971083
O O1 0.199702 0.100608 0.174003
O O2 0.980693 0.080400 0.324281
O O3 0.209867 0.758666 0.860589
O O4 0.000000 0.000000 0.000000
O O5 0.291887 0.504707 0.396053
O O6 0.307347 0.727740 0.460266
O O7 0.535020 0.352937 0.043780
O O8 0.250079 0.417570 0.093294
O O9 0.673170 0.857132 0.609240
O O10 0.693586 0.631206 0.535943
O O11 0.500000 0.000000 0.000000
O O12 0.823989 0.725862 0.237231
O O13 0.707676 0.522769 0.140162
O O14 0.955648 0.518213 0.192302
O O15 0.500000 0.500000 0.500000
O O16 0.227189 0.811327 0.340773
O O17 0.161184 0.130122 0.822322
O O18 0.500000 0.500000 0.000000
#
# Coordination Sequence:
#
# PCOD9033998 Si02
#       8
#     2   2   2   2   2   2   2   2
#     4  12  27  47  75 108 147 194 251 303 361 451
#     4  11  24  47  72 105 147 184 250 299 365 438
#     4  12  28  48  74 108 148 196 244 304 372 437
#     4  11  24  47  71 105 151 179 247 304 363 437
#     4  12  26  49  77 109 151 197 244 311 373 431
#     4  11  24  45  70 107 141 187 245 292 373 427
#     4  10  22  44  70  98 146 187 225 308 360 420
#     4  11  25  45  75 107 138 193 237 310 364 429
#
# _framework density 22.793958
#
# number of rings (size 3 to 8) (size 9 to 14) (size 15 to 20)
#    0.000    0.750    5.000    2.250    3.500    2.500 
#    2.250    0.000    0.000    0.000    0.000    0.000 
#    0.000    0.000    0.000    0.000    0.000    0.000 
#
# Total GULP energy -89473.332767 kJ/mol
# GULP energy per Si atom -5592.083298 kJ/mol
# Density = 2.274208 g / cm^3
# Si number density = 22.793958 Si / 1000 Ang^3
#
#
#
# Elastic Constant Matrix: (Units=GPa)
#
#
# Indices 1 2 3 4 5 6 
#
# 1 141.5226 20.3586 49.5956 3.5236 0.8452 26.5630
# 2 20.3586 71.1055 24.8116 5.7062 -5.7236 15.0138
# 3 49.5956 24.8116 105.3176 -13.4743 -21.3349 9.2108
# 4 3.5236 5.7062 -13.4743 50.7946 17.1260 -0.1683
# 5 0.8452 -5.7236 -21.3349 17.1260 43.3480 -8.2219
# 6 26.5630 15.0138 9.2108 -0.1683 -8.2219 33.2532
#
#
#
# Elastic Compliance Matrix: (Units=1/GPa)
#
#
# Indices 1 2 3 4 5 6 
#
# 1 0.010362 0.000255 -0.005137 -0.000831 -0.003873 -0.007931
# 2 0.000255 0.017044 -0.003883 -0.003074 0.000264 -0.006774
# 3 -0.005137 -0.003883 0.014096 0.002445 0.006224 0.003503
# 4 -0.000831 -0.003074 0.002445 0.023654 -0.008654 -0.000646
# 5 -0.003873 0.000264 0.006224 -0.008654 0.031361 0.008961
# 6 -0.007931 -0.006774 0.003503 -0.000646 0.008961 0.040708
#
#
# Mechanical properties :
#
#
# Convention : Reuss Voigt Hill
#
# Bulk Modulus (GPa) = 41.71399 56.38636 49.05018
# Shear Modulus (GPa) = 30.72279 40.35782 35.54031
#
# Velocity S-wave (km/s) = 3.67529 4.21235 3.95295
# Velocity P-wave (km/s) = 6.02914 6.96058 6.51154
#
# Compressibility (1/GPa) = 0.02397277
#
# Stress axis : x y z
#
# Youngs Moduli (GPa) = 96.50687 58.67294 70.94155
#
# Poissons Ratio (x) = -0.01498 0.36442
# Poissons Ratio (y) = -0.02464 0.27546
# Poissons Ratio (z) = 0.49575 0.22782
#
# Static dielectric constant tensor:
#      x y z
#    x 1.863720 -0.031410 -0.031620 
#    y -0.031410 1.898950 -0.067580 
#    z -0.031620 -0.067580 1.885560 
# 
# From -- ./inp_files/399991.got.cif
#   From: 2010.05.17/outbox.cif.g08.bks.cpg/sg2_200_cif.got.tgz:399991.got - 2010.06.03 11:33:40.
