data_PCOD9033112
_publ_section_title
;
Structure prediction by ZEFSAII (Michael W. Deem and Ramdas Pophale) SiO2 
 PCOD9033112
Probable space group: P -1
;
_chemical_formula_sum "Si O2"
_cell_formula_units_Z 16
_cell_length_a 14.620506
_cell_length_b 14.166916
_cell_length_c 8.356316
_cell_angle_alpha 91.974434
_cell_angle_beta 117.432285
_cell_angle_gamma 36.566551
_cell_volume 707.291947
_symmetry_space_group_name_H-M "P -1"
_symmetry_group_IT_number 2
_symmetry_cell_setting 'triclinic'
loop_
_space_group_symop_operation_xyz
x,y,z
-x,-y,-z
loop_
_atom_site_type_symbol
_atom_site_label
_atom_site_fract_x
_atom_site_fract_y
_atom_site_fract_z
Si Si1 0.058647 0.399503 0.310056
Si Si2 0.285834 0.605662 0.853011
Si Si3 0.470470 0.974558 0.801225
Si Si4 0.752493 0.018935 0.948050
Si Si5 0.938651 0.665942 0.044644
Si Si6 0.103452 0.984895 0.216482
Si Si7 0.081542 0.860955 0.424607
Si Si8 0.606287 0.697810 0.073415
O O1 0.264473 0.182575 0.548992
O O2 0.998327 0.396903 0.093026
O O3 0.842242 0.560068 0.254794
O O4 0.085202 0.485712 0.276099
O O5 0.097151 0.799141 0.835306
O O6 0.186509 0.690228 0.597481
O O7 0.355723 0.442764 0.941034
O O8 0.500000 0.500000 0.000000
O O9 0.693374 0.817574 0.873868
O O10 0.500000 0.000000 0.000000
O O11 0.459375 0.872891 0.831991
O O12 0.873587 0.994403 0.161803
O O13 0.904255 0.802406 0.063786
O O14 0.750212 0.060496 0.768901
O O15 0.517052 0.191211 0.850461
O O16 0.227085 0.810399 0.423924
O O17 0.000000 0.000000 0.000000
O O18 0.000000 0.000000 0.500000
#
# Coordination Sequence:
#
# PCOD9033112 Si02
#       8
#     2   2   2   2   2   2   2   2
#     4  10  24  43  71  91 137 173 226 272 333 398
#     4  11  22  40  63  94 132 165 223 270 321 398
#     4  11  23  43  67  96 137 176 220 277 331 396
#     4  11  21  41  63  94 134 162 225 266 330 398
#     4  10  22  44  66 100 127 176 220 280 333 392
#     4   9  19  39  64  87 123 169 204 268 326 379
#     4   9  20  38  66  88 123 175 205 266 331 384
#     4  11  24  39  65  98 129 174 221 268 325 394
#
# _framework density 22.621493999999998
#
# number of rings (size 3 to 8) (size 9 to 14) (size 15 to 20)
#    0.000    1.750    1.250    3.375    1.750    3.000 
#    2.250    5.625    0.000    0.000    0.000    0.000 
#    0.000    0.000    0.000    0.000    0.000    0.000 
#
# Total GULP energy -89346.964943 kJ/mol
# GULP energy per Si atom -5584.185309 kJ/mol
# Density = 2.257001 g / cm^3
# Si number density = 22.621494 Si / 1000 Ang^3
#
#
#
# Elastic Constant Matrix: (Units=GPa)
#
#
# Indices 1 2 3 4 5 6 
#
# 1 120.1149 36.1622 45.5736 -2.7658 -43.8772 -3.5800
# 2 36.1622 94.0740 25.4140 -1.7624 -23.3778 7.1540
# 3 45.5736 25.4140 110.3658 -14.7181 -37.2494 -4.8236
# 4 -2.7658 -1.7624 -14.7181 27.8939 5.4656 -5.5424
# 5 -43.8772 -23.3778 -37.2494 5.4656 37.4476 -8.1128
# 6 -3.5800 7.1540 -4.8236 -5.5424 -8.1128 54.3202
#
#
#
# Elastic Compliance Matrix: (Units=1/GPa)
#
#
# Indices 1 2 3 4 5 6 
#
# 1 0.015589 -0.001800 0.000161 -0.001304 0.018334 0.003884
# 2 -0.001800 0.012850 -0.000664 -0.000961 0.005133 -0.001201
# 3 0.000161 -0.000664 0.015153 0.005897 0.014912 0.004272
# 4 -0.001304 -0.000961 0.005897 0.039877 -0.001115 0.004467
# 5 0.018334 0.005133 0.014912 -0.001115 0.068996 0.012047
# 6 0.003884 -0.001201 0.004272 0.004467 0.012047 0.021458
#
#
# Mechanical properties :
#
#
# Convention : Reuss Voigt Hill
#
# Bulk Modulus (GPa) = 25.64991 59.87269 42.76130
# Shear Modulus (GPa) = 26.10621 38.42600 32.26611
#
# Velocity S-wave (km/s) = 3.40081 4.12594 3.78080
# Velocity P-wave (km/s) = 5.17533 7.01587 6.16468
#
# Compressibility (1/GPa) = 0.03898650
#
# Stress axis : x y z
#
# Youngs Moduli (GPa) = 64.14710 77.82094 65.99223
#
# Poissons Ratio (x) = 0.14005 -0.01062
# Poissons Ratio (y) = 0.11544 0.04384
# Poissons Ratio (z) = -0.01032 0.05169
#
# Static dielectric constant tensor:
#      x y z
#    x 1.914500 0.013210 -0.033940 
#    y 0.013210 1.874150 -0.002270 
#    z -0.033940 -0.002270 1.883850 
# 
# From -- ./inp_files/313183.got.cif
#   From: 2010.05.17/outbox.cif.g08.bks.cpg/sg2_157_cif.got.tgz:313183.got - 2010.06.03 11:33:40.
