data_PCOD9033767
_publ_section_title
;
Structure prediction by ZEFSAII (Michael W. Deem and Ramdas Pophale) SiO2 
 PCOD9033767
Probable space group: P -1
;
_chemical_formula_sum "Si O2"
_cell_formula_units_Z 15
_cell_length_a 11.862129
_cell_length_b 8.264275
_cell_length_c 10.370946
_cell_angle_alpha 74.070144
_cell_angle_beta 66.296898
_cell_angle_gamma 122.849714
_cell_volume 600.734045
_symmetry_space_group_name_H-M "P -1"
_symmetry_group_IT_number 2
_symmetry_cell_setting 'triclinic'
loop_
_space_group_symop_operation_xyz
x,y,z
-x,-y,-z
loop_
_atom_site_type_symbol
_atom_site_label
_atom_site_fract_x
_atom_site_fract_y
_atom_site_fract_z
Si Si1 0.306787 0.873124 0.570797
Si Si2 0.500000 0.500000 0.500000
Si Si3 0.761244 0.499297 0.510182
Si Si4 0.638486 0.833866 0.740175
Si Si5 0.102211 0.872954 0.118029
Si Si6 0.290978 0.795833 0.182972
Si Si7 0.755486 0.690054 0.905293
Si Si8 0.108400 0.901050 0.820527
O O1 0.241355 0.665339 0.548227
O O2 0.179967 0.791505 0.766053
O O3 0.500000 0.000000 0.500000
O O4 0.334828 0.078403 0.436692
O O5 0.590656 0.442186 0.563379
O O6 0.709333 0.797213 0.324783
O O7 0.763513 0.428815 0.669196
O O8 0.953039 0.769412 0.317627
O O9 0.727992 0.751655 0.765856
O O10 0.722219 0.068049 0.735781
O O11 0.422723 0.603389 0.921578
O O12 0.172853 0.754760 0.131567
O O13 0.257362 0.168559 0.015735
O O14 0.030833 0.824354 0.018034
O O15 0.500000 0.000000 0.000000
O O16 0.942965 0.784205 0.827110
#
# Coordination Sequence:
#
# PCOD9033767 Si02
#       8
#     2   1   2   2   2   2   2   2
#     4  11  25  43  65  95 142 182 222 280 334 410
#     4  12  24  42  66 102 130 178 226 274 338 404
#     4  11  24  45  68  99 138 177 227 280 338 400
#     4   9  23  44  69  92 139 182 220 278 343 388
#     4  11  24  41  70 103 135 176 227 284 338 402
#     4  10  22  44  69  98 133 179 229 274 338 410
#     4  10  22  45  66 101 134 176 227 284 331 408
#     4  12  26  40  70 103 134 181 229 276 346 399
#
# _framework density 24.969452
#
# number of rings (size 3 to 8) (size 9 to 14) (size 15 to 20)
#    0.000    1.333    2.667    1.600    5.600    2.133 
#    2.400    0.000    0.000    0.000    0.000    0.000 
#    0.000    0.000    0.000    0.000    0.000    0.000 
#
# Total GULP energy -83625.055811 kJ/mol
# GULP energy per Si atom -5575.003721 kJ/mol
# Density = 2.491262 g / cm^3
# Si number density = 24.969452 Si / 1000 Ang^3
#
#
#
# Elastic Constant Matrix: (Units=GPa)
#
#
# Indices 1 2 3 4 5 6 
#
# 1 184.3399 11.4667 25.5683 -2.4121 -15.7427 7.2733
# 2 11.4667 43.0557 9.6080 -10.4323 11.4529 -5.3798
# 3 25.5683 9.6080 62.7130 1.0539 3.8939 4.0520
# 4 -2.4121 -10.4323 1.0539 27.3189 4.7725 -8.6716
# 5 -15.7427 11.4529 3.8939 4.7725 31.1432 -7.3530
# 6 7.2733 -5.3798 4.0520 -8.6716 -7.3530 29.9919
#
#
#
# Elastic Compliance Matrix: (Units=1/GPa)
#
#
# Indices 1 2 3 4 5 6 
#
# 1 0.006339 -0.002904 -0.002324 -0.001601 0.004550 -0.001091
# 2 -0.002904 0.034316 -0.004099 0.018427 -0.014214 0.009257
# 3 -0.002324 -0.004099 0.017995 -0.003369 -0.002384 -0.004161
# 4 -0.001601 0.018427 -0.003369 0.050677 -0.011136 0.016071
# 5 0.004550 -0.014214 -0.002384 -0.011136 0.042558 0.003883
# 6 -0.001091 0.009257 -0.004161 0.016071 0.003883 0.041428
#
#
# Mechanical properties :
#
#
# Convention : Reuss Voigt Hill
#
# Bulk Modulus (GPa) = 25.00304 42.59939 33.80122
# Shear Modulus (GPa) = 22.19276 33.92185 28.05730
#
# Velocity S-wave (km/s) = 2.98450 3.68983 3.35575
# Velocity P-wave (km/s) = 4.68098 5.93723 5.34613
#
# Compressibility (1/GPa) = 0.03999513
#
# Stress axis : x y z
#
# Youngs Moduli (GPa) = 157.76548 29.14079 55.57176
#
# Poissons Ratio (x) = 0.08463 0.12917
# Poissons Ratio (y) = 0.45816 0.22777
# Poissons Ratio (z) = 0.36672 0.11944
#
# Static dielectric constant tensor:
#      x y z
#    x 1.962430 -0.031860 0.046240 
#    y -0.031860 1.938390 0.040040 
#    z 0.046240 0.040040 2.090260 
# 
# From -- ./inp_files/414254.got.cif
#   From: 2010.05.17/outbox.cif.g08.bks.cpg/sg2_208_cif.got.tgz:414254.got - 2010.06.03 11:33:40.
