data_PCOD9033653
_publ_section_title
;
Structure prediction by ZEFSAII (Michael W. Deem and Ramdas Pophale) SiO2 
 PCOD9033653
Probable space group: P -1
;
_chemical_formula_sum "Si O2"
_cell_formula_units_Z 14
_cell_length_a 9.717267
_cell_length_b 9.199732
_cell_length_c 13.646639
_cell_angle_alpha 137.279764
_cell_angle_beta 99.789215
_cell_angle_gamma 54.963514
_cell_volume 604.070210
_symmetry_space_group_name_H-M "P -1"
_symmetry_group_IT_number 2
_symmetry_cell_setting 'triclinic'
loop_
_space_group_symop_operation_xyz
x,y,z
-x,-y,-z
loop_
_atom_site_type_symbol
_atom_site_label
_atom_site_fract_x
_atom_site_fract_y
_atom_site_fract_z
Si Si1 0.184649 0.334967 0.009764
Si Si2 0.678500 0.157021 0.354922
Si Si3 0.161978 0.632010 0.604167
Si Si4 0.785338 0.280605 0.130688
Si Si5 0.132623 0.341678 0.716461
Si Si6 0.440891 0.491656 0.097491
Si Si7 0.788771 0.858845 0.593728
O O1 0.301103 0.434462 0.059755
O O2 0.077345 0.436196 0.151516
O O3 0.000000 0.500000 0.000000
O O4 0.312459 0.010959 0.821162
O O5 0.500000 0.500000 0.500000
O O6 0.838510 0.174953 0.376465
O O7 0.733628 0.961202 0.359000
O O8 0.232366 0.659214 0.726895
O O9 0.282837 0.288650 0.438254
O O10 0.946329 0.779607 0.648891
O O11 0.769440 0.526608 0.196684
O O12 0.635433 0.264996 0.067266
O O13 0.000000 0.000000 0.000000
O O14 0.125471 0.298368 0.578788
O O15 0.346102 0.807024 0.281377
O O16 0.500000 0.500000 0.000000
#
# Coordination Sequence:
#
# PCOD9033653 Si02
#       7
#     2   2   2   2   2   2   2
#     4  10  22  44  69 102 140 187 233 293 358 423
#     4  11  24  40  69 101 146 181 229 291 364 427
#     4  10  23  42  66  98 141 183 230 297 354 419
#     4  11  24  45  71 102 144 189 243 297 359 421
#     4  10  23  45  74  99 142 193 238 294 361 428
#     4  12  25  40  73 104 143 188 247 288 360 435
#     4  10  23  43  72 102 135 188 245 295 358 425
#
# _framework density 23.176112
#
# number of rings (size 3 to 8) (size 9 to 14) (size 15 to 20)
#    0.000    1.429    0.000    5.143    6.000    3.429 
#    0.000    1.429    0.000    0.000    0.000    0.000 
#    0.000    0.000    0.000    0.000    0.000    0.000 
#
# Total GULP energy -78123.336078 kJ/mol
# GULP energy per Si atom -5580.238291 kJ/mol
# Density = 2.312336 g / cm^3
# Si number density = 23.176112 Si / 1000 Ang^3
#
#
#
# Elastic Constant Matrix: (Units=GPa)
#
#
# Indices 1 2 3 4 5 6 
#
# 1 147.4607 43.9434 38.8493 3.0758 25.2819 -1.7515
# 2 43.9434 103.7694 27.5481 14.3083 9.0578 5.4708
# 3 38.8493 27.5481 117.2263 13.6870 -1.9284 1.9729
# 4 3.0758 14.3083 13.6870 44.9297 6.8279 7.8571
# 5 25.2819 9.0578 -1.9284 6.8279 33.1867 5.9329
# 6 -1.7515 5.4708 1.9729 7.8571 5.9329 46.5765
#
#
#
# Elastic Compliance Matrix: (Units=1/GPa)
#
#
# Indices 1 2 3 4 5 6 
#
# 1 0.009693 -0.003054 -0.002881 0.002059 -0.007400 0.001440
# 2 -0.003054 0.011771 -0.001401 -0.002921 -0.000202 -0.000920
# 3 -0.002881 -0.001401 0.010234 -0.002996 0.003853 -0.000363
# 4 0.002059 -0.002921 -0.002996 0.025340 -0.005621 -0.003011
# 5 -0.007400 -0.000202 0.003853 -0.005621 0.037975 -0.004307
# 6 0.001440 -0.000920 -0.000363 -0.003011 -0.004307 0.022704
#
#
# Mechanical properties :
#
#
# Convention : Reuss Voigt Hill
#
# Bulk Modulus (GPa) = 58.73311 65.45980 62.09645
# Shear Modulus (GPa) = 36.21493 42.14630 39.18061
#
# Velocity S-wave (km/s) = 3.95726 4.26904 4.11610
# Velocity P-wave (km/s) = 6.80272 7.25296 7.03144
#
# Compressibility (1/GPa) = 0.01702617
#
# Stress axis : x y z
#
# Youngs Moduli (GPa) = 103.16258 84.95581 97.71487
#
# Poissons Ratio (x) = 0.25946 0.28153
# Poissons Ratio (y) = 0.31506 0.13688
# Poissons Ratio (z) = 0.29723 0.11901
#
# Static dielectric constant tensor:
#      x y z
#    x 2.100590 0.001620 -0.070780 
#    y 0.001620 1.914720 0.044140 
#    z -0.070780 0.044140 1.983960 
# 
# From -- ./inp_files/448090.got.cif
#   From: 2010.05.17/outbox.cif.g08.bks.cpg/sg2_225_cif.got.tgz:448090.got - 2010.06.03 11:33:40.
