data_PCOD9033412
_publ_section_title
;
Structure prediction by ZEFSAII (Michael W. Deem and Ramdas Pophale) SiO2 
 PCOD9033412
Probable space group: P -1
;
_chemical_formula_sum "Si O2"
_cell_formula_units_Z 16
_cell_length_a 9.274651
_cell_length_b 8.264232
_cell_length_c 14.961230
_cell_angle_alpha 38.573632
_cell_angle_beta 82.573490
_cell_angle_gamma 82.183167
_cell_volume 707.887218
_symmetry_space_group_name_H-M "P -1"
_symmetry_group_IT_number 2
_symmetry_cell_setting 'triclinic'
loop_
_space_group_symop_operation_xyz
x,y,z
-x,-y,-z
loop_
_atom_site_type_symbol
_atom_site_label
_atom_site_fract_x
_atom_site_fract_y
_atom_site_fract_z
Si Si1 0.547358 0.567223 0.365777
Si Si2 0.935237 0.338160 0.786064
Si Si3 0.621559 0.213515 0.880273
Si Si4 0.340556 0.548546 0.030359
Si Si5 0.104739 0.176116 0.556755
Si Si6 0.337133 0.936889 0.516296
Si Si7 0.798206 0.914647 0.220562
Si Si8 0.142127 0.224724 0.263901
O O1 0.500000 0.500000 0.500000
O O2 0.425653 0.624913 0.275014
O O3 0.652496 0.339797 0.413141
O O4 0.641164 0.816181 0.253658
O O5 0.795494 0.160452 0.874120
O O6 0.915881 0.565010 0.613102
O O7 0.937834 0.514381 0.799964
O O8 0.081226 0.166600 0.827306
O O9 0.627148 0.375765 0.901730
O O10 0.500000 0.000000 0.000000
O O11 0.241152 0.301956 0.140261
O O12 0.500000 0.500000 0.000000
O O13 0.237661 0.780600 0.896899
O O14 0.147998 0.227246 0.632148
O O15 0.234354 0.984834 0.588725
O O16 0.963847 0.005693 0.640480
O O17 0.500000 0.000000 0.500000
O O18 0.260853 0.129104 0.368478
#
# Coordination Sequence:
#
# PCOD9033412 Si02
#       8
#     2   2   2   2   2   2   2   2
#     4  12  25  42  70 106 136 181 241 288 346 415
#     4  10  22  44  67  99 137 173 233 289 347 416
#     4  11  24  47  69 100 141 186 222 289 362 412
#     4  11  27  46  67  99 142 184 238 286 349 427
#     4  11  23  42  67 102 135 181 230 292 355 405
#     4  11  22  40  70 100 135 177 230 287 349 413
#     4  12  25  42  67 102 138 182 234 289 346 419
#     4  10  23  43  68  93 136 185 225 291 354 405
#
# _framework density 22.602471999999999
#
# number of rings (size 3 to 8) (size 9 to 14) (size 15 to 20)
#    0.000    1.000    1.250    7.125    5.250    4.500 
#    2.250    0.000    0.000    0.000    0.000    0.000 
#    0.000    0.000    0.000    0.000    0.000    0.000 
#
# Total GULP energy -89343.621372 kJ/mol
# GULP energy per Si atom -5583.976336 kJ/mol
# Density = 2.255103 g / cm^3
# Si number density = 22.602472 Si / 1000 Ang^3
#
#
#
# Elastic Constant Matrix: (Units=GPa)
#
#
# Indices 1 2 3 4 5 6 
#
# 1 95.4239 -2.1688 34.9858 2.3230 -22.4560 -15.6244
# 2 -2.1688 38.1674 10.9272 9.0199 2.7287 -18.5777
# 3 34.9858 10.9272 76.9947 9.5141 -9.8757 -7.1123
# 4 2.3230 9.0199 9.5141 27.9254 4.8978 -4.6773
# 5 -22.4560 2.7287 -9.8757 4.8978 44.7520 -0.0788
# 6 -15.6244 -18.5777 -7.1123 -4.6773 -0.0788 39.3945
#
#
#
# Elastic Compliance Matrix: (Units=1/GPa)
#
#
# Indices 1 2 3 4 5 6 
#
# 1 0.015785 0.006424 -0.006427 -0.000946 0.006229 0.008030
# 2 0.006424 0.039406 -0.005664 -0.008216 0.000504 0.019134
# 3 -0.006427 -0.005664 0.017159 -0.004157 0.001357 -0.002613
# 4 -0.000946 -0.008216 -0.004157 0.040873 -0.005365 -0.000158
# 5 0.006229 0.000504 0.001357 -0.005365 0.026331 0.002369
# 6 0.008030 0.019134 -0.002613 -0.000158 0.002369 0.037106
#
#
# Mechanical properties :
#
#
# Convention : Reuss Voigt Hill
#
# Bulk Modulus (GPa) = 16.38938 33.11939 24.75439
# Shear Modulus (GPa) = 24.00002 33.53716 28.76859
#
# Velocity S-wave (km/s) = 3.26211 3.85617 3.57151
# Velocity P-wave (km/s) = 4.63199 5.87465 5.28994
#
# Compressibility (1/GPa) = 0.06101512
#
# Stress axis : x y z
#
# Youngs Moduli (GPa) = 63.34929 25.37698 58.27993
#
# Poissons Ratio (x) = -0.16301 0.37456
# Poissons Ratio (y) = -0.40694 0.33010
# Poissons Ratio (z) = 0.40714 0.14374
#
# Static dielectric constant tensor:
#      x y z
#    x 1.854940 0.020320 -0.052040 
#    y 0.020320 1.915340 -0.010640 
#    z -0.052040 -0.010640 1.999220 
# 
# From -- ./inp_files/356987.got.cif
#   From: 2010.05.17/outbox.cif.g08.bks.cpg/sg2_179_cif.got.tgz:356987.got - 2010.06.03 11:33:40.
