data_PCOD9033570
_publ_section_title
;
Structure prediction by ZEFSAII (Michael W. Deem and Ramdas Pophale) SiO2 
 PCOD9033570
Probable space group: P -1
;
_chemical_formula_sum "Si O2"
_cell_formula_units_Z 16
_cell_length_a 16.821058
_cell_length_b 22.956513
_cell_length_c 11.596473
_cell_angle_alpha 27.835406
_cell_angle_beta 36.664059
_cell_angle_gamma 18.347536
_cell_volume 636.767376
_symmetry_space_group_name_H-M "P -1"
_symmetry_group_IT_number 2
_symmetry_cell_setting 'triclinic'
loop_
_space_group_symop_operation_xyz
x,y,z
-x,-y,-z
loop_
_atom_site_type_symbol
_atom_site_label
_atom_site_fract_x
_atom_site_fract_y
_atom_site_fract_z
Si Si1 0.069436 0.740355 0.719356
Si Si2 0.218927 0.120223 0.971790
Si Si3 0.225428 0.364359 0.804669
Si Si4 0.036183 0.043020 0.192031
Si Si5 0.230131 0.495036 0.330968
Si Si6 0.309857 0.980806 0.532215
Si Si7 0.645702 0.184194 0.000640
Si Si8 0.688607 0.746025 0.847613
O O1 0.380223 0.477121 0.809564
O O2 0.955837 0.751154 0.937161
O O3 0.986984 0.950228 0.467666
O O4 0.930282 0.814983 0.632768
O O5 0.235051 0.965692 0.172885
O O6 0.508322 0.931862 0.993446
O O7 0.048856 0.324313 0.714421
O O8 0.253361 0.435328 0.540841
O O9 0.930836 0.551146 0.818790
O O10 0.238146 0.387149 0.886581
O O11 0.156865 0.921790 0.137532
O O12 0.797699 0.332538 0.950248
O O13 0.454584 0.260663 0.398313
O O14 0.363599 0.070941 0.371319
O O15 0.252336 0.931546 0.789315
O O16 0.551319 0.129270 0.149887
#
# Coordination Sequence:
#
# PCOD9033570 Si02
#       8
#     2   2   2   2   2   2   2   2
#     4  12  24  45  70 101 137 172 227 275 330 398
#     4  10  22  44  68  97 137 174 220 271 330 395
#     4  11  21  46  69  98 129 178 221 275 330 396
#     4  10  24  44  71 100 133 182 217 273 335 394
#     4  10  23  44  65 102 136 172 221 272 331 401
#     4  12  26  42  70 101 136 176 223 276 333 395
#     4  12  24  49  65  99 139 176 224 276 332 394
#     4  11  25  44  72  96 132 180 221 278 334 393
#
# _framework density 25.126915
#
# number of rings (size 3 to 8) (size 9 to 14) (size 15 to 20)
#    0.750    0.250    3.750    3.375    0.000    2.500 
#    4.500    5.000    0.000    0.000    0.000    0.000 
#    0.000    0.000    0.000    0.000    0.000    0.000 
#
# Total GULP energy -89451.656307 kJ/mol
# GULP energy per Si atom -5590.728519 kJ/mol
# Density = 2.506973 g / cm^3
# Si number density = 25.126915 Si / 1000 Ang^3
#
#
#
# Elastic Constant Matrix: (Units=GPa)
#
#
# Indices 1 2 3 4 5 6 
#
# 1 80.6313 23.9359 39.1030 6.4202 12.6410 20.3654
# 2 23.9359 103.1587 23.2279 -5.5029 -2.0981 34.9309
# 3 39.1030 23.2279 103.4064 -12.5218 17.1012 26.2122
# 4 6.4202 -5.5029 -12.5218 32.8520 8.6490 3.6404
# 5 12.6410 -2.0981 17.1012 8.6490 50.2611 -1.2042
# 6 20.3654 34.9309 26.2122 3.6404 -1.2042 39.6087
#
#
#
# Elastic Compliance Matrix: (Units=1/GPa)
#
#
# Indices 1 2 3 4 5 6 
#
# 1 0.017129 -0.002042 -0.005631 -0.005078 -0.001672 -0.002864
# 2 -0.002042 0.014592 0.001603 0.005099 -0.000620 -0.013367
# 3 -0.005631 0.001603 0.016370 0.010384 -0.006125 -0.010492
# 4 -0.005078 0.005099 0.010384 0.040088 -0.009246 -0.012723
# 5 -0.001672 -0.000620 -0.006125 -0.009246 0.024135 0.007044
# 6 -0.002864 -0.013367 -0.010492 -0.012723 0.007044 0.046835
#
#
# Mechanical properties :
#
#
# Convention : Reuss Voigt Hill
#
# Bulk Modulus (GPa) = 27.81549 51.08111 39.44830
# Shear Modulus (GPa) = 27.28183 37.93967 32.61075
#
# Velocity S-wave (km/s) = 3.29866 3.88999 3.60646
# Velocity P-wave (km/s) = 5.05987 6.36784 5.75116
#
# Compressibility (1/GPa) = 0.03595118
#
# Stress axis : x y z
#
# Youngs Moduli (GPa) = 58.38081 68.52893 61.08816
#
# Poissons Ratio (x) = 0.13990 0.34399
# Poissons Ratio (y) = 0.11919 -0.09790
# Poissons Ratio (z) = 0.32875 -0.10983
#
# Static dielectric constant tensor:
#      x y z
#    x 2.023880 -0.012230 -0.037560 
#    y -0.012230 1.994330 -0.019180 
#    z -0.037560 -0.019180 1.992000 
# 
# From -- ./inp_files/467426.got.cif
#   From: 2010.05.17/outbox.cif.g08.bks.cpg/sg2_234_cif.got.tgz:467426.got - 2010.06.03 11:33:40.
