data_PCOD9033023
_publ_section_title
;
Structure prediction by ZEFSAII (Michael W. Deem and Ramdas Pophale) SiO2 
 PCOD9033023
Probable space group: P -1
;
_chemical_formula_sum "Si O2"
_cell_formula_units_Z 15
_cell_length_a 9.508128
_cell_length_b 19.047186
_cell_length_c 6.655532
_cell_angle_alpha 135.725644
_cell_angle_beta 111.487357
_cell_angle_gamma 58.011439
_cell_volume 713.498227
_symmetry_space_group_name_H-M "P -1"
_symmetry_group_IT_number 2
_symmetry_cell_setting 'triclinic'
loop_
_space_group_symop_operation_xyz
x,y,z
-x,-y,-z
loop_
_atom_site_type_symbol
_atom_site_label
_atom_site_fract_x
_atom_site_fract_y
_atom_site_fract_z
Si Si1 0.937825 0.787912 0.663441
Si Si2 0.813281 0.717586 0.849755
Si Si3 0.304909 0.070084 0.496914
Si Si4 0.891960 0.376909 0.939301
Si Si5 0.500000 0.500000 0.500000
Si Si6 0.125684 0.922967 0.242602
Si Si7 0.599423 0.598278 0.352916
Si Si8 0.327917 0.705142 0.093625
O O1 0.894123 0.729703 0.708715
O O2 0.766855 0.863222 0.611660
O O3 0.055614 0.691588 0.378236
O O4 0.032970 0.862372 0.939523
O O5 0.667762 0.680199 0.655363
O O6 0.756361 0.833540 0.170927
O O7 0.943713 0.625638 0.875051
O O8 0.500000 0.000000 0.500000
O O9 0.204709 0.993318 0.307588
O O10 0.829639 0.307949 0.918722
O O11 0.748394 0.499225 0.110388
O O12 0.537882 0.541210 0.379096
O O13 0.396341 0.627087 0.778084
O O14 0.273506 0.828761 0.247523
O O15 0.000000 0.000000 0.500000
O O16 0.461979 0.664872 0.257011
#
# Coordination Sequence:
#
# PCOD9033023 Si02
#       8
#     2   2   2   2   1   2   2   2
#     4  11  24  44  72  94 137 184 226 284 347 404
#     4  11  24  44  65 101 137 177 223 283 341 414
#     4  11  27  44  67 103 138 177 237 284 343 405
#     4  10  22  44  65 100 134 171 232 275 341 418
#     4  10  24  46  66  98 138 176 218 282 348 394
#     4  12  24  47  70  99 137 186 231 283 339 413
#     4  11  26  41  70 101 139 175 226 282 342 410
#     4  11  25  41  70 102 133 176 235 276 340 409
#
# _framework density 21.023178000000001
#
# number of rings (size 3 to 8) (size 9 to 14) (size 15 to 20)
#    0.000    1.067    2.667    3.200    7.467    3.200 
#    0.000    0.000    0.000    0.000    0.000    0.000 
#    0.000    0.000    0.000    0.000    0.000    0.000 
#
# Total GULP energy -83606.724522 kJ/mol
# GULP energy per Si atom -5573.781635 kJ/mol
# Density = 2.097533 g / cm^3
# Si number density = 21.023178 Si / 1000 Ang^3
#
#
#
# Elastic Constant Matrix: (Units=GPa)
#
#
# Indices 1 2 3 4 5 6 
#
# 1 42.0512 22.4460 29.9200 -13.6286 -4.7349 -15.4548
# 2 22.4460 123.2039 39.9503 -1.8712 -11.7946 -19.4890
# 3 29.9200 39.9503 103.9928 -6.8643 -16.0137 -5.9418
# 4 -13.6286 -1.8712 -6.8643 30.7378 -5.1013 6.2114
# 5 -4.7349 -11.7946 -16.0137 -5.1013 39.6826 7.8082
# 6 -15.4548 -19.4890 -5.9418 6.2114 7.8082 27.0837
#
#
#
# Elastic Compliance Matrix: (Units=1/GPa)
#
#
# Indices 1 2 3 4 5 6 
#
# 1 0.042319 -0.001522 -0.009934 0.012493 -0.001431 0.018422
# 2 -0.001522 0.010462 -0.003344 -0.002065 0.000057 0.006384
# 3 -0.009934 -0.003344 0.014190 0.000700 0.004924 -0.006542
# 4 0.012493 -0.002065 0.000700 0.040484 0.007474 -0.005643
# 5 -0.001431 0.000057 0.004924 0.007474 0.029972 -0.010050
# 6 0.018422 0.006384 -0.006542 -0.005643 -0.010050 0.054784
#
#
# Mechanical properties :
#
#
# Convention : Reuss Voigt Hill
#
# Bulk Modulus (GPa) = 26.75906 50.43116 38.59511
# Shear Modulus (GPa) = 21.34306 31.29623 26.31965
#
# Velocity S-wave (km/s) = 3.18970 3.86249 3.54211
# Velocity P-wave (km/s) = 5.13046 6.62814 5.92680
#
# Compressibility (1/GPa) = 0.03737052
#
# Stress axis : x y z
#
# Youngs Moduli (GPa) = 23.62986 95.58279 70.47407
#
# Poissons Ratio (x) = 0.14546 0.70011
# Poissons Ratio (y) = 0.03596 0.23568
# Poissons Ratio (z) = 0.23475 0.31964
#
# Static dielectric constant tensor:
#      x y z
#    x 1.782050 -0.029480 0.033310 
#    y -0.029480 1.749000 -0.034020 
#    z 0.033310 -0.034020 1.776980 
# 
# From -- ./inp_files/39673.got.cif
#   From: 2010.05.17/outbox.cif.g08.bks.cpg/sg2_20_cif.got.tgz:39673.got - 2010.06.03 11:33:40.
