data_PCOD9033456
_publ_section_title
;
Structure prediction by ZEFSAII (Michael W. Deem and Ramdas Pophale) SiO2 
 PCOD9033456
Probable space group: P -1
;
_chemical_formula_sum "Si O2"
_cell_formula_units_Z 16
_cell_length_a 11.186622
_cell_length_b 14.484408
_cell_length_c 9.331260
_cell_angle_alpha 125.584979
_cell_angle_beta 108.641616
_cell_angle_gamma 115.082579
_cell_volume 712.050626
_symmetry_space_group_name_H-M "P -1"
_symmetry_group_IT_number 2
_symmetry_cell_setting 'triclinic'
loop_
_space_group_symop_operation_xyz
x,y,z
-x,-y,-z
loop_
_atom_site_type_symbol
_atom_site_label
_atom_site_fract_x
_atom_site_fract_y
_atom_site_fract_z
Si Si1 0.354778 0.368420 0.688367
Si Si2 0.708962 0.152053 0.807244
Si Si3 0.355058 0.560137 0.312059
Si Si4 0.527730 0.358064 0.248180
Si Si5 0.939168 0.213891 0.723738
Si Si6 0.340317 0.812225 0.860457
Si Si7 0.918831 0.007267 0.335284
Si Si8 0.920167 0.419015 0.707405
O O1 0.444228 0.320572 0.598211
O O2 0.381192 0.492900 0.701812
O O3 0.118457 0.179683 0.473392
O O4 0.500000 0.500000 0.000000
O O5 0.835530 0.139482 0.772475
O O6 0.500000 0.000000 0.500000
O O7 0.679095 0.137371 0.950959
O O8 0.857071 0.364466 0.023724
O O9 0.395667 0.553066 0.484162
O O10 0.253903 0.612952 0.340323
O O11 0.178565 0.363844 0.983775
O O12 0.595219 0.274239 0.174187
O O13 0.278188 0.185986 0.991579
O O14 0.835907 0.060572 0.430342
O O15 0.923384 0.323205 0.737944
O O16 0.138273 0.665185 0.549645
O O17 0.500000 0.000000 0.000000
O O18 0.000000 0.000000 0.500000
#
# Coordination Sequence:
#
# PCOD9033456 Si02
#       8
#     2   2   2   2   2   2   2   2
#     4  12  24  45  76  97 134 189 230 283 355 406
#     4  11  22  38  64  99 133 178 221 277 341 407
#     4  10  22  44  68 102 137 173 229 286 342 407
#     4  11  25  45  71 100 141 178 229 296 339 413
#     4  11  23  45  69  97 138 178 229 281 343 415
#     4  11  24  45  65 101 144 180 228 284 349 413
#     4  12  25  46  70 104 135 180 238 288 340 414
#     4  10  23  43  71  97 138 183 224 285 342 416
#
# _framework density 22.470310000000001
#
# number of rings (size 3 to 8) (size 9 to 14) (size 15 to 20)
#    0.000    1.000    2.500    4.500    1.750    2.500 
#   15.750    0.000    0.000    0.000    0.000    0.000 
#    0.000    0.000    0.000    0.000    0.000    0.000 
#
# Total GULP energy -89391.237534 kJ/mol
# GULP energy per Si atom -5586.952346 kJ/mol
# Density = 2.241917 g / cm^3
# Si number density = 22.470310 Si / 1000 Ang^3
#
#
#
# Elastic Constant Matrix: (Units=GPa)
#
#
# Indices 1 2 3 4 5 6 
#
# 1 73.4937 56.6626 20.1983 -5.9441 -7.1173 17.6517
# 2 56.6626 154.0595 60.2169 -12.0759 1.5832 11.0424
# 3 20.1983 60.2169 155.8756 -16.6270 8.2989 7.8069
# 4 -5.9441 -12.0759 -16.6270 43.6978 5.3185 -4.7757
# 5 -7.1173 1.5832 8.2989 5.3185 26.8415 -9.0801
# 6 17.6517 11.0424 7.8069 -4.7757 -9.0801 42.4277
#
#
#
# Elastic Compliance Matrix: (Units=1/GPa)
#
#
# Indices 1 2 3 4 5 6 
#
# 1 0.021140 -0.007487 0.000217 -0.000258 0.003980 -0.006064
# 2 -0.007487 0.010424 -0.002891 0.001042 -0.001679 0.000692
# 3 0.000217 -0.002891 0.008002 0.002528 -0.003153 -0.001201
# 4 -0.000258 0.001042 0.002528 0.024878 -0.005505 0.000993
# 5 0.003980 -0.001679 -0.003153 -0.005505 0.043176 0.007982
# 6 -0.006064 0.000692 -0.001201 0.000993 0.007982 0.027953
#
#
# Mechanical properties :
#
#
# Convention : Reuss Voigt Hill
#
# Bulk Modulus (GPa) = 51.96179 73.06493 62.51336
# Shear Modulus (GPa) = 30.80570 39.01677 34.91124
#
# Velocity S-wave (km/s) = 3.70665 4.17150 3.94593
# Velocity P-wave (km/s) = 6.44157 7.46918 6.97433
#
# Compressibility (1/GPa) = 0.01924491
#
# Stress axis : x y z
#
# Youngs Moduli (GPa) = 47.30389 95.93395 124.97440
#
# Poissons Ratio (x) = 0.71821 -0.02714
# Poissons Ratio (y) = 0.35414 0.36129
# Poissons Ratio (z) = -0.01027 0.27733
#
# Static dielectric constant tensor:
#      x y z
#    x 1.960470 0.043370 0.034900 
#    y 0.043370 1.787890 0.015350 
#    z 0.034900 0.015350 1.823460 
# 
# From -- ./inp_files/274122.got.cif
#   From: 2010.05.17/outbox.cif.g08.bks.cpg/sg2_138_cif.got.tgz:274122.got - 2010.06.03 11:33:40.
