data_PCOD9033976
_publ_section_title
;
Structure prediction by ZEFSAII (Michael W. Deem and Ramdas Pophale) SiO2 
 PCOD9033976
Probable space group: P -1
;
_chemical_formula_sum "Si O2"
_cell_formula_units_Z 16
_cell_length_a 20.715288
_cell_length_b 11.544294
_cell_length_c 14.624183
_cell_angle_alpha 131.020122
_cell_angle_beta 153.934757
_cell_angle_gamma 32.268570
_cell_volume 736.708501
_symmetry_space_group_name_H-M "P -1"
_symmetry_group_IT_number 2
_symmetry_cell_setting 'triclinic'
loop_
_space_group_symop_operation_xyz
x,y,z
-x,-y,-z
loop_
_atom_site_type_symbol
_atom_site_label
_atom_site_fract_x
_atom_site_fract_y
_atom_site_fract_z
Si Si1 0.614365 0.036424 0.054153
Si Si2 0.627549 0.240312 0.005350
Si Si3 0.980670 0.517912 0.205344
Si Si4 0.833160 0.108112 0.497874
Si Si5 0.935675 0.954810 0.751136
Si Si6 0.123015 0.476570 0.727833
Si Si7 0.620167 0.596023 0.415452
Si Si8 0.209121 0.015464 0.219164
O O1 0.565623 0.174679 0.973429
O O2 0.790916 0.994780 0.320129
O O3 0.720701 0.793474 0.022871
O O4 0.386221 0.212464 0.916399
O O5 0.500000 0.500000 0.000000
O O6 0.531027 0.270236 0.799707
O O7 0.902007 0.049315 0.254799
O O8 0.016893 0.468247 0.333903
O O9 0.137837 0.517702 0.357380
O O10 0.058748 0.289262 0.149919
O O11 0.800982 0.094930 0.557809
O O12 0.671396 0.379582 0.399364
O O13 0.793780 0.021681 0.695805
O O14 0.105245 0.674358 0.803778
O O15 0.084108 0.980021 0.986157
O O16 0.000000 0.500000 0.500000
O O17 0.471719 0.806468 0.410917
#
# Coordination Sequence:
#
# PCOD9033976 Si02
#       8
#     2   2   2   2   2   2   2   2
#     4  12  23  41  68 105 139 173 225 287 342 414
#     4  12  22  39  65 103 141 174 214 281 350 402
#     4  11  24  41  65  99 139 180 229 278 332 411
#     4  12  23  41  70 107 132 170 232 281 347 404
#     4  10  22  44  70  98 131 181 232 284 328 403
#     4  11  23  44  69 100 137 176 221 285 356 401
#     4  12  23  43  68 100 140 181 225 281 341 401
#     4  10  23  45  69  94 138 186 235 274 334 397
#
# _framework density 21.718222999999998
#
# number of rings (size 3 to 8) (size 9 to 14) (size 15 to 20)
#    0.000    0.750    3.750    4.875    0.000    0.500 
#    0.000    6.250    0.000    0.000    0.000    0.000 
#    0.000    0.000    0.000    0.000    0.000    0.000 
#
# Total GULP energy -89404.400541 kJ/mol
# GULP energy per Si atom -5587.775034 kJ/mol
# Density = 2.166879 g / cm^3
# Si number density = 21.718223 Si / 1000 Ang^3
#
#
#
# Elastic Constant Matrix: (Units=GPa)
#
#
# Indices 1 2 3 4 5 6 
#
# 1 110.9056 42.3042 21.9546 -5.4255 -9.5619 -5.8440
# 2 42.3042 160.1457 24.1721 -5.4304 1.6313 -3.6570
# 3 21.9546 24.1721 52.9005 -9.6408 -1.1366 -6.6587
# 4 -5.4255 -5.4304 -9.6408 15.7667 -0.3798 4.3658
# 5 -9.5619 1.6313 -1.1366 -0.3798 35.9239 -12.6417
# 6 -5.8440 -3.6570 -6.6587 4.3658 -12.6417 34.0976
#
#
#
# Elastic Compliance Matrix: (Units=1/GPa)
#
#
# Indices 1 2 3 4 5 6 
#
# 1 0.011011 -0.002424 -0.002978 0.000566 0.003789 0.002378
# 2 -0.002424 0.007250 -0.002343 0.000368 -0.001259 -0.000610
# 3 -0.002978 -0.002343 0.023765 0.011957 0.001171 0.002782
# 4 0.000566 0.000368 0.011957 0.073067 -0.001309 -0.007369
# 5 0.003789 -0.001259 0.001171 -0.001309 0.033634 0.013381
# 6 0.002378 -0.000610 0.002782 -0.007369 0.013381 0.036118
#
#
# Mechanical properties :
#
#
# Convention : Reuss Voigt Hill
#
# Bulk Modulus (GPa) = 37.68749 55.64595 46.66672
# Shear Modulus (GPa) = 23.90296 32.85903 28.38099
#
# Velocity S-wave (km/s) = 3.32112 3.89391 3.61887
# Velocity P-wave (km/s) = 5.66543 6.77452 6.24465
#
# Compressibility (1/GPa) = 0.02653401
#
# Stress axis : x y z
#
# Youngs Moduli (GPa) = 90.82181 137.93546 42.07952
#
# Poissons Ratio (x) = 0.33438 0.12531
# Poissons Ratio (y) = 0.22017 0.09860
# Poissons Ratio (z) = 0.27047 0.32322
#
# Static dielectric constant tensor:
#      x y z
#    x 1.836900 0.009530 0.011060 
#    y 0.009530 1.798440 -0.013440 
#    z 0.011060 -0.013440 1.777870 
# 
# From -- ./inp_files/540985.got.cif
#   From: 2010.05.17/outbox.cif.g08.bks.cpg/sg2_271_cif.got.tgz:540985.got - 2010.06.03 11:33:40.
