data_PCOD9033326
_publ_section_title
;
Structure prediction by ZEFSAII (Michael W. Deem and Ramdas Pophale) SiO2 
 PCOD9033326
Probable space group: P -1
;
_chemical_formula_sum "Si O2"
_cell_formula_units_Z 16
_cell_length_a 11.694601
_cell_length_b 20.154280
_cell_length_c 17.577157
_cell_angle_alpha 150.833229
_cell_angle_beta 37.594772
_cell_angle_gamma 160.510891
_cell_volume 661.388808
_symmetry_space_group_name_H-M "P -1"
_symmetry_group_IT_number 2
_symmetry_cell_setting 'triclinic'
loop_
_space_group_symop_operation_xyz
x,y,z
-x,-y,-z
loop_
_atom_site_type_symbol
_atom_site_label
_atom_site_fract_x
_atom_site_fract_y
_atom_site_fract_z
Si Si1 0.891646 0.712632 0.645581
Si Si2 0.803761 0.079060 0.478963
Si Si3 0.179176 0.754125 0.680816
Si Si4 0.856333 0.286895 0.910551
Si Si5 0.330571 0.588762 0.773075
Si Si6 0.371731 0.210307 0.349381
Si Si7 0.740123 0.472647 0.779499
Si Si8 0.140642 0.330071 0.929484
O O1 0.598558 0.653611 0.741979
O O2 0.662064 0.434559 0.478881
O O3 0.108579 0.863289 0.601340
O O4 0.090558 0.810259 0.717394
O O5 0.933087 0.291534 0.669315
O O6 0.055590 0.122869 0.430196
O O7 0.424547 0.780226 0.391340
O O8 0.000000 0.500000 0.500000
O O9 0.002484 0.670853 0.772772
O O10 0.597524 0.024235 0.742316
O O11 0.185265 0.423970 0.917901
O O12 0.648323 0.246558 0.042943
O O13 0.000000 0.500000 0.000000
O O14 0.473800 0.669865 0.694304
O O15 0.224932 0.970942 0.190355
O O16 0.427713 0.391508 0.855519
O O17 0.876489 0.579609 0.900027
#
# Coordination Sequence:
#
# PCOD9033326 Si02
#       8
#     2   2   2   2   2   2   2   2
#     4   9  19  38  68  95 131 170 214 273 317 397
#     4   8  17  36  66  96 122 163 225 265 315 380
#     4  12  28  45  64 100 135 171 219 268 338 385
#     4  12  29  43  60  96 138 176 212 269 332 386
#     4   9  19  38  65  95 127 174 220 259 329 388
#     4   8  15  36  65  96 119 165 220 267 315 379
#     4  10  23  42  73  97 122 178 222 273 319 385
#     4  10  22  44  67  94 131 168 228 269 319 390
#
# _framework density 24.191517999999999
#
# number of rings (size 3 to 8) (size 9 to 14) (size 15 to 20)
#    0.000    2.250    0.000    3.000    5.250    5.500 
#    0.000    3.750    0.000    0.000    0.000    0.000 
#    0.000    0.000    0.000    0.000    0.000    0.000 
#
# Total GULP energy -89281.397934 kJ/mol
# GULP energy per Si atom -5580.087371 kJ/mol
# Density = 2.413646 g / cm^3
# Si number density = 24.191518 Si / 1000 Ang^3
#
#
#
# Elastic Constant Matrix: (Units=GPa)
#
#
# Indices 1 2 3 4 5 6 
#
# 1 151.2242 15.9137 12.2140 16.1762 8.8994 9.0502
# 2 15.9137 50.6870 9.0829 12.2723 6.0428 -8.4349
# 3 12.2140 9.0829 80.9018 17.1045 -7.9245 5.4606
# 4 16.1762 12.2723 17.1045 23.0841 -2.6611 -7.1251
# 5 8.8994 6.0428 -7.9245 -2.6611 23.6705 0.8324
# 6 9.0502 -8.4349 5.4606 -7.1251 0.8324 29.2753
#
#
#
# Elastic Compliance Matrix: (Units=1/GPa)
#
#
# Indices 1 2 3 4 5 6 
#
# 1 0.007904 -0.001250 0.000404 -0.006915 -0.003138 -0.004473
# 2 -0.001250 0.024731 -0.001531 -0.010328 -0.007711 0.005503
# 3 0.000404 -0.001531 0.016121 -0.013026 0.004413 -0.006869
# 4 -0.006915 -0.010328 -0.013026 0.069913 0.008090 0.018377
# 5 -0.003138 -0.007711 0.004413 0.008090 0.047833 -0.001466
# 6 -0.004473 0.005503 -0.006869 0.018377 -0.001466 0.042922
#
#
# Mechanical properties :
#
#
# Convention : Reuss Voigt Hill
#
# Bulk Modulus (GPa) = 22.72601 39.69268 31.20934
# Shear Modulus (GPa) = 21.84866 31.57947 26.71406
#
# Velocity S-wave (km/s) = 3.00851 3.61694 3.32667
# Velocity P-wave (km/s) = 4.63495 5.82120 5.26161
#
# Compressibility (1/GPa) = 0.04400245
#
# Stress axis : x y z
#
# Youngs Moduli (GPa) = 126.52395 40.43447 62.02912
#
# Poissons Ratio (x) = 0.05053 -0.02504
# Poissons Ratio (y) = 0.15811 0.09497
# Poissons Ratio (z) = -0.05108 0.06191
#
# Static dielectric constant tensor:
#      x y z
#    x 1.987710 -0.029230 0.046700 
#    y -0.029230 1.988950 0.037080 
#    z 0.046700 0.037080 1.880110 
# 
# From -- ./inp_files/472408.got.cif
#   From: 2010.05.17/outbox.cif.g08.bks.cpg/sg2_237_cif.got.tgz:472408.got - 2010.06.03 11:33:40.
