data_PCOD9033455
_publ_section_title
;
Structure prediction by ZEFSAII (Michael W. Deem and Ramdas Pophale) SiO2 
 PCOD9033455
Probable space group: P -1
;
_chemical_formula_sum "Si O2"
_cell_formula_units_Z 16
_cell_length_a 9.942664
_cell_length_b 11.755787
_cell_length_c 8.940784
_cell_angle_alpha 67.045086
_cell_angle_beta 120.161327
_cell_angle_gamma 131.049855
_cell_volume 678.506375
_symmetry_space_group_name_H-M "P -1"
_symmetry_group_IT_number 2
_symmetry_cell_setting 'triclinic'
loop_
_space_group_symop_operation_xyz
x,y,z
-x,-y,-z
loop_
_atom_site_type_symbol
_atom_site_label
_atom_site_fract_x
_atom_site_fract_y
_atom_site_fract_z
Si Si1 0.333436 0.660598 0.376831
Si Si2 0.197990 0.829544 0.343752
Si Si3 0.870620 0.937663 0.767878
Si Si4 0.737740 0.759862 0.515603
Si Si5 0.704573 0.787512 0.132765
Si Si6 0.994992 0.335787 0.367616
Si Si7 0.697968 0.341460 0.997768
Si Si8 0.811547 0.654253 0.037249
O O1 0.354471 0.802055 0.397314
O O2 0.519581 0.660960 0.503315
O O3 0.144535 0.509490 0.413303
O O4 0.299929 0.664542 0.177964
O O5 0.113082 0.765386 0.495006
O O6 0.023918 0.730307 0.180204
O O7 0.244151 0.995632 0.276390
O O8 0.844341 0.915567 0.586713
O O9 0.805726 0.774301 0.871187
O O10 0.091151 0.060775 0.871361
O O11 0.713331 0.775804 0.320033
O O12 0.869411 0.700116 0.621737
O O13 0.694423 0.648846 0.119123
O O14 0.516844 0.779941 0.001565
O O15 0.847033 0.322023 0.172658
O O16 0.744910 0.502667 0.993013
#
# Coordination Sequence:
#
# PCOD9033455 Si02
#       8
#     2   2   2   2   2   2   2   2
#     4  11  25  43  65 106 139 174 226 281 340 399
#     4  11  24  42  70  98 139 180 225 280 336 404
#     4  11  24  45  71  96 137 188 224 274 341 404
#     4  11  24  43  71  98 136 180 229 276 336 409
#     4  10  22  44  68 102 135 174 231 275 338 402
#     4  12  23  43  71 101 140 175 226 285 341 394
#     4  11  25  42  71 106 134 177 226 284 339 400
#     4  11  22  44  71  98 141 179 226 276 344 404
#
# _framework density 23.581208
#
# number of rings (size 3 to 8) (size 9 to 14) (size 15 to 20)
#    0.000    1.000    3.750    4.125    1.750    2.500 
#    0.000    1.875    0.000    0.000    0.000    0.000 
#    0.000    0.000    0.000    0.000    0.000    0.000 
#
# Total GULP energy -89499.776256 kJ/mol
# GULP energy per Si atom -5593.736016 kJ/mol
# Density = 2.352754 g / cm^3
# Si number density = 23.581208 Si / 1000 Ang^3
#
#
#
# Elastic Constant Matrix: (Units=GPa)
#
#
# Indices 1 2 3 4 5 6 
#
# 1 128.0392 44.8319 68.3792 8.8785 22.5507 -24.5252
# 2 44.8319 69.2727 48.0920 1.3935 7.6180 -21.4915
# 3 68.3792 48.0920 101.1469 2.4259 17.2231 -5.9698
# 4 8.8785 1.3935 2.4259 27.5709 1.1576 0.5613
# 5 22.5507 7.6180 17.2231 1.1576 49.2461 3.9514
# 6 -24.5252 -21.4915 -5.9698 0.5613 3.9514 41.7562
#
#
#
# Elastic Compliance Matrix: (Units=1/GPa)
#
#
# Indices 1 2 3 4 5 6 
#
# 1 0.015240 -0.000988 -0.008539 -0.004080 -0.004361 0.007689
# 2 -0.000988 0.026427 -0.011098 -0.000247 -0.000671 0.011502
# 3 -0.008539 -0.011098 0.020611 0.001696 -0.001003 -0.007709
# 4 -0.004080 -0.000247 0.001696 0.037477 0.000661 -0.002847
# 5 -0.004361 -0.000671 -0.001003 0.000661 0.023163 -0.005251
# 6 0.007689 0.011502 -0.007709 -0.002847 -0.005251 0.033818
#
#
# Mechanical properties :
#
#
# Convention : Reuss Voigt Hill
#
# Bulk Modulus (GPa) = 47.55511 69.00721 58.28116
# Shear Modulus (GPa) = 24.39067 32.85836 28.62451
#
# Velocity S-wave (km/s) = 3.21958 3.73689 3.48784
# Velocity P-wave (km/s) = 5.83363 6.92433 6.40225
#
# Compressibility (1/GPa) = 0.02102823
#
# Stress axis : x y z
#
# Youngs Moduli (GPa) = 65.61710 37.83999 48.51695
#
# Poissons Ratio (x) = 0.03737 0.41429
# Poissons Ratio (y) = 0.06480 0.53846
# Poissons Ratio (z) = 0.56031 0.41996
#
# Static dielectric constant tensor:
#      x y z
#    x 1.936880 0.019250 -0.022820 
#    y 0.019250 1.908210 -0.011170 
#    z -0.022820 -0.011170 1.906150 
# 
# From -- ./inp_files/186172.got.cif
#   From: 2010.05.17/outbox.cif.g08.bks.cpg/sg2_94_cif.got.tgz:186172.got - 2010.06.03 11:33:40.
