data_PCOD9033897
_publ_section_title
;
Structure prediction by ZEFSAII (Michael W. Deem and Ramdas Pophale) SiO2 
 PCOD9033897
Probable space group: P -1
;
_chemical_formula_sum "Si O2"
_cell_formula_units_Z 16
_cell_length_a 28.661972
_cell_length_b 6.663391
_cell_length_c 25.978296
_cell_angle_alpha 120.311021
_cell_angle_beta 9.742356
_cell_angle_gamma 121.033206
_cell_volume 719.205518
_symmetry_space_group_name_H-M "P -1"
_symmetry_group_IT_number 2
_symmetry_cell_setting 'triclinic'
loop_
_space_group_symop_operation_xyz
x,y,z
-x,-y,-z
loop_
_atom_site_type_symbol
_atom_site_label
_atom_site_fract_x
_atom_site_fract_y
_atom_site_fract_z
Si Si1 0.207304 0.103134 0.332846
Si Si2 0.557374 0.138372 0.230797
Si Si3 0.328917 0.043907 0.809712
Si Si4 0.721371 0.378002 0.647492
Si Si5 0.804283 0.422345 0.154780
Si Si6 0.137081 0.074814 0.215607
Si Si7 0.863983 0.343071 0.374391
Si Si8 0.219669 0.560788 0.634708
O O1 0.272193 0.384372 0.296553
O O2 0.000000 0.000000 0.500000
O O3 0.047091 0.029941 0.550468
O O4 0.500000 0.000000 0.000000
O O5 0.401150 0.364644 0.432291
O O6 0.702407 0.102670 0.122448
O O7 0.338068 0.903064 0.435688
O O8 0.753195 0.118892 0.966207
O O9 0.635081 0.172594 0.483480
O O10 0.222520 0.859695 0.858316
O O11 0.160242 0.260580 0.031331
O O12 0.821545 0.449067 0.489712
O O13 0.943823 0.223202 0.410124
O O14 0.413380 0.235200 0.957706
O O15 0.500000 0.500000 0.500000
O O16 0.000000 0.500000 0.000000
O O17 0.947060 0.534014 0.962196
O O18 0.803967 0.482384 0.406594
#
# Coordination Sequence:
#
# PCOD9033897 Si02
#       8
#     2   2   2   2   2   2   2   2
#     4  12  28  46  69 103 145 195 247 283 339 428
#     4  10  22  44  70 108 143 174 234 295 374 425
#     4  11  24  45  73 104 140 176 236 292 361 427
#     4  11  25  46  72 106 144 180 237 300 357 422
#     4  12  29  50  70 100 145 194 242 284 339 434
#     4  11  25  44  73 105 141 190 230 297 360 417
#     4  10  23  42  72 109 136 175 234 298 365 426
#     4  11  26  43  75 103 141 191 222 305 363 414
#
# _framework density 22.246772
#
# number of rings (size 3 to 8) (size 9 to 14) (size 15 to 20)
#    0.000    1.000    2.500    2.250    7.000    7.000 
#    0.000    0.000    0.000    0.000    0.000    0.000 
#    0.000    0.000    0.000    0.000    0.000    0.000 
#
# Total GULP energy -89509.055959 kJ/mol
# GULP energy per Si atom -5594.315997 kJ/mol
# Density = 2.219614 g / cm^3
# Si number density = 22.246772 Si / 1000 Ang^3
#
#
#
# Elastic Constant Matrix: (Units=GPa)
#
#
# Indices 1 2 3 4 5 6 
#
# 1 -21.5660 16.7445 -26.7783 15.3753 -39.5164 105.4836
# 2 16.7445 57.6734 20.7861 -3.8557 0.1948 34.4507
# 3 -26.7783 20.7861 111.0344 6.5814 -6.9012 56.3148
# 4 15.3753 -3.8557 6.5814 33.2438 -0.9471 -24.6718
# 5 -39.5164 0.1948 -6.9012 -0.9471 37.8146 17.4641
# 6 105.4836 34.4507 56.3148 -24.6718 17.4641 -28.3692
#
#
#
# Elastic Compliance Matrix: (Units=1/GPa)
#
#
# Indices 1 2 3 4 5 6 
#
# 1 0.008070 -0.008211 -0.002728 0.004831 0.002559 0.011996
# 2 -0.008211 0.025966 -0.002850 0.000836 -0.005238 -0.008608
# 3 -0.002728 -0.002850 0.008135 0.000171 -0.001910 0.001219
# 4 0.004831 0.000836 0.000171 0.027484 0.006137 -0.000809
# 5 0.002559 -0.005238 -0.001910 0.006137 0.024691 0.009225
# 6 0.011996 -0.008608 0.001219 -0.000809 0.009225 0.007702
#
#
# Mechanical properties :
#
#
# Convention : Reuss Voigt Hill
#
# Bulk Modulus (GPa) = 68.52875 18.73849 43.63362
# Shear Modulus (GPa) = 37.17723 17.63047 27.40385
#
# Velocity S-wave (km/s) = 4.09238 2.81818 3.51353
# Velocity P-wave (km/s) = 7.29389 4.36244 6.00965
#
# Compressibility (1/GPa) = 0.01459242
#
# Stress axis : x y z
#
# Youngs Moduli (GPa) = 123.91059 38.51199 122.93084
#
# Poissons Ratio (x) = 0.31623 0.33533
# Poissons Ratio (y) = 1.01745 0.35039
# Poissons Ratio (z) = 0.33800 0.10977
#
# Static dielectric constant tensor:
#      x y z
#    x 1.822040 0.026020 -0.027810 
#    y 0.026020 1.818990 -0.054430 
#    z -0.027810 -0.054430 1.845910 
# 
# From -- ./inp_files/13117.got.cif
#   From: 2010.05.17/outbox.cif.g08.bks.cpg/sg2_7_cif.got.tgz:13117.got - 2010.06.03 11:33:40.
