data_PCOD9033558
_publ_section_title
;
Structure prediction by ZEFSAII (Michael W. Deem and Ramdas Pophale) SiO2 
 PCOD9033558
Probable space group: P -1
;
_chemical_formula_sum "Si O2"
_cell_formula_units_Z 15
_cell_length_a 11.718607
_cell_length_b 12.461058
_cell_length_c 6.876383
_cell_angle_alpha 46.644771
_cell_angle_beta 94.694655
_cell_angle_gamma 86.999606
_cell_volume 719.459475
_symmetry_space_group_name_H-M "P -1"
_symmetry_group_IT_number 2
_symmetry_cell_setting 'triclinic'
loop_
_space_group_symop_operation_xyz
x,y,z
-x,-y,-z
loop_
_atom_site_type_symbol
_atom_site_label
_atom_site_fract_x
_atom_site_fract_y
_atom_site_fract_z
Si Si1 0.373177 0.470982 0.277696
Si Si2 0.928678 0.980994 0.209210
Si Si3 0.075663 0.774263 0.799590
Si Si4 0.388851 0.713582 0.300958
Si Si5 0.908760 0.600340 0.221380
Si Si6 0.746397 0.792010 0.256252
Si Si7 0.255764 0.604550 0.749177
Si Si8 0.500000 0.000000 0.000000
O O1 0.359294 0.616232 0.234615
O O2 0.496593 0.379985 0.467572
O O3 0.281045 0.359682 0.454992
O O4 0.360628 0.509298 0.000820
O O5 0.890112 0.138129 0.115155
O O6 0.824221 0.889419 0.269202
O O7 0.014253 0.887557 0.489950
O O8 0.000000 0.000000 0.000000
O O9 0.182778 0.685943 0.812697
O O10 0.985168 0.669011 0.987326
O O11 0.294378 0.714452 0.456944
O O12 0.422014 0.875078 0.064672
O O13 0.827159 0.732549 0.158846
O O14 0.822929 0.499295 0.240543
O O15 0.000000 0.500000 0.500000
O O16 0.621810 0.891160 0.079280
#
# Coordination Sequence:
#
# PCOD9033558 Si02
#       8
#     2   2   2   2   2   2   2   1
#     4  10  22  44  68  97 130 181 230 285 342 408
#     4  11  24  43  67  91 140 184 221 284 350 414
#     4  11  26  40  63 106 131 181 231 280 352 412
#     4  10  23  44  67  97 133 176 229 282 349 407
#     4  12  24  42  69 101 141 188 231 288 347 407
#     4  11  22  44  70  96 138 182 227 285 343 411
#     4  12  24  39  71  98 134 176 234 287 341 412
#     4  10  26  40  72 100 130 182 224 280 346 418
#
# _framework density 20.848984999999999
#
# number of rings (size 3 to 8) (size 9 to 14) (size 15 to 20)
#    0.000    1.067    2.667    3.200    3.733    0.000 
#    0.000    0.667    0.000    0.000    0.000    0.000 
#    0.000    0.000    0.000    0.000    0.000    0.000 
#
# Total GULP energy -83549.903344 kJ/mol
# GULP energy per Si atom -5569.993556 kJ/mol
# Density = 2.080153 g / cm^3
# Si number density = 20.848985 Si / 1000 Ang^3
#
#
#
# Elastic Constant Matrix: (Units=GPa)
#
#
# Indices 1 2 3 4 5 6 
#
# 1 102.9275 65.8185 19.6539 4.2181 -4.3776 11.4331
# 2 65.8185 106.2189 4.4413 3.3397 3.4973 10.9602
# 3 19.6539 4.4413 61.0772 13.8771 3.2218 6.2333
# 4 4.2181 3.3397 13.8771 29.2774 3.7113 2.0404
# 5 -4.3776 3.4973 3.2218 3.7113 41.1652 -8.0327
# 6 11.4331 10.9602 6.2333 2.0404 -8.0327 53.2154
#
#
#
# Elastic Compliance Matrix: (Units=1/GPa)
#
#
# Indices 1 2 3 4 5 6 
#
# 1 0.017852 -0.010913 -0.005240 0.000807 0.003057 -0.000544
# 2 -0.010913 0.016374 0.002930 -0.001177 -0.003023 -0.001782
# 3 -0.005240 0.002930 0.020118 -0.008744 -0.001942 -0.001792
# 4 0.000807 -0.001177 -0.008744 0.038727 -0.002780 -0.000811
# 5 0.003057 -0.003023 -0.001942 -0.002780 0.026104 0.004240
# 6 -0.000544 -0.001782 -0.001792 -0.000811 0.004240 0.020156
#
#
# Mechanical properties :
#
#
# Convention : Reuss Voigt Hill
#
# Bulk Modulus (GPa) = 35.84517 50.00568 42.92542
# Shear Modulus (GPa) = 28.55877 36.75226 32.65551
#
# Velocity S-wave (km/s) = 3.70509 4.20311 3.96193
# Velocity P-wave (km/s) = 5.96101 6.89867 6.44691
#
# Compressibility (1/GPa) = 0.02789776
#
# Stress axis : x y z
#
# Youngs Moduli (GPa) = 56.01700 61.07072 49.70714
#
# Poissons Ratio (x) = 0.66644 0.26047
# Poissons Ratio (y) = 0.61129 -0.14562
# Poissons Ratio (z) = 0.29353 -0.17891
#
# Static dielectric constant tensor:
#      x y z
#    x 1.763560 -0.010420 0.038440 
#    y -0.010420 1.657860 -0.007340 
#    z 0.038440 -0.007340 1.758810 
# 
# From -- ./inp_files/68186.got.cif
#   From: 2010.05.17/outbox.cif.g08.bks.cpg/sg2_35_cif.got.tgz:68186.got - 2010.06.03 11:33:40.
