data_PCOD9033848
_publ_section_title
;
Structure prediction by ZEFSAII (Michael W. Deem and Ramdas Pophale) SiO2 
 PCOD9033848
Probable space group: P -1
;
_chemical_formula_sum "Si O2"
_cell_formula_units_Z 13
_cell_length_a 10.877573
_cell_length_b 6.873117
_cell_length_c 8.654177
_cell_angle_alpha 73.207032
_cell_angle_beta 73.971626
_cell_angle_gamma 112.464233
_cell_volume 514.900598
_symmetry_space_group_name_H-M "P -1"
_symmetry_group_IT_number 2
_symmetry_cell_setting 'triclinic'
loop_
_space_group_symop_operation_xyz
x,y,z
-x,-y,-z
loop_
_atom_site_type_symbol
_atom_site_label
_atom_site_fract_x
_atom_site_fract_y
_atom_site_fract_z
Si Si1 0.034813 0.646983 0.108977
Si Si2 0.567317 0.335814 0.201602
Si Si3 0.769473 0.870559 0.612227
Si Si4 0.143163 0.501275 0.381216
Si Si5 0.500000 0.000000 0.000000
Si Si6 0.736680 0.282679 0.425763
Si Si7 0.247105 0.121209 0.026708
O O1 0.140467 0.586600 0.190706
O O2 0.876646 0.533010 0.274100
O O3 0.119108 0.927133 0.007712
O O4 0.000000 0.500000 0.000000
O O5 0.407035 0.311956 0.288738
O O6 0.611566 0.240465 0.358928
O O7 0.694028 0.605058 0.075698
O O8 0.546456 0.180585 0.095328
O O9 0.856641 0.740171 0.562548
O O10 0.806494 0.945103 0.761360
O O11 0.787008 0.087419 0.453965
O O12 0.284713 0.687358 0.390380
O O13 0.000000 0.500000 0.500000
O O14 0.612852 0.910924 0.036897
#
# Coordination Sequence:
#
# PCOD9033848 Si02
#       7
#     2   2   2   2   1   2   2
#     4  11  25  46  73 105 149 199 246 311 371 443
#     4  11  26  44  75 115 150 198 251 303 376 449
#     4  11  24  45  77 105 149 198 249 308 377 443
#     4  10  25  47  70 106 147 195 245 312 374 437
#     4  10  22  44  70 102 156 186 246 308 362 438
#     4  11  25  47  70 111 152 191 250 308 373 446
#     4  11  25  43  73 112 147 202 246 307 374 446
#
# _framework density 25.247592999999998
#
# number of rings (size 3 to 8) (size 9 to 14) (size 15 to 20)
#    0.000    1.231    1.538    3.231    6.462    6.154 
#    0.000    0.000    0.000    0.000    0.000    0.000 
#    0.000    0.000    0.000    0.000    0.000    0.000 
#
# Total GULP energy -72522.691731 kJ/mol
# GULP energy per Si atom -5578.668595 kJ/mol
# Density = 2.519013 g / cm^3
# Si number density = 25.247593 Si / 1000 Ang^3
#
#
#
# Elastic Constant Matrix: (Units=GPa)
#
#
# Indices 1 2 3 4 5 6 
#
# 1 112.2309 65.3710 50.0433 13.4148 15.4333 -10.3696
# 2 65.3710 213.7135 68.0130 -1.2924 11.9423 8.0675
# 3 50.0433 68.0130 68.3183 0.6603 21.0997 16.7016
# 4 13.4148 -1.2924 0.6603 39.6350 9.9524 0.2931
# 5 15.4333 11.9423 21.0997 9.9524 47.6660 7.0194
# 6 -10.3696 8.0675 16.7016 0.2931 7.0194 64.5402
#
#
#
# Elastic Compliance Matrix: (Units=1/GPa)
#
#
# Indices 1 2 3 4 5 6 
#
# 1 0.016227 -0.001413 -0.012090 -0.005569 0.000752 0.005856
# 2 -0.001413 0.007121 -0.006609 0.000456 0.001440 0.000435
# 3 -0.012090 -0.006609 0.035336 0.005851 -0.009937 -0.009206
# 4 -0.005569 0.000456 0.005851 0.028708 -0.006619 -0.001876
# 5 0.000752 0.001440 -0.009937 -0.006619 0.026201 -0.000307
# 6 0.005856 0.000435 -0.009206 -0.001876 -0.000307 0.018805
#
#
# Mechanical properties :
#
#
# Convention : Reuss Voigt Hill
#
# Bulk Modulus (GPa) = 54.17141 84.56858 69.37000
# Shear Modulus (GPa) = 27.96792 44.42394 36.19593
#
# Velocity S-wave (km/s) = 3.33189 4.19923 3.79045
# Velocity P-wave (km/s) = 6.02533 7.55512 6.83317
#
# Compressibility (1/GPa) = 0.01845992
#
# Stress axis : x y z
#
# Youngs Moduli (GPa) = 61.62433 140.43902 28.29955
#
# Poissons Ratio (x) = 0.19841 0.34215
# Poissons Ratio (y) = 0.08706 0.18704
# Poissons Ratio (z) = 0.74505 0.92819
#
# Static dielectric constant tensor:
#      x y z
#    x 1.457890 0.742110 -0.002540 
#    y 0.742110 1.175550 -0.070030 
#    z -0.002540 -0.070030 2.340520 
# 
# From -- ./inp_files/229005.got.cif
#   From: 2010.05.17/outbox.cif.g08.bks.cpg/sg2_115_cif.got.tgz:229005.got - 2010.06.03 11:33:40.
