data_PCOD9033729
_publ_section_title
;
Structure prediction by ZEFSAII (Michael W. Deem and Ramdas Pophale) SiO2 
 PCOD9033729
Probable space group: P -1
;
_chemical_formula_sum "Si O2"
_cell_formula_units_Z 16
_cell_length_a 11.628972
_cell_length_b 9.463449
_cell_length_c 14.459198
_cell_angle_alpha 92.523012
_cell_angle_beta 106.357324
_cell_angle_gamma 143.514682
_cell_volume 799.400639
_symmetry_space_group_name_H-M "P -1"
_symmetry_group_IT_number 2
_symmetry_cell_setting 'triclinic'
loop_
_space_group_symop_operation_xyz
x,y,z
-x,-y,-z
loop_
_atom_site_type_symbol
_atom_site_label
_atom_site_fract_x
_atom_site_fract_y
_atom_site_fract_z
Si Si1 0.035321 0.377680 0.461209
Si Si2 0.119750 0.425937 0.679039
Si Si3 0.216446 0.681517 0.337372
Si Si4 0.826737 0.919010 0.016789
Si Si5 0.653414 0.317085 0.959596
Si Si6 0.849997 0.244549 0.085867
Si Si7 0.421583 0.999948 0.720403
Si Si8 0.707597 0.609634 0.128088
O O1 0.102097 0.358287 0.566432
O O2 0.209829 0.572965 0.422100
O O3 0.000000 0.500000 0.500000
O O4 0.786593 0.103361 0.352486
O O5 0.182116 0.366079 0.762751
O O6 0.884995 0.269071 0.651434
O O7 0.311256 0.745520 0.732699
O O8 0.452251 0.918661 0.342735
O O9 0.029731 0.440552 0.214153
O O10 0.823303 0.868372 0.123130
O O11 0.893600 0.150252 0.031862
O O12 0.560720 0.636676 0.918683
O O13 0.000000 0.000000 0.000000
O O14 0.599804 0.252207 0.837243
O O15 0.401254 0.032530 0.936258
O O16 0.823838 0.363790 0.028610
O O17 0.722420 0.525470 0.037263
#
# Coordination Sequence:
#
# PCOD9033729 Si02
#       8
#     2   2   2   2   2   2   2   2
#     4   8  18  32  47  73 111 139 173 217 267 312
#     4  10  19  35  52  76 109 138 179 221 261 312
#     4  10  18  30  50  82 106 138 176 216 272 310
#     4  10  23  37  52  77 112 145 176 207 268 324
#     4  10  17  32  56  79 111 133 174 221 265 311
#     4  10  18  33  53  77 111 140 171 221 259 319
#     4  10  18  28  48  82 109 138 167 217 270 314
#     4  10  21  38  55  78 108 143 175 217 264 318
#
# _framework density 20.014996
#
# number of rings (size 3 to 8) (size 9 to 14) (size 15 to 20)
#    0.000    2.500    3.750    1.500    1.750    7.000 
#    0.000    0.000    0.000    0.750    0.000    1.750 
#    0.000    0.000    0.000    0.000    0.000    0.000 
#
# Total GULP energy -89207.022341 kJ/mol
# GULP energy per Si atom -5575.438896 kJ/mol
# Density = 1.996944 g / cm^3
# Si number density = 20.014996 Si / 1000 Ang^3
#
#
#
# Elastic Constant Matrix: (Units=GPa)
#
#
# Indices 1 2 3 4 5 6 
#
# 1 91.5816 20.6857 15.7585 -17.0440 -0.2083 10.0807
# 2 20.6857 59.6229 11.5067 -15.8357 6.7516 11.6801
# 3 15.7585 11.5067 108.9020 -23.8216 10.6730 -6.2152
# 4 -17.0440 -15.8357 -23.8216 26.0752 -6.2573 -7.4403
# 5 -0.2083 6.7516 10.6730 -6.2573 23.6428 -11.2296
# 6 10.0807 11.6801 -6.2152 -7.4403 -11.2296 28.5963
#
#
#
# Elastic Compliance Matrix: (Units=1/GPa)
#
#
# Indices 1 2 3 4 5 6 
#
# 1 0.012969 -0.002743 -0.000378 0.006854 0.002521 -0.000760
# 2 -0.002743 0.022611 -0.000235 0.006443 -0.009619 -0.010421
# 3 -0.000378 -0.000235 0.012421 0.013192 0.001192 0.006829
# 4 0.006854 0.006443 0.013192 0.071762 0.023467 0.025706
# 5 0.002521 -0.009619 0.001192 0.023467 0.067863 0.036055
# 6 -0.000760 -0.010421 0.006829 0.025706 0.036055 0.061825
#
#
# Mechanical properties :
#
#
# Convention : Reuss Voigt Hill
#
# Bulk Modulus (GPa) = 24.21932 39.55648 31.88790
# Shear Modulus (GPa) = 18.52369 29.80656 24.16512
#
# Velocity S-wave (km/s) = 3.04549 3.86322 3.47847
# Velocity P-wave (km/s) = 4.94909 6.30124 5.66565
#
# Compressibility (1/GPa) = 0.04128935
#
# Stress axis : x y z
#
# Youngs Moduli (GPa) = 77.10832 44.22666 80.51066
#
# Poissons Ratio (x) = 0.12129 0.03043
# Poissons Ratio (y) = 0.21147 0.01891
# Poissons Ratio (z) = 0.02915 0.01039
#
# Static dielectric constant tensor:
#      x y z
#    x 1.731950 0.012350 -0.009870 
#    y 0.012350 1.758150 0.000520 
#    z -0.009870 0.000520 1.773280 
# 
# From -- ./inp_files/495236.got.cif
#   From: 2010.05.17/outbox.cif.g08.bks.cpg/sg2_248_cif.got.tgz:495236.got - 2010.06.03 11:33:40.
