data_PCOD9033929
_publ_section_title
;
Structure prediction by ZEFSAII (Michael W. Deem and Ramdas Pophale) SiO2 
 PCOD9033929
Probable space group: P -1
;
_chemical_formula_sum "Si O2"
_cell_formula_units_Z 16
_cell_length_a 24.527916
_cell_length_b 17.489588
_cell_length_c 11.488423
_cell_angle_alpha 30.932510
_cell_angle_beta 38.529026
_cell_angle_gamma 18.914170
_cell_volume 808.496678
_symmetry_space_group_name_H-M "P -1"
_symmetry_group_IT_number 2
_symmetry_cell_setting 'triclinic'
loop_
_space_group_symop_operation_xyz
x,y,z
-x,-y,-z
loop_
_atom_site_type_symbol
_atom_site_label
_atom_site_fract_x
_atom_site_fract_y
_atom_site_fract_z
Si Si1 0.342161 0.756006 0.172107
Si Si2 0.289578 0.106605 0.968934
Si Si3 0.979822 0.188385 0.848982
Si Si4 0.512412 0.220887 0.276653
Si Si5 0.622878 0.236851 0.545793
Si Si6 0.014709 0.735568 0.513852
Si Si7 0.625538 0.746989 0.756958
Si Si8 0.199437 0.773693 0.213303
O O1 0.507720 0.427775 0.374447
O O2 0.203034 0.845305 0.238642
O O3 0.401123 0.771617 0.945159
O O4 0.274160 0.974796 0.093895
O O5 0.124945 0.448262 0.771631
O O6 0.459183 0.940881 0.852559
O O7 0.334375 0.988161 0.179261
O O8 0.960532 0.320284 0.595204
O O9 0.812973 0.424716 0.900481
O O10 0.136331 0.977098 0.950879
O O11 0.000000 0.000000 0.000000
O O12 0.398126 0.299124 0.268719
O O13 0.392042 0.449502 0.281688
O O14 0.633734 0.912117 0.518296
O O15 0.500000 0.500000 0.500000
O O16 0.811139 0.031509 0.486416
O O17 0.091526 0.780318 0.370803
#
# Coordination Sequence:
#
# PCOD9033929 Si02
#       8
#     2   2   2   2   2   2   2   2
#     4  10  22  37  56  87 122 150 186 240 297 335
#     4  10  21  39  63  78 117 154 204 231 279 342
#     4  10  19  30  56  87 117 142 188 230 282 347
#     4  10  17  32  56  82 118 150 181 232 291 346
#     4  10  23  39  62  84 111 156 203 240 278 339
#     4  11  20  38  62  87 112 151 201 234 281 351
#     4  10  17  33  57  89 108 152 193 231 275 347
#     4  11  21  34  55  91 122 147 185 241 297 335
#
# _framework density 19.789815999999998
#
# number of rings (size 3 to 8) (size 9 to 14) (size 15 to 20)
#    0.000    1.750    3.750    3.000    8.750    0.000 
#    0.000    6.875    0.000    0.000    0.000    0.000 
#    0.000    0.000    0.000    0.000    0.000    0.000 
#
# Total GULP energy -89120.823333 kJ/mol
# GULP energy per Si atom -5570.051458 kJ/mol
# Density = 1.974477 g / cm^3
# Si number density = 19.789816 Si / 1000 Ang^3
#
#
#
# Elastic Constant Matrix: (Units=GPa)
#
#
# Indices 1 2 3 4 5 6 
#
# 1 68.6418 24.1186 42.8638 -4.1056 0.9689 -17.3375
# 2 24.1186 63.9998 -2.5872 -8.6610 -4.2550 -12.6249
# 3 42.8638 -2.5872 98.8228 -11.4429 1.4604 -21.8480
# 4 -4.1056 -8.6610 -11.4429 28.2265 3.0337 6.4679
# 5 0.9689 -4.2550 1.4604 3.0337 5.8750 -7.2926
# 6 -17.3375 -12.6249 -21.8480 6.4679 -7.2926 8.8584
#
#
#
# Elastic Compliance Matrix: (Units=1/GPa)
#
#
# Indices 1 2 3 4 5 6 
#
# 1 0.025696 -0.011565 -0.012019 -0.003281 -0.009814 -0.001516
# 2 -0.011565 0.015370 0.001821 0.011771 -0.023273 -0.023992
# 3 -0.012019 0.001821 0.013551 0.010477 -0.024595 -0.015402
# 4 -0.003281 0.011771 0.010477 0.036343 0.014364 0.021484
# 5 -0.009814 -0.023273 -0.024595 0.014364 -0.015528 -0.136310
# 6 -0.001516 -0.023992 -0.015402 0.021484 -0.136310 -0.090162
#
#
# Mechanical properties :
#
#
# Convention : Reuss Voigt Hill
#
# Bulk Modulus (GPa) = 90.14735 40.02829 65.08782
# Shear Modulus (GPa) = 153.87979 19.72994 86.80487
#
# Velocity S-wave (km/s) = 8.82756 3.16092 6.63013
# Velocity P-wave (km/s) = 12.22916 5.79590 9.56935
#
# Compressibility (1/GPa) = 0.01109295
#
# Stress axis : x y z
#
# Youngs Moduli (GPa) = 38.91595 65.06212 73.79311
#
# Poissons Ratio (x) = 0.75246 0.88689
# Poissons Ratio (y) = 0.45007 -0.13441
# Poissons Ratio (z) = 0.46771 -0.11851
#
# Static dielectric constant tensor:
#      x y z
#    x 1.724090 -0.000640 0.028270 
#    y -0.000640 1.707610 0.021880 
#    z 0.028270 0.021880 1.770060 
# 
# From -- ./inp_files/223682.got.cif
#   From: 2010.05.17/outbox.cif.g08.bks.cpg/sg2_112_cif.got.tgz:223682.got - 2010.06.03 11:33:40.
