data_PCOD9033388
_publ_section_title
;
Structure prediction by ZEFSAII (Michael W. Deem and Ramdas Pophale) SiO2 
 PCOD9033388
Probable space group: P -1
;
_chemical_formula_sum "Si O2"
_cell_formula_units_Z 15
_cell_length_a 9.554093
_cell_length_b 15.471556
_cell_length_c 10.042663
_cell_angle_alpha 56.402028
_cell_angle_beta 137.239754
_cell_angle_gamma 95.477649
_cell_volume 701.312229
_symmetry_space_group_name_H-M "P -1"
_symmetry_group_IT_number 2
_symmetry_cell_setting 'triclinic'
loop_
_space_group_symop_operation_xyz
x,y,z
-x,-y,-z
loop_
_atom_site_type_symbol
_atom_site_label
_atom_site_fract_x
_atom_site_fract_y
_atom_site_fract_z
Si Si1 0.273516 0.618239 0.310939
Si Si2 0.000000 0.000000 0.500000
Si Si3 0.009613 0.332723 0.553321
Si Si4 0.777709 0.902937 0.231523
Si Si5 0.161886 0.392007 0.863879
Si Si6 0.285931 0.987568 0.197494
Si Si7 0.850592 0.884768 0.721516
Si Si8 0.355175 0.734222 0.516743
O O1 0.500000 0.500000 0.500000
O O2 0.385861 0.665256 0.458637
O O3 0.096421 0.580336 0.284776
O O4 0.076651 0.741821 0.986376
O O5 0.054261 0.092088 0.543731
O O6 0.084620 0.033586 0.390110
O O7 0.164843 0.234445 0.630624
O O8 0.191895 0.316131 0.814896
O O9 0.871612 0.477034 0.299210
O O10 0.812243 0.300269 0.487364
O O11 0.500000 0.000000 0.000000
O O12 0.796809 0.948805 0.058796
O O13 0.390770 0.315778 0.185932
O O14 0.583945 0.917423 0.463752
O O15 0.240747 0.878623 0.285177
O O16 0.187130 0.079849 0.177096
#
# Coordination Sequence:
#
# PCOD9033388 Si02
#       8
#     2   1   2   2   2   2   2   2
#     4  11  25  44  65  99 137 183 232 281 351 421
#     4  12  26  44  68 106 148 174 236 288 358 420
#     4  10  24  41  68  99 136 180 230 288 349 413
#     4  12  26  44  66 106 146 182 229 291 359 416
#     4  10  22  44  67  98 134 177 238 289 339 413
#     4  11  23  45  76  99 138 185 235 286 350 418
#     4  11  24  45  73 104 137 185 231 289 352 417
#     4  11  22  41  71  97 129 182 236 287 344 419
#
# _framework density 21.388475
#
# number of rings (size 3 to 8) (size 9 to 14) (size 15 to 20)
#    0.000    1.067    2.667    3.600    1.867    6.400 
#    0.000    1.333    0.000    0.000    0.000    0.000 
#    0.000    0.000    0.000    0.000    0.000    0.000 
#
# Total GULP energy -83582.173468 kJ/mol
# GULP energy per Si atom -5572.144898 kJ/mol
# Density = 2.133979 g / cm^3
# Si number density = 21.388475 Si / 1000 Ang^3
#
#
#
# Elastic Constant Matrix: (Units=GPa)
#
#
# Indices 1 2 3 4 5 6 
#
# 1 67.0399 16.9246 3.3133 -15.8526 -7.5749 -1.2304
# 2 16.9246 135.8931 39.9116 -5.0123 9.8835 -8.9250
# 3 3.3133 39.9116 87.7601 12.8316 3.9773 -9.2863
# 4 -15.8526 -5.0123 12.8316 37.0501 -4.2568 -4.7397
# 5 -7.5749 9.8835 3.9773 -4.2568 31.5910 -6.9908
# 6 -1.2304 -8.9250 -9.2863 -4.7397 -6.9908 37.9500
#
#
#
# Elastic Compliance Matrix: (Units=1/GPa)
#
#
# Indices 1 2 3 4 5 6 
#
# 1 0.018455 -0.001959 -0.001216 0.009136 0.006922 0.002256
# 2 -0.001959 0.009099 -0.004108 0.001647 -0.002392 0.000836
# 3 -0.001216 -0.004108 0.014410 -0.006020 -0.001293 0.001530
# 4 0.009136 0.001647 -0.006020 0.034804 0.008246 0.005077
# 5 0.006922 -0.002392 -0.001293 0.008246 0.036925 0.007177
# 6 0.002256 0.000836 0.001530 0.005077 0.007177 0.028951
#
#
# Mechanical properties :
#
#
# Convention : Reuss Voigt Hill
#
# Bulk Modulus (GPa) = 36.50194 45.66579 41.08386
# Shear Modulus (GPa) = 30.05826 36.68780 33.37303
#
# Velocity S-wave (km/s) = 3.75286 4.14612 3.95438
# Velocity P-wave (km/s) = 5.99015 6.65713 6.33243
#
# Compressibility (1/GPa) = 0.02739580
#
# Stress axis : x y z
#
# Youngs Moduli (GPa) = 54.18518 109.90273 69.39842
#
# Poissons Ratio (x) = 0.21535 0.08442
# Poissons Ratio (y) = 0.10617 0.28509
# Poissons Ratio (z) = 0.06592 0.45148
#
# Static dielectric constant tensor:
#      x y z
#    x 1.756890 0.022690 -0.031130 
#    y 0.022690 1.740980 0.022250 
#    z -0.031130 0.022250 1.777740 
# 
# From -- ./inp_files/200418.got.cif
#   From: 2010.05.17/outbox.cif.g08.bks.cpg/sg2_101_cif.got.tgz:200418.got - 2010.06.03 11:33:40.
