data_PCOD9033700
_publ_section_title
;
Structure prediction by ZEFSAII (Michael W. Deem and Ramdas Pophale) SiO2 
 PCOD9033700
Probable space group: P -1
;
_chemical_formula_sum "Si O2"
_cell_formula_units_Z 16
_cell_length_a 7.356607
_cell_length_b 10.600009
_cell_length_c 8.842438
_cell_angle_alpha 76.581575
_cell_angle_beta 70.454833
_cell_angle_gamma 72.092903
_cell_volume 611.872062
_symmetry_space_group_name_H-M "P -1"
_symmetry_group_IT_number 2
_symmetry_cell_setting 'triclinic'
loop_
_space_group_symop_operation_xyz
x,y,z
-x,-y,-z
loop_
_atom_site_type_symbol
_atom_site_label
_atom_site_fract_x
_atom_site_fract_y
_atom_site_fract_z
Si Si1 0.708826 0.942718 0.120827
Si Si2 0.616917 0.814446 0.874110
Si Si3 0.087609 0.740632 0.035919
Si Si4 0.948592 0.543584 0.287220
Si Si5 0.717950 0.328198 0.305395
Si Si6 0.515845 0.395845 0.855332
Si Si7 0.258303 0.319710 0.413219
Si Si8 0.563683 0.219223 0.595982
O O1 0.553719 0.887079 0.287797
O O2 0.938033 0.874096 0.109104
O O3 0.612971 0.100542 0.109384
O O4 0.688728 0.895061 0.966345
O O5 0.718598 0.793802 0.687674
O O6 0.621489 0.669820 0.980360
O O7 0.269085 0.672680 0.113975
O O8 0.964241 0.625433 0.110851
O O9 0.144838 0.751894 0.844526
O O10 0.812153 0.440044 0.334447
O O11 0.862064 0.659551 0.402952
O O12 0.153531 0.455750 0.322289
O O13 0.573588 0.448004 0.190925
O O14 0.775070 0.206725 0.467542
O O15 0.525117 0.326482 0.708053
O O16 0.481705 0.294317 0.433338
#
# Coordination Sequence:
#
# PCOD9033700 Si02
#       8
#     2   2   2   2   2   2   2   2
#     4  10  23  45  67  90 123 165 220 259 304 366
#     4  10  22  44  69  87 122 172 214 255 309 376
#     4  12  23  40  62  93 128 168 211 254 310 374
#     4  11  23  36  63  97 132 161 206 259 316 376
#     4  12  23  39  65  95 133 164 202 257 320 382
#     4  11  23  39  62  93 131 167 203 255 320 371
#     4  11  21  38  63  94 126 163 207 257 314 374
#     4  11  23  41  61  96 129 167 203 258 316 369
#
# _framework density 26.149255
#
# number of rings (size 3 to 8) (size 9 to 14) (size 15 to 20)
#    0.000    1.000    2.500    4.875    3.500    1.000 
#    0.000    0.000    0.000    3.750    0.000    0.000 
#    0.000    0.000    0.000    0.000    0.000    0.000 
#
# Total GULP energy -89102.213276 kJ/mol
# GULP energy per Si atom -5568.888330 kJ/mol
# Density = 2.608974 g / cm^3
# Si number density = 26.149255 Si / 1000 Ang^3
#
#
#
# Elastic Constant Matrix: (Units=GPa)
#
#
# Indices 1 2 3 4 5 6 
#
# 1 70.5344 8.7046 33.5170 0.3477 13.5222 -11.7522
# 2 8.7046 75.1927 57.9745 -2.9361 1.3927 -5.7725
# 3 33.5170 57.9745 166.2293 9.8231 -0.7508 24.2554
# 4 0.3477 -2.9361 9.8231 33.6727 -2.4750 -2.9694
# 5 13.5222 1.3927 -0.7508 -2.4750 30.0230 1.1840
# 6 -11.7522 -5.7725 24.2554 -2.9694 1.1840 31.9289
#
#
#
# Elastic Compliance Matrix: (Units=1/GPa)
#
#
# Indices 1 2 3 4 5 6 
#
# 1 0.023311 0.006795 -0.010019 0.004040 -0.011450 0.018220
# 2 0.006795 0.023971 -0.012680 0.006905 -0.004602 0.017280
# 3 -0.010019 -0.012680 0.015611 -0.006787 0.005668 -0.018681
# 4 0.004040 0.006905 -0.006787 0.033206 -0.000005 0.010980
# 5 -0.011450 -0.004602 0.005668 -0.000005 0.039246 -0.010808
# 6 0.018220 0.017280 -0.018681 0.010980 -0.010808 0.056763
#
#
# Mechanical properties :
#
#
# Convention : Reuss Voigt Hill
#
# Bulk Modulus (GPa) = 32.17177 56.92762 44.54969
# Shear Modulus (GPa) = 21.34218 33.24226 27.29222
#
# Velocity S-wave (km/s) = 2.85996 3.56933 3.23415
# Velocity P-wave (km/s) = 4.82034 6.22931 5.56956
#
# Compressibility (1/GPa) = 0.03108315
#
# Stress axis : x y z
#
# Youngs Moduli (GPa) = 42.89863 41.71737 64.05801
#
# Poissons Ratio (x) = -0.28346 0.64179
# Poissons Ratio (y) = -0.29148 0.81228
# Poissons Ratio (z) = 0.42980 0.52899
#
# Static dielectric constant tensor:
#      x y z
#    x 2.315260 -0.088160 -0.069260 
#    y -0.088160 2.007030 -0.030780 
#    z -0.069260 -0.030780 2.049990 
# 
# From -- ./inp_files/185702.got.cif
#   From: 2010.05.17/outbox.cif.g08.bks.cpg/sg2_93_cif.got.tgz:185702.got - 2010.06.03 11:33:40.
