data_PCOD9033871
_publ_section_title
;
Structure prediction by ZEFSAII (Michael W. Deem and Ramdas Pophale) SiO2 
 PCOD9033871
Probable space group: P -1
;
_chemical_formula_sum "Si O2"
_cell_formula_units_Z 16
_cell_length_a 11.669494
_cell_length_b 8.019766
_cell_length_c 12.010265
_cell_angle_alpha 45.361820
_cell_angle_beta 94.749653
_cell_angle_gamma 119.460302
_cell_volume 630.641714
_symmetry_space_group_name_H-M "P -1"
_symmetry_group_IT_number 2
_symmetry_cell_setting 'triclinic'
loop_
_space_group_symop_operation_xyz
x,y,z
-x,-y,-z
loop_
_atom_site_type_symbol
_atom_site_label
_atom_site_fract_x
_atom_site_fract_y
_atom_site_fract_z
Si Si1 0.507466 0.360870 0.392918
Si Si2 0.914840 0.642920 0.655008
Si Si3 0.196021 0.343440 0.134245
Si Si4 0.300603 0.394834 0.488287
Si Si5 0.093886 0.853230 0.848795
Si Si6 0.410872 0.781519 0.753594
Si Si7 0.898645 0.108899 0.925126
Si Si8 0.352595 0.158734 0.155731
O O1 0.982123 0.463898 0.744413
O O2 0.416470 0.479310 0.361467
O O3 0.625665 0.495087 0.437579
O O4 0.403036 0.009770 0.576809
O O5 0.808831 0.541091 0.589455
O O6 0.199175 0.038727 0.669696
O O7 0.000000 0.000000 0.500000
O O8 0.266169 0.177864 0.239371
O O9 0.182865 0.465869 0.189767
O O10 0.286775 0.582209 0.929937
O O11 0.032553 0.109092 0.187481
O O12 0.572669 0.391905 0.262246
O O13 0.166800 0.952889 0.927186
O O14 0.000000 0.500000 0.000000
O O15 0.564317 0.972738 0.744549
O O16 0.764790 0.958566 0.897116
O O17 0.000000 0.000000 0.000000
O O18 0.500000 0.500000 0.000000
#
# Coordination Sequence:
#
# PCOD9033871 Si02
#       8
#     2   2   2   2   2   2   2   2
#     4  10  23  43  70 102 148 195 252 309 388 448
#     4  12  25  48  73 110 156 203 252 321 390 464
#     4  11  22  42  72 102 145 201 252 309 383 456
#     4  11  24  43  71 105 148 194 249 311 388 455
#     4  12  23  43  70 106 146 197 255 314 382 460
#     4  10  22  44  70 104 145 200 248 318 373 461
#     4  12  26  45  76 112 151 203 260 317 388 464
#     4  10  23  43  67 106 154 189 259 315 383 445
#
# _framework density 25.370982999999999
#
# number of rings (size 3 to 8) (size 9 to 14) (size 15 to 20)
#    0.000    1.000    3.750    2.250    3.500    0.000 
#    2.250    6.875    0.000    0.000    0.000    0.000 
#    0.000    0.000    0.000    0.000    0.000    0.000 
#
# Total GULP energy -89106.736327 kJ/mol
# GULP energy per Si atom -5569.171020 kJ/mol
# Density = 2.531324 g / cm^3
# Si number density = 25.370983 Si / 1000 Ang^3
#
#
#
# Elastic Constant Matrix: (Units=GPa)
#
#
# Indices 1 2 3 4 5 6 
#
# 1 104.4580 25.6440 55.4763 6.3641 0.4776 6.9920
# 2 25.6440 118.3865 29.7738 22.5607 0.0165 4.7992
# 3 55.4763 29.7738 116.6977 -5.2722 3.6956 -8.2698
# 4 6.3641 22.5607 -5.2722 52.1815 -3.3595 2.4586
# 5 0.4776 0.0165 3.6956 -3.3595 51.4563 8.8439
# 6 6.9920 4.7992 -8.2698 2.4586 8.8439 20.2368
#
#
#
# Elastic Compliance Matrix: (Units=1/GPa)
#
#
# Indices 1 2 3 4 5 6 
#
# 1 0.014284 -0.000572 -0.007369 -0.001735 0.001719 -0.008352
# 2 -0.000572 0.010241 -0.002769 -0.004469 0.000426 -0.003006
# 3 -0.007369 -0.002769 0.013654 0.002879 -0.002349 0.009459
# 4 -0.001735 -0.004469 0.002879 0.021699 0.001290 -0.000364
# 5 0.001719 0.000426 -0.002349 0.001290 0.021605 -0.011254
# 6 -0.008352 -0.003006 0.009459 -0.000364 -0.011254 0.061841
#
#
# Mechanical properties :
#
#
# Convention : Reuss Voigt Hill
#
# Bulk Modulus (GPa) = 59.67374 62.37006 61.02190
# Shear Modulus (GPa) = 29.35474 40.01813 34.68644
#
# Velocity S-wave (km/s) = 3.40519 3.97586 3.70154
# Velocity P-wave (km/s) = 6.24756 6.76115 6.50942
#
# Compressibility (1/GPa) = 0.01675779
#
# Stress axis : x y z
#
# Youngs Moduli (GPa) = 70.00734 97.65062 73.24002
#
# Poissons Ratio (x) = 0.05583 0.53973
# Poissons Ratio (y) = 0.04003 0.20282
# Poissons Ratio (z) = 0.51590 0.27042
#
# Static dielectric constant tensor:
#      x y z
#    x 2.156550 -0.048910 0.173790 
#    y -0.048910 2.137600 -0.081440 
#    z 0.173790 -0.081440 2.158290 
# 
# From -- ./inp_files/530991.got.cif
#   From: 2010.05.17/outbox.cif.g08.bks.cpg/sg2_266_cif.got.tgz:530991.got - 2010.06.03 11:33:40.
