data_PCOD9033453
_publ_section_title
;
Structure prediction by ZEFSAII (Michael W. Deem and Ramdas Pophale) SiO2 
 PCOD9033453
Probable space group: P -1
;
_chemical_formula_sum "Si O2"
_cell_formula_units_Z 13
_cell_length_a 12.568582
_cell_length_b 10.731657
_cell_length_c 11.949053
_cell_angle_alpha 141.944192
_cell_angle_beta 138.882095
_cell_angle_gamma 33.207497
_cell_volume 522.346039
_symmetry_space_group_name_H-M "P -1"
_symmetry_group_IT_number 2
_symmetry_cell_setting 'triclinic'
loop_
_space_group_symop_operation_xyz
x,y,z
-x,-y,-z
loop_
_atom_site_type_symbol
_atom_site_label
_atom_site_fract_x
_atom_site_fract_y
_atom_site_fract_z
Si Si1 0.525708 0.362889 0.691833
Si Si2 0.908467 0.460430 0.564858
Si Si3 0.165684 0.048574 0.187048
Si Si4 0.500000 0.500000 0.500000
Si Si5 0.192420 0.365921 0.134902
Si Si6 0.734285 0.034239 0.423546
Si Si7 0.459617 0.851247 0.064311
O O1 0.299805 0.455724 0.596140
O O2 0.564219 0.302945 0.546511
O O3 0.691919 0.104788 0.703052
O O4 0.544726 0.573626 0.899631
O O5 0.949093 0.650904 0.679038
O O6 0.876835 0.543124 0.728298
O O7 0.065291 0.158843 0.484977
O O8 0.330829 0.930823 0.133531
O O9 0.000000 0.000000 0.000000
O O10 0.355326 0.416022 0.277545
O O11 0.719570 0.195584 0.423241
O O12 0.303029 0.067342 0.007294
O O13 0.000000 0.500000 0.000000
O O14 0.634641 0.888475 0.236491
#
# Coordination Sequence:
#
# PCOD9033453 Si02
#       7
#     2   2   2   1   2   2   2
#     4  12  24  44  72  95 141 182 224 289 338 417
#     4  11  25  45  68 103 138 178 229 289 348 411
#     4  11  24  44  69 102 137 183 232 278 349 416
#     4  10  22  44  68 102 134 184 230 286 346 410
#     4  10  23  45  72 101 142 179 237 288 347 422
#     4  11  25  45  69  99 141 175 235 284 347 414
#     4  10  24  46  63 103 138 176 231 288 340 412
#
# _framework density 24.887716000000001
#
# number of rings (size 3 to 8) (size 9 to 14) (size 15 to 20)
#    0.000    1.231    4.615    1.846    4.308    4.923 
#    0.000    3.077    0.000    0.000    0.000    0.000 
#    0.000    0.000    0.000    0.000    0.000    0.000 
#
# Total GULP energy -72527.359024 kJ/mol
# GULP energy per Si atom -5579.027617 kJ/mol
# Density = 2.483107 g / cm^3
# Si number density = 24.887716 Si / 1000 Ang^3
#
#
#
# Elastic Constant Matrix: (Units=GPa)
#
#
# Indices 1 2 3 4 5 6 
#
# 1 38.9746 24.5747 26.5367 5.3548 3.0273 7.7177
# 2 24.5747 202.3169 42.3765 -11.9285 14.5666 20.8571
# 3 26.5367 42.3765 94.9103 7.5989 7.2559 17.3741
# 4 5.3548 -11.9285 7.5989 62.7561 -2.9050 -2.8002
# 5 3.0273 14.5666 7.2559 -2.9050 33.3135 8.6301
# 6 7.7177 20.8571 17.3741 -2.8002 8.6301 26.3572
#
#
#
# Elastic Compliance Matrix: (Units=1/GPa)
#
#
# Indices 1 2 3 4 5 6 
#
# 1 0.033163 -0.002288 -0.007461 -0.002498 0.000257 -0.003332
# 2 -0.002288 0.005980 -0.001592 0.001355 -0.001310 -0.002440
# 3 -0.007461 -0.001592 0.014648 -0.001736 -0.000340 -0.006285
# 4 -0.002498 0.001355 -0.001736 0.016759 0.000879 0.002296
# 5 0.000257 -0.001310 -0.000340 0.000879 0.033203 -0.009593
# 6 -0.003332 -0.002440 -0.006285 0.002296 -0.009593 0.048374
#
#
# Mechanical properties :
#
#
# Convention : Reuss Voigt Hill
#
# Bulk Modulus (GPa) = 32.14345 58.13083 45.13714
# Shear Modulus (GPa) = 27.00104 40.66630 33.83367
#
# Velocity S-wave (km/s) = 3.29738 4.04665 3.69108
# Velocity P-wave (km/s) = 5.23835 6.72620 6.02836
#
# Compressibility (1/GPa) = 0.03111053
#
# Stress axis : x y z
#
# Youngs Moduli (GPa) = 30.15413 167.22937 68.26659
#
# Poissons Ratio (x) = 0.38259 0.50930
# Poissons Ratio (y) = 0.06899 0.10868
# Poissons Ratio (z) = 0.22497 0.26623
#
# Static dielectric constant tensor:
#      x y z
#    x 2.242090 0.074570 -0.039210 
#    y 0.074570 2.118160 0.043000 
#    z -0.039210 0.043000 1.914970 
# 
# From -- ./inp_files/454286.got.cif
#   From: 2010.05.17/outbox.cif.g08.bks.cpg/sg2_228_cif.got.tgz:454286.got - 2010.06.03 11:33:40.
