data_PCOD9033085
_publ_section_title
;
Structure prediction by ZEFSAII (Michael W. Deem and Ramdas Pophale) SiO2 
 PCOD9033085
Probable space group: P -1
;
_chemical_formula_sum "Si O2"
_cell_formula_units_Z 16
_cell_length_a 5.345163
_cell_length_b 30.081207
_cell_length_c 9.639161
_cell_angle_alpha 150.713581
_cell_angle_beta 92.508844
_cell_angle_gamma 89.345974
_cell_volume 756.295677
_symmetry_space_group_name_H-M "P -1"
_symmetry_group_IT_number 2
_symmetry_cell_setting 'triclinic'
loop_
_space_group_symop_operation_xyz
x,y,z
-x,-y,-z
loop_
_atom_site_type_symbol
_atom_site_label
_atom_site_fract_x
_atom_site_fract_y
_atom_site_fract_z
Si Si1 0.791416 0.310813 0.702827
Si Si2 0.754842 0.054035 0.608078
Si Si3 0.440322 0.511904 0.693013
Si Si4 0.810063 0.554101 0.046809
Si Si5 0.273943 0.740526 0.752845
Si Si6 0.237031 0.892150 0.806244
Si Si7 0.758333 0.983438 0.127677
Si Si8 0.259567 0.357371 0.444280
O O1 0.687336 0.280552 0.466443
O O2 0.802708 0.214759 0.519006
O O3 0.052824 0.362184 0.804351
O O4 0.650681 0.388407 0.994362
O O5 0.500000 0.000000 0.500000
O O6 0.749896 0.055257 0.445525
O O7 0.762387 0.153620 0.941674
O O8 0.000000 0.000000 0.500000
O O9 0.500000 0.500000 0.500000
O O10 0.246781 0.431688 0.524424
O O11 0.669331 0.499106 0.771473
O O12 0.650673 0.592108 0.272326
O O13 0.000000 0.500000 0.000000
O O14 0.521312 0.711644 0.762129
O O15 0.014374 0.689010 0.657489
O O16 0.235837 0.957078 0.849187
O O17 0.509461 0.916516 0.944719
O O18 0.003799 0.924604 0.978807
#
# Coordination Sequence:
#
# PCOD9033085 Si02
#       8
#     2   2   2   2   2   2   2   2
#     4  11  23  40  67  98 128 175 230 276 331 410
#     4  12  24  41  67 100 136 168 220 284 334 394
#     4  12  26  43  65 100 138 178 225 294 346 400
#     4  11  22  44  70  93 131 184 232 280 340 412
#     4  11  24  40  70  97 128 177 229 275 329 406
#     4  10  23  41  69  96 131 178 221 270 335 421
#     4  10  22  44  65  96 135 177 214 271 348 401
#     4  11  23  44  66  95 132 180 230 271 334 416
#
# _framework density 21.155747999999999
#
# number of rings (size 3 to 8) (size 9 to 14) (size 15 to 20)
#    0.000    1.000    2.500    4.875    1.750    2.500 
#    2.250    0.000    0.000    0.000    0.000    0.000 
#    0.000    0.000    0.000    0.000    0.000    0.000 
#
# Total GULP energy -89305.180448 kJ/mol
# GULP energy per Si atom -5581.573778 kJ/mol
# Density = 2.110760 g / cm^3
# Si number density = 21.155748 Si / 1000 Ang^3
#
#
#
# Elastic Constant Matrix: (Units=GPa)
#
#
# Indices 1 2 3 4 5 6 
#
# 1 116.2647 56.4230 49.8332 10.2139 -16.4818 7.0069
# 2 56.4230 89.0801 64.5685 -2.5032 -2.0344 19.1863
# 3 49.8332 64.5685 148.8170 11.5597 -23.5946 14.2726
# 4 10.2139 -2.5032 11.5597 49.4447 2.1057 -3.2139
# 5 -16.4818 -2.0344 -23.5946 2.1057 34.8433 5.7965
# 6 7.0069 19.1863 14.2726 -3.2139 5.7965 19.6871
#
#
#
# Elastic Compliance Matrix: (Units=1/GPa)
#
#
# Indices 1 2 3 4 5 6 
#
# 1 0.014236 -0.009764 0.000680 -0.003786 0.006622 0.001388
# 2 -0.009764 0.026271 -0.008283 0.004702 -0.006754 -0.013366
# 3 0.000680 -0.008283 0.012279 -0.004108 0.009139 -0.004433
# 4 -0.003786 0.004702 -0.004108 0.022837 -0.006578 0.005408
# 5 0.006622 -0.006754 0.009139 -0.006578 0.040590 -0.015424
# 6 0.001388 -0.013366 -0.004433 0.005408 -0.015424 0.071965
#
#
# Mechanical properties :
#
#
# Convention : Reuss Voigt Hill
#
# Bulk Modulus (GPa) = 55.39552 77.31236 66.35394
# Shear Modulus (GPa) = 21.84100 33.01750 27.42925
#
# Velocity S-wave (km/s) = 3.21657 3.95484 3.60465
# Velocity P-wave (km/s) = 6.32744 7.58143 6.98264
#
# Compressibility (1/GPa) = 0.01805200
#
# Stress axis : x y z
#
# Youngs Moduli (GPa) = 70.24631 38.06499 81.44123
#
# Poissons Ratio (x) = 0.37167 -0.05541
# Poissons Ratio (y) = 0.68588 0.67458
# Poissons Ratio (z) = -0.04779 0.31529
#
# Static dielectric constant tensor:
#      x y z
#    x 1.905190 -0.015360 -0.023160 
#    y -0.015360 1.768280 0.011820 
#    z -0.023160 0.011820 1.781920 
# 
# From -- ./inp_files/143188.got.cif
#   From: 2010.05.17/outbox.cif.g08.bks.cpg/sg2_72_cif.got.tgz:143188.got - 2010.06.03 11:33:40.
