data_PCOD9033551
_publ_section_title
;
Structure prediction by ZEFSAII (Michael W. Deem and Ramdas Pophale) SiO2 
 PCOD9033551
Probable space group: P -1
;
_chemical_formula_sum "Si O2"
_cell_formula_units_Z 16
_cell_length_a 9.534565
_cell_length_b 9.267978
_cell_length_c 20.671505
_cell_angle_alpha 152.577395
_cell_angle_beta 120.509186
_cell_angle_gamma 57.747003
_cell_volume 708.747714
_symmetry_space_group_name_H-M "P -1"
_symmetry_group_IT_number 2
_symmetry_cell_setting 'triclinic'
loop_
_space_group_symop_operation_xyz
x,y,z
-x,-y,-z
loop_
_atom_site_type_symbol
_atom_site_label
_atom_site_fract_x
_atom_site_fract_y
_atom_site_fract_z
Si Si1 0.278529 0.323879 0.739384
Si Si2 0.431880 0.716412 0.133628
Si Si3 0.038790 0.963982 0.596577
Si Si4 0.663125 0.784086 0.987412
Si Si5 0.125922 0.977543 0.962010
Si Si6 0.110461 0.237877 0.282087
Si Si7 0.149374 0.850117 0.719881
Si Si8 0.688212 0.829953 0.462557
O O1 0.420892 0.130887 0.741686
O O2 0.274204 0.690188 0.903666
O O3 0.318383 0.281126 0.657084
O O4 0.106641 0.221296 0.673095
O O5 0.275523 0.008979 0.202629
O O6 0.500000 0.500000 0.000000
O O7 0.374428 0.516019 0.100896
O O8 0.106299 0.611038 0.440866
O O9 0.122033 0.967994 0.687766
O O10 0.838723 0.020625 0.576161
O O11 0.801303 0.744114 0.945339
O O12 0.743797 0.966775 0.135853
O O13 0.500000 0.000000 0.000000
O O14 0.035036 0.817338 0.821222
O O15 0.000000 0.000000 0.000000
O O16 0.038291 0.124418 0.286803
O O17 0.243744 0.479219 0.599889
O O18 0.500000 0.000000 0.500000
#
# Coordination Sequence:
#
# PCOD9033551 Si02
#       8
#     2   2   2   2   2   2   2   2
#     4  12  24  45  64 101 137 175 229 278 334 411
#     4  12  26  43  69 100 137 179 234 284 337 406
#     4  11  24  45  69  98 139 179 219 283 352 405
#     4  11  22  46  70  96 137 178 226 287 335 396
#     4  11  23  44  68  98 134 179 229 278 341 404
#     4  10  23  42  67  96 135 175 224 285 340 407
#     4  10  22  44  68  96 136 175 222 283 347 403
#     4  11  23  43  69  99 132 175 227 275 336 411
#
# _framework density 22.575028
#
# number of rings (size 3 to 8) (size 9 to 14) (size 15 to 20)
#    0.000    1.000    5.000    3.375    3.500    3.500 
#    4.500    0.000    0.000    0.000    0.000    0.000 
#    0.000    0.000    0.000    0.000    0.000    0.000 
#
# Total GULP energy -89244.275559 kJ/mol
# GULP energy per Si atom -5577.767222 kJ/mol
# Density = 2.252365 g / cm^3
# Si number density = 22.575028 Si / 1000 Ang^3
#
#
#
# Elastic Constant Matrix: (Units=GPa)
#
#
# Indices 1 2 3 4 5 6 
#
# 1 163.7000 46.1445 36.8666 14.9013 -11.1190 2.0628
# 2 46.1445 76.5761 15.5962 -15.3880 -14.5731 -2.2587
# 3 36.8666 15.5962 48.8043 -6.6035 4.4803 -0.1815
# 4 14.9013 -15.3880 -6.6035 29.9725 4.2850 3.1178
# 5 -11.1190 -14.5731 4.4803 4.2850 38.5605 -1.1119
# 6 2.0628 -2.2587 -0.1815 3.1178 -1.1119 52.8244
#
#
#
# Elastic Compliance Matrix: (Units=1/GPa)
#
#
# Indices 1 2 3 4 5 6 
#
# 1 0.010961 -0.006684 -0.007888 -0.011012 0.002774 -0.000033
# 2 -0.006684 0.020629 -0.000163 0.013197 0.004435 0.000457
# 3 -0.007888 -0.000163 0.028647 0.011181 -0.006919 -0.000406
# 4 -0.011012 0.013197 0.011181 0.048995 -0.004988 -0.001964
# 5 0.002774 0.004435 -0.006919 -0.004988 0.029795 0.000979
# 6 -0.000033 0.000457 -0.000406 -0.001964 0.000979 0.019087
#
#
# Mechanical properties :
#
#
# Convention : Reuss Voigt Hill
#
# Bulk Modulus (GPa) = 32.50303 54.03276 43.26790
# Shear Modulus (GPa) = 25.27281 36.96968 31.12124
#
# Velocity S-wave (km/s) = 3.34953 4.05116 3.71694
# Velocity P-wave (km/s) = 5.42108 6.77268 6.13422
#
# Compressibility (1/GPa) = 0.03076636
#
# Stress axis : x y z
#
# Youngs Moduli (GPa) = 91.23539 48.47460 34.90715
#
# Poissons Ratio (x) = 0.32402 0.27536
# Poissons Ratio (y) = 0.60984 0.00569
# Poissons Ratio (z) = 0.71970 0.00790
#
# Static dielectric constant tensor:
#      x y z
#    x 2.081160 0.030160 -0.022310 
#    y 0.030160 1.901570 0.000630 
#    z -0.022310 0.000630 1.863360 
# 
# From -- ./inp_files/588289.got.cif
#   From: 2010.05.17/outbox.cif.g08.bks.cpg/sg2_295_cif.got.tgz:588289.got - 2010.06.03 11:33:40.
