data_PCOD9033782
_publ_section_title
;
Structure prediction by ZEFSAII (Michael W. Deem and Ramdas Pophale) SiO2 
 PCOD9033782
Probable space group: P -1
;
_chemical_formula_sum "Si O2"
_cell_formula_units_Z 16
_cell_length_a 6.412006
_cell_length_b 14.879339
_cell_length_c 17.283419
_cell_angle_alpha 137.834836
_cell_angle_beta 71.227503
_cell_angle_gamma 135.912156
_cell_volume 687.404579
_symmetry_space_group_name_H-M "P -1"
_symmetry_group_IT_number 2
_symmetry_cell_setting 'triclinic'
loop_
_space_group_symop_operation_xyz
x,y,z
-x,-y,-z
loop_
_atom_site_type_symbol
_atom_site_label
_atom_site_fract_x
_atom_site_fract_y
_atom_site_fract_z
Si Si1 0.745122 0.347747 0.331297
Si Si2 0.817540 0.563261 0.974507
Si Si3 0.434121 0.309968 0.092453
Si Si4 0.427324 0.797072 0.143473
Si Si5 0.347531 0.074495 0.077766
Si Si6 0.755680 0.510309 0.773302
Si Si7 0.358563 0.073368 0.516161
Si Si8 0.219960 0.787171 0.595615
O O1 0.394803 0.159292 0.210424
O O2 0.737603 0.271200 0.365573
O O3 0.008381 0.396744 0.271276
O O4 0.877718 0.561026 0.459802
O O5 0.728679 0.366387 0.875374
O O6 0.880732 0.614552 0.909608
O O7 0.500000 0.500000 0.000000
O O8 0.130329 0.747575 0.108411
O O9 0.544302 0.267662 0.122108
O O10 0.527543 0.505834 0.219351
O O11 0.507310 0.277083 0.981163
O O12 0.032500 0.119985 0.025169
O O13 0.733882 0.033668 0.279615
O O14 0.500000 0.000000 0.000000
O O15 0.590532 0.292345 0.666038
O O16 0.492057 0.110850 0.436794
O O17 0.500000 0.000000 0.500000
O O18 0.000000 0.000000 0.500000
#
# Coordination Sequence:
#
# PCOD9033782 Si02
#       8
#     2   2   2   2   2   2   2   2
#     4  10  22  44  69  98 144 185 235 298 362 443
#     4  11  24  41  63 100 133 179 232 300 356 421
#     4  11  24  38  66 107 131 185 238 300 368 430
#     4  11  24  41  67  96 142 178 238 298 362 434
#     4  11  22  40  67  98 142 182 236 296 358 438
#     4  11  23  43  71 101 143 180 250 300 368 438
#     4  11  27  51  79 107 145 200 249 309 371 450
#     4  10  24  44  71 105 142 189 241 295 367 447
#
# _framework density 23.275956000000001
#
# number of rings (size 3 to 8) (size 9 to 14) (size 15 to 20)
#    0.000    1.250    2.500    2.250    5.250    3.000 
#    2.250    0.625    0.000    0.000    0.000    0.000 
#    0.000    0.000    0.000    0.000    0.000    0.000 
#
# Total GULP energy -89083.956534 kJ/mol
# GULP energy per Si atom -5567.747283 kJ/mol
# Density = 2.322298 g / cm^3
# Si number density = 23.275956 Si / 1000 Ang^3
#
#
#
# Elastic Constant Matrix: (Units=GPa)
#
#
# Indices 1 2 3 4 5 6 
#
# 1 100.1970 44.2004 24.5115 -7.0920 -17.6425 -4.2459
# 2 44.2004 102.7086 23.4424 -20.3560 -12.2366 -22.9815
# 3 24.5115 23.4424 120.8550 8.0593 -20.5448 -19.9347
# 4 -7.0920 -20.3560 8.0593 46.1989 -13.1265 -4.5442
# 5 -17.6425 -12.2366 -20.5448 -13.1265 28.3458 -0.2779
# 6 -4.2459 -22.9815 -19.9347 -4.5442 -0.2779 49.0924
#
#
#
# Elastic Compliance Matrix: (Units=1/GPa)
#
#
# Indices 1 2 3 4 5 6 
#
# 1 0.013546 -0.004715 -0.001062 0.001911 0.006499 -0.001253
# 2 -0.004715 0.016700 -0.000048 0.010011 0.008958 0.008368
# 3 -0.001062 -0.000048 0.010360 0.000427 0.007066 0.004172
# 4 0.001911 0.010011 0.000427 0.033117 0.021237 0.008211
# 5 0.006499 0.008958 0.007066 0.021237 0.058243 0.009920
# 6 -0.001253 0.008368 0.004172 0.008211 0.009920 0.026689
#
#
# Mechanical properties :
#
#
# Convention : Reuss Voigt Hill
#
# Bulk Modulus (GPa) = 34.53385 56.45213 45.49299
# Shear Modulus (GPa) = 27.78438 40.16783 33.97611
#
# Velocity S-wave (km/s) = 3.45874 4.15869 3.82476
# Velocity P-wave (km/s) = 5.55152 6.88227 6.25240
#
# Compressibility (1/GPa) = 0.02895710
#
# Stress axis : x y z
#
# Youngs Moduli (GPa) = 73.82017 59.88054 96.52617
#
# Poissons Ratio (x) = 0.28232 0.10254
# Poissons Ratio (y) = 0.34804 0.00459
# Poissons Ratio (z) = 0.07842 0.00285
#
# Static dielectric constant tensor:
#      x y z
#    x 2.066180 0.001470 -0.027780 
#    y 0.001470 1.907950 0.054630 
#    z -0.027780 0.054630 1.916360 
# 
# From -- ./inp_files/99643.got.cif
#   From: 2010.05.17/outbox.cif.g08.bks.cpg/sg2_50_cif.got.tgz:99643.got - 2010.06.03 11:33:40.
