data_PCOD9033877
_publ_section_title
;
Structure prediction by ZEFSAII (Michael W. Deem and Ramdas Pophale) SiO2 
 PCOD9033877
Probable space group: P -1
;
_chemical_formula_sum "Si O2"
_cell_formula_units_Z 16
_cell_length_a 5.300525
_cell_length_b 14.493958
_cell_length_c 14.507645
_cell_angle_alpha 39.185010
_cell_angle_beta 78.636681
_cell_angle_gamma 70.430338
_cell_volume 659.850994
_symmetry_space_group_name_H-M "P -1"
_symmetry_group_IT_number 2
_symmetry_cell_setting 'triclinic'
loop_
_space_group_symop_operation_xyz
x,y,z
-x,-y,-z
loop_
_atom_site_type_symbol
_atom_site_label
_atom_site_fract_x
_atom_site_fract_y
_atom_site_fract_z
Si Si1 0.750368 0.248077 0.339524
Si Si2 0.728154 0.724865 0.530702
Si Si3 0.309940 0.946595 0.927556
Si Si4 0.084284 0.154199 0.108414
Si Si5 0.135280 0.481506 0.823000
Si Si6 0.882793 0.695925 0.332114
Si Si7 0.178082 0.992778 0.606466
Si Si8 0.547129 0.335346 0.749500
O O1 0.573014 0.274710 0.424489
O O2 0.792078 0.410394 0.188218
O O3 0.630012 0.155430 0.344874
O O4 0.026161 0.121843 0.444258
O O5 0.839167 0.685338 0.451771
O O6 0.913722 0.600817 0.683538
O O7 0.718075 0.900825 0.414358
O O8 0.603475 0.919418 0.881885
O O9 0.111297 0.884623 0.924593
O O10 0.187885 0.123236 0.820251
O O11 0.363284 0.844298 0.094263
O O12 0.013900 0.081923 0.263267
O O13 0.042238 0.336728 0.973106
O O14 0.396405 0.412118 0.793243
O O15 0.672702 0.635352 0.337061
O O16 0.185459 0.625405 0.329019
#
# Coordination Sequence:
#
# PCOD9033877 Si02
#       8
#     2   2   2   2   2   2   2   2
#     4  10  23  44  72  94 138 173 222 280 345 392
#     4  11  24  42  69  96 138 173 227 276 339 393
#     4  11  22  42  68  98 141 172 226 280 336 383
#     4  11  23  42  73 100 137 178 219 278 337 400
#     4  10  26  43  63  97 140 181 215 276 338 401
#     4  12  24  40  69 100 131 180 231 275 326 396
#     4  10  22  44  70 105 124 173 232 279 334 404
#     4  11  25  41  64 100 136 181 223 273 332 399
#
# _framework density 24.247896999999998
#
# number of rings (size 3 to 8) (size 9 to 14) (size 15 to 20)
#    0.000    1.250    1.250    4.125    8.750    1.500 
#    0.000    0.625    0.000    0.000    0.000    0.000 
#    0.000    0.000    0.000    0.000    0.000    0.000 
#
# Total GULP energy -89497.288300 kJ/mol
# GULP energy per Si atom -5593.580519 kJ/mol
# Density = 2.419271 g / cm^3
# Si number density = 24.247897 Si / 1000 Ang^3
#
#
#
# Elastic Constant Matrix: (Units=GPa)
#
#
# Indices 1 2 3 4 5 6 
#
# 1 125.3434 32.1847 31.7482 -9.6146 -15.1297 -1.6437
# 2 32.1847 53.8109 37.5485 -17.9765 -13.5453 10.4372
# 3 31.7482 37.5485 98.5139 -23.9426 -8.0022 13.2322
# 4 -9.6146 -17.9765 -23.9426 47.0905 0.9204 -15.7556
# 5 -15.1297 -13.5453 -8.0022 0.9204 21.2111 -3.9206
# 6 -1.6437 10.4372 13.2322 -15.7556 -3.9206 32.0153
#
#
#
# Elastic Compliance Matrix: (Units=1/GPa)
#
#
# Indices 1 2 3 4 5 6 
#
# 1 0.010111 -0.004253 -0.001561 0.000715 0.004515 0.003456
# 2 -0.004253 0.033071 -0.008152 0.006421 0.014227 -0.002728
# 3 -0.001561 -0.008152 0.014759 0.003433 -0.001267 -0.001989
# 4 0.000715 0.006421 0.003433 0.029403 0.006816 0.011829
# 5 0.004515 0.014227 -0.001267 0.006816 0.059936 0.006812
# 6 0.003456 -0.002728 -0.001989 0.011829 0.006812 0.039780
#
#
# Mechanical properties :
#
#
# Convention : Reuss Voigt Hill
#
# Bulk Modulus (GPa) = 33.32263 53.40343 43.36303
# Shear Modulus (GPa) = 22.22281 31.80916 27.01598
#
# Velocity S-wave (km/s) = 3.03063 3.62585 3.34152
# Velocity P-wave (km/s) = 5.10085 6.29292 5.72798
#
# Compressibility (1/GPa) = 0.03000964
#
# Stress axis : x y z
#
# Youngs Moduli (GPa) = 98.90603 30.23811 67.75303
#
# Poissons Ratio (x) = 0.12860 0.10576
# Poissons Ratio (y) = 0.42064 0.55231
# Poissons Ratio (z) = 0.15439 0.24649
#
# Static dielectric constant tensor:
#      x y z
#    x 1.965750 0.053740 -0.001020 
#    y 0.053740 1.991680 -0.013320 
#    z -0.001020 -0.013320 1.919400 
# 
# From -- ./inp_files/75862.got.cif
#   From: 2010.05.17/outbox.cif.g08.bks.cpg/sg2_38_cif.got.tgz:75862.got - 2010.06.03 11:33:40.
