data_PCOD9033130
_publ_section_title
;
Structure prediction by ZEFSAII (Michael W. Deem and Ramdas Pophale) SiO2 
 PCOD9033130
Probable space group: P -1
;
_chemical_formula_sum "Si O2"
_cell_formula_units_Z 15
_cell_length_a 9.489863
_cell_length_b 12.141944
_cell_length_c 10.037075
_cell_angle_alpha 127.861235
_cell_angle_beta 49.958781
_cell_angle_gamma 126.275655
_cell_volume 660.934933
_symmetry_space_group_name_H-M "P -1"
_symmetry_group_IT_number 2
_symmetry_cell_setting 'triclinic'
loop_
_space_group_symop_operation_xyz
x,y,z
-x,-y,-z
loop_
_atom_site_type_symbol
_atom_site_label
_atom_site_fract_x
_atom_site_fract_y
_atom_site_fract_z
Si Si1 0.654806 0.608403 0.639784
Si Si2 0.500000 0.000000 0.000000
Si Si3 0.692535 0.629626 0.944628
Si Si4 0.841895 0.955724 0.182049
Si Si5 0.332301 0.294230 0.571510
Si Si6 0.385629 0.870486 0.681762
Si Si7 0.058241 0.552991 0.655396
Si Si8 0.047160 0.912786 0.282334
O O1 0.697348 0.658665 0.803053
O O2 0.464286 0.461896 0.647109
O O3 0.832990 0.556749 0.440256
O O4 0.277652 0.216238 0.889844
O O5 0.729969 0.073971 0.861049
O O6 0.423330 0.963058 0.863481
O O7 0.863581 0.568753 0.843011
O O8 0.500000 0.500000 0.000000
O O9 0.889518 0.750091 0.280503
O O10 0.972575 0.981102 0.251696
O O11 0.695223 0.047599 0.321197
O O12 0.000000 0.000000 0.000000
O O13 0.427762 0.181045 0.496057
O O14 0.363288 0.279696 0.380422
O O15 0.215064 0.714459 0.688052
O O16 0.000000 0.500000 0.500000
O O17 0.000000 0.000000 0.500000
#
# Coordination Sequence:
#
# PCOD9033130 Si02
#       8
#     2   1   2   2   2   2   2   2
#     4   9  21  40  70  94 136 191 236 297 368 425
#     4  12  24  44  66 106 150 188 228 314 366 430
#     4  11  22  40  67 101 140 184 240 302 359 437
#     4  12  25  44  72 103 144 196 238 299 375 437
#     4  10  22  44  66 101 141 185 243 304 357 438
#     4  11  23  42  70 100 141 190 241 297 368 433
#     4   9  19  39  64  94 131 185 241 293 352 432
#     4  12  26  44  70 103 148 189 242 300 367 440
#
# _framework density 22.695124
#
# number of rings (size 3 to 8) (size 9 to 14) (size 15 to 20)
#    0.000    1.333    4.000    0.800    3.733    0.533 
#    2.400    0.000    0.000    5.600    0.000    0.000 
#    0.000    0.000    0.000    0.000    0.000    0.000 
#
# Total GULP energy -83575.921357 kJ/mol
# GULP energy per Si atom -5571.728090 kJ/mol
# Density = 2.264347 g / cm^3
# Si number density = 22.695124 Si / 1000 Ang^3
#
#
#
# Elastic Constant Matrix: (Units=GPa)
#
#
# Indices 1 2 3 4 5 6 
#
# 1 132.4116 48.7660 39.6826 -13.2940 1.8277 14.0599
# 2 48.7660 66.4181 24.3802 -13.3275 -17.8045 10.6475
# 3 39.6826 24.3802 77.0552 -21.9015 11.8693 6.7519
# 4 -13.2940 -13.3275 -21.9015 29.9712 12.1388 -7.0789
# 5 1.8277 -17.8045 11.8693 12.1388 58.8107 -8.5486
# 6 14.0599 10.6475 6.7519 -7.0789 -8.5486 46.5122
#
#
#
# Elastic Compliance Matrix: (Units=1/GPa)
#
#
# Indices 1 2 3 4 5 6 
#
# 1 0.011493 -0.007699 -0.002951 0.000068 -0.002354 -0.001706
# 2 -0.007699 0.025155 -0.005184 0.000210 0.008706 -0.001047
# 3 -0.002951 -0.005184 0.022280 0.016387 -0.009413 -0.000392
# 4 0.000068 0.000210 0.016387 0.051613 -0.013473 0.002931
# 5 -0.002354 0.008706 -0.009413 -0.013473 0.024769 0.002587
# 6 -0.001706 -0.001047 -0.000392 0.002931 0.002587 0.023233
#
#
# Mechanical properties :
#
#
# Convention : Reuss Voigt Hill
#
# Bulk Modulus (GPa) = 36.68417 55.72697 46.20557
# Shear Modulus (GPa) = 25.08818 37.92921 31.50870
#
# Velocity S-wave (km/s) = 3.32843 4.09253 3.73009
# Velocity P-wave (km/s) = 5.56509 6.85125 6.24139
#
# Compressibility (1/GPa) = 0.02725971
#
# Stress axis : x y z
#
# Youngs Moduli (GPa) = 87.01327 39.75306 44.88409
#
# Poissons Ratio (x) = 0.30605 0.13246
# Poissons Ratio (y) = 0.66990 0.23267
# Poissons Ratio (z) = 0.25678 0.20608
#
# Static dielectric constant tensor:
#      x y z
#    x 1.823270 0.028600 0.015980 
#    y 0.028600 1.773450 -0.004680 
#    z 0.015980 -0.004680 1.878940 
# 
# From -- ./inp_files/203592.got.cif
#   From: 2010.05.17/outbox.cif.g08.bks.cpg/sg2_102_cif.got.tgz:203592.got - 2010.06.03 11:33:40.
