data_PCOD9033999
_publ_section_title
;
Structure prediction by ZEFSAII (Michael W. Deem and Ramdas Pophale) SiO2 
 PCOD9033999
Probable space group: P -1
;
_chemical_formula_sum "Si O2"
_cell_formula_units_Z 16
_cell_length_a 5.274911
_cell_length_b 17.634472
_cell_length_c 10.099183
_cell_angle_alpha 45.586988
_cell_angle_beta 82.363195
_cell_angle_gamma 88.274577
_cell_volume 662.465480
_symmetry_space_group_name_H-M "P -1"
_symmetry_group_IT_number 2
_symmetry_cell_setting 'triclinic'
loop_
_space_group_symop_operation_xyz
x,y,z
-x,-y,-z
loop_
_atom_site_type_symbol
_atom_site_label
_atom_site_fract_x
_atom_site_fract_y
_atom_site_fract_z
Si Si1 0.233281 0.557227 0.647897
Si Si2 0.306561 0.173044 0.506492
Si Si3 0.725392 0.018675 0.064329
Si Si4 0.100571 0.772190 0.069741
Si Si5 0.462869 0.630660 0.103652
Si Si6 0.253896 0.640638 0.832739
Si Si7 0.216375 0.320498 0.568194
Si Si8 0.121587 0.209118 0.209339
O O1 0.339297 0.443171 0.755263
O O2 0.196932 0.571157 0.791723
O O3 0.485848 0.636979 0.500994
O O4 0.978281 0.588294 0.554892
O O5 0.551753 0.255348 0.348436
O O6 0.165781 0.242998 0.538880
O O7 0.155742 0.141334 0.420190
O O8 0.345478 0.065735 0.711188
O O9 0.734475 0.138547 0.969360
O O10 0.500000 0.000000 0.000000
O O11 0.000000 0.000000 0.000000
O O12 0.229426 0.662803 0.167967
O O13 0.856847 0.741467 0.216972
O O14 0.038368 0.823019 0.870104
O O15 0.369713 0.585720 0.020631
O O16 0.604834 0.745968 0.920215
O O17 0.001045 0.688099 0.846850
#
# Coordination Sequence:
#
# PCOD9033999 Si02
#       8
#     2   2   2   2   2   2   2   2
#     4  11  24  41  69 104 136 195 238 283 338 416
#     4  10  22  45  72 105 136 181 236 294 347 417
#     4  12  29  47  80 108 135 182 235 289 358 427
#     4  11  27  46  68 105 144 184 228 299 355 418
#     4  10  24  41  66 100 147 185 233 287 351 407
#     4   9  20  40  66 101 139 183 235 290 336 407
#     4  11  25  41  71 101 142 182 241 288 343 408
#     4  10  22  44  70  98 147 186 228 293 352 408
#
# _framework density 24.152201000000002
#
# number of rings (size 3 to 8) (size 9 to 14) (size 15 to 20)
#    0.000    1.500    2.500    0.375   12.250    2.000 
#    0.000    5.625    0.000    0.000    0.000    0.000 
#    0.000    0.000    0.000    0.000    0.000    0.000 
#
# Total GULP energy -89487.344317 kJ/mol
# GULP energy per Si atom -5592.959020 kJ/mol
# Density = 2.409723 g / cm^3
# Si number density = 24.152201 Si / 1000 Ang^3
#
#
#
# Elastic Constant Matrix: (Units=GPa)
#
#
# Indices 1 2 3 4 5 6 
#
# 1 81.4479 20.5571 21.4022 14.2684 5.3384 0.6104
# 2 20.5571 82.7389 36.2361 20.6850 -6.8099 15.2657
# 3 21.4022 36.2361 102.2864 10.3630 3.9745 0.4007
# 4 14.2684 20.6850 10.3630 33.0789 -2.0433 0.9587
# 5 5.3384 -6.8099 3.9745 -2.0433 35.4040 9.4941
# 6 0.6104 15.2657 0.4007 0.9587 9.4941 29.4100
#
#
#
# Elastic Compliance Matrix: (Units=1/GPa)
#
#
# Indices 1 2 3 4 5 6 
#
# 1 0.014274 -0.002438 -0.001557 -0.004412 -0.003290 0.002196
# 2 -0.002438 0.020697 -0.006160 -0.009095 0.007970 -0.012885
# 3 -0.001557 -0.006160 0.012370 0.000315 -0.003436 0.004160
# 4 -0.004412 -0.009095 0.000315 0.037626 0.000100 0.003549
# 5 -0.003290 0.007970 -0.003436 0.000100 0.034754 -0.015245
# 6 0.002196 -0.012885 0.004160 0.003549 -0.015245 0.045393
#
#
# Mechanical properties :
#
#
# Convention : Reuss Voigt Hill
#
# Bulk Modulus (GPa) = 36.99331 46.98490 41.98910
# Shear Modulus (GPa) = 25.71576 32.13043 28.92310
#
# Velocity S-wave (km/s) = 3.26657 3.65133 3.46430
# Velocity P-wave (km/s) = 5.43850 6.10509 5.78141
#
# Compressibility (1/GPa) = 0.02703191
#
# Stress axis : x y z
#
# Youngs Moduli (GPa) = 70.05632 48.31675 80.84281
#
# Poissons Ratio (x) = 0.11778 0.12587
# Poissons Ratio (y) = 0.17077 0.49797
# Poissons Ratio (z) = 0.10907 0.29762
#
# Static dielectric constant tensor:
#      x y z
#    x 1.946030 0.005640 0.005700 
#    y 0.005640 1.899770 0.001080 
#    z 0.005700 0.001080 1.923000 
# 
# From -- ./inp_files/48346.got.cif
#   From: 2010.05.17/outbox.cif.g08.bks.cpg/sg2_25_cif.got.tgz:48346.got - 2010.06.03 11:33:40.
