data_PCOD9033901
_publ_section_title
;
Structure prediction by ZEFSAII (Michael W. Deem and Ramdas Pophale) SiO2 
 PCOD9033901
Probable space group: P -1
;
_chemical_formula_sum "Si O2"
_cell_formula_units_Z 10
_cell_length_a 11.940421
_cell_length_b 7.014633
_cell_length_c 9.482431
_cell_angle_alpha 130.553603
_cell_angle_beta 144.500257
_cell_angle_gamma 65.141326
_cell_volume 339.577353
_symmetry_space_group_name_H-M "P -1"
_symmetry_group_IT_number 2
_symmetry_cell_setting 'triclinic'
loop_
_space_group_symop_operation_xyz
x,y,z
-x,-y,-z
loop_
_atom_site_type_symbol
_atom_site_label
_atom_site_fract_x
_atom_site_fract_y
_atom_site_fract_z
Si Si1 0.500000 0.500000 0.000000
Si Si2 0.751885 0.214240 0.297770
Si Si3 0.656332 0.270174 0.769099
Si Si4 0.207465 0.441951 0.228462
Si Si5 0.000000 0.000000 0.000000
Si Si6 0.187966 0.253187 0.676978
O O1 0.585257 0.247700 0.035477
O O2 0.733206 0.734284 0.394432
O O3 0.719808 0.386713 0.478989
O O4 0.970258 0.288624 0.487253
O O5 0.770931 0.950098 0.267572
O O6 0.654918 0.437994 0.706769
O O7 0.500000 0.000000 0.500000
O O8 0.643214 0.476564 0.980195
O O9 0.871113 0.212765 0.967046
O O10 0.143062 0.148031 0.075558
O O11 0.000000 0.500000 0.000000
#
# Coordination Sequence:
#
# PCOD9033901 Si02
#       6
#     1   2   2   2   1   2
#     4  12  28  46  74 112 154 200 254 306 384 464
#     4  11  25  51  75 108 154 201 255 318 381 458
#     4  11  26  46  75 115 148 199 255 318 386 454
#     4  10  22  46  76 108 148 195 253 320 381 449
#     4  10  22  44  70 108 150 190 240 316 388 436
#     4  11  26  48  76 111 148 206 253 318 382 451
#
# _framework density 29.448371999999999
#
# number of rings (size 3 to 8) (size 9 to 14) (size 15 to 20)
#    0.000    1.200    4.000    1.200    5.600    4.000 
#    3.600    0.000    0.000    0.000    0.000    0.000 
#    0.000    0.000    0.000    0.000    0.000    0.000 
#
# Total GULP energy -55669.221910 kJ/mol
# GULP energy per Si atom -5566.922191 kJ/mol
# Density = 2.938135 g / cm^3
# Si number density = 29.448372 Si / 1000 Ang^3
#
#
#
# Elastic Constant Matrix: (Units=GPa)
#
#
# Indices 1 2 3 4 5 6 
#
# 1 233.3660 83.0569 61.0359 6.4209 40.2654 25.5697
# 2 83.0569 224.9267 36.4169 -32.4846 23.2713 24.0096
# 3 61.0359 36.4169 60.1962 9.6551 31.9065 -6.3619
# 4 6.4209 -32.4846 9.6551 74.2750 0.8809 21.2681
# 5 40.2654 23.2713 31.9065 0.8809 73.8333 0.2143
# 6 25.5697 24.0096 -6.3619 21.2681 0.2143 83.7015
#
#
#
# Elastic Compliance Matrix: (Units=1/GPa)
#
#
# Indices 1 2 3 4 5 6 
#
# 1 0.006586 -0.001107 -0.005948 0.000368 -0.000670 -0.002238
# 2 -0.001107 0.006355 -0.003798 0.004178 0.000201 -0.002836
# 3 -0.005948 -0.003798 0.031739 -0.007218 -0.009209 0.007177
# 4 0.000368 0.004178 -0.007218 0.018026 0.001405 -0.006444
# 5 -0.000670 0.000201 -0.009209 0.001405 0.017812 -0.000955
# 6 -0.002238 -0.002836 0.007177 -0.006444 -0.000955 0.015630
#
#
# Mechanical properties :
#
#
# Convention : Reuss Voigt Hill
#
# Bulk Modulus (GPa) = 43.53027 97.72317 70.62672
# Shear Modulus (GPa) = 39.83707 68.89389 54.36548
#
# Velocity S-wave (km/s) = 3.68200 4.84207 4.30132
# Velocity P-wave (km/s) = 5.73499 8.03227 6.97881
#
# Compressibility (1/GPa) = 0.02297252
#
# Stress axis : x y z
#
# Youngs Moduli (GPa) = 151.84585 157.35350 31.50728
#
# Poissons Ratio (x) = 0.17425 0.18741
# Poissons Ratio (y) = 0.16815 0.11966
# Poissons Ratio (z) = 0.90319 0.59763
#
# Static dielectric constant tensor:
#      x y z
#    x 2.374240 0.035670 0.024560 
#    y 0.035670 2.106610 0.120350 
#    z 0.024560 0.120350 2.586180 
# 
# From -- ./inp_files/442353.got.cif
#   From: 2010.05.17/outbox.cif.g08.bks.cpg/sg2_222_cif.got.tgz:442353.got - 2010.06.03 11:33:40.
