data_PCOD9033184
_publ_section_title
;
Structure prediction by ZEFSAII (Michael W. Deem and Ramdas Pophale) SiO2 
 PCOD9033184
Probable space group: P -1
;
_chemical_formula_sum "Si O2"
_cell_formula_units_Z 16
_cell_length_a 8.243496
_cell_length_b 15.523737
_cell_length_c 9.580655
_cell_angle_alpha 63.202333
_cell_angle_beta 128.296777
_cell_angle_gamma 83.234442
_cell_volume 707.456612
_symmetry_space_group_name_H-M "P -1"
_symmetry_group_IT_number 2
_symmetry_cell_setting 'triclinic'
loop_
_space_group_symop_operation_xyz
x,y,z
-x,-y,-z
loop_
_atom_site_type_symbol
_atom_site_label
_atom_site_fract_x
_atom_site_fract_y
_atom_site_fract_z
Si Si1 0.903933 0.051393 0.066717
Si Si2 0.640664 0.438690 0.765000
Si Si3 0.146245 0.188366 0.188753
Si Si4 0.728295 0.606006 0.228527
Si Si5 0.426027 0.424985 0.106589
Si Si6 0.950425 0.188162 0.593605
Si Si7 0.379457 0.111881 0.671794
Si Si8 0.332743 0.159487 0.016081
O O1 0.603588 0.121056 0.837894
O O2 0.015362 0.119953 0.136080
O O3 0.006369 0.936912 0.299243
O O4 0.000000 0.000000 0.000000
O O5 0.500000 0.500000 0.500000
O O6 0.473215 0.405167 0.786836
O O7 0.661792 0.520985 0.826837
O O8 0.916210 0.323759 0.969958
O O9 0.299086 0.149026 0.442741
O O10 0.333757 0.159153 0.183030
O O11 0.000000 0.500000 0.500000
O O12 0.747243 0.584247 0.087601
O O13 0.644839 0.738990 0.103722
O O14 0.671619 0.295351 0.347944
O O15 0.500000 0.500000 0.000000
O O16 0.132553 0.187992 0.577274
O O17 0.057453 0.196883 0.792041
O O18 0.485310 0.973778 0.842416
#
# Coordination Sequence:
#
# PCOD9033184 Si02
#       8
#     2   2   2   2   2   2   2   2
#     4  11  24  42  68 100 135 182 217 268 349 392
#     4  11  25  46  69  97 134 174 228 281 333 399
#     4  12  25  45  68  99 139 177 224 279 331 405
#     4  11  24  42  69  96 129 180 225 275 336 399
#     4  10  22  44  66  94 132 176 223 274 335 397
#     4  11  23  43  69  94 138 173 222 279 328 405
#     4  11  25  42  67 102 140 171 224 277 332 404
#     4  11  23  43  66  97 137 173 218 274 338 399
#
# _framework density 22.616226999999999
#
# number of rings (size 3 to 8) (size 9 to 14) (size 15 to 20)
#    0.000    1.000    2.500    6.375    5.250    0.500 
#    0.000    1.250    0.000    0.000    0.000    0.000 
#    0.000    0.000    0.000    0.000    0.000    0.000 
#
# Total GULP energy -89502.427118 kJ/mol
# GULP energy per Si atom -5593.901695 kJ/mol
# Density = 2.256475 g / cm^3
# Si number density = 22.616227 Si / 1000 Ang^3
#
#
#
# Elastic Constant Matrix: (Units=GPa)
#
#
# Indices 1 2 3 4 5 6 
#
# 1 52.0556 19.5510 -7.9322 0.2317 -11.0669 -2.0508
# 2 19.5510 87.1831 45.9130 11.5896 -1.3684 -2.0610
# 3 -7.9322 45.9130 133.0538 5.3114 -11.3748 -1.1676
# 4 0.2317 11.5896 5.3114 25.4745 -10.3761 -4.7044
# 5 -11.0669 -1.3684 -11.3748 -10.3761 32.0671 -1.3100
# 6 -2.0508 -2.0610 -1.1676 -4.7044 -1.3100 35.6914
#
#
#
# Elastic Compliance Matrix: (Units=1/GPa)
#
#
# Indices 1 2 3 4 5 6 
#
# 1 0.027040 -0.010184 0.005988 0.009465 0.014204 0.002930
# 2 -0.010184 0.018976 -0.007499 -0.010901 -0.008953 -0.001500
# 3 0.005988 -0.007499 0.010903 0.004130 0.006994 0.001069
# 4 0.009465 -0.010901 0.004130 0.053676 0.021958 0.007930
# 5 0.014204 -0.008953 0.006994 0.021958 0.045499 0.005092
# 6 0.002930 -0.001500 0.001069 0.007930 0.005092 0.029367
#
#
# Mechanical properties :
#
#
# Convention : Reuss Voigt Hill
#
# Bulk Modulus (GPa) = 29.82271 43.03959 36.43115
# Shear Modulus (GPa) = 22.72471 32.96398 27.84435
#
# Velocity S-wave (km/s) = 3.17329 3.82191 3.51261
# Velocity P-wave (km/s) = 5.16153 6.20868 5.70917
#
# Compressibility (1/GPa) = 0.03353149
#
# Stress axis : x y z
#
# Youngs Moduli (GPa) = 36.98157 52.69870 91.72031
#
# Poissons Ratio (x) = 0.53666 -0.54925
# Poissons Ratio (y) = 0.37660 0.68777
# Poissons Ratio (z) = -0.22146 0.39516
#
# Static dielectric constant tensor:
#      x y z
#    x 1.908450 0.038920 -0.023430 
#    y 0.038920 1.913690 0.001060 
#    z -0.023430 0.001060 1.840250 
# 
# From -- ./inp_files/187250.got.cif
#   From: 2010.05.17/outbox.cif.g08.bks.cpg/sg2_94_cif.got.tgz:187250.got - 2010.06.03 11:33:40.
