data_PCOD9033226
_publ_section_title
;
Structure prediction by ZEFSAII (Michael W. Deem and Ramdas Pophale) SiO2 
 PCOD9033226
Probable space group: P -1
;
_chemical_formula_sum "Si O2"
_cell_formula_units_Z 15
_cell_length_a 8.128913
_cell_length_b 10.084808
_cell_length_c 13.689601
_cell_angle_alpha 114.418573
_cell_angle_beta 89.129563
_cell_angle_gamma 134.310879
_cell_volume 663.621160
_symmetry_space_group_name_H-M "P -1"
_symmetry_group_IT_number 2
_symmetry_cell_setting 'triclinic'
loop_
_space_group_symop_operation_xyz
x,y,z
-x,-y,-z
loop_
_atom_site_type_symbol
_atom_site_label
_atom_site_fract_x
_atom_site_fract_y
_atom_site_fract_z
Si Si1 0.556089 0.980407 0.730899
Si Si2 0.439571 0.611237 0.722869
Si Si3 0.011223 0.943248 0.874012
Si Si4 0.124771 0.433542 0.860785
Si Si5 0.891610 0.545143 0.790870
Si Si6 0.500000 0.500000 0.500000
Si Si7 0.751176 0.366292 0.526799
Si Si8 0.513433 0.288216 0.873494
O O1 0.425590 0.769766 0.734961
O O2 0.459230 0.883012 0.592655
O O3 0.493193 0.101223 0.798991
O O4 0.859640 0.171520 0.793669
O O5 0.740086 0.787427 0.781593
O O6 0.293902 0.491848 0.787694
O O7 0.355941 0.448664 0.588183
O O8 0.044107 0.791869 0.838177
O O9 0.240803 0.158855 0.872613
O O10 0.000000 0.000000 0.000000
O O11 0.040812 0.540675 0.862250
O O12 0.290788 0.549969 0.991632
O O13 0.819333 0.406731 0.652640
O O14 0.640051 0.429406 0.815761
O O15 0.637529 0.450598 0.535988
O O16 0.000000 0.500000 0.500000
#
# Coordination Sequence:
#
# PCOD9033226 Si02
#       8
#     2   2   2   2   2   1   2   2
#     4  10  24  42  67  97 123 175 219 274 338 392
#     4  11  23  43  66  93 133 171 221 272 336 399
#     4  12  25  40  65  96 131 180 216 266 341 398
#     4  11  24  43  66  96 133 171 223 279 331 398
#     4  11  24  43  66  97 130 172 221 276 334 394
#     4  10  22  44  66  98 134 172 220 280 336 396
#     4  11  22  44  72 100 138 175 228 282 335 409
#     4  11  25  42  65  96 134 172 223 279 325 405
#
# _framework density 22.603255999999998
#
# number of rings (size 3 to 8) (size 9 to 14) (size 15 to 20)
#    0.000    1.067    2.667    4.800    3.733    4.800 
#    2.400    1.333    0.000    0.000    0.000    0.000 
#    0.000    0.000    0.000    0.000    0.000    0.000 
#
# Total GULP energy -83624.815721 kJ/mol
# GULP energy per Si atom -5574.987715 kJ/mol
# Density = 2.255181 g / cm^3
# Si number density = 22.603256 Si / 1000 Ang^3
#
#
#
# Elastic Constant Matrix: (Units=GPa)
#
#
# Indices 1 2 3 4 5 6 
#
# 1 82.5981 51.6087 -29.2487 -9.2143 -44.1434 32.6786
# 2 51.6087 244.5513 -70.4473 -99.1643 -160.1015 142.4191
# 3 -29.2487 -70.4473 177.7231 42.4648 78.3915 -64.3013
# 4 -9.2143 -99.1643 42.4648 83.0343 94.0118 -74.0391
# 5 -44.1434 -160.1015 78.3915 94.0118 188.6748 -119.9869
# 6 32.6786 142.4191 -64.3013 -74.0391 -119.9869 134.4367
#
#
#
# Elastic Compliance Matrix: (Units=1/GPa)
#
#
# Indices 1 2 3 4 5 6 
#
# 1 0.016059 -0.003191 0.001239 -0.007748 0.003992 -0.000636
# 2 -0.003191 0.013562 -0.000805 0.005268 0.003302 -0.008129
# 3 0.001239 -0.000805 0.007184 -0.000729 -0.001698 0.002071
# 4 -0.007748 0.005268 -0.000729 0.035398 -0.011223 0.005432
# 5 0.003992 0.003302 -0.001698 -0.011223 0.018605 0.005143
# 6 -0.000636 -0.008129 0.002071 0.005432 0.005143 0.024777
#
#
# Mechanical properties :
#
#
# Convention : Reuss Voigt Hill
#
# Bulk Modulus (GPa) = 31.95765 45.41088 38.68427
# Shear Modulus (GPa) = 38.01401 118.09312 78.05357
#
# Velocity S-wave (km/s) = 4.10542 7.23599 5.88277
# Velocity P-wave (km/s) = 6.05325 9.48402 7.95577
#
# Compressibility (1/GPa) = 0.03129141
#
# Stress axis : x y z
#
# Youngs Moduli (GPa) = 62.26861 73.73299 139.20055
#
# Poissons Ratio (x) = 0.23526 -0.17246
# Poissons Ratio (y) = 0.19868 0.11212
# Poissons Ratio (z) = -0.07715 0.05939
#
# Static dielectric constant tensor:
#      x y z
#    x 1.906580 -0.000980 0.141930 
#    y -0.000980 1.843680 -0.015510 
#    z 0.141930 -0.015510 2.495830 
# 
# From -- ./inp_files/473785.got.cif
#   From: 2010.05.17/outbox.cif.g08.bks.cpg/sg2_237_cif.got.tgz:473785.got - 2010.06.03 11:33:40.
