data_PCOD9033082
_publ_section_title
;
Structure prediction by ZEFSAII (Michael W. Deem and Ramdas Pophale) SiO2 
 PCOD9033082
Probable space group: P -1
;
_chemical_formula_sum "Si O2"
_cell_formula_units_Z 16
_cell_length_a 16.993265
_cell_length_b 14.256191
_cell_length_c 6.554688
_cell_angle_alpha 123.948547
_cell_angle_beta 64.415284
_cell_angle_gamma 148.993039
_cell_volume 674.490643
_symmetry_space_group_name_H-M "P -1"
_symmetry_group_IT_number 2
_symmetry_cell_setting 'triclinic'
loop_
_space_group_symop_operation_xyz
x,y,z
-x,-y,-z
loop_
_atom_site_type_symbol
_atom_site_label
_atom_site_fract_x
_atom_site_fract_y
_atom_site_fract_z
Si Si1 0.394745 0.129602 0.863053
Si Si2 0.122417 0.546655 0.516206
Si Si3 0.632728 0.548335 0.966364
Si Si4 0.951795 0.200052 0.586862
Si Si5 0.300513 0.900605 0.052324
Si Si6 0.159470 0.064731 0.966902
Si Si7 0.901777 0.797753 0.254896
Si Si8 0.349038 0.862044 0.374297
O O1 0.538977 0.331016 0.818778
O O2 0.417539 0.096889 0.018497
O O3 0.280908 0.112934 0.999989
O O4 0.304902 0.940404 0.601305
O O5 0.231121 0.641138 0.313945
O O6 0.000000 0.500000 0.500000
O O7 0.044003 0.364648 0.508159
O O8 0.220101 0.723002 0.782643
O O9 0.764039 0.729247 0.880159
O O10 0.729693 0.646492 0.191095
O O11 0.500000 0.500000 0.000000
O O12 0.830954 0.154379 0.780117
O O13 0.070236 0.276470 0.712986
O O14 0.862060 0.006431 0.325262
O O15 0.368660 0.904028 0.167728
O O16 0.002071 0.886456 0.046322
O O17 0.000000 0.000000 0.500000
O O18 0.500000 0.000000 0.500000
#
# Coordination Sequence:
#
# PCOD9033082 Si02
#       8
#     2   2   2   2   2   2   2   2
#     4  10  22  44  65  96 131 184 225 275 344 412
#     4  11  24  41  68 103 133 175 233 279 339 409
#     4  10  24  45  67  96 139 177 218 283 346 406
#     4  12  23  39  73 100 131 180 228 283 343 393
#     4  11  22  43  69  96 139 177 224 286 343 401
#     4  11  22  45  69  95 138 176 226 285 336 402
#     4  12  26  44  70 105 133 176 234 287 338 404
#     4  11  25  42  64  96 138 181 222 279 345 408
#
# _framework density 23.721602000000001
#
# number of rings (size 3 to 8) (size 9 to 14) (size 15 to 20)
#    0.000    1.000    5.000    1.500    0.000    5.000 
#    2.250    1.875    0.000    0.000    0.000    0.000 
#    0.000    0.000    0.000    0.000    0.000    0.000 
#
# Total GULP energy -89275.868406 kJ/mol
# GULP energy per Si atom -5579.741775 kJ/mol
# Density = 2.366761 g / cm^3
# Si number density = 23.721602 Si / 1000 Ang^3
#
#
#
# Elastic Constant Matrix: (Units=GPa)
#
#
# Indices 1 2 3 4 5 6 
#
# 1 132.2255 43.0797 28.8637 -10.2763 48.2453 -7.6899
# 2 43.0797 128.6919 18.2967 -11.6868 16.0513 -41.9457
# 3 28.8637 18.2967 81.4556 -9.2353 21.4608 -8.3231
# 4 -10.2763 -11.6868 -9.2353 33.6465 -3.4624 10.5950
# 5 48.2453 16.0513 21.4608 -3.4624 55.1898 -0.1543
# 6 -7.6899 -41.9457 -8.3231 10.5950 -0.1543 39.4009
#
#
#
# Elastic Compliance Matrix: (Units=1/GPa)
#
#
# Indices 1 2 3 4 5 6 
#
# 1 0.012274 -0.003212 -0.001164 0.001940 -0.009227 -0.001828
# 2 -0.003212 0.013452 -0.000301 -0.000858 -0.001003 0.013858
# 3 -0.001164 -0.000301 0.014359 0.002468 -0.004319 0.001805
# 4 0.001940 -0.000858 0.002468 0.033500 -0.000330 -0.009023
# 5 -0.009227 -0.001003 -0.004319 -0.000330 0.028125 -0.003582
# 6 -0.001828 0.013858 0.001805 -0.009023 -0.003582 0.042570
#
#
# Mechanical properties :
#
#
# Convention : Reuss Voigt Hill
#
# Bulk Modulus (GPa) = 32.53897 58.09480 45.31689
# Shear Modulus (GPa) = 30.51058 42.45628 36.48343
#
# Velocity S-wave (km/s) = 3.59025 4.23516 3.92597
# Velocity P-wave (km/s) = 5.56177 6.96124 6.30048
#
# Compressibility (1/GPa) = 0.03073238
#
# Stress axis : x y z
#
# Youngs Moduli (GPa) = 81.47045 74.33625 69.64408
#
# Poissons Ratio (x) = 0.23878 0.08106
# Poissons Ratio (y) = 0.26169 0.02093
# Poissons Ratio (z) = 0.09482 0.02235
#
# Static dielectric constant tensor:
#      x y z
#    x 1.987540 0.044620 -0.049190 
#    y 0.044620 1.863310 -0.053620 
#    z -0.049190 -0.053620 1.937110 
# 
# From -- ./inp_files/49259.got.cif
#   From: 2010.05.17/outbox.cif.g08.bks.cpg/sg2_25_cif.got.tgz:49259.got - 2010.06.03 11:33:40.
