data_PCOD9033696
_publ_section_title
;
Structure prediction by ZEFSAII (Michael W. Deem and Ramdas Pophale) SiO2 
 PCOD9033696
Probable space group: P -1
;
_chemical_formula_sum "Si O2"
_cell_formula_units_Z 14
_cell_length_a 6.549525
_cell_length_b 9.391536
_cell_length_c 11.320399
_cell_angle_alpha 54.567937
_cell_angle_beta 108.431823
_cell_angle_gamma 102.610720
_cell_volume 537.704774
_symmetry_space_group_name_H-M "P -1"
_symmetry_group_IT_number 2
_symmetry_cell_setting 'triclinic'
loop_
_space_group_symop_operation_xyz
x,y,z
-x,-y,-z
loop_
_atom_site_type_symbol
_atom_site_label
_atom_site_fract_x
_atom_site_fract_y
_atom_site_fract_z
Si Si1 0.666633 0.236924 0.948749
Si Si2 0.280739 0.446696 0.755591
Si Si3 0.656623 0.261939 0.210779
Si Si4 0.000000 0.000000 0.500000
Si Si5 0.755638 0.940568 0.732464
Si Si6 0.807389 0.477597 0.676125
Si Si7 0.000000 0.000000 0.000000
Si Si8 0.514494 0.287468 0.526273
O O1 0.414864 0.274600 0.860676
O O2 0.786590 0.417213 0.835717
O O3 0.685922 0.219172 0.099755
O O4 0.776912 0.092490 0.960860
O O5 0.286406 0.537473 0.840384
O O6 0.380661 0.591687 0.615374
O O7 0.030698 0.418265 0.693940
O O8 0.811831 0.144163 0.371980
O O9 0.405650 0.228375 0.213840
O O10 0.901273 0.959176 0.635256
O O11 0.583261 0.093586 0.623169
O O12 0.891263 0.959180 0.868481
O O13 0.621921 0.365679 0.626749
O O14 0.741518 0.677282 0.544224
#
# Coordination Sequence:
#
# PCOD9033696 Si02
#       8
#     2   2   2   1   2   2   1   2
#     4  11  26  48  70 111 144 200 253 308 376 444
#     4  11  25  45  74 105 150 200 251 309 384 443
#     4  12  28  46  75 113 150 199 255 308 379 454
#     4  12  26  48  72 112 148 204 238 304 390 436
#     4  12  27  49  78 110 155 192 256 314 375 457
#     4  10  23  45  72 105 148 193 249 311 370 451
#     4  12  26  54  72 110 154 202 250 312 382 440
#     4  10  22  44  69 109 142 191 252 307 374 446
#
# _framework density 26.036593
#
# number of rings (size 3 to 8) (size 9 to 14) (size 15 to 20)
#    0.000    0.857    4.286    1.286    4.000    2.286 
#    2.571    0.000    0.000    0.000    0.000    0.000 
#    0.000    0.000    0.000    0.000    0.000    0.000 
#
# Total GULP energy -77937.575526 kJ/mol
# GULP energy per Si atom -5566.969680 kJ/mol
# Density = 2.597733 g / cm^3
# Si number density = 26.036593 Si / 1000 Ang^3
#
#
#
# Elastic Constant Matrix: (Units=GPa)
#
#
# Indices 1 2 3 4 5 6 
#
# 1 168.9596 49.8730 72.4652 14.4943 32.0140 -29.8847
# 2 49.8730 78.6723 34.3626 17.4004 1.4024 -19.1273
# 3 72.4652 34.3626 131.8679 17.8478 12.0830 2.3326
# 4 14.4943 17.4004 17.8478 42.3809 -22.0206 -0.7456
# 5 32.0140 1.4024 12.0830 -22.0206 54.9130 1.1086
# 6 -29.8847 -19.1273 2.3326 -0.7456 1.1086 38.4664
#
#
#
# Elastic Compliance Matrix: (Units=1/GPa)
#
#
# Indices 1 2 3 4 5 6 
#
# 1 0.012254 -0.002137 -0.004819 -0.005499 -0.008414 0.008886
# 2 -0.002137 0.018565 -0.002845 -0.006206 -0.001246 0.007660
# 3 -0.004819 -0.002845 0.011435 -0.002338 -0.000453 -0.005884
# 4 -0.005499 -0.006206 -0.002338 0.039127 0.019711 -0.007026
# 5 -0.008414 -0.001246 -0.000453 0.019711 0.031306 -0.007649
# 6 0.008886 0.007660 -0.005884 -0.007026 -0.007649 0.037150
#
#
# Mechanical properties :
#
#
# Convention : Reuss Voigt Hill
#
# Bulk Modulus (GPa) = 44.14480 76.98905 60.56692
# Shear Modulus (GPa) = 28.25045 42.00535 35.12790
#
# Velocity S-wave (km/s) = 3.29755 4.02097 3.67710
# Velocity P-wave (km/s) = 5.61161 7.15481 6.42968
#
# Compressibility (1/GPa) = 0.02265273
#
# Stress axis : x y z
#
# Youngs Moduli (GPa) = 81.60891 53.86433 87.45172
#
# Poissons Ratio (x) = 0.11508 0.42142
# Poissons Ratio (y) = 0.17436 0.24880
# Poissons Ratio (z) = 0.39326 0.15325
#
# Static dielectric constant tensor:
#      x y z
#    x 2.126700 0.049630 0.062250 
#    y 0.049630 2.427690 -0.430110 
#    z 0.062250 -0.430110 2.556990 
# 
# From -- ./inp_files/363748.got.cif
#   From: 2010.05.17/outbox.cif.g08.bks.cpg/sg2_182_cif.got.tgz:363748.got - 2010.06.03 11:33:40.
