data_PCOD9033141
_publ_section_title
;
Structure prediction by ZEFSAII (Michael W. Deem and Ramdas Pophale) SiO2 
 PCOD9033141
Probable space group: P -1
;
_chemical_formula_sum "Si O2"
_cell_formula_units_Z 12
_cell_length_a 12.786125
_cell_length_b 9.944734
_cell_length_c 5.018108
_cell_angle_alpha 95.785260
_cell_angle_beta 120.412969
_cell_angle_gamma 103.824043
_cell_volume 515.260682
_symmetry_space_group_name_H-M "P -1"
_symmetry_group_IT_number 2
_symmetry_cell_setting 'triclinic'
loop_
_space_group_symop_operation_xyz
x,y,z
-x,-y,-z
loop_
_atom_site_type_symbol
_atom_site_label
_atom_site_fract_x
_atom_site_fract_y
_atom_site_fract_z
Si Si1 0.033815 0.605162 0.316849
Si Si2 0.783973 0.989181 0.716889
Si Si3 0.438464 0.185457 0.980641
Si Si4 0.044191 0.131806 0.790931
Si Si5 0.481819 0.642292 0.395968
Si Si6 0.694895 0.225191 0.545247
O O1 0.182912 0.701331 0.470588
O O2 0.000000 0.500000 0.500000
O O3 0.953356 0.713885 0.273567
O O4 0.000000 0.500000 0.000000
O O5 0.692941 0.917172 0.335416
O O6 0.718527 0.105356 0.745567
O O7 0.825948 0.873818 0.911935
O O8 0.927013 0.092299 0.841098
O O9 0.424563 0.230877 0.273376
O O10 0.484239 0.319421 0.858577
O O11 0.569978 0.149549 0.183276
O O12 0.000000 0.000000 0.500000
O O13 0.500000 0.500000 0.500000
O O14 0.345480 0.658746 0.309604
#
# Coordination Sequence:
#
# PCOD9033141 Si02
#       6
#     2   2   2   2   2   2
#     4  11  27  47  72 102 140 188 235 285 355 415
#     4  10  22  44  66 103 132 180 233 283 354 404
#     4  10  23  41  68  98 130 179 223 282 345 407
#     4  10  25  44  72  98 143 182 239 294 341 418
#     4  10  23  42  62  97 140 179 221 278 346 410
#     4   9  24  42  71  97 142 173 230 288 341 410
#
# _framework density 23.289180999999999
#
# number of rings (size 3 to 8) (size 9 to 14) (size 15 to 20)
#    1.000    1.000    0.000    1.000   11.667    3.333 
#    0.000    0.000    0.000    0.000    0.000    0.000 
#    0.000    0.000    0.000    0.000    0.000    0.000 
#
# Total GULP energy -66833.148657 kJ/mol
# GULP energy per Si atom -5569.429055 kJ/mol
# Density = 2.323617 g / cm^3
# Si number density = 23.289181 Si / 1000 Ang^3
#
#
#
# Elastic Constant Matrix: (Units=GPa)
#
#
# Indices 1 2 3 4 5 6 
#
# 1 78.5252 35.5663 36.4724 -17.1200 26.5141 -5.3882
# 2 35.5663 140.0210 39.2168 -35.5420 27.9655 -35.7974
# 3 36.4724 39.2168 127.4070 -5.9160 26.5092 -13.9653
# 4 -17.1200 -35.5420 -5.9160 43.0277 -4.7850 6.6961
# 5 26.5141 27.9655 26.5092 -4.7850 45.8587 -1.8638
# 6 -5.3882 -35.7974 -13.9653 6.6961 -1.8638 42.4005
#
#
#
# Elastic Compliance Matrix: (Units=1/GPa)
#
#
# Indices 1 2 3 4 5 6 
#
# 1 0.018367 -0.001160 -0.003178 0.005203 -0.007567 -0.000846
# 2 -0.001160 0.013342 -0.001239 0.008353 -0.005506 0.009148
# 3 -0.003178 -0.001239 0.009954 -0.001581 -0.003248 0.001936
# 4 0.005203 0.008353 -0.001581 0.031241 -0.003844 0.002090
# 5 -0.007567 -0.005506 -0.003248 -0.003844 0.030824 -0.004718
# 6 -0.000846 0.009148 0.001936 0.002090 -0.004718 0.031300
#
#
# Mechanical properties :
#
#
# Convention : Reuss Voigt Hill
#
# Bulk Modulus (GPa) = 32.77414 63.16270 47.96842
# Shear Modulus (GPa) = 31.97932 41.90389 36.94161
#
# Velocity S-wave (km/s) = 3.70961 4.24640 3.98705
# Velocity P-wave (km/s) = 5.69662 7.15699 6.46815
#
# Compressibility (1/GPa) = 0.03051187
#
# Stress axis : x y z
#
# Youngs Moduli (GPa) = 54.44480 74.95145 100.45845
#
# Poissons Ratio (x) = 0.08691 0.31923
# Poissons Ratio (y) = 0.06313 0.12442
# Poissons Ratio (z) = 0.17301 0.09283
#
# Static dielectric constant tensor:
#      x y z
#    x 1.888880 -0.005750 0.003490 
#    y -0.005750 1.888300 0.003670 
#    z 0.003490 0.003670 1.878900 
# 
# From -- ./inp_files/86543.got.cif
#   From: 2010.05.17/outbox.cif.g08.bks.cpg/sg2_44_cif.got.tgz:86543.got - 2010.06.03 11:33:40.
