data_PCOD9033158
_publ_section_title
;
Structure prediction by ZEFSAII (Michael W. Deem and Ramdas Pophale) SiO2 
 PCOD9033158
Probable space group: P -1
;
_chemical_formula_sum "Si O2"
_cell_formula_units_Z 15
_cell_length_a 10.983552
_cell_length_b 5.412857
_cell_length_c 14.725996
_cell_angle_alpha 86.148914
_cell_angle_beta 62.512187
_cell_angle_gamma 54.655834
_cell_volume 608.876260
_symmetry_space_group_name_H-M "P -1"
_symmetry_group_IT_number 2
_symmetry_cell_setting 'triclinic'
loop_
_space_group_symop_operation_xyz
x,y,z
-x,-y,-z
loop_
_atom_site_type_symbol
_atom_site_label
_atom_site_fract_x
_atom_site_fract_y
_atom_site_fract_z
Si Si1 0.078169 0.967593 0.118386
Si Si2 0.501790 0.569213 0.282620
Si Si3 0.317220 0.082795 0.038220
Si Si4 0.183839 0.544406 0.923084
Si Si5 0.500000 0.500000 0.500000
Si Si6 0.706095 0.838668 0.453615
Si Si7 0.031954 0.602224 0.266512
Si Si8 0.283792 0.324483 0.348715
O O1 0.276567 0.837918 0.065799
O O2 0.955905 0.322385 0.112517
O O3 0.006073 0.908030 0.231031
O O4 0.085722 0.766549 0.038314
O O5 0.671379 0.432951 0.167058
O O6 0.552418 0.460757 0.373037
O O7 0.395345 0.447739 0.288930
O O8 0.391888 0.948993 0.305408
O O9 0.182280 0.328897 0.156019
O O10 0.274657 0.207665 0.945798
O O11 0.500000 0.000000 0.000000
O O12 0.315832 0.845806 0.530794
O O13 0.754025 0.637044 0.531508
O O14 0.851313 0.651844 0.331918
O O15 0.500000 0.000000 0.500000
O O16 0.113378 0.512423 0.340906
#
# Coordination Sequence:
#
# PCOD9033158 Si02
#       8
#     2   2   2   2   1   2   2   2
#     4  10  24  44  66  99 144 181 249 304 360 440
#     4  11  24  43  75 105 144 191 243 302 365 439
#     4  11  25  43  69 106 142 190 243 303 366 442
#     4  10  23  42  69 100 137 191 242 299 368 427
#     4  10  22  44  66 108 134 184 238 302 358 426
#     4  11  23  46  71 102 143 187 246 304 361 439
#     4  11  26  43  68 106 142 192 239 298 375 428
#     4  11  26  45  70 106 147 191 242 299 367 443
#
# _framework density 24.635546999999999
#
# number of rings (size 3 to 8) (size 9 to 14) (size 15 to 20)
#    0.000    1.333    1.333    2.400    7.467    4.267 
#    0.000    2.000    0.000    0.000    0.000    0.000 
#    0.000    0.000    0.000    0.000    0.000    0.000 
#
# Total GULP energy -83517.494566 kJ/mol
# GULP energy per Si atom -5567.832971 kJ/mol
# Density = 2.457948 g / cm^3
# Si number density = 24.635547 Si / 1000 Ang^3
#
#
#
# Elastic Constant Matrix: (Units=GPa)
#
#
# Indices 1 2 3 4 5 6 
#
# 1 117.7683 41.1893 47.6594 -12.3371 -28.7544 -7.6824
# 2 41.1893 65.0258 38.5049 -17.5287 -4.7473 1.0538
# 3 47.6594 38.5049 139.5149 -17.6628 -24.8426 -20.9912
# 4 -12.3371 -17.5287 -17.6628 37.7732 -4.5437 3.2912
# 5 -28.7544 -4.7473 -24.8426 -4.5437 40.9958 -1.8333
# 6 -7.6824 1.0538 -20.9912 3.2912 -1.8333 29.9898
#
#
#
# Elastic Compliance Matrix: (Units=1/GPa)
#
#
# Indices 1 2 3 4 5 6 
#
# 1 0.013911 -0.007653 -0.000196 0.001642 0.009116 0.004072
# 2 -0.007653 0.025040 -0.005633 0.006506 -0.005511 -0.007834
# 3 -0.000196 -0.005633 0.011663 0.002881 0.006974 0.008421
# 4 0.001642 0.006506 0.002881 0.032320 0.007193 -0.000899
# 5 0.009116 -0.005511 0.006974 0.007193 0.035565 0.008795
# 6 0.004072 -0.007834 0.008421 -0.000899 0.008795 0.041194
#
#
# Mechanical properties :
#
#
# Convention : Reuss Voigt Hill
#
# Bulk Modulus (GPa) = 42.28390 64.11291 53.19840
# Shear Modulus (GPa) = 25.70178 34.74880 30.22529
#
# Velocity S-wave (km/s) = 3.23349 3.75976 3.50651
# Velocity P-wave (km/s) = 5.58047 6.70289 6.16727
#
# Compressibility (1/GPa) = 0.02364966
#
# Stress axis : x y z
#
# Youngs Moduli (GPa) = 71.88692 39.93581 85.74363
#
# Poissons Ratio (x) = 0.30564 0.01680
# Poissons Ratio (y) = 0.55017 0.48297
# Poissons Ratio (z) = 0.01408 0.22495
#
# Static dielectric constant tensor:
#      x y z
#    x 2.108520 0.108540 0.001300 
#    y 0.108540 2.141650 0.035950 
#    z 0.001300 0.035950 1.957910 
# 
# From -- ./inp_files/473473.got.cif
#   From: 2010.05.17/outbox.cif.g08.bks.cpg/sg2_237_cif.got.tgz:473473.got - 2010.06.03 11:33:40.
