data_PCOD9033447
_publ_section_title
;
Structure prediction by ZEFSAII (Michael W. Deem and Ramdas Pophale) SiO2 
 PCOD9033447
Probable space group: P -1
;
_chemical_formula_sum "Si O2"
_cell_formula_units_Z 16
_cell_length_a 17.582684
_cell_length_b 8.595947
_cell_length_c 12.196337
_cell_angle_alpha 51.332886
_cell_angle_beta 127.276133
_cell_angle_gamma 147.960543
_cell_volume 750.564460
_symmetry_space_group_name_H-M "P -1"
_symmetry_group_IT_number 2
_symmetry_cell_setting 'triclinic'
loop_
_space_group_symop_operation_xyz
x,y,z
-x,-y,-z
loop_
_atom_site_type_symbol
_atom_site_label
_atom_site_fract_x
_atom_site_fract_y
_atom_site_fract_z
Si Si1 0.367207 0.271287 0.902795
Si Si2 0.134533 0.735892 0.429524
Si Si3 0.452361 0.140714 0.624849
Si Si4 0.893112 0.856120 0.863659
Si Si5 0.042808 0.839380 0.603261
Si Si6 0.604268 0.140530 0.926240
Si Si7 0.939434 0.188843 0.115761
Si Si8 0.627626 0.638933 0.383950
O O1 0.393082 0.411430 0.743302
O O2 0.228715 0.121630 0.919544
O O3 0.500000 0.500000 0.000000
O O4 0.339342 0.995556 0.971052
O O5 0.000000 0.500000 0.500000
O O6 0.088363 0.500078 0.404391
O O7 0.289501 0.913072 0.536618
O O8 0.130752 0.952492 0.279413
O O9 0.508956 0.033121 0.781227
O O10 0.563182 0.362748 0.524766
O O11 0.454798 0.303877 0.656480
O O12 0.737731 0.503592 0.898241
O O13 0.966522 0.842096 0.837119
O O14 0.000000 0.000000 0.000000
O O15 0.067367 0.815491 0.758472
O O16 0.197996 0.062062 0.578999
O O17 0.000000 0.000000 0.500000
O O18 0.500000 0.000000 0.000000
O O19 0.000000 0.500000 0.000000
#
# Coordination Sequence:
#
# PCOD9033447 Si02
#       8
#     2   2   2   2   2   2   2   2
#     4  11  26  45  70 104 147 191 238 294 365 438
#     4  12  26  44  73 107 141 186 247 294 350 440
#     4  11  24  43  75 102 144 182 246 297 358 422
#     4  12  28  46  77 110 139 191 252 294 360 439
#     4  11  25  44  69  99 146 186 231 293 366 423
#     4  12  27  47  75 104 147 193 239 305 363 425
#     4  11  24  45  68 100 147 187 231 303 363 420
#     4  10  22  44  68 101 140 184 233 297 358 419
#
# _framework density 21.317291000000001
#
# number of rings (size 3 to 8) (size 9 to 14) (size 15 to 20)
#    0.000    0.750    3.750    3.000    7.000    3.000 
#    0.000    1.250    0.000    0.000    0.000    0.000 
#    0.000    0.000    0.000    0.000    0.000    0.000 
#
# Total GULP energy -89352.142998 kJ/mol
# GULP energy per Si atom -5584.508937 kJ/mol
# Density = 2.126877 g / cm^3
# Si number density = 21.317291 Si / 1000 Ang^3
#
#
#
# Elastic Constant Matrix: (Units=GPa)
#
#
# Indices 1 2 3 4 5 6 
#
# 1 82.3107 43.1467 28.7150 -14.3395 1.5352 17.6911
# 2 43.1467 144.2852 62.5822 4.9715 -12.5162 19.3541
# 3 28.7150 62.5822 131.9412 -7.4509 4.8053 22.0888
# 4 -14.3395 4.9715 -7.4509 41.6855 0.7803 -0.2502
# 5 1.5352 -12.5162 4.8053 0.7803 28.0570 -11.6357
# 6 17.6911 19.3541 22.0888 -0.2502 -11.6357 40.2719
#
#
#
# Elastic Compliance Matrix: (Units=1/GPa)
#
#
# Indices 1 2 3 4 5 6 
#
# 1 0.017680 -0.005362 0.000569 0.006904 -0.006717 -0.007400
# 2 -0.005362 0.011183 -0.004900 -0.004174 0.006918 0.001641
# 3 0.000569 -0.004900 0.011178 0.002867 -0.006673 -0.005936
# 4 0.006904 -0.004174 0.002867 0.027447 -0.005114 -0.003907
# 5 -0.006717 0.006918 -0.006673 -0.005114 0.047411 0.016953
# 6 -0.007400 0.001641 -0.005936 -0.003907 0.016953 0.035423
#
#
# Mechanical properties :
#
#
# Convention : Reuss Voigt Hill
#
# Bulk Modulus (GPa) = 48.41316 69.71388 59.06352
# Shear Modulus (GPa) = 28.31374 36.94243 32.62808
#
# Velocity S-wave (km/s) = 3.64841 4.16742 3.91652
# Velocity P-wave (km/s) = 6.36458 7.47867 6.94401
#
# Compressibility (1/GPa) = 0.02065554
#
# Stress axis : x y z
#
# Youngs Moduli (GPa) = 56.56212 89.42090 89.45923
#
# Poissons Ratio (x) = 0.47944 -0.05088
# Poissons Ratio (y) = 0.30326 0.43834
# Poissons Ratio (z) = -0.03217 0.43815
#
# Static dielectric constant tensor:
#      x y z
#    x 1.816540 0.115080 0.106220 
#    y 0.115080 1.122320 -0.517960 
#    z 0.106220 -0.517960 1.375150 
# 
# From -- ./inp_files/383554.got.cif
#   From: 2010.05.17/outbox.cif.g08.bks.cpg/sg2_192_cif.got.tgz:383554.got - 2010.06.03 11:33:40.
