data_PCOD9033348
_publ_section_title
;
Structure prediction by ZEFSAII (Michael W. Deem and Ramdas Pophale) SiO2 
 PCOD9033348
Probable space group: P -1
;
_chemical_formula_sum "Si O2"
_cell_formula_units_Z 15
_cell_length_a 7.812484
_cell_length_b 14.068793
_cell_length_c 11.051822
_cell_angle_alpha 118.871202
_cell_angle_beta 139.152485
_cell_angle_gamma 79.199433
_cell_volume 661.347969
_symmetry_space_group_name_H-M "P -1"
_symmetry_group_IT_number 2
_symmetry_cell_setting 'triclinic'
loop_
_space_group_symop_operation_xyz
x,y,z
-x,-y,-z
loop_
_atom_site_type_symbol
_atom_site_label
_atom_site_fract_x
_atom_site_fract_y
_atom_site_fract_z
Si Si1 0.000000 0.500000 0.000000
Si Si2 0.952584 0.849959 0.087102
Si Si3 0.570959 0.618356 0.784605
Si Si4 0.367627 0.446112 0.771596
Si Si5 0.767337 0.963703 0.452743
Si Si6 0.468963 0.763871 0.312636
Si Si7 0.561559 0.879518 0.689137
Si Si8 0.855411 0.342780 0.588112
O O1 0.195511 0.441067 0.143536
O O2 0.017376 0.593402 0.181814
O O3 0.103082 0.959707 0.314327
O O4 0.184476 0.788736 0.150417
O O5 0.713241 0.753056 0.970514
O O6 0.809817 0.883521 0.913883
O O7 0.379795 0.543794 0.741885
O O8 0.396334 0.616970 0.570321
O O9 0.553478 0.369201 0.773682
O O10 0.069849 0.367949 0.606884
O O11 0.500000 0.500000 0.000000
O O12 0.506291 0.003598 0.297939
O O13 0.669223 0.831790 0.356365
O O14 0.000000 0.000000 0.500000
O O15 0.585401 0.821997 0.537916
O O16 0.282373 0.791015 0.540575
#
# Coordination Sequence:
#
# PCOD9033348 Si02
#       8
#     1   2   2   2   2   2   2   2
#     4  12  20  38  60  86 124 170 214 256 322 376
#     4  10  23  43  69  97 129 171 215 265 325 383
#     4  11  23  41  64  92 130 171 216 266 319 390
#     4  12  25  42  65  92 135 176 215 272 329 382
#     4  11  24  42  70  97 133 164 213 267 323 391
#     4  11  25  43  66  96 125 174 218 268 321 387
#     4  10  22  44  67  96 131 167 217 269 319 388
#     4  11  24  40  63  94 130 171 217 267 324 386
#
# _framework density 22.680949999999999
#
# number of rings (size 3 to 8) (size 9 to 14) (size 15 to 20)
#    0.000    1.067    1.333    6.400    1.867    3.733 
#    2.400    0.000    0.000    0.000    0.000    0.000 
#    0.000    0.000    0.000    0.000    0.000    0.000 
#
# Total GULP energy -83666.895575 kJ/mol
# GULP energy per Si atom -5577.793038 kJ/mol
# Density = 2.262933 g / cm^3
# Si number density = 22.680950 Si / 1000 Ang^3
#
#
#
# Elastic Constant Matrix: (Units=GPa)
#
#
# Indices 1 2 3 4 5 6 
#
# 1 55.7034 5.1520 6.3465 -5.5514 5.5951 13.6378
# 2 5.1520 126.0295 46.2049 -11.9165 -5.4389 13.3301
# 3 6.3465 46.2049 79.9676 -25.5279 4.0785 -1.2329
# 4 -5.5514 -11.9165 -25.5279 40.3247 5.9434 12.6022
# 5 5.5951 -5.4389 4.0785 5.9434 21.8804 5.3993
# 6 13.6378 13.3301 -1.2329 12.6022 5.3993 46.3468
#
#
#
# Elastic Compliance Matrix: (Units=1/GPa)
#
#
# Indices 1 2 3 4 5 6 
#
# 1 0.020807 0.000119 0.000415 0.006194 -0.005270 -0.007216
# 2 0.000119 0.011024 -0.006912 -0.000667 0.005118 -0.003804
# 3 0.000415 -0.006912 0.020962 0.012618 -0.009174 0.000061
# 4 0.006194 -0.000667 0.012618 0.038445 -0.011990 -0.010352
# 5 -0.005270 0.005118 -0.009174 -0.011990 0.054081 -0.003205
# 6 -0.007216 -0.003804 0.000061 -0.010352 -0.003205 0.027984
#
#
# Mechanical properties :
#
#
# Convention : Reuss Voigt Hill
#
# Bulk Modulus (GPa) = 24.97615 41.90081 33.43848
# Shear Modulus (GPa) = 25.07458 35.31019 30.19239
#
# Velocity S-wave (km/s) = 3.32857 3.94994 3.65249
# Velocity P-wave (km/s) = 5.08019 6.27031 5.70636
#
# Compressibility (1/GPa) = 0.04003820
#
# Stress axis : x y z
#
# Youngs Moduli (GPa) = 48.05983 90.71180 47.70424
#
# Poissons Ratio (x) = -0.01077 -0.01979
# Poissons Ratio (y) = -0.00571 0.32971
# Poissons Ratio (z) = -0.01994 0.62696
#
# Static dielectric constant tensor:
#      x y z
#    x 1.610220 -0.021790 -0.101590 
#    y -0.021790 1.812650 0.009720 
#    z -0.101590 0.009720 1.723000 
# 
# From -- ./inp_files/396285.got.cif
#   From: 2010.05.17/outbox.cif.g08.bks.cpg/sg2_199_cif.got.tgz:396285.got - 2010.06.03 11:33:40.
