data_PCOD9033288
_publ_section_title
;
Structure prediction by ZEFSAII (Michael W. Deem and Ramdas Pophale) SiO2 
 PCOD9033288
Probable space group: P -1
;
_chemical_formula_sum "Si O2"
_cell_formula_units_Z 16
_cell_length_a 17.397222
_cell_length_b 10.235439
_cell_length_c 8.546396
_cell_angle_alpha 82.389562
_cell_angle_beta 66.338742
_cell_angle_gamma 137.150068
_cell_volume 690.674133
_symmetry_space_group_name_H-M "P -1"
_symmetry_group_IT_number 2
_symmetry_cell_setting 'triclinic'
loop_
_space_group_symop_operation_xyz
x,y,z
-x,-y,-z
loop_
_atom_site_type_symbol
_atom_site_label
_atom_site_fract_x
_atom_site_fract_y
_atom_site_fract_z
Si Si1 0.801211 0.656628 0.331034
Si Si2 0.124617 0.072402 0.204964
Si Si3 0.085917 0.318273 0.300811
Si Si4 0.741461 0.053007 0.205353
Si Si5 0.497621 0.184442 0.830243
Si Si6 0.453043 0.832677 0.883677
Si Si7 0.576223 0.447418 0.281229
Si Si8 0.903730 0.551792 0.070235
O O1 0.678911 0.495867 0.605711
O O2 0.702326 0.616470 0.299110
O O3 0.805254 0.529491 0.245350
O O4 0.989693 0.919234 0.200705
O O5 0.124431 0.216096 0.261670
O O6 0.317645 0.312907 0.957459
O O7 0.047374 0.860870 0.421498
O O8 0.044046 0.328080 0.166420
O O9 0.270112 0.624227 0.136529
O O10 0.922493 0.234168 0.014447
O O11 0.642208 0.940473 0.143748
O O12 0.612590 0.797015 0.462097
O O13 0.792803 0.268449 0.194308
O O14 0.526222 0.075395 0.755514
O O15 0.456018 0.117963 0.056804
O O16 0.432741 0.707119 0.775567
#
# Coordination Sequence:
#
# PCOD9033288 Si02
#       8
#     2   2   2   2   2   2   2   2
#     4  11  19  32  57  85 108 139 183 228 265 316
#     4  10  20  34  55  83 109 140 184 227 267 310
#     4  10  19  35  56  82 108 145 177 226 269 320
#     4  10  22  38  54  81 113 147 176 219 278 325
#     4  10  19  31  57  82 112 134 181 228 271 318
#     4  10  17  32  55  84 106 138 181 229 273 309
#     4  10  20  35  55  80 110 140 185 223 269 314
#     4  11  21  37  58  79 113 144 179 222 274 329
#
# _framework density 23.165773999999999
#
# number of rings (size 3 to 8) (size 9 to 14) (size 15 to 20)
#    0.000    1.750    5.000    1.125    0.000    2.000 
#    0.000    2.500    0.000    4.500    0.000    0.000 
#    0.000    0.000    0.000    0.000    0.000    0.000 
#
# Total GULP energy -89176.680765 kJ/mol
# GULP energy per Si atom -5573.542548 kJ/mol
# Density = 2.311305 g / cm^3
# Si number density = 23.165774 Si / 1000 Ang^3
#
#
#
# Elastic Constant Matrix: (Units=GPa)
#
#
# Indices 1 2 3 4 5 6 
#
# 1 25.4758 11.1706 26.8028 1.4127 -5.7169 10.2847
# 2 11.1706 77.0467 24.7404 -6.3090 -2.1226 18.8281
# 3 26.8028 24.7404 110.6587 -24.4383 13.8184 8.8396
# 4 1.4127 -6.3090 -24.4383 32.6637 2.9149 -0.3968
# 5 -5.7169 -2.1226 13.8184 2.9149 17.8991 -2.8698
# 6 10.2847 18.8281 8.8396 -0.3968 -2.8698 34.2454
#
#
#
# Elastic Compliance Matrix: (Units=1/GPa)
#
#
# Indices 1 2 3 4 5 6 
#
# 1 0.115089 0.000779 -0.046812 -0.047011 0.077933 -0.016922
# 2 0.000779 0.016035 -0.003632 -0.000081 0.003717 -0.007802
# 3 -0.046812 -0.003632 0.033202 0.030255 -0.045294 0.004040
# 4 -0.047011 -0.000081 0.030255 0.059553 -0.047590 0.003055
# 5 0.077933 0.003717 -0.045294 -0.047590 0.123281 -0.003977
# 6 -0.016922 -0.007802 0.004040 0.003055 -0.003977 0.037232
#
#
# Mechanical properties :
#
#
# Convention : Reuss Voigt Hill
#
# Bulk Modulus (GPa) = 15.38587 37.62319 26.50453
# Shear Modulus (GPa) = 9.89339 26.99281 18.44310
#
# Velocity S-wave (km/s) = 2.06881 3.41721 2.82465
# Velocity P-wave (km/s) = 3.51606 5.64321 4.70152
#
# Compressibility (1/GPa) = 0.06499469
#
# Stress axis : x y z
#
# Youngs Moduli (GPa) = 8.68894 62.36387 30.11844
#
# Poissons Ratio (x) = -0.04855 1.40990
# Poissons Ratio (y) = -0.00676 0.10940
# Poissons Ratio (z) = 0.40675 0.22652
#
# Static dielectric constant tensor:
#      x y z
#    x 1.876380 0.005240 0.057510 
#    y 0.005240 1.874800 0.009420 
#    z 0.057510 0.009420 1.957440 
# 
# From -- ./inp_files/180309.got.cif
#   From: 2010.05.17/outbox.cif.g08.bks.cpg/sg2_91_cif.got.tgz:180309.got - 2010.06.03 11:33:40.
