data_PCOD9033579
_publ_section_title
;
Structure prediction by ZEFSAII (Michael W. Deem and Ramdas Pophale) SiO2 
 PCOD9033579
Probable space group: P -1
;
_chemical_formula_sum "Si O2"
_cell_formula_units_Z 12
_cell_length_a 5.024511
_cell_length_b 13.906692
_cell_length_c 9.213775
_cell_angle_alpha 131.699709
_cell_angle_beta 100.874618
_cell_angle_gamma 66.471028
_cell_volume 437.936915
_symmetry_space_group_name_H-M "P -1"
_symmetry_group_IT_number 2
_symmetry_cell_setting 'triclinic'
loop_
_space_group_symop_operation_xyz
x,y,z
-x,-y,-z
loop_
_atom_site_type_symbol
_atom_site_label
_atom_site_fract_x
_atom_site_fract_y
_atom_site_fract_z
Si Si1 0.665082 0.990378 0.659935
Si Si2 0.568078 0.743859 0.522536
Si Si3 0.880696 0.478690 0.665957
Si Si4 0.663675 0.280277 0.248134
Si Si5 0.927021 0.844283 0.101534
Si Si6 0.767334 0.370063 0.837552
O O1 0.925263 0.045245 0.727404
O O2 0.418832 0.085992 0.842345
O O3 0.500000 0.000000 0.500000
O O4 0.741737 0.835944 0.573235
O O5 0.413355 0.806805 0.720516
O O6 0.353935 0.733037 0.364551
O O7 0.782023 0.582110 0.409979
O O8 0.759498 0.384607 0.460278
O O9 0.640693 0.631437 0.775520
O O10 0.906474 0.433532 0.790940
O O11 0.923543 0.207586 0.090463
O O12 0.040834 0.716384 0.098211
O O13 0.500000 0.500000 0.000000
#
# Coordination Sequence:
#
# PCOD9033579 Si02
#       6
#     2   2   2   2   2   2
#     4  12  27  47  73 101 146 188 232 288 345 417
#     4  11  25  42  71  97 139 191 229 285 355 417
#     4  10  22  44  68  97 143 179 231 289 358 409
#     4  10  24  43  67 103 138 180 232 293 350 410
#     4  12  27  46  73 107 140 183 240 287 343 420
#     4  11  23  42  69 103 134 177 235 291 349 411
#
# _framework density 27.401209000000001
#
# number of rings (size 3 to 8) (size 9 to 14) (size 15 to 20)
#    0.000    1.000    3.333    2.000    7.000    3.333 
#    0.000    0.000    0.000    0.000    0.000    0.000 
#    0.000    0.000    0.000    0.000    0.000    0.000 
#
# Total GULP energy -67336.165444 kJ/mol
# GULP energy per Si atom -5611.347120 kJ/mol
# Density = 2.733884 g / cm^3
# Si number density = 27.401209 Si / 1000 Ang^3
#
#
#
# Elastic Constant Matrix: (Units=GPa)
#
#
# Indices 1 2 3 4 5 6 
#
# 1 90.7658 25.2354 28.8112 -7.2410 -14.1014 2.2206
# 2 25.2354 127.7542 36.9588 0.9325 -10.1799 7.3002
# 3 28.8112 36.9588 140.1198 -10.1213 -28.0105 1.5011
# 4 -7.2410 0.9325 -10.1213 44.6613 -2.6607 -8.1618
# 5 -14.1014 -10.1799 -28.0105 -2.6607 59.7051 4.2840
# 6 2.2206 7.3002 1.5011 -8.1618 4.2840 50.4336
#
#
#
# Elastic Compliance Matrix: (Units=1/GPa)
#
#
# Indices 1 2 3 4 5 6 
#
# 1 0.012484 -0.001867 -0.001544 0.001812 0.001994 -0.000110
# 2 -0.001867 0.008872 -0.001990 -0.001175 0.000182 -0.001348
# 3 -0.001544 -0.001990 0.008827 0.002024 0.003519 0.000122
# 4 0.001812 -0.001175 0.002024 0.023969 0.001977 0.003741
# 5 0.001994 0.000182 0.003519 0.001977 0.019099 -0.001521
# 6 -0.000110 -0.001348 0.000122 0.003741 -0.001521 0.020759
#
#
# Mechanical properties :
#
#
# Convention : Reuss Voigt Hill
#
# Bulk Modulus (GPa) = 51.59669 60.07228 55.83449
# Shear Modulus (GPa) = 44.93438 48.80229 46.86834
#
# Velocity S-wave (km/s) = 4.05392 4.22480 4.14024
# Velocity P-wave (km/s) = 6.38618 6.76531 6.57848
#
# Compressibility (1/GPa) = 0.01938109
#
# Stress axis : x y z
#
# Youngs Moduli (GPa) = 80.10511 112.71018 113.28385
#
# Poissons Ratio (x) = 0.21047 0.17486
# Poissons Ratio (y) = 0.14959 0.22545
# Poissons Ratio (z) = 0.12364 0.22431
#
# Static dielectric constant tensor:
#      x y z
#    x 2.160980 -0.004220 -0.009720 
#    y -0.004220 2.097980 0.045190 
#    z -0.009720 0.045190 2.185880 
# 
# From -- ./inp_files/20968.got.cif
#   From: 2010.05.17/outbox.cif.g08.bks.cpg/sg2_11_cif.got.tgz:20968.got - 2010.06.03 11:33:40.
