data_PCOD9033965
_publ_section_title
;
Structure prediction by ZEFSAII (Michael W. Deem and Ramdas Pophale) SiO2 
 PCOD9033965
Probable space group: P -1
;
_chemical_formula_sum "Si O2"
_cell_formula_units_Z 14
_cell_length_a 18.395126
_cell_length_b 7.733174
_cell_length_c 12.038396
_cell_angle_alpha 70.090577
_cell_angle_beta 148.032072
_cell_angle_gamma 86.771358
_cell_volume 614.198367
_symmetry_space_group_name_H-M "P -1"
_symmetry_group_IT_number 2
_symmetry_cell_setting 'triclinic'
loop_
_space_group_symop_operation_xyz
x,y,z
-x,-y,-z
loop_
_atom_site_type_symbol
_atom_site_label
_atom_site_fract_x
_atom_site_fract_y
_atom_site_fract_z
Si Si1 0.535724 0.910934 0.845020
Si Si2 0.006185 0.201300 0.423904
Si Si3 0.188290 0.334629 0.547396
Si Si4 0.853168 0.793882 0.158805
Si Si5 0.102801 0.841870 0.924645
Si Si6 0.295658 0.471351 0.462957
Si Si7 0.334117 0.726728 0.653262
O O1 0.384426 0.887998 0.642927
O O2 0.466204 0.185935 0.703941
O O3 0.641622 0.761777 0.130975
O O4 0.689706 0.796117 0.972255
O O5 0.866129 0.313220 0.111146
O O6 0.187182 0.116791 0.610028
O O7 0.032455 0.276324 0.561575
O O8 0.000000 0.000000 0.500000
O O9 0.189487 0.413567 0.410462
O O10 0.992422 0.582546 0.293628
O O11 0.801161 0.047909 0.995664
O O12 0.183940 0.662883 0.175150
O O13 0.877094 0.090138 0.605061
O O14 0.339140 0.589671 0.582180
O O15 0.500000 0.500000 0.000000
#
# Coordination Sequence:
#
# PCOD9033965 Si02
#       7
#     2   2   2   2   2   2   2
#     4  11  24  43  68 102 140 175 231 286 335 400
#     4   9  20  36  65  96 126 172 227 270 323 403
#     4  11  21  42  71 101 136 179 228 283 341 406
#     4  10  22  44  70  97 138 179 228 281 341 407
#     4  11  24  46  68 100 137 183 228 276 347 408
#     4  12  26  44  72 100 145 176 225 290 342 403
#     4  12  25  42  72 103 135 180 232 281 338 408
#
# _framework density 22.793938000000001
#
# number of rings (size 3 to 8) (size 9 to 14) (size 15 to 20)
#    0.000    1.143    2.857    3.429    4.000    4.000 
#    5.143    0.714    0.000    0.000    0.000    0.000 
#    0.000    0.000    0.000    0.000    0.000    0.000 
#
# Total GULP energy -77984.570698 kJ/mol
# GULP energy per Si atom -5570.326478 kJ/mol
# Density = 2.274206 g / cm^3
# Si number density = 22.793938 Si / 1000 Ang^3
#
#
#
# Elastic Constant Matrix: (Units=GPa)
#
#
# Indices 1 2 3 4 5 6 
#
# 1 286.0255 65.2935 -185.0618 65.8201 -111.5266 -8.0063
# 2 65.2935 104.7668 -40.0571 32.7568 -23.9540 5.1779
# 3 -185.0618 -40.0571 378.3555 -104.3407 99.1304 61.7638
# 4 65.8201 32.7568 -104.3407 61.8599 -28.9875 -10.7226
# 5 -111.5266 -23.9540 99.1304 -28.9875 96.2565 26.6786
# 6 -8.0063 5.1779 61.7638 -10.7226 26.6786 58.4956
#
#
#
# Elastic Compliance Matrix: (Units=1/GPa)
#
#
# Indices 1 2 3 4 5 6 
#
# 1 0.009027 -0.002086 0.002505 -0.001230 0.008461 -0.005309
# 2 -0.002086 0.012659 -0.001576 -0.007096 0.000581 -0.001308
# 3 0.002505 -0.001576 0.007289 0.009195 -0.000796 -0.005165
# 4 -0.001230 -0.007096 0.009195 0.035765 -0.001309 -0.002096
# 5 0.008461 0.000581 -0.000796 -0.001309 0.023224 -0.008886
# 6 -0.005309 -0.001308 -0.005165 -0.002096 -0.008886 0.025607
#
#
# Mechanical properties :
#
#
# Convention : Reuss Voigt Hill
#
# Bulk Modulus (GPa) = 37.51008 49.94411 43.72710
# Shear Modulus (GPa) = 40.07309 105.25393 72.66351
#
# Velocity S-wave (km/s) = 4.19747 6.80269 5.65222
# Velocity P-wave (km/s) = 6.32326 9.14662 7.86271
#
# Compressibility (1/GPa) = 0.02665950
#
# Stress axis : x y z
#
# Youngs Moduli (GPa) = 110.78336 78.99542 137.19496
#
# Poissons Ratio (x) = 0.16482 -0.34366
# Poissons Ratio (y) = 0.23114 0.21621
# Poissons Ratio (z) = -0.27750 0.12449
#
# Static dielectric constant tensor:
#      x y z
#    x 1.890100 -0.009120 0.056890 
#    y -0.009120 2.011370 0.019710 
#    z 0.056890 0.019710 1.852120 
# 
# From -- ./inp_files/378066.got.cif
#   From: 2010.05.17/outbox.cif.g08.bks.cpg/sg2_190_cif.got.tgz:378066.got - 2010.06.03 11:33:40.
