data_PCOD9033740
_publ_section_title
;
Structure prediction by ZEFSAII (Michael W. Deem and Ramdas Pophale) SiO2 
 PCOD9033740
Probable space group: P -1
;
_chemical_formula_sum "Si O2"
_cell_formula_units_Z 16
_cell_length_a 7.645348
_cell_length_b 4.950388
_cell_length_c 16.730565
_cell_angle_alpha 85.316537
_cell_angle_beta 104.362971
_cell_angle_gamma 89.392627
_cell_volume 611.056785
_symmetry_space_group_name_H-M "P -1"
_symmetry_group_IT_number 2
_symmetry_cell_setting 'triclinic'
loop_
_space_group_symop_operation_xyz
x,y,z
-x,-y,-z
loop_
_atom_site_type_symbol
_atom_site_label
_atom_site_fract_x
_atom_site_fract_y
_atom_site_fract_z
Si Si1 0.150698 0.293861 0.942507
Si Si2 0.507713 0.508908 0.202244
Si Si3 0.299000 0.268650 0.637605
Si Si4 0.153120 0.775993 0.544584
Si Si5 0.806351 0.184028 0.161179
Si Si6 0.616068 0.162390 0.573857
Si Si7 0.247751 0.883197 0.093709
Si Si8 0.791614 0.830391 0.747092
O O1 0.193789 0.596007 0.916050
O O2 0.937662 0.270917 0.938475
O O3 0.182802 0.107175 0.872042
O O4 0.253337 0.139060 0.029647
O O5 0.637612 0.685276 0.267184
O O6 0.629539 0.260047 0.189568
O O7 0.419469 0.682126 0.116389
O O8 0.339985 0.410906 0.239305
O O9 0.139712 0.486419 0.592755
O O10 0.471976 0.345994 0.601217
O O11 0.265763 0.961187 0.615207
O O12 0.242494 0.702763 0.471028
O O13 0.000000 0.000000 0.500000
O O14 0.993227 0.231388 0.229647
O O15 0.500000 0.000000 0.500000
O O16 0.719955 0.975776 0.655415
O O17 0.233321 0.986061 0.180908
#
# Coordination Sequence:
#
# PCOD9033740 Si02
#       8
#     2   2   2   2   2   2   2   2
#     4  10  24  47  68 105 138 185 235 290 345 424
#     4  12  25  43  72 102 142 185 230 295 342 415
#     4  11  24  45  66 101 136 180 235 276 345 420
#     4  11  25  45  69 102 138 181 225 290 347 404
#     4  11  27  44  70 103 142 180 239 286 351 417
#     4  10  22  44  69  96 134 180 228 277 339 418
#     4  10  23  43  74  96 144 185 233 288 354 412
#     4  11  24  47  67 104 138 190 230 286 360 409
#
# _framework density 26.184148
#
# number of rings (size 3 to 8) (size 9 to 14) (size 15 to 20)
#    0.000    1.250    2.500    2.250    5.250    3.500 
#    4.500    0.000    0.000    0.000    0.000    0.000 
#    0.000    0.000    0.000    0.000    0.000    0.000 
#
# Total GULP energy -89635.450032 kJ/mol
# GULP energy per Si atom -5602.215627 kJ/mol
# Density = 2.612455 g / cm^3
# Si number density = 26.184148 Si / 1000 Ang^3
#
#
#
# Elastic Constant Matrix: (Units=GPa)
#
#
# Indices 1 2 3 4 5 6 
#
# 1 89.6211 23.5236 36.1200 -9.8245 22.6186 -22.3683
# 2 23.5236 92.3889 31.3269 -3.7160 4.5661 -4.9153
# 3 36.1200 31.3269 167.7485 -25.0488 20.0737 -8.4441
# 4 -9.8245 -3.7160 -25.0488 55.0942 -9.6047 4.8367
# 5 22.6186 4.5661 20.0737 -9.6047 29.8908 -7.8398
# 6 -22.3683 -4.9153 -8.4441 4.8367 -7.8398 43.1692
#
#
#
# Elastic Compliance Matrix: (Units=1/GPa)
#
#
# Indices 1 2 3 4 5 6 
#
# 1 0.016445 -0.002859 -0.001599 -0.000164 -0.009359 0.006201
# 2 -0.002859 0.012093 -0.001864 -0.000276 0.001433 -0.000178
# 3 -0.001599 -0.001864 0.007332 0.002480 -0.002732 -0.000381
# 4 -0.000164 -0.000276 0.002480 0.020141 0.004701 -0.001034
# 5 -0.009359 0.001433 -0.002732 0.004701 0.044265 0.002291
# 6 0.006201 -0.000178 -0.000381 -0.001034 0.002291 0.026815
#
#
# Mechanical properties :
#
#
# Convention : Reuss Voigt Hill
#
# Bulk Modulus (GPa) = 43.05865 59.07772 51.06819
# Shear Modulus (GPa) = 33.90367 42.88337 38.39352
#
# Velocity S-wave (km/s) = 3.60226 4.05132 3.83337
# Velocity P-wave (km/s) = 5.81222 6.67050 6.25610
#
# Compressibility (1/GPa) = 0.02322413
#
# Stress axis : x y z
#
# Youngs Moduli (GPa) = 60.80863 82.69587 136.39087
#
# Poissons Ratio (x) = 0.23642 0.21814
# Poissons Ratio (y) = 0.17385 0.25428
# Poissons Ratio (z) = 0.09725 0.15417
#
# Static dielectric constant tensor:
#      x y z
#    x 2.128120 0.033680 0.003180 
#    y 0.033680 2.026850 -0.019430 
#    z 0.003180 -0.019430 2.100110 
# 
# From -- ./inp_files/141367.got.cif
#   From: 2010.05.17/outbox.cif.g08.bks.cpg/sg2_71_cif.got.tgz:141367.got - 2010.06.03 11:33:40.
