data_PCOD9033267
_publ_section_title
;
Structure prediction by ZEFSAII (Michael W. Deem and Ramdas Pophale) SiO2 
 PCOD9033267
Probable space group: P -1
;
_chemical_formula_sum "Si O2"
_cell_formula_units_Z 14
_cell_length_a 10.854266
_cell_length_b 13.124913
_cell_length_c 5.218863
_cell_angle_alpha 96.402815
_cell_angle_beta 84.694642
_cell_angle_gamma 132.265331
_cell_volume 546.621941
_symmetry_space_group_name_H-M "P -1"
_symmetry_group_IT_number 2
_symmetry_cell_setting 'triclinic'
loop_
_space_group_symop_operation_xyz
x,y,z
-x,-y,-z
loop_
_atom_site_type_symbol
_atom_site_label
_atom_site_fract_x
_atom_site_fract_y
_atom_site_fract_z
Si Si1 0.914867 0.730572 0.553483
Si Si2 0.543120 0.789800 0.349131
Si Si3 0.764421 0.025485 0.758320
Si Si4 0.892159 0.350486 0.360440
Si Si5 0.695556 0.212200 0.877825
Si Si6 0.720032 0.785541 0.946701
Si Si7 0.403166 0.544697 0.638419
O O1 0.828965 0.762535 0.774064
O O2 0.783631 0.601231 0.351041
O O3 0.063631 0.859767 0.393758
O O4 0.992088 0.684356 0.701684
O O5 0.470859 0.814537 0.133830
O O6 0.407260 0.642230 0.467890
O O7 0.619638 0.915315 0.557224
O O8 0.692504 0.791852 0.254455
O O9 0.705338 0.098386 0.922298
O O10 0.784373 0.932827 0.889171
O O11 0.764639 0.251221 0.584977
O O12 0.000000 0.500000 0.500000
O O13 0.806653 0.329329 0.102871
O O14 0.526955 0.650332 0.869143
O O15 0.500000 0.500000 0.500000
#
# Coordination Sequence:
#
# PCOD9033267 Si02
#       7
#     2   2   2   2   2   2   2
#     4  10  22  44  67 101 140 180 241 294 357 423
#     4  11  24  42  70 103 138 190 236 292 354 427
#     4  10  24  44  66 105 139 190 232 294 356 417
#     4  11  25  46  70 106 140 193 235 300 362 418
#     4  11  26  44  72 102 145 186 247 291 353 430
#     4  10  23  42  70  99 140 184 236 290 359 424
#     4   9  21  43  64  97 134 181 230 289 350 422
#
# _framework density 25.611854999999998
#
# number of rings (size 3 to 8) (size 9 to 14) (size 15 to 20)
#    0.000    1.714    0.000    2.143   10.000    3.429 
#   18.000    0.000    0.000    0.000    0.000    0.000 
#    0.000    0.000    0.000    0.000    0.000    0.000 
#
# Total GULP energy -78287.648810 kJ/mol
# GULP energy per Si atom -5591.974915 kJ/mol
# Density = 2.555356 g / cm^3
# Si number density = 25.611855 Si / 1000 Ang^3
#
#
#
# Elastic Constant Matrix: (Units=GPa)
#
#
# Indices 1 2 3 4 5 6 
#
# 1 106.1870 35.6932 30.8591 -0.8225 -23.4474 -11.1480
# 2 35.6932 146.5054 12.4860 13.2000 -6.6571 -7.2984
# 3 30.8591 12.4860 70.1317 18.4454 -17.9963 -0.7898
# 4 -0.8225 13.2000 18.4454 22.4692 -1.7102 -10.4322
# 5 -23.4474 -6.6571 -17.9963 -1.7102 46.8767 9.9734
# 6 -11.1480 -7.2984 -0.7898 -10.4322 9.9734 28.9498
#
#
#
# Elastic Compliance Matrix: (Units=1/GPa)
#
#
# Indices 1 2 3 4 5 6 
#
# 1 0.014743 -0.003579 -0.009015 0.014384 0.002011 0.009020
# 2 -0.003579 0.008112 0.002243 -0.007726 0.000408 -0.002197
# 3 -0.009015 0.002243 0.028427 -0.032111 0.009136 -0.016850
# 4 0.014384 -0.007726 -0.032111 0.093852 -0.011416 0.040468
# 5 0.002011 0.000408 0.009136 -0.011416 0.028189 -0.012699
# 6 0.009020 -0.002197 -0.016850 0.040468 -0.012699 0.055960
#
#
# Mechanical properties :
#
#
# Convention : Reuss Voigt Hill
#
# Bulk Modulus (GPa) = 32.70302 53.43341 43.06822
# Shear Modulus (GPa) = 19.21766 35.91153 27.56460
#
# Velocity S-wave (km/s) = 2.74221 3.74858 3.28417
# Velocity P-wave (km/s) = 4.77731 6.29634 5.58868
#
# Compressibility (1/GPa) = 0.03057821
#
# Stress axis : x y z
#
# Youngs Moduli (GPa) = 67.83090 123.27899 35.17813
#
# Poissons Ratio (x) = 0.44117 0.31715
# Poissons Ratio (y) = 0.24274 -0.07889
# Poissons Ratio (z) = 0.61152 -0.27648
#
# Static dielectric constant tensor:
#      x y z
#    x 2.094160 0.026000 0.022320 
#    y 0.026000 2.001280 -0.032530 
#    z 0.022320 -0.032530 2.077020 
# 
# From -- ./inp_files/78306.got.cif
#   From: 2010.05.17/outbox.cif.g08.bks.cpg/sg2_40_cif.got.tgz:78306.got - 2010.06.03 11:33:40.
