data_PCOD9033902
_publ_section_title
;
Structure prediction by ZEFSAII (Michael W. Deem and Ramdas Pophale) SiO2 
 PCOD9033902
Probable space group: P -1
;
_chemical_formula_sum "Si O2"
_cell_formula_units_Z 12
_cell_length_a 9.325209
_cell_length_b 8.917697
_cell_length_c 14.560992
_cell_angle_alpha 42.110808
_cell_angle_beta 142.901031
_cell_angle_gamma 136.761182
_cell_volume 460.913162
_symmetry_space_group_name_H-M "P -1"
_symmetry_group_IT_number 2
_symmetry_cell_setting 'triclinic'
loop_
_space_group_symop_operation_xyz
x,y,z
-x,-y,-z
loop_
_atom_site_type_symbol
_atom_site_label
_atom_site_fract_x
_atom_site_fract_y
_atom_site_fract_z
Si Si1 0.216917 0.954027 0.019880
Si Si2 0.155518 0.042338 0.751895
Si Si3 0.931964 0.454055 0.162148
Si Si4 0.346397 0.195989 0.153856
Si Si5 0.693536 0.525502 0.504017
Si Si6 0.244249 0.738791 0.509695
O O1 0.295801 0.063628 0.911281
O O2 0.938287 0.975699 0.885512
O O3 0.144002 0.669544 0.118076
O O4 0.395074 0.077151 0.139077
O O5 0.118604 0.788595 0.805726
O O6 0.285170 0.250445 0.651572
O O7 0.882872 0.063110 0.626885
O O8 0.041235 0.434886 0.326955
O O9 0.705631 0.559207 0.003353
O O10 0.551515 0.240838 0.316834
O O11 0.500000 0.500000 0.500000
O O12 0.643071 0.299118 0.514086
O O13 0.000000 0.500000 0.500000
#
# Coordination Sequence:
#
# PCOD9033902 Si02
#       6
#     2   2   2   2   2   2
#     4   9  21  42  75 108 147 190 249 300 378 439
#     4  11  23  45  75 112 146 189 253 310 368 444
#     4  10  22  44  70 108 151 191 244 307 373 444
#     4   9  21  44  76 105 152 196 241 305 380 445
#     4  11  26  46  69 106 154 200 247 302 369 449
#     4  10  24  46  72 109 144 197 252 305 368 445
#
# _framework density 26.035274000000001
#
# number of rings (size 3 to 8) (size 9 to 14) (size 15 to 20)
#    1.000    1.000    0.000    2.000    2.333    2.000 
#    0.000   20.833    0.000    0.000    0.000    1.167 
#    0.000    0.000    0.000    0.000    0.000    0.000 
#
# Total GULP energy -67213.349100 kJ/mol
# GULP energy per Si atom -5601.112425 kJ/mol
# Density = 2.597602 g / cm^3
# Si number density = 26.035274 Si / 1000 Ang^3
#
#
#
# Elastic Constant Matrix: (Units=GPa)
#
#
# Indices 1 2 3 4 5 6 
#
# 1 148.9397 67.4250 71.3579 6.1178 -11.6917 -31.2813
# 2 67.4250 185.2132 90.7060 14.4360 7.1219 -34.6877
# 3 71.3579 90.7060 135.2716 21.8036 -22.4683 -26.2786
# 4 6.1178 14.4360 21.8036 72.4337 -2.0593 -1.8017
# 5 -11.6917 7.1219 -22.4683 -2.0593 52.6906 -3.0148
# 6 -31.2813 -34.6877 -26.2786 -1.8017 -3.0148 42.0127
#
#
#
# Elastic Compliance Matrix: (Units=1/GPa)
#
#
# Indices 1 2 3 4 5 6 
#
# 1 0.009892 -0.001165 -0.003507 0.000592 0.001127 0.004317
# 2 -0.001165 0.009305 -0.005651 -0.000087 -0.003757 0.003008
# 3 -0.003507 -0.005651 0.015040 -0.002861 0.006429 0.002469
# 4 0.000592 -0.000087 -0.002861 0.014598 -0.000554 -0.000835
# 5 0.001127 -0.003757 0.006429 -0.000554 0.022648 0.003360
# 6 0.004317 0.003008 0.002469 -0.000835 0.003360 0.031249
#
#
# Mechanical properties :
#
#
# Convention : Reuss Voigt Hill
#
# Bulk Modulus (GPa) = 73.56890 103.15580 88.36235
# Shear Modulus (GPa) = 39.09011 49.42312 44.25662
#
# Velocity S-wave (km/s) = 3.87903 4.36169 4.12742
# Velocity P-wave (km/s) = 6.95566 8.06681 7.53175
#
# Compressibility (1/GPa) = 0.01359270
#
# Stress axis : x y z
#
# Youngs Moduli (GPa) = 101.08787 107.46678 66.48821
#
# Poissons Ratio (x) = 0.12517 0.23317
# Poissons Ratio (y) = 0.11774 0.37572
# Poissons Ratio (z) = 0.35451 0.60728
#
# Static dielectric constant tensor:
#      x y z
#    x 2.197950 0.040300 -0.001870 
#    y 0.040300 1.971930 -0.030460 
#    z -0.001870 -0.030460 2.052180 
# 
# From -- ./inp_files/511590.got.cif
#   From: 2010.05.17/outbox.cif.g08.bks.cpg/sg2_256_cif.got.tgz:511590.got - 2010.06.03 11:33:40.
