data_PCOD9033191
_publ_section_title
;
Structure prediction by ZEFSAII (Michael W. Deem and Ramdas Pophale) SiO2 
 PCOD9033191
Probable space group: P -1
;
_chemical_formula_sum "Si O2"
_cell_formula_units_Z 16
_cell_length_a 29.508808
_cell_length_b 10.046929
_cell_length_c 9.179145
_cell_angle_alpha 43.198261
_cell_angle_beta 136.368247
_cell_angle_gamma 153.098283
_cell_volume 818.662310
_symmetry_space_group_name_H-M "P -1"
_symmetry_group_IT_number 2
_symmetry_cell_setting 'triclinic'
loop_
_space_group_symop_operation_xyz
x,y,z
-x,-y,-z
loop_
_atom_site_type_symbol
_atom_site_label
_atom_site_fract_x
_atom_site_fract_y
_atom_site_fract_z
Si Si1 0.526280 0.100769 0.150605
Si Si2 0.220697 0.803806 0.016414
Si Si3 0.044523 0.109259 0.182760
Si Si4 0.562277 0.496179 0.543860
Si Si5 0.973326 0.367258 0.385074
Si Si6 0.411593 0.209303 0.922319
Si Si7 0.289711 0.249379 0.052327
Si Si8 0.927581 0.201237 0.970944
O O1 0.508003 0.851092 0.380654
O O2 0.450476 0.086352 0.057147
O O3 0.639692 0.454168 0.123167
O O4 0.500000 0.000000 0.000000
O O5 0.130694 0.756720 0.807117
O O6 0.305509 0.972682 0.953699
O O7 0.158615 0.461946 0.163656
O O8 0.274850 0.012128 0.121360
O O9 0.041172 0.895502 0.425600
O O10 0.976879 0.110463 0.112838
O O11 0.000000 0.000000 0.000000
O O12 0.500000 0.500000 0.500000
O O13 0.596077 0.679927 0.329910
O O14 0.654725 0.643832 0.747496
O O15 0.000000 0.500000 0.500000
O O16 0.069628 0.659798 0.278300
O O17 0.500000 0.500000 0.000000
O O18 0.177791 0.072224 0.972459
O O19 0.000000 0.500000 0.000000
#
# Coordination Sequence:
#
# PCOD9033191 Si02
#       8
#     2   2   2   2   2   2   2   2
#     4  10  22  44  66  95 134 167 223 267 321 390
#     4  11  24  44  66  95 138 171 217 276 324 385
#     4  11  23  43  69  94 135 173 216 272 328 388
#     4  11  23  44  68  93 134 175 216 270 328 386
#     4  11  23  45  65  95 136 170 216 271 327 388
#     4  12  24  44  69  99 135 171 219 272 328 388
#     4  11  22  46  65  96 136 171 217 275 322 388
#     4  11  23  44  66  96 135 169 220 275 320 388
#
# _framework density 19.544079
#
# number of rings (size 3 to 8) (size 9 to 14) (size 15 to 20)
#    0.000    1.000    8.750    0.000    1.750    4.000 
#    6.750    0.000    0.000    0.000    0.000    0.000 
#    0.000    0.000    0.000    0.000    0.000    0.000 
#
# Total GULP energy -89278.381550 kJ/mol
# GULP energy per Si atom -5579.898847 kJ/mol
# Density = 1.949960 g / cm^3
# Si number density = 19.544079 Si / 1000 Ang^3
#
#
#
# Elastic Constant Matrix: (Units=GPa)
#
#
# Indices 1 2 3 4 5 6 
#
# 1 142.9671 44.7588 26.3294 -20.4585 4.1954 10.7569
# 2 44.7588 107.7203 22.9140 -23.8019 9.0349 4.8262
# 3 26.3294 22.9140 69.9225 -29.5043 8.4872 -0.5348
# 4 -20.4585 -23.8019 -29.5043 41.0627 -9.3383 -4.5800
# 5 4.1954 9.0349 8.4872 -9.3383 34.6396 -2.1363
# 6 10.7569 4.8262 -0.5348 -4.5800 -2.1363 46.8823
#
#
#
# Elastic Compliance Matrix: (Units=1/GPa)
#
#
# Indices 1 2 3 4 5 6 
#
# 1 0.008495 -0.002842 -0.001824 0.001190 0.000385 -0.001544
# 2 -0.002842 0.011740 -0.000688 0.004573 -0.001328 -0.000178
# 3 -0.001824 -0.000688 0.021236 0.013974 -0.000909 0.002055
# 4 0.001190 0.004573 0.013974 0.039416 0.006084 0.003543
# 5 0.000385 -0.001328 -0.000909 0.006084 0.031158 0.002052
# 6 -0.001544 -0.000178 0.002055 0.003543 0.002052 0.022166
#
#
# Mechanical properties :
#
#
# Convention : Reuss Voigt Hill
#
# Bulk Modulus (GPa) = 32.50500 56.51268 44.50884
# Shear Modulus (GPa) = 32.22201 39.62410 35.92305
#
# Velocity S-wave (km/s) = 4.06480 4.50758 4.29190
# Velocity P-wave (km/s) = 6.22076 7.48794 6.88357
#
# Compressibility (1/GPa) = 0.03076449
#
# Stress axis : x y z
#
# Youngs Moduli (GPa) = 117.70999 85.17626 47.08964
#
# Poissons Ratio (x) = 0.24208 0.08589
# Poissons Ratio (y) = 0.33455 0.03238
# Poissons Ratio (z) = 0.21470 0.05857
#
# Static dielectric constant tensor:
#      x y z
#    x 1.700290 0.015790 -0.019840 
#    y 0.015790 1.737240 0.008850 
#    z -0.019840 0.008850 1.740870 
# 
# From -- ./inp_files/215202.got.cif
#   From: 2010.05.17/outbox.cif.g08.bks.cpg/sg2_108_cif.got.tgz:215202.got - 2010.06.03 11:33:40.
