data_PCOD9033045
_publ_section_title
;
Structure prediction by ZEFSAII (Michael W. Deem and Ramdas Pophale) SiO2 
 PCOD9033045
Probable space group: P -1
;
_chemical_formula_sum "Si O2"
_cell_formula_units_Z 14
_cell_length_a 13.175373
_cell_length_b 7.476311
_cell_length_c 25.265783
_cell_angle_alpha 126.369440
_cell_angle_beta 158.609643
_cell_angle_gamma 42.878459
_cell_volume 576.238954
_symmetry_space_group_name_H-M "P -1"
_symmetry_group_IT_number 2
_symmetry_cell_setting 'triclinic'
loop_
_space_group_symop_operation_xyz
x,y,z
-x,-y,-z
loop_
_atom_site_type_symbol
_atom_site_label
_atom_site_fract_x
_atom_site_fract_y
_atom_site_fract_z
Si Si1 0.087802 0.294835 0.458392
Si Si2 0.150801 0.573598 0.371919
Si Si3 0.679794 0.764854 0.267187
Si Si4 0.754289 0.218868 0.037671
Si Si5 0.407033 0.187021 0.303637
Si Si6 0.114095 0.165613 0.816331
Si Si7 0.204379 0.011595 0.307103
O O1 0.402960 0.223794 0.561490
O O2 0.000000 0.500000 0.500000
O O3 0.757600 0.508224 0.296494
O O4 0.276559 0.000508 0.531604
O O5 0.500000 0.500000 0.500000
O O6 0.166969 0.296272 0.335371
O O7 0.014810 0.700329 0.386351
O O8 0.860117 0.785159 0.224227
O O9 0.535461 0.023132 0.281920
O O10 0.428615 0.811376 0.105245
O O11 0.080693 0.195365 0.167091
O O12 0.500000 0.500000 0.000000
O O13 0.961412 0.991428 0.144747
O O14 0.197850 0.521826 0.257747
O O15 0.938651 0.009050 0.710702
O O16 0.500000 0.000000 0.000000
#
# Coordination Sequence:
#
# PCOD9033045 Si02
#       7
#     2   2   2   2   2   2   2
#     4   9  20  41  67  99 137 183 227 288 354 408
#     4  12  26  47  69 105 138 183 247 294 345 427
#     4  11  22  40  74 104 139 186 232 294 356 413
#     4  11  19  41  71 100 138 182 231 291 347 419
#     4  10  22  44  65 107 145 178 234 293 351 428
#     4  12  25  45  73 100 139 191 231 287 359 418
#     4  11  23  45  70  96 144 180 233 292 352 411
#
# _framework density 24.295473999999999
#
# number of rings (size 3 to 8) (size 9 to 14) (size 15 to 20)
#    0.000    1.143    4.286    3.000    0.000    2.286 
#    2.571    5.000    0.000    0.000    0.000    0.000 
#    0.000    0.000    0.000    0.000    0.000    0.000 
#
# Total GULP energy -78013.105454 kJ/mol
# GULP energy per Si atom -5572.364675 kJ/mol
# Density = 2.424018 g / cm^3
# Si number density = 24.295474 Si / 1000 Ang^3
#
#
#
# Elastic Constant Matrix: (Units=GPa)
#
#
# Indices 1 2 3 4 5 6 
#
# 1 167.4422 71.0548 32.3055 0.8264 -2.6744 -6.1709
# 2 71.0548 122.0072 26.0084 -15.1319 -9.5268 -21.4234
# 3 32.3055 26.0084 123.3327 -3.9734 -32.8133 4.2101
# 4 0.8264 -15.1319 -3.9734 28.4634 -0.4759 -0.5395
# 5 -2.6744 -9.5268 -32.8133 -0.4759 54.7415 1.5948
# 6 -6.1709 -21.4234 4.2101 -0.5395 1.5948 62.2229
#
#
#
# Elastic Compliance Matrix: (Units=1/GPa)
#
#
# Indices 1 2 3 4 5 6 
#
# 1 0.008476 -0.005276 -0.001570 -0.003311 -0.001449 -0.000861
# 2 -0.005276 0.013184 -0.000930 0.007134 0.001422 0.004104
# 3 -0.001570 -0.000930 0.010404 0.001079 0.006046 -0.001326
# 4 -0.003311 0.007134 0.001079 0.039250 0.002000 0.002344
# 5 -0.001449 0.001422 0.006046 0.002000 0.022104 -0.000613
# 6 -0.000861 0.004104 -0.001326 0.002344 -0.000613 0.017525
#
#
# Mechanical properties :
#
#
# Convention : Reuss Voigt Hill
#
# Bulk Modulus (GPa) = 60.56908 74.61330 67.59119
# Shear Modulus (GPa) = 37.87908 47.97977 42.92943
#
# Velocity S-wave (km/s) = 3.95283 4.44874 4.20810
# Velocity P-wave (km/s) = 6.76886 7.56081 7.17577
#
# Compressibility (1/GPa) = 0.01651007
#
# Stress axis : x y z
#
# Youngs Moduli (GPa) = 117.98468 75.85032 96.11520
#
# Poissons Ratio (x) = 0.40022 0.15092
# Poissons Ratio (y) = 0.62254 0.08941
# Poissons Ratio (z) = 0.18526 0.07056
#
# Static dielectric constant tensor:
#      x y z
#    x 1.991580 0.070980 -0.062910 
#    y 0.070980 2.007760 0.009010 
#    z -0.062910 0.009010 2.124520 
# 
# From -- ./inp_files/154655.got.cif
#   From: 2010.05.17/outbox.cif.g08.bks.cpg/sg2_78_cif.got.tgz:154655.got - 2010.06.03 11:33:40.
