data_PCOD9033197
_publ_section_title
;
Structure prediction by ZEFSAII (Michael W. Deem and Ramdas Pophale) SiO2 
 PCOD9033197
Probable space group: P -1
;
_chemical_formula_sum "Si O2"
_cell_formula_units_Z 16
_cell_length_a 7.247707
_cell_length_b 21.738329
_cell_length_c 6.878052
_cell_angle_alpha 120.523835
_cell_angle_beta 132.430559
_cell_angle_gamma 50.112656
_cell_volume 608.286848
_symmetry_space_group_name_H-M "P -1"
_symmetry_group_IT_number 2
_symmetry_cell_setting 'triclinic'
loop_
_space_group_symop_operation_xyz
x,y,z
-x,-y,-z
loop_
_atom_site_type_symbol
_atom_site_label
_atom_site_fract_x
_atom_site_fract_y
_atom_site_fract_z
Si Si1 0.031548 0.182018 0.101847
Si Si2 0.927258 0.029514 0.715467
Si Si3 0.449443 0.411018 0.509162
Si Si4 0.655805 0.858279 0.367281
Si Si5 0.917040 0.423429 0.602987
Si Si6 0.296775 0.304007 0.990044
Si Si7 0.511627 0.921997 0.986208
Si Si8 0.790062 0.347106 0.005855
O O1 0.087207 0.184412 0.371728
O O2 0.817424 0.265059 0.985796
O O3 0.345300 0.152304 0.179712
O O4 0.964924 0.109208 0.896960
O O5 0.600959 0.063693 0.591642
O O6 0.000000 0.000000 0.500000
O O7 0.190490 0.953859 0.886339
O O8 0.680841 0.430180 0.602549
O O9 0.148739 0.485474 0.350172
O O10 0.508533 0.399506 0.762730
O O11 0.481198 0.330534 0.299607
O O12 0.576619 0.788557 0.133441
O O13 0.718580 0.891641 0.268292
O O14 0.858944 0.389757 0.304635
O O15 0.194874 0.361809 0.819303
O O16 0.032767 0.320806 0.971206
O O17 0.500000 0.000000 0.000000
#
# Coordination Sequence:
#
# PCOD9033197 Si02
#       8
#     2   2   2   2   2   2   2   2
#     4  11  24  44  67  93 134 173 213 277 335 392
#     4  11  25  43  67  97 126 169 222 272 331 400
#     4  10  24  41  66 101 134 175 224 275 324 394
#     4  12  24  43  68  94 132 173 220 276 335 393
#     4  10  22  44  66  95 140 177 219 272 335 390
#     4  11  24  40  67 101 132 175 228 270 330 396
#     4  10  23  46  65  94 128 167 214 272 334 395
#     4  11  23  41  66  97 135 177 221 270 331 394
#
# _framework density 26.303379
#
# number of rings (size 3 to 8) (size 9 to 14) (size 15 to 20)
#    0.000    1.250    3.750    1.125    1.750    5.500 
#    4.500    0.000    0.000    0.000    0.000    0.000 
#    0.000    0.000    0.000    0.000    0.000    0.000 
#
# Total GULP energy -89525.392634 kJ/mol
# GULP energy per Si atom -5595.337040 kJ/mol
# Density = 2.624351 g / cm^3
# Si number density = 26.303379 Si / 1000 Ang^3
#
#
#
# Elastic Constant Matrix: (Units=GPa)
#
#
# Indices 1 2 3 4 5 6 
#
# 1 57.5966 33.0880 8.6670 -23.3972 -17.3671 -3.4259
# 2 33.0880 134.8500 50.8389 -12.4528 -19.4422 2.7526
# 3 8.6670 50.8389 149.1089 -20.3391 -36.5444 20.8792
# 4 -23.3972 -12.4528 -20.3391 53.1422 10.0306 -2.2825
# 5 -17.3671 -19.4422 -36.5444 10.0306 37.4833 -1.0018
# 6 -3.4259 2.7526 20.8792 -2.2825 -1.0018 40.8781
#
#
#
# Elastic Compliance Matrix: (Units=1/GPa)
#
#
# Indices 1 2 3 4 5 6 
#
# 1 0.027877 -0.005929 0.004438 0.010489 0.011397 0.001334
# 2 -0.005929 0.009947 -0.003452 -0.001476 -0.000545 0.000501
# 3 0.004438 -0.003452 0.011238 0.003318 0.010209 -0.004700
# 4 0.010489 -0.001476 0.003318 0.024225 0.000864 0.000658
# 5 0.011397 -0.000545 0.010209 0.000864 0.041315 -0.003162
# 6 0.001334 0.000501 -0.004700 0.000658 -0.003162 0.026901
#
#
# Mechanical properties :
#
#
# Convention : Reuss Voigt Hill
#
# Bulk Modulus (GPa) = 25.52486 58.52706 42.02596
# Shear Modulus (GPa) = 30.40522 42.89817 36.65170
#
# Velocity S-wave (km/s) = 3.40361 4.04282 3.73691
# Velocity P-wave (km/s) = 5.01708 6.64015 5.88484
#
# Compressibility (1/GPa) = 0.03917749
#
# Stress axis : x y z
#
# Youngs Moduli (GPa) = 35.87192 100.53667 88.98199
#
# Poissons Ratio (x) = 0.59607 -0.39493
# Poissons Ratio (y) = 0.21268 0.30713
# Poissons Ratio (z) = -0.15921 0.34701
#
# Static dielectric constant tensor:
#      x y z
#    x 2.221580 -0.073130 0.087900 
#    y -0.073130 2.038680 -0.080330 
#    z 0.087900 -0.080330 2.150830 
# 
# From -- ./inp_files/55669.got.cif
#   From: 2010.05.17/outbox.cif.g08.bks.cpg/sg2_28_cif.got.tgz:55669.got - 2010.06.03 11:33:40.
