data_PCOD9033658
_publ_section_title
;
Structure prediction by ZEFSAII (Michael W. Deem and Ramdas Pophale) SiO2 
 PCOD9033658
Probable space group: P -1
;
_chemical_formula_sum "Si O2"
_cell_formula_units_Z 14
_cell_length_a 5.203508
_cell_length_b 5.170855
_cell_length_c 24.042749
_cell_angle_alpha 125.356086
_cell_angle_beta 93.130837
_cell_angle_gamma 84.096452
_cell_volume 524.792253
_symmetry_space_group_name_H-M "P -1"
_symmetry_group_IT_number 2
_symmetry_cell_setting 'triclinic'
loop_
_space_group_symop_operation_xyz
x,y,z
-x,-y,-z
loop_
_atom_site_type_symbol
_atom_site_label
_atom_site_fract_x
_atom_site_fract_y
_atom_site_fract_z
Si Si1 0.981487 0.161919 0.098406
Si Si2 0.578231 0.107335 0.301904
Si Si3 0.669185 0.323548 0.830789
Si Si4 0.552167 0.814819 0.572221
Si Si5 0.904865 0.257513 0.231352
Si Si6 0.037052 0.135804 0.636101
Si Si7 0.303983 0.413972 0.939668
O O1 0.872339 0.333947 0.175532
O O2 0.838860 0.286195 0.056444
O O3 0.258653 0.310990 0.118421
O O4 0.904716 0.808324 0.065307
O O5 0.426910 0.267307 0.371732
O O6 0.642951 0.265089 0.264518
O O7 0.447165 0.794107 0.242496
O O8 0.856789 0.026666 0.324927
O O9 0.483107 0.260732 0.872542
O O10 0.929550 0.084122 0.809433
O O11 0.500000 0.500000 0.500000
O O12 0.303678 0.075380 0.596751
O O13 0.815615 0.967106 0.581922
O O14 0.051210 0.512742 0.299827
O O15 0.500000 0.500000 0.000000
#
# Coordination Sequence:
#
# PCOD9033658 Si02
#       7
#     2   2   2   2   2   2   2
#     4  12  26  49  71 112 148 195 263 317 396 467
#     4  10  23  42  70 103 147 193 254 324 389 461
#     4  12  25  45  77 104 152 198 250 336 394 470
#     4  10  22  44  69 102 152 207 260 322 396 472
#     4  12  23  43  70 112 142 189 266 319 397 452
#     4  10  24  41  70 102 144 198 257 324 388 465
#     4  12  29  51  75 110 155 205 259 322 395 479
#
# _framework density 26.677219999999998
#
# number of rings (size 3 to 8) (size 9 to 14) (size 15 to 20)
#    0.857    0.000    2.857    4.286    4.000    1.143 
#    0.000    1.429    0.000    0.000    0.000    0.000 
#    0.000    0.000    0.000    0.000    0.000    0.000 
#
# Total GULP energy -78269.869231 kJ/mol
# GULP energy per Si atom -5590.704945 kJ/mol
# Density = 2.661650 g / cm^3
# Si number density = 26.677220 Si / 1000 Ang^3
#
#
#
# Elastic Constant Matrix: (Units=GPa)
#
#
# Indices 1 2 3 4 5 6 
#
# 1 126.2099 26.3492 32.5983 8.2116 24.6797 7.3347
# 2 26.3492 114.5377 18.7101 7.3291 9.3235 7.0644
# 3 32.5983 18.7101 153.6261 19.2686 33.0766 -7.9532
# 4 8.2116 7.3291 19.2686 34.9722 5.9177 3.3311
# 5 24.6797 9.3235 33.0766 5.9177 55.4205 6.2869
# 6 7.3347 7.0644 -7.9532 3.3311 6.2869 28.6435
#
#
#
# Elastic Compliance Matrix: (Units=1/GPa)
#
#
# Indices 1 2 3 4 5 6 
#
# 1 0.009250 -0.001567 -0.001154 -0.000561 -0.002926 -0.001595
# 2 -0.001567 0.009411 -0.000776 -0.000971 -0.000092 -0.002002
# 3 -0.001154 -0.000776 0.008536 -0.003914 -0.004520 0.004304
# 4 -0.000561 -0.000971 -0.003914 0.031520 -0.000124 -0.004343
# 5 -0.002926 -0.000092 -0.004520 -0.000124 0.022691 -0.005449
# 6 -0.001595 -0.002002 0.004304 -0.004343 -0.005449 0.038710
#
#
# Mechanical properties :
#
#
# Convention : Reuss Voigt Hill
#
# Bulk Modulus (GPa) = 49.49875 61.07655 55.28765
# Shear Modulus (GPa) = 37.35600 44.92165 41.13882
#
# Velocity S-wave (km/s) = 3.74611 4.10798 3.93121
# Velocity P-wave (km/s) = 6.10787 6.74129 6.43238
#
# Compressibility (1/GPa) = 0.02020253
#
# Stress axis : x y z
#
# Youngs Moduli (GPa) = 108.10954 106.25839 117.15425
#
# Poissons Ratio (x) = 0.16650 0.13523
# Poissons Ratio (y) = 0.16940 0.09090
# Poissons Ratio (z) = 0.12479 0.08244
#
# Static dielectric constant tensor:
#      x y z
#    x 2.136550 -0.018070 0.011740 
#    y -0.018070 2.188170 0.040860 
#    z 0.011740 0.040860 2.069710 
# 
# From -- ./inp_files/614787.got.cif
#   From: 2010.05.17/outbox.cif.g08.bks.cpg/sg2_308_cif.got.tgz:614787.got - 2010.06.03 11:33:40.
