data_PCOD9033581
_publ_section_title
;
Structure prediction by ZEFSAII (Michael W. Deem and Ramdas Pophale) SiO2 
 PCOD9033581
Probable space group: P -1
;
_chemical_formula_sum "Si O2"
_cell_formula_units_Z 14
_cell_length_a 9.232152
_cell_length_b 12.342481
_cell_length_c 9.486096
_cell_angle_alpha 92.282952
_cell_angle_beta 116.470996
_cell_angle_gamma 137.063098
_cell_volume 527.051234
_symmetry_space_group_name_H-M "P -1"
_symmetry_group_IT_number 2
_symmetry_cell_setting 'triclinic'
loop_
_space_group_symop_operation_xyz
x,y,z
-x,-y,-z
loop_
_atom_site_type_symbol
_atom_site_label
_atom_site_fract_x
_atom_site_fract_y
_atom_site_fract_z
Si Si1 0.566524 0.922476 0.908442
Si Si2 0.571167 0.363904 0.303446
Si Si3 0.738248 0.229276 0.853799
Si Si4 0.884724 0.810668 0.274171
Si Si5 0.156145 0.970985 0.693422
Si Si6 0.256286 0.395179 0.060632
Si Si7 0.966429 0.475866 0.689047
O O1 0.635812 0.847857 0.859434
O O2 0.244875 0.715825 0.827347
O O3 0.437902 0.982233 0.198984
O O4 0.795916 0.067185 0.143351
O O5 0.403679 0.382157 0.214514
O O6 0.691652 0.388831 0.504233
O O7 0.874822 0.521976 0.348754
O O8 0.495395 0.177739 0.798603
O O9 0.846153 0.338935 0.758663
O O10 0.059605 0.371054 0.057535
O O11 0.980656 0.989840 0.321542
O O12 0.527150 0.606334 0.111988
O O13 0.945684 0.774596 0.159299
O O14 0.993477 0.834130 0.477423
#
# Coordination Sequence:
#
# PCOD9033581 Si02
#       7
#     2   2   2   2   2   2   2
#     4  10  22  44  68  97 145 183 222 290 347 414
#     4   9  20  43  69  99 144 179 224 294 351 396
#     4  12  26  41  74 107 134 182 241 284 344 416
#     4  10  23  44  73  95 145 188 227 282 361 408
#     4  11  24  45  65 106 144 184 224 292 352 417
#     4  11  22  43  72 105 132 183 240 288 338 416
#     4   9  21  42  66 102 139 181 228 288 343 406
#
# _framework density 26.562881000000001
#
# number of rings (size 3 to 8) (size 9 to 14) (size 15 to 20)
#    0.857    0.857    1.429    3.000    2.000    6.286 
#    5.143    0.714    0.000    0.000    0.000    0.000 
#    0.000    0.000    0.000    0.000    0.000    0.000 
#
# Total GULP energy -78073.587824 kJ/mol
# GULP energy per Si atom -5576.684845 kJ/mol
# Density = 2.650242 g / cm^3
# Si number density = 26.562881 Si / 1000 Ang^3
#
#
#
# Elastic Constant Matrix: (Units=GPa)
#
#
# Indices 1 2 3 4 5 6 
#
# 1 59.9421 12.7221 22.9234 10.3885 -2.2009 -15.1460
# 2 12.7221 125.8165 32.9032 -32.1721 -13.1655 -4.5582
# 3 22.9234 32.9032 167.5201 -15.9889 9.4429 -15.8766
# 4 10.3885 -32.1721 -15.9889 35.7291 -4.3672 11.0293
# 5 -2.2009 -13.1655 9.4429 -4.3672 9.5077 -7.0523
# 6 -15.1460 -4.5582 -15.8766 11.0293 -7.0523 42.2521
#
#
#
# Elastic Compliance Matrix: (Units=1/GPa)
#
#
# Indices 1 2 3 4 5 6 
#
# 1 0.025034 -0.005353 -0.002981 -0.016854 0.002582 0.012107
# 2 -0.005353 0.018750 -0.003022 0.021806 0.037383 -0.000484
# 3 -0.002981 -0.003022 0.007650 0.000216 -0.012917 -0.000732
# 4 -0.016854 0.021806 0.000216 0.061942 0.045493 -0.012184
# 5 0.002582 0.037383 -0.012917 0.045493 0.208326 0.023001
# 6 0.012107 -0.000484 -0.000732 -0.012184 0.023001 0.034699
#
#
# Mechanical properties :
#
#
# Convention : Reuss Voigt Hill
#
# Bulk Modulus (GPa) = 34.81630 54.48623 44.65127
# Shear Modulus (GPa) = 12.86382 36.47978 24.67180
#
# Velocity S-wave (km/s) = 2.20302 3.70988 3.05094
# Velocity P-wave (km/s) = 4.42794 6.23760 5.40899
#
# Compressibility (1/GPa) = 0.02872218
#
# Stress axis : x y z
#
# Youngs Moduli (GPa) = 39.94618 53.33421 130.71399
#
# Poissons Ratio (x) = 0.28547 0.38967
# Poissons Ratio (y) = 0.21381 0.39503
# Poissons Ratio (z) = 0.11908 0.16118
#
# Static dielectric constant tensor:
#      x y z
#    x 2.112190 -0.001340 -0.110290 
#    y -0.001340 2.075290 0.032840 
#    z -0.110290 0.032840 2.201310 
# 
# From -- ./inp_files/202657.got.cif
#   From: 2010.05.17/outbox.cif.g08.bks.cpg/sg2_102_cif.got.tgz:202657.got - 2010.06.03 11:33:40.
