data_PCOD9033693
_publ_section_title
;
Structure prediction by ZEFSAII (Michael W. Deem and Ramdas Pophale) SiO2 
 PCOD9033693
Probable space group: P -1
;
_chemical_formula_sum "Si O2"
_cell_formula_units_Z 13
_cell_length_a 12.910083
_cell_length_b 5.835705
_cell_length_c 11.888677
_cell_angle_alpha 81.506805
_cell_angle_beta 46.053029
_cell_angle_gamma 107.850128
_cell_volume 522.090377
_symmetry_space_group_name_H-M "P -1"
_symmetry_group_IT_number 2
_symmetry_cell_setting 'triclinic'
loop_
_space_group_symop_operation_xyz
x,y,z
-x,-y,-z
loop_
_atom_site_type_symbol
_atom_site_label
_atom_site_fract_x
_atom_site_fract_y
_atom_site_fract_z
Si Si1 0.348234 0.680338 0.105761
Si Si2 0.256108 0.260412 0.389809
Si Si3 0.537467 0.648007 0.339545
Si Si4 0.215259 0.330951 0.017528
Si Si5 0.145122 0.759089 0.653205
Si Si6 0.500000 0.000000 0.500000
Si Si7 0.933540 0.226085 0.713982
O O1 0.345175 0.441058 0.197608
O O2 0.328810 0.600265 0.994482
O O3 0.169705 0.657008 0.269828
O O4 0.500000 0.000000 0.000000
O O5 0.379839 0.463771 0.383897
O O6 0.063857 0.197316 0.543409
O O7 0.219798 0.961061 0.471357
O O8 0.500000 0.500000 0.500000
O O9 0.555063 0.930331 0.339220
O O10 0.695815 0.643568 0.169313
O O11 0.015445 0.238556 0.174198
O O12 0.207224 0.075941 0.103986
O O13 0.054405 0.440259 0.706060
O O14 0.303342 0.868779 0.610002
#
# Coordination Sequence:
#
# PCOD9033693 Si02
#       7
#     2   2   2   2   2   1   2
#     4  11  25  44  76 109 145 191 238 299 364 438
#     4  11  23  43  72 106 145 188 241 297 360 434
#     4  12  26  46  73 103 144 192 247 305 359 422
#     4  10  26  48  71 111 148 185 242 307 360 430
#     4  10  23  45  75 105 148 189 246 298 361 430
#     4  12  24  46  74 106 136 204 246 290 364 430
#     4  10  22  44  69 108 146 187 238 296 366 428
#
# _framework density 24.899902000000001
#
# number of rings (size 3 to 8) (size 9 to 14) (size 15 to 20)
#    0.000    1.231    3.077    1.385    0.000   14.769 
#    0.000    1.538    0.000    0.000    0.000    0.000 
#    0.000    0.000    0.000    0.000    0.000    0.000 
#
# Total GULP energy -72500.660991 kJ/mol
# GULP energy per Si atom -5576.973922 kJ/mol
# Density = 2.484323 g / cm^3
# Si number density = 24.899902 Si / 1000 Ang^3
#
#
#
# Elastic Constant Matrix: (Units=GPa)
#
#
# Indices 1 2 3 4 5 6 
#
# 1 133.2644 33.9374 54.2816 11.3009 -17.5810 15.7742
# 2 33.9374 117.5010 41.5330 8.7704 -2.1664 28.5762
# 3 54.2816 41.5330 131.1091 19.2371 6.0888 8.2715
# 4 11.3009 8.7704 19.2371 36.4652 -4.0507 -4.0511
# 5 -17.5810 -2.1664 6.0888 -4.0507 40.7211 5.4722
# 6 15.7742 28.5762 8.2715 -4.0511 5.4722 36.0143
#
#
#
# Elastic Compliance Matrix: (Units=1/GPa)
#
#
# Indices 1 2 3 4 5 6 
#
# 1 0.010628 -0.000372 -0.004143 -0.000872 0.005689 -0.004371
# 2 -0.000372 0.012087 -0.002872 -0.002093 0.001953 -0.009300
# 3 -0.004143 -0.002872 0.010933 -0.004066 -0.004218 0.001766
# 4 -0.000872 -0.002093 -0.004066 0.031290 0.002409 0.006130
# 5 0.005689 0.001953 -0.004218 0.002409 0.028955 -0.007201
# 6 -0.004371 -0.009300 0.001766 0.006130 -0.007201 0.038439
#
#
# Mechanical properties :
#
#
# Convention : Reuss Voigt Hill
#
# Bulk Modulus (GPa) = 52.98086 71.26427 62.12257
# Shear Modulus (GPa) = 32.59496 39.44830 36.02163
#
# Velocity S-wave (km/s) = 3.62199 3.98461 3.80762
# Velocity P-wave (km/s) = 6.23021 7.06059 6.65836
#
# Compressibility (1/GPa) = 0.01887474
#
# Stress axis : x y z
#
# Youngs Moduli (GPa) = 94.09207 82.73155 91.46555
#
# Poissons Ratio (x) = 0.03081 0.37891
# Poissons Ratio (y) = 0.03504 0.26266
# Poissons Ratio (z) = 0.38979 0.23758
#
# Static dielectric constant tensor:
#      x y z
#    x 1.930690 -0.054270 0.016680 
#    y -0.054270 2.058670 -0.013820 
#    z 0.016680 -0.013820 2.007920 
# 
# From -- ./inp_files/409975.got.cif
#   From: 2010.05.17/outbox.cif.g08.bks.cpg/sg2_205_cif.got.tgz:409975.got - 2010.06.03 11:33:40.
