data_PCOD9033196
_publ_section_title
;
Structure prediction by ZEFSAII (Michael W. Deem and Ramdas Pophale) SiO2 
 PCOD9033196
Probable space group: P -1
;
_chemical_formula_sum "Si O2"
_cell_formula_units_Z 15
_cell_length_a 5.290216
_cell_length_b 18.144549
_cell_length_c 13.781938
_cell_angle_alpha 33.653710
_cell_angle_beta 84.909301
_cell_angle_gamma 68.101874
_cell_volume 613.735783
_symmetry_space_group_name_H-M "P -1"
_symmetry_group_IT_number 2
_symmetry_cell_setting 'triclinic'
loop_
_space_group_symop_operation_xyz
x,y,z
-x,-y,-z
loop_
_atom_site_type_symbol
_atom_site_label
_atom_site_fract_x
_atom_site_fract_y
_atom_site_fract_z
Si Si1 0.461164 0.619351 0.784527
Si Si2 0.743572 0.001744 0.782175
Si Si3 0.689297 0.072028 0.029277
Si Si4 0.162983 0.733775 0.304819
Si Si5 0.611735 0.630246 0.562020
Si Si6 0.889493 0.680767 0.787705
Si Si7 0.000000 0.500000 0.500000
Si Si8 0.797145 0.943456 0.617294
O O1 0.639867 0.553931 0.749675
O O2 0.561445 0.734057 0.698673
O O3 0.104358 0.700679 0.684355
O O4 0.500000 0.500000 0.000000
O O5 0.600664 0.910768 0.933015
O O6 0.776643 0.970361 0.702015
O O7 0.060133 0.952121 0.875038
O O8 0.503576 0.187235 0.609610
O O9 0.609632 0.224090 0.801307
O O10 0.864280 0.908904 0.139459
O O11 0.324629 0.653784 0.487350
O O12 0.119753 0.619342 0.366592
O O13 0.885354 0.550842 0.564675
O O14 0.928733 0.757600 0.797571
O O15 0.000000 0.500000 0.000000
O O16 0.500000 0.000000 0.500000
O O17 0.000000 0.000000 0.500000
#
# Coordination Sequence:
#
# PCOD9033196 Si02
#       8
#     2   2   2   2   2   2   1   2
#     4  10  23  44  69  99 139 182 225 278 349 415
#     4  11  23  42  70 100 134 183 234 280 349 407
#     4  10  23  44  69  94 135 180 226 284 341 412
#     4  10  24  43  67  96 137 178 229 285 344 408
#     4  11  24  42  70  98 138 183 228 286 347 409
#     4  10  22  44  66  95 137 175 219 285 341 402
#     4  12  24  44  66 104 136 178 238 282 350 410
#     4  12  24  41  69 100 135 178 236 287 337 415
#
# _framework density 24.440483
#
# number of rings (size 3 to 8) (size 9 to 14) (size 15 to 20)
#    0.000    1.333    1.333    3.600    3.733    2.667 
#    9.600    0.000    0.000    0.000    0.000    0.000 
#    0.000    0.000    0.000    0.000    0.000    0.000 
#
# Total GULP energy -83582.509574 kJ/mol
# GULP energy per Si atom -5572.167305 kJ/mol
# Density = 2.438486 g / cm^3
# Si number density = 24.440483 Si / 1000 Ang^3
#
#
#
# Elastic Constant Matrix: (Units=GPa)
#
#
# Indices 1 2 3 4 5 6 
#
# 1 156.1914 60.2249 40.9024 6.8979 -38.7354 20.4362
# 2 60.2249 207.1444 56.5027 21.3620 -28.1839 22.9199
# 3 40.9024 56.5027 100.3826 18.5841 -11.4353 21.2491
# 4 6.8979 21.3620 18.5841 41.2306 6.9567 -15.9082
# 5 -38.7354 -28.1839 -11.4353 6.9567 38.4987 -2.9790
# 6 20.4362 22.9199 21.2491 -15.9082 -2.9790 40.1311
#
#
#
# Elastic Compliance Matrix: (Units=1/GPa)
#
#
# Indices 1 2 3 4 5 6 
#
# 1 0.010317 -0.000111 -0.000518 -0.005700 0.010681 -0.006382
# 2 -0.000111 0.007160 -0.000990 -0.006347 0.005549 -0.005613
# 3 -0.000518 -0.000990 0.016101 -0.012158 0.004792 -0.012160
# 4 -0.005700 -0.006347 -0.012158 0.049410 -0.020520 0.031028
# 5 0.010681 0.005549 0.004792 -0.020520 0.044680 -0.015963
# 6 -0.006382 -0.005613 -0.012160 0.031028 -0.015963 0.048928
#
#
# Mechanical properties :
#
#
# Convention : Reuss Voigt Hill
#
# Bulk Modulus (GPa) = 32.95984 86.55315 59.75650
# Shear Modulus (GPa) = 26.32314 44.37797 35.35055
#
# Velocity S-wave (km/s) = 3.28537 4.26579 3.80727
# Velocity P-wave (km/s) = 5.28267 7.73003 6.62042
#
# Compressibility (1/GPa) = 0.03033995
#
# Stress axis : x y z
#
# Youngs Moduli (GPa) = 96.93204 139.65700 62.10772
#
# Poissons Ratio (x) = 0.01548 0.03219
# Poissons Ratio (y) = 0.01074 0.06148
# Poissons Ratio (z) = 0.05024 0.13824
#
# Static dielectric constant tensor:
#      x y z
#    x 2.233930 -0.237060 0.235460 
#    y -0.237060 2.107100 -0.206500 
#    z 0.235460 -0.206500 2.144100 
# 
# From -- ./inp_files/367391.got.cif
#   From: 2010.05.17/outbox.cif.g08.bks.cpg/sg2_184_cif.got.tgz:367391.got - 2010.06.03 11:33:40.
