data_PCOD9033884
_publ_section_title
;
Structure prediction by ZEFSAII (Michael W. Deem and Ramdas Pophale) SiO2 
 PCOD9033884
Probable space group: P -1
;
_chemical_formula_sum "Si O2"
_cell_formula_units_Z 15
_cell_length_a 10.512655
_cell_length_b 12.051617
_cell_length_c 14.154630
_cell_angle_alpha 126.866255
_cell_angle_beta 27.203516
_cell_angle_gamma 132.355149
_cell_volume 605.829924
_symmetry_space_group_name_H-M "P -1"
_symmetry_group_IT_number 2
_symmetry_cell_setting 'triclinic'
loop_
_space_group_symop_operation_xyz
x,y,z
-x,-y,-z
loop_
_atom_site_type_symbol
_atom_site_label
_atom_site_fract_x
_atom_site_fract_y
_atom_site_fract_z
Si Si1 0.507640 0.432655 0.061844
Si Si2 0.000000 0.000000 0.500000
Si Si3 0.043380 0.143528 0.807667
Si Si4 0.450466 0.105971 0.880304
Si Si5 0.846919 0.346824 0.255430
Si Si6 0.557597 0.263624 0.200588
Si Si7 0.529634 0.039005 0.389789
Si Si8 0.456564 0.539089 0.326974
O O1 0.470196 0.263334 0.987446
O O2 0.836929 0.541136 0.933903
O O3 0.500000 0.500000 0.000000
O O4 0.301484 0.464676 0.293462
O O5 0.216868 0.146843 0.367556
O O6 0.720938 0.061213 0.715781
O O7 0.231697 0.077490 0.581159
O O8 0.303959 0.290065 0.753026
O O9 0.790390 0.200642 0.965468
O O10 0.861706 0.019154 0.939744
O O11 0.458224 0.088902 0.752977
O O12 0.642885 0.289608 0.268614
O O13 0.808937 0.193996 0.258780
O O14 0.751285 0.444391 0.443435
O O15 0.592962 0.421451 0.214603
O O16 0.500000 0.000000 0.500000
#
# Coordination Sequence:
#
# PCOD9033884 Si02
#       8
#     2   1   2   2   2   2   2   2
#     4  12  29  46  67 103 149 184 234 287 348 416
#     4  10  22  44  70 106 138 176 224 294 356 402
#     4  10  23  42  71 104 128 178 237 281 348 411
#     4  11  25  46  68 102 145 180 226 300 347 407
#     4  11  24  47  70 101 137 186 234 287 346 418
#     4  11  21  45  75 101 144 177 232 294 353 418
#     4  11  25  43  74  98 132 186 237 284 347 419
#     4  11  24  44  72 104 135 191 230 281 352 424
#
# _framework density 24.759426000000001
#
# number of rings (size 3 to 8) (size 9 to 14) (size 15 to 20)
#    0.000    1.067    4.000    1.600    5.600    4.267 
#    0.000    2.667    0.000    0.000    0.000    0.000 
#    0.000    0.000    0.000    0.000    0.000    0.000 
#
# Total GULP energy -83676.104777 kJ/mol
# GULP energy per Si atom -5578.406985 kJ/mol
# Density = 2.470307 g / cm^3
# Si number density = 24.759426 Si / 1000 Ang^3
#
#
#
# Elastic Constant Matrix: (Units=GPa)
#
#
# Indices 1 2 3 4 5 6 
#
# 1 57.1599 36.9732 13.7778 3.9531 22.8793 -5.6659
# 2 36.9732 129.7963 38.0251 7.5809 17.8656 -0.1623
# 3 13.7778 38.0251 115.5437 15.3558 4.9695 14.2238
# 4 3.9531 7.5809 15.3558 32.1332 -0.1270 16.6555
# 5 22.8793 17.8656 4.9695 -0.1270 32.3642 2.6470
# 6 -5.6659 -0.1623 14.2238 16.6555 2.6470 33.5638
#
#
#
# Elastic Compliance Matrix: (Units=1/GPa)
#
#
# Indices 1 2 3 4 5 6 
#
# 1 0.030626 -0.005143 -0.001466 -0.007698 -0.019526 0.011126
# 2 -0.005143 0.010244 -0.002668 -0.001005 -0.001690 0.000944
# 3 -0.001466 -0.002668 0.010406 -0.002273 0.001200 -0.003637
# 4 -0.007698 -0.001005 -0.002273 0.045702 0.008462 -0.023687
# 5 -0.019526 -0.001690 0.001200 0.008462 0.046439 -0.011675
# 6 0.011126 0.000944 -0.003637 -0.023687 -0.011675 0.045893
#
#
# Mechanical properties :
#
#
# Convention : Reuss Voigt Hill
#
# Bulk Modulus (GPa) = 30.56143 53.33912 41.95027
# Shear Modulus (GPa) = 22.85498 33.86050 28.35774
#
# Velocity S-wave (km/s) = 3.04152 3.70209 3.38795
# Velocity P-wave (km/s) = 4.97037 6.31377 5.68192
#
# Compressibility (1/GPa) = 0.03272098
#
# Stress axis : x y z
#
# Youngs Moduli (GPa) = 32.65191 97.62250 96.10120
#
# Poissons Ratio (x) = 0.50210 0.14089
# Poissons Ratio (y) = 0.16794 0.25637
# Poissons Ratio (z) = 0.04787 0.26043
#
# Static dielectric constant tensor:
#      x y z
#    x 2.186160 0.098080 -0.000220 
#    y 0.098080 1.989220 -0.006690 
#    z -0.000220 -0.006690 2.009530 
# 
# From -- ./inp_files/519103.got.cif
#   From: 2010.05.17/outbox.cif.g08.bks.cpg/sg2_260_cif.got.tgz:519103.got - 2010.06.03 11:33:40.
