data_PCOD9033421
_publ_section_title
;
Structure prediction by ZEFSAII (Michael W. Deem and Ramdas Pophale) SiO2 
 PCOD9033421
Probable space group: P -1
;
_chemical_formula_sum "Si O2"
_cell_formula_units_Z 14
_cell_length_a 8.523606
_cell_length_b 12.032807
_cell_length_c 16.751987
_cell_angle_alpha 149.065810
_cell_angle_beta 51.907756
_cell_angle_gamma 137.752580
_cell_volume 593.004526
_symmetry_space_group_name_H-M "P -1"
_symmetry_group_IT_number 2
_symmetry_cell_setting 'triclinic'
loop_
_space_group_symop_operation_xyz
x,y,z
-x,-y,-z
loop_
_atom_site_type_symbol
_atom_site_label
_atom_site_fract_x
_atom_site_fract_y
_atom_site_fract_z
Si Si1 0.997198 0.882147 0.741021
Si Si2 0.371528 0.576008 0.522610
Si Si3 0.180859 0.340559 0.163169
Si Si4 0.683000 0.054884 0.120120
Si Si5 0.846888 0.201376 0.888791
Si Si6 0.792472 0.013532 0.614019
Si Si7 0.473963 0.718187 0.189189
O O1 0.861742 0.655135 0.580820
O O2 0.892425 0.745218 0.775017
O O3 0.938872 0.095986 0.864445
O O4 0.274189 0.027809 0.735631
O O5 0.500000 0.500000 0.500000
O O6 0.335011 0.778774 0.703486
O O7 0.566204 0.737926 0.495831
O O8 0.382020 0.617371 0.245547
O O9 0.947241 0.257021 0.132633
O O10 0.280714 0.166130 0.997348
O O11 0.426748 0.907371 0.069841
O O12 0.844149 0.059017 0.720474
O O13 0.000000 0.500000 0.000000
O O14 0.716637 0.217232 0.743621
O O15 0.000000 0.000000 0.500000
O O16 0.500000 0.500000 0.000000
#
# Coordination Sequence:
#
# PCOD9033421 Si02
#       7
#     2   2   2   2   2   2   2
#     4  12  25  45  74 109 141 191 243 301 363 432
#     4  11  23  47  71  94 148 191 227 292 370 430
#     4  11  25  44  75 107 138 188 250 295 358 430
#     4  10  22  44  67  99 142 189 235 288 357 430
#     4  11  23  43  70 102 146 189 243 300 365 425
#     4  11  26  46  72 107 142 194 242 297 363 431
#     4  12  26  49  76 106 153 193 240 306 364 433
#
# _framework density 23.608588000000001
#
# number of rings (size 3 to 8) (size 9 to 14) (size 15 to 20)
#    0.000    0.857    2.857    6.857    2.000    5.143 
#    0.000    3.571    0.000    0.000    0.000    0.000 
#    0.000    0.000    0.000    0.000    0.000    0.000 
#
# Total GULP energy -78047.956730 kJ/mol
# GULP energy per Si atom -5574.854052 kJ/mol
# Density = 2.355485 g / cm^3
# Si number density = 23.608588 Si / 1000 Ang^3
#
#
#
# Elastic Constant Matrix: (Units=GPa)
#
#
# Indices 1 2 3 4 5 6 
#
# 1 126.6564 74.7785 42.1163 -9.8109 -19.1456 13.9838
# 2 74.7785 157.3758 54.2664 15.3652 -11.9296 -5.9364
# 3 42.1163 54.2664 75.7903 6.6331 -4.1780 17.0765
# 4 -9.8109 15.3652 6.6331 36.8127 13.0492 -3.2104
# 5 -19.1456 -11.9296 -4.1780 13.0492 43.4188 -8.9719
# 6 13.9838 -5.9364 17.0765 -3.2104 -8.9719 41.9100
#
#
#
# Elastic Compliance Matrix: (Units=1/GPa)
#
#
# Indices 1 2 3 4 5 6 
#
# 1 0.013415 -0.005962 -0.002835 0.005717 0.001586 -0.003388
# 2 -0.005962 0.012525 -0.006405 -0.006312 0.003463 0.006631
# 3 -0.002835 -0.006405 0.021513 -0.001965 -0.002285 -0.009366
# 4 0.005717 -0.006312 -0.001965 0.035193 -0.010291 -0.001508
# 5 0.001586 0.003463 -0.002285 -0.010291 0.028853 0.006281
# 6 -0.003388 0.006631 -0.009366 -0.001508 0.006281 0.030976
#
#
# Mechanical properties :
#
#
# Convention : Reuss Voigt Hill
#
# Bulk Modulus (GPa) = 58.66301 78.01612 68.33956
# Shear Modulus (GPa) = 28.00132 37.00571 32.50351
#
# Velocity S-wave (km/s) = 3.44767 3.96342 3.71451
# Velocity P-wave (km/s) = 6.38362 7.35271 6.88524
#
# Compressibility (1/GPa) = 0.01704652
#
# Stress axis : x y z
#
# Youngs Moduli (GPa) = 74.54349 79.84061 46.48450
#
# Poissons Ratio (x) = 0.47604 0.13179
# Poissons Ratio (y) = 0.44446 0.29776
# Poissons Ratio (z) = 0.21134 0.51142
#
# Static dielectric constant tensor:
#      x y z
#    x 1.949910 0.028190 0.019360 
#    y 0.028190 2.001510 -0.000630 
#    z 0.019360 -0.000630 1.898210 
# 
# From -- ./inp_files/560139.got.cif
#   From: 2010.05.17/outbox.cif.g08.bks.cpg/sg2_281_cif.got.tgz:560139.got - 2010.06.03 11:33:40.
