data_PCOD9033802
_publ_section_title
;
Structure prediction by ZEFSAII (Michael W. Deem and Ramdas Pophale) SiO2 
 PCOD9033802
Probable space group: P -1
;
_chemical_formula_sum "Si O2"
_cell_formula_units_Z 14
_cell_length_a 11.659547
_cell_length_b 13.756053
_cell_length_c 8.736189
_cell_angle_alpha 147.315067
_cell_angle_beta 130.609897
_cell_angle_gamma 63.922484
_cell_volume 554.045801
_symmetry_space_group_name_H-M "P -1"
_symmetry_group_IT_number 2
_symmetry_cell_setting 'triclinic'
loop_
_space_group_symop_operation_xyz
x,y,z
-x,-y,-z
loop_
_atom_site_type_symbol
_atom_site_label
_atom_site_fract_x
_atom_site_fract_y
_atom_site_fract_z
Si Si1 0.693869 0.256622 0.581612
Si Si2 0.628315 0.079714 0.843009
Si Si3 0.831822 0.681374 0.202991
Si Si4 0.816049 0.377686 0.183690
Si Si5 0.551169 0.720904 0.816876
Si Si6 0.765964 0.747741 0.589210
Si Si7 0.899457 0.035100 0.319332
O O1 0.514341 0.245253 0.363575
O O2 0.749035 0.087786 0.330053
O O3 0.787470 0.458026 0.861091
O O4 0.748277 0.275108 0.830305
O O5 0.500000 0.000000 0.500000
O O6 0.663435 0.894414 0.692178
O O7 0.773807 0.225904 0.080288
O O8 0.551734 0.185484 0.039772
O O9 0.805915 0.729794 0.421532
O O10 0.007882 0.780106 0.443517
O O11 0.723473 0.761841 0.097182
O O12 0.719937 0.536150 0.329771
O O13 0.000000 0.500000 0.500000
O O14 0.500000 0.500000 0.500000
O O15 0.893222 0.862973 0.971626
O O16 0.000000 0.000000 0.500000
#
# Coordination Sequence:
#
# PCOD9033802 Si02
#       7
#     2   2   2   2   2   2   2
#     4  10  23  44  67 101 137 184 229 297 356 413
#     4  12  26  48  75 103 143 191 237 291 358 431
#     4  10  23  43  68  97 138 187 232 291 354 427
#     4  11  28  47  73 107 143 186 245 293 348 429
#     4  10  22  44  70 100 137 182 232 291 357 419
#     4  11  25  44  72 101 138 191 235 291 354 423
#     4  12  25  40  66 102 141 178 239 294 354 415
#
# _framework density 25.268668999999999
#
# number of rings (size 3 to 8) (size 9 to 14) (size 15 to 20)
#    0.000    1.143    2.857    1.714    8.000    5.143 
#    2.571    1.429    0.000    0.000    0.000    0.000 
#    0.000    0.000    0.000    0.000    0.000    0.000 
#
# Total GULP energy -78248.573698 kJ/mol
# GULP energy per Si atom -5589.183836 kJ/mol
# Density = 2.521116 g / cm^3
# Si number density = 25.268669 Si / 1000 Ang^3
#
#
#
# Elastic Constant Matrix: (Units=GPa)
#
#
# Indices 1 2 3 4 5 6 
#
# 1 54.1377 33.4527 41.6019 12.2601 -4.3269 3.9757
# 2 33.4527 137.5903 40.7781 -6.8665 -11.1189 -6.8369
# 3 41.6019 40.7781 153.3520 -3.2064 -19.6134 3.8538
# 4 12.2601 -6.8665 -3.2064 62.0850 -3.8986 -8.8323
# 5 -4.3269 -11.1189 -19.6134 -3.8986 28.7632 16.3909
# 6 3.9757 -6.8369 3.8538 -8.8323 16.3909 29.6524
#
#
#
# Elastic Compliance Matrix: (Units=1/GPa)
#
#
# Indices 1 2 3 4 5 6 
#
# 1 0.029301 -0.005953 -0.006213 -0.007749 0.001016 -0.007363
# 2 -0.005953 0.009315 -0.000841 0.002705 0.000436 0.003620
# 3 -0.006213 -0.000841 0.009625 0.001477 0.008177 -0.004692
# 4 -0.007749 0.002705 0.001477 0.019043 -0.000879 0.007629
# 5 0.001016 0.000436 0.008177 -0.000879 0.060321 -0.034704
# 6 -0.007363 0.003620 -0.004692 0.007629 -0.034704 0.057611
#
#
# Mechanical properties :
#
#
# Convention : Reuss Voigt Hill
#
# Bulk Modulus (GPa) = 44.99065 64.08283 54.53674
# Shear Modulus (GPa) = 22.86892 39.38328 31.12610
#
# Velocity S-wave (km/s) = 3.01164 3.95217 3.51352
# Velocity P-wave (km/s) = 5.47146 6.80014 6.17166
#
# Compressibility (1/GPa) = 0.02222684
#
# Stress axis : x y z
#
# Youngs Moduli (GPa) = 34.12832 107.35876 103.90096
#
# Poissons Ratio (x) = 0.63914 0.64553
# Poissons Ratio (y) = 0.20318 0.08733
# Poissons Ratio (z) = 0.21204 0.09024
#
# Static dielectric constant tensor:
#      x y z
#    x 1.950550 0.072230 -0.073620 
#    y 0.072230 1.857970 0.194250 
#    z -0.073620 0.194250 1.623220 
# 
# From -- ./inp_files/274940.got.cif
#   From: 2010.05.17/outbox.cif.g08.bks.cpg/sg2_138_cif.got.tgz:274940.got - 2010.06.03 11:33:40.
