data_PCOD9033786
_publ_section_title
;
Structure prediction by ZEFSAII (Michael W. Deem and Ramdas Pophale) SiO2 
 PCOD9033786
Probable space group: P -1
;
_chemical_formula_sum "Si O2"
_cell_formula_units_Z 16
_cell_length_a 5.745865
_cell_length_b 23.589773
_cell_length_c 17.061742
_cell_angle_alpha 159.004600
_cell_angle_beta 72.644171
_cell_angle_gamma 97.385634
_cell_volume 710.782298
_symmetry_space_group_name_H-M "P -1"
_symmetry_group_IT_number 2
_symmetry_cell_setting 'triclinic'
loop_
_space_group_symop_operation_xyz
x,y,z
-x,-y,-z
loop_
_atom_site_type_symbol
_atom_site_label
_atom_site_fract_x
_atom_site_fract_y
_atom_site_fract_z
Si Si1 0.261828 0.619477 0.618311
Si Si2 0.828291 0.180958 0.441427
Si Si3 0.762824 0.839453 0.227621
Si Si4 0.191021 0.467035 0.060573
Si Si5 0.729671 0.709943 0.886833
Si Si6 0.305423 0.269100 0.650377
Si Si7 0.140729 0.981077 0.303276
Si Si8 0.238801 0.963598 0.993358
O O1 0.500000 0.500000 0.500000
O O2 0.229735 0.489321 0.388841
O O3 0.329355 0.765420 0.758999
O O4 0.976892 0.713855 0.816676
O O5 0.735165 0.389845 0.721847
O O6 0.555775 0.160146 0.428022
O O7 0.937694 0.079532 0.380690
O O8 0.070358 0.096558 0.249536
O O9 0.500000 0.000000 0.500000
O O10 0.838026 0.667447 0.050442
O O11 0.728904 0.778155 0.063569
O O12 0.000925 0.901152 0.273867
O O13 0.917242 0.585447 0.193315
O O14 0.387626 0.354696 0.825888
O O15 0.421906 0.833478 0.050764
O O16 0.201308 0.138791 0.532731
O O17 0.500000 0.000000 0.000000
O O18 0.000000 0.000000 0.000000
#
# Coordination Sequence:
#
# PCOD9033786 Si02
#       8
#     2   2   2   2   2   2   2   2
#     4  11  26  50  77 101 143 194 253 304 372 454
#     4  11  24  45  72  93 139 185 236 291 360 437
#     4  12  26  43  65 106 147 181 229 297 359 432
#     4  10  24  40  68 100 140 177 237 287 360 425
#     4  11  25  43  77 101 138 189 245 295 365 438
#     4  10  22  44  69  99 134 190 234 284 353 440
#     4  11  23  43  70  99 136 186 237 286 356 437
#     4  12  31  48  74 111 151 189 248 317 380 439
#
# _framework density 22.510406
#
# number of rings (size 3 to 8) (size 9 to 14) (size 15 to 20)
#    0.000    1.000    0.000    5.625   10.500    6.000 
#    0.000    0.000    0.000    0.000    0.000    0.000 
#    0.000    0.000    0.000    0.000    0.000    0.000 
#
# Total GULP energy -89378.842573 kJ/mol
# GULP energy per Si atom -5586.177661 kJ/mol
# Density = 2.245917 g / cm^3
# Si number density = 22.510406 Si / 1000 Ang^3
#
#
#
# Elastic Constant Matrix: (Units=GPa)
#
#
# Indices 1 2 3 4 5 6 
#
# 1 101.5997 53.1172 48.6375 11.6761 -7.5106 29.0134
# 2 53.1172 110.6051 62.0164 31.3067 4.2610 30.7022
# 3 48.6375 62.0164 132.0107 13.4424 5.5272 20.2508
# 4 11.6761 31.3067 13.4424 49.1556 6.2971 8.1338
# 5 -7.5106 4.2610 5.5272 6.2971 51.9143 -1.4023
# 6 29.0134 30.7022 20.2508 8.1338 -1.4023 38.0882
#
#
#
# Elastic Compliance Matrix: (Units=1/GPa)
#
#
# Indices 1 2 3 4 5 6 
#
# 1 0.015508 -0.004183 -0.002851 0.000573 0.002633 -0.006951
# 2 -0.004183 0.018102 -0.005042 -0.007886 -0.000789 -0.007069
# 3 -0.002851 -0.005042 0.010917 0.001041 -0.001283 0.000162
# 4 0.000573 -0.007886 0.001041 0.025279 -0.002450 -0.000122
# 5 0.002633 -0.000789 -0.001283 -0.002450 0.020158 0.000577
# 6 -0.006951 -0.007069 0.000162 -0.000122 0.000577 0.037209
#
#
# Mechanical properties :
#
#
# Convention : Reuss Voigt Hill
#
# Bulk Modulus (GPa) = 49.08136 74.63977 61.86056
# Shear Modulus (GPa) = 31.62196 39.86122 35.74159
#
# Velocity S-wave (km/s) = 3.75209 4.21264 3.98902
# Velocity P-wave (km/s) = 6.37355 7.54266 6.98261
#
# Compressibility (1/GPa) = 0.02037433
#
# Stress axis : x y z
#
# Youngs Moduli (GPa) = 64.48250 55.24180 91.59903
#
# Poissons Ratio (x) = 0.23110 0.26113
# Poissons Ratio (y) = 0.26976 0.46187
# Poissons Ratio (z) = 0.18382 0.27855
#
# Static dielectric constant tensor:
#      x y z
#    x 1.937380 0.000950 0.050050 
#    y 0.000950 1.645610 -0.090300 
#    z 0.050050 -0.090300 1.842810 
# 
# From -- ./inp_files/551265.got.cif
#   From: 2010.05.17/outbox.cif.g08.bks.cpg/sg2_276_cif.got.tgz:551265.got - 2010.06.03 11:33:40.
