data_PCOD9033034
_publ_section_title
;
Structure prediction by ZEFSAII (Michael W. Deem and Ramdas Pophale) SiO2 
 PCOD9033034
Probable space group: P -1
;
_chemical_formula_sum "Si O2"
_cell_formula_units_Z 16
_cell_length_a 10.917739
_cell_length_b 9.470011
_cell_length_c 12.923881
_cell_angle_alpha 79.909763
_cell_angle_beta 143.686129
_cell_angle_gamma 86.593818
_cell_volume 731.521710
_symmetry_space_group_name_H-M "P -1"
_symmetry_group_IT_number 2
_symmetry_cell_setting 'triclinic'
loop_
_space_group_symop_operation_xyz
x,y,z
-x,-y,-z
loop_
_atom_site_type_symbol
_atom_site_label
_atom_site_fract_x
_atom_site_fract_y
_atom_site_fract_z
Si Si1 0.785830 0.494686 0.415383
Si Si2 0.301224 0.960405 0.918534
Si Si3 0.625277 0.375542 0.015556
Si Si4 0.727620 0.362315 0.689599
Si Si5 0.820283 0.185461 0.556668
Si Si6 0.912335 0.583493 0.712901
Si Si7 0.864193 0.114527 0.981304
Si Si8 0.712963 0.920778 0.586531
O O1 0.560901 0.605932 0.200267
O O2 0.753611 0.330195 0.418032
O O3 0.840200 0.530091 0.563101
O O4 0.000000 0.500000 0.500000
O O5 0.296727 0.804227 0.882198
O O6 0.293355 0.935977 0.041509
O O7 0.500000 0.000000 0.000000
O O8 0.079507 0.101626 0.729735
O O9 0.500000 0.500000 0.000000
O O10 0.843704 0.409335 0.127566
O O11 0.500000 0.500000 0.500000
O O12 0.771649 0.250008 0.633801
O O13 0.901325 0.452359 0.800365
O O14 0.742409 0.268338 0.816258
O O15 0.717371 0.051669 0.491732
O O16 0.735312 0.752604 0.587369
O O17 0.060925 0.117752 0.189793
O O18 0.000000 0.000000 0.000000
O O19 0.500000 0.000000 0.500000
#
# Coordination Sequence:
#
# PCOD9033034 Si02
#       8
#     2   2   2   2   2   2   2   2
#     4  11  24  43  73 100 139 192 234 290 372 429
#     4  11  24  44  72 101 148 192 235 299 366 430
#     4  12  25  46  73 104 146 187 245 301 359 440
#     4  11  24  42  72 104 145 189 241 302 365 433
#     4  10  22  44  65 101 142 179 239 293 356 437
#     4  11  25  44  69 103 146 180 242 302 362 427
#     4  11  23  43  72 106 139 187 248 292 364 435
#     4  11  23  43  67  99 143 181 236 303 360 428
#
# _framework density 21.872216000000002
#
# number of rings (size 3 to 8) (size 9 to 14) (size 15 to 20)
#    0.000    1.000    6.250    1.500    5.250    1.500 
#    0.000    3.750    0.000    0.000    0.000    0.000 
#    0.000    0.000    0.000    0.000    0.000    0.000 
#
# Total GULP energy -89345.772561 kJ/mol
# GULP energy per Si atom -5584.110785 kJ/mol
# Density = 2.182243 g / cm^3
# Si number density = 21.872216 Si / 1000 Ang^3
#
#
#
# Elastic Constant Matrix: (Units=GPa)
#
#
# Indices 1 2 3 4 5 6 
#
# 1 125.1499 33.2085 16.2999 -5.0921 25.5240 9.6327
# 2 33.2085 85.1461 0.7726 -13.9700 2.4965 1.2301
# 3 16.2999 0.7726 83.3057 -8.9318 19.2787 6.8318
# 4 -5.0921 -13.9700 -8.9318 36.8056 -0.3397 10.5429
# 5 25.5240 2.4965 19.2787 -0.3397 37.4180 -2.0744
# 6 9.6327 1.2301 6.8318 10.5429 -2.0744 44.2463
#
#
#
# Elastic Compliance Matrix: (Units=1/GPa)
#
#
# Indices 1 2 3 4 5 6 
#
# 1 0.010710 -0.003809 -0.000108 0.000722 -0.007140 -0.002716
# 2 -0.003809 0.014077 0.001000 0.005337 0.001141 -0.000935
# 3 -0.000108 0.001000 0.014639 0.004935 -0.007701 -0.003802
# 4 0.000722 0.005337 0.004935 0.033071 -0.003596 -0.009116
# 5 -0.007140 0.001141 -0.007701 -0.003596 0.035745 0.005245
# 6 -0.002716 -0.000935 -0.003802 -0.009116 0.005245 0.026223
#
#
# Mechanical properties :
#
#
# Convention : Reuss Voigt Hill
#
# Bulk Modulus (GPa) = 29.76983 43.79596 36.78290
# Shear Modulus (GPa) = 33.00415 39.91536 36.45975
#
# Velocity S-wave (km/s) = 3.88874 4.27656 4.08725
# Velocity P-wave (km/s) = 5.81407 6.66726 6.25523
#
# Compressibility (1/GPa) = 0.03359106
#
# Stress axis : x y z
#
# Youngs Moduli (GPa) = 93.37325 71.03935 68.31087
#
# Poissons Ratio (x) = 0.27059 0.00736
# Poissons Ratio (y) = 0.35566 -0.06828
# Poissons Ratio (z) = 0.01006 -0.07101
#
# Static dielectric constant tensor:
#      x y z
#    x 1.814610 -0.000920 0.006540 
#    y -0.000920 1.851960 0.016600 
#    z 0.006540 0.016600 1.763110 
# 
# From -- ./inp_files/515564.got.cif
#   From: 2010.05.17/outbox.cif.g08.bks.cpg/sg2_258_cif.got.tgz:515564.got - 2010.06.03 11:33:40.
