data_PCOD9033414
_publ_section_title
;
Structure prediction by ZEFSAII (Michael W. Deem and Ramdas Pophale) SiO2 
 PCOD9033414
Probable space group: P -1
;
_chemical_formula_sum "Si O2"
_cell_formula_units_Z 16
_cell_length_a 12.584947
_cell_length_b 23.521912
_cell_length_c 5.440451
_cell_angle_alpha 118.924191
_cell_angle_beta 62.665164
_cell_angle_gamma 152.177130
_cell_volume 655.964112
_symmetry_space_group_name_H-M "P -1"
_symmetry_group_IT_number 2
_symmetry_cell_setting 'triclinic'
loop_
_space_group_symop_operation_xyz
x,y,z
-x,-y,-z
loop_
_atom_site_type_symbol
_atom_site_label
_atom_site_fract_x
_atom_site_fract_y
_atom_site_fract_z
Si Si1 0.736381 0.066017 0.159988
Si Si2 0.497251 0.572905 0.222653
Si Si3 0.590795 0.791258 0.778203
Si Si4 0.902357 0.844461 0.308986
Si Si5 0.642279 0.426626 0.146894
Si Si6 0.306734 0.815385 0.765128
Si Si7 0.311733 0.050470 0.662046
Si Si8 0.080818 0.596403 0.787195
O O1 0.774686 0.157406 0.230196
O O2 0.687466 0.024416 0.405051
O O3 0.963539 0.128293 0.996354
O O4 0.512985 0.934658 0.977352
O O5 0.752089 0.716136 0.307932
O O6 0.359301 0.525723 0.518304
O O7 0.500000 0.500000 0.000000
O O8 0.421330 0.574936 0.057324
O O9 0.724260 0.821754 0.470093
O O10 0.542243 0.713003 0.868252
O O11 0.339869 0.699044 0.787663
O O12 0.716075 0.909703 0.013193
O O13 0.106723 0.962198 0.510052
O O14 0.896328 0.516393 0.031850
O O15 0.440135 0.827916 0.468064
O O16 0.108361 0.681614 0.820232
O O17 0.000000 0.500000 0.500000
#
# Coordination Sequence:
#
# PCOD9033414 Si02
#       8
#     2   2   2   2   2   2   2   2
#     4  10  22  44  67  99 140 180 243 292 372 428
#     4  11  26  51  73 109 150 197 246 311 366 448
#     4  11  24  46  68 104 144 187 244 304 367 445
#     4  10  25  42  68 102 140 185 239 298 370 442
#     4  11  26  47  75 108 149 194 253 301 372 445
#     4  10  23  43  67 102 139 183 239 304 357 438
#     4  11  22  43  70 104 138 192 234 307 372 441
#     4  12  24  46  73 107 149 197 248 309 376 444
#
# _framework density 24.391579
#
# number of rings (size 3 to 8) (size 9 to 14) (size 15 to 20)
#    0.000    1.250    1.250    3.750    5.250    1.500 
#    0.000    0.000    0.000    0.000    0.000    0.000 
#    0.000    0.000    0.000    0.000    0.000    0.000 
#
# Total GULP energy -89429.941219 kJ/mol
# GULP energy per Si atom -5589.371326 kJ/mol
# Density = 2.433606 g / cm^3
# Si number density = 24.391579 Si / 1000 Ang^3
#
#
#
# Elastic Constant Matrix: (Units=GPa)
#
#
# Indices 1 2 3 4 5 6 
#
# 1 81.5272 25.9669 28.0043 -6.8029 -8.0049 -10.7312
# 2 25.9669 101.0442 37.0402 -13.8371 -20.7886 -11.4684
# 3 28.0043 37.0402 130.2126 -10.7158 -23.0885 0.6338
# 4 -6.8029 -13.8371 -10.7158 41.5110 -4.2521 -9.5228
# 5 -8.0049 -20.7886 -23.0885 -4.2521 33.5701 4.2079
# 6 -10.7312 -11.4684 0.6338 -9.5228 4.2079 36.2484
#
#
#
# Elastic Compliance Matrix: (Units=1/GPa)
#
#
# Indices 1 2 3 4 5 6 
#
# 1 0.014471 -0.002038 -0.002322 0.002088 0.000331 0.004190
# 2 -0.002038 0.013771 -0.001817 0.005514 0.006935 0.004429
# 3 -0.002322 -0.001817 0.009823 0.001742 0.005500 -0.001615
# 4 0.002088 0.005514 0.001742 0.029624 0.007707 0.009220
# 5 0.000331 0.006935 0.005500 0.007707 0.038959 -0.000302
# 6 0.004190 0.004429 -0.001615 0.009220 -0.000302 0.032715
#
#
# Mechanical properties :
#
#
# Convention : Reuss Voigt Hill
#
# Bulk Modulus (GPa) = 38.89623 54.97853 46.93738
# Shear Modulus (GPa) = 31.19407 37.05074 34.12241
#
# Velocity S-wave (km/s) = 3.58003 3.90166 3.74430
# Velocity P-wave (km/s) = 5.75066 6.54875 6.16264
#
# Compressibility (1/GPa) = 0.02570943
#
# Stress axis : x y z
#
# Youngs Moduli (GPa) = 69.10430 72.61588 101.80693
#
# Poissons Ratio (x) = 0.14799 0.23644
# Poissons Ratio (y) = 0.14084 0.18499
# Poissons Ratio (z) = 0.16049 0.13195
#
# Static dielectric constant tensor:
#      x y z
#    x 2.022410 0.003630 0.004850 
#    y 0.003630 1.910570 -0.027280 
#    z 0.004850 -0.027280 1.948880 
# 
# From -- ./inp_files/84501.got.cif
#   From: 2010.05.17/outbox.cif.g08.bks.cpg/sg2_43_cif.got.tgz:84501.got - 2010.06.03 11:33:40.
