data_PCOD9033721
_publ_section_title
;
Structure prediction by ZEFSAII (Michael W. Deem and Ramdas Pophale) SiO2 
 PCOD9033721
Probable space group: P -1
;
_chemical_formula_sum "Si O2"
_cell_formula_units_Z 16
_cell_length_a 16.659410
_cell_length_b 6.021506
_cell_length_c 23.082510
_cell_angle_alpha 86.207753
_cell_angle_beta 160.081501
_cell_angle_gamma 83.298179
_cell_volume 669.330579
_symmetry_space_group_name_H-M "P -1"
_symmetry_group_IT_number 2
_symmetry_cell_setting 'triclinic'
loop_
_space_group_symop_operation_xyz
x,y,z
-x,-y,-z
loop_
_atom_site_type_symbol
_atom_site_label
_atom_site_fract_x
_atom_site_fract_y
_atom_site_fract_z
Si Si1 0.107089 0.465660 0.479624
Si Si2 0.828268 0.641814 0.095323
Si Si3 0.400344 0.364437 0.286526
Si Si4 0.782058 0.953673 0.167895
Si Si5 0.215148 0.682720 0.270379
Si Si6 0.759041 0.311794 0.324613
Si Si7 0.993241 0.172089 0.046009
Si Si8 0.894337 0.817529 0.619608
O O1 0.255527 0.521697 0.631382
O O2 0.243290 0.230274 0.528990
O O3 0.992276 0.711350 0.355064
O O4 0.870648 0.428235 0.349510
O O5 0.792877 0.873197 0.109586
O O6 0.977893 0.647276 0.138254
O O7 0.039293 0.380973 0.279824
O O8 0.533713 0.664872 0.886201
O O9 0.318915 0.562535 0.279906
O O10 0.217132 0.240126 0.177221
O O11 0.705915 0.119980 0.502975
O O12 0.296846 0.548384 0.156474
O O13 0.819941 0.196540 0.199799
O O14 0.500000 0.000000 0.000000
O O15 0.500000 0.500000 0.500000
O O16 0.086256 0.993373 0.169343
O O17 0.000000 0.000000 0.500000
O O18 0.000000 0.000000 0.000000
#
# Coordination Sequence:
#
# PCOD9033721 Si02
#       8
#     2   2   2   2   2   2   2   2
#     4  10  23  42  67  96 132 188 228 291 347 418
#     4  11  25  41  68 107 134 180 240 291 352 419
#     4  10  22  44  69  94 137 184 226 280 346 407
#     4  11  22  42  69  96 132 180 232 292 345 416
#     4  11  23  43  70 103 139 180 228 296 344 408
#     4  11  23  46  66  97 145 183 229 293 361 415
#     4   9  21  44  66  94 132 178 225 282 338 404
#     4  11  23  42  69 101 134 184 241 280 347 424
#
# _framework density 23.904482999999999
#
# number of rings (size 3 to 8) (size 9 to 14) (size 15 to 20)
#    0.000    1.500    0.000    4.500    0.000    9.000 
#   18.000    0.000    0.000    0.000    0.000    0.000 
#    0.000    0.000    0.000    0.000    0.000    0.000 
#
# Total GULP energy -89334.497371 kJ/mol
# GULP energy per Si atom -5583.406086 kJ/mol
# Density = 2.385007 g / cm^3
# Si number density = 23.904483 Si / 1000 Ang^3
#
#
#
# Elastic Constant Matrix: (Units=GPa)
#
#
# Indices 1 2 3 4 5 6 
#
# 1 86.5126 28.6785 38.5931 -15.7589 -8.1308 5.9819
# 2 28.6785 96.0856 47.0600 -5.4008 -17.5073 14.5788
# 3 38.5931 47.0600 114.0029 0.2949 -10.8349 5.2639
# 4 -15.7589 -5.4008 0.2949 37.1896 -2.3053 -9.0005
# 5 -8.1308 -17.5073 -10.8349 -2.3053 28.3623 2.7938
# 6 5.9819 14.5788 5.2639 -9.0005 2.7938 40.8309
#
#
#
# Elastic Compliance Matrix: (Units=1/GPa)
#
#
# Indices 1 2 3 4 5 6 
#
# 1 0.015448 -0.001759 -0.004321 0.006511 0.002201 0.000207
# 2 -0.001759 0.015533 -0.004846 0.000818 0.007793 -0.005017
# 3 -0.004321 -0.004846 0.012253 -0.002569 0.000222 0.000202
# 4 0.006511 0.000818 -0.002569 0.031394 0.003373 0.005775
# 5 0.002201 0.007793 0.000222 0.003373 0.041574 -0.005235
# 6 0.000207 -0.005017 0.000202 0.005775 -0.005235 0.027857
#
#
# Mechanical properties :
#
#
# Convention : Reuss Voigt Hill
#
# Bulk Modulus (GPa) = 46.76696 58.36270 52.56483
# Shear Modulus (GPa) = 28.89506 33.42788 31.16147
#
# Velocity S-wave (km/s) = 3.48051 3.74357 3.61443
# Velocity P-wave (km/s) = 5.97984 6.56915 6.28141
#
# Compressibility (1/GPa) = 0.02138262
#
# Stress axis : x y z
#
# Youngs Moduli (GPa) = 64.73224 64.37893 81.61014
#
# Poissons Ratio (x) = 0.11324 0.35262
# Poissons Ratio (y) = 0.11386 0.39551
# Poissons Ratio (z) = 0.27969 0.31200
#
# Static dielectric constant tensor:
#      x y z
#    x 2.010720 0.063420 -0.022640 
#    y 0.063420 2.043880 -0.100030 
#    z -0.022640 -0.100030 2.270020 
# 
# From -- ./inp_files/612641.got.cif
#   From: 2010.05.17/outbox.cif.g08.bks.cpg/sg2_307_cif.got.tgz:612641.got - 2010.06.03 11:33:40.
