data_PCOD9033302
_publ_section_title
;
Structure prediction by ZEFSAII (Michael W. Deem and Ramdas Pophale) SiO2 
 PCOD9033302
Probable space group: P -1
;
_chemical_formula_sum "Si O2"
_cell_formula_units_Z 14
_cell_length_a 13.174322
_cell_length_b 9.425805
_cell_length_c 7.585217
_cell_angle_alpha 70.383343
_cell_angle_beta 55.122810
_cell_angle_gamma 104.553358
_cell_volume 596.236740
_symmetry_space_group_name_H-M "P -1"
_symmetry_group_IT_number 2
_symmetry_cell_setting 'triclinic'
loop_
_space_group_symop_operation_xyz
x,y,z
-x,-y,-z
loop_
_atom_site_type_symbol
_atom_site_label
_atom_site_fract_x
_atom_site_fract_y
_atom_site_fract_z
Si Si1 0.093816 0.944013 0.542360
Si Si2 0.669794 0.401497 0.969548
Si Si3 0.034903 0.756814 0.048180
Si Si4 0.996753 0.417893 0.347484
Si Si5 0.776354 0.732825 0.499004
Si Si6 0.369593 0.949216 0.792236
Si Si7 0.435810 0.311312 0.546950
O O1 0.022225 0.830586 0.843268
O O2 0.111327 0.801027 0.476721
O O3 0.229642 0.139414 0.403489
O O4 0.000000 0.000000 0.500000
O O5 0.831406 0.523443 0.859989
O O6 0.678880 0.525523 0.751216
O O7 0.647789 0.213855 0.008858
O O8 0.543090 0.353030 0.256231
O O9 0.209625 0.859035 0.887805
O O10 0.967217 0.540061 0.200365
O O11 0.944086 0.786323 0.274225
O O12 0.000000 0.500000 0.500000
O O13 0.721749 0.755309 0.357755
O O14 0.500000 0.000000 0.500000
O O15 0.415097 0.142257 0.745613
O O16 0.500000 0.500000 0.500000
#
# Coordination Sequence:
#
# PCOD9033302 Si02
#       7
#     2   2   2   2   2   2   2
#     4  12  24  40  67 102 139 174 222 289 342 399
#     4  10  22  44  67  90 139 178 222 278 340 409
#     4  11  23  42  69 100 138 176 231 281 340 415
#     4  11  22  43  66  99 135 177 222 279 341 406
#     4  12  24  43  67 102 136 173 231 287 342 401
#     4   9  21  43  68  91 134 179 220 269 342 400
#     4  11  25  44  68  97 133 182 230 282 343 402
#
# _framework density 23.480606000000002
#
# number of rings (size 3 to 8) (size 9 to 14) (size 15 to 20)
#    0.000    1.143    4.286    1.286    2.000    0.000 
#    7.714    0.714    0.000    0.000    0.000    0.000 
#    0.000    0.000    0.000    0.000    0.000    0.000 
#
# Total GULP energy -78198.122700 kJ/mol
# GULP energy per Si atom -5585.580193 kJ/mol
# Density = 2.342716 g / cm^3
# Si number density = 23.480606 Si / 1000 Ang^3
#
#
#
# Elastic Constant Matrix: (Units=GPa)
#
#
# Indices 1 2 3 4 5 6 
#
# 1 51.4378 40.4301 18.2928 -9.3388 7.6983 -18.1647
# 2 40.4301 210.6517 33.8102 -41.6889 19.4365 -19.7287
# 3 18.2928 33.8102 75.6198 -6.4581 6.0822 -22.0092
# 4 -9.3388 -41.6889 -6.4581 46.4857 -22.0472 12.3478
# 5 7.6983 19.4365 6.0822 -22.0472 55.4488 -10.7703
# 6 -18.1647 -19.7287 -22.0092 12.3478 -10.7703 35.7743
#
#
#
# Elastic Compliance Matrix: (Units=1/GPa)
#
#
# Indices 1 2 3 4 5 6 
#
# 1 0.026877 -0.004178 -0.001597 -0.001760 -0.000702 0.010756
# 2 -0.004178 0.006797 -0.001992 0.005511 0.000335 -0.001400
# 3 -0.001597 -0.001992 0.017028 -0.002231 -0.000023 0.009330
# 4 -0.001760 0.005511 -0.002231 0.032530 0.010049 -0.007430
# 5 -0.000702 0.000335 -0.000023 0.010049 0.022626 0.003158
# 6 0.010756 -0.001400 0.009330 -0.007430 0.003158 0.041898
#
#
# Mechanical properties :
#
#
# Convention : Reuss Voigt Hill
#
# Bulk Modulus (GPa) = 28.43496 58.08617 43.26057
# Shear Modulus (GPa) = 28.56937 43.88684 36.22811
#
# Velocity S-wave (km/s) = 3.49194 4.32796 3.93223
# Velocity P-wave (km/s) = 5.32864 7.05455 6.25144
#
# Compressibility (1/GPa) = 0.03516797
#
# Stress axis : x y z
#
# Youngs Moduli (GPa) = 37.20649 147.11501 58.72776
#
# Poissons Ratio (x) = 0.61468 0.09377
# Poissons Ratio (y) = 0.15546 0.11699
# Poissons Ratio (z) = 0.05941 0.29307
#
# Static dielectric constant tensor:
#      x y z
#    x 2.008410 -0.108650 -0.096500 
#    y -0.108650 2.009930 0.057910 
#    z -0.096500 0.057910 2.002310 
# 
# From -- ./inp_files/294747.got.cif
#   From: 2010.05.17/outbox.cif.g08.bks.cpg/sg2_148_cif.got.tgz:294747.got - 2010.06.03 11:33:40.
