data_PCOD9033093
_publ_section_title
;
Structure prediction by ZEFSAII (Michael W. Deem and Ramdas Pophale) SiO2 
 PCOD9033093
Probable space group: P -1
;
_chemical_formula_sum "Si O2"
_cell_formula_units_Z 16
_cell_length_a 5.238529
_cell_length_b 12.263740
_cell_length_c 12.667893
_cell_angle_alpha 72.465539
_cell_angle_beta 78.739561
_cell_angle_gamma 68.487831
_cell_volume 718.658243
_symmetry_space_group_name_H-M "P -1"
_symmetry_group_IT_number 2
_symmetry_cell_setting 'triclinic'
loop_
_space_group_symop_operation_xyz
x,y,z
-x,-y,-z
loop_
_atom_site_type_symbol
_atom_site_label
_atom_site_fract_x
_atom_site_fract_y
_atom_site_fract_z
Si Si1 0.220222 0.568194 0.442150
Si Si2 0.539332 0.428784 0.806858
Si Si3 0.100547 0.089701 0.098218
Si Si4 0.309040 0.944091 0.599941
Si Si5 0.915892 0.539901 0.875574
Si Si6 0.616780 0.160340 0.951016
Si Si7 0.932954 0.188072 0.489225
Si Si8 0.263549 0.189950 0.254807
O O1 0.500000 0.500000 0.500000
O O2 0.299884 0.566579 0.314352
O O3 0.124541 0.703706 0.456513
O O4 0.000000 0.500000 0.500000
O O5 0.214319 0.506554 0.803587
O O6 0.554487 0.292638 0.870704
O O7 0.708524 0.473927 0.868480
O O8 0.100183 0.130125 0.207201
O O9 0.217656 0.945564 0.112158
O O10 0.333965 0.138149 0.012234
O O11 0.818902 0.143233 0.040511
O O12 0.297102 0.829739 0.565876
O O13 0.436930 0.904632 0.715618
O O14 0.500000 0.000000 0.500000
O O15 0.031595 0.059706 0.581269
O O16 0.758258 0.682339 0.830936
O O17 0.000000 0.500000 0.000000
O O18 0.135088 0.209355 0.376614
#
# Coordination Sequence:
#
# PCOD9033093 Si02
#       8
#     2   2   2   2   2   2   2   2
#     4  12  28  47  71 102 143 190 237 290 347 426
#     4  12  25  46  70 101 138 187 231 282 356 410
#     4  10  23  41  68  99 134 175 223 284 347 416
#     4   9  22  41  66  97 132 175 235 289 346 407
#     4  12  27  45  72 105 139 181 236 291 346 421
#     4  10  22  44  65  97 137 175 225 283 346 419
#     4  10  23  44  67  99 138 177 233 291 344 417
#     4  11  23  40  70  96 135 179 229 284 356 407
#
# _framework density 22.263714
#
# number of rings (size 3 to 8) (size 9 to 14) (size 15 to 20)
#    0.000    1.250    0.000    4.875    8.750    3.000 
#    6.750    0.000    0.000    0.000    0.000    0.000 
#    0.000    0.000    0.000    0.000    0.000    0.000 
#
# Total GULP energy -89450.610835 kJ/mol
# GULP energy per Si atom -5590.663177 kJ/mol
# Density = 2.221304 g / cm^3
# Si number density = 22.263714 Si / 1000 Ang^3
#
#
#
# Elastic Constant Matrix: (Units=GPa)
#
#
# Indices 1 2 3 4 5 6 
#
# 1 109.7744 28.0950 11.2374 -6.3156 8.6958 22.1545
# 2 28.0950 116.5934 43.2180 -11.9437 9.7050 17.5757
# 3 11.2374 43.2180 96.8102 -13.3925 10.0641 -0.1802
# 4 -6.3156 -11.9437 -13.3925 32.7391 -5.7311 -3.4887
# 5 8.6958 9.7050 10.0641 -5.7311 35.0790 5.2232
# 6 22.1545 17.5757 -0.1802 -3.4887 5.2232 30.7053
#
#
#
# Elastic Compliance Matrix: (Units=1/GPa)
#
#
# Indices 1 2 3 4 5 6 
#
# 1 0.011013 -0.001254 -0.000547 0.000506 -0.001103 -0.006986
# 2 -0.001254 0.011697 -0.004848 0.001363 -0.000480 -0.005582
# 3 -0.000547 -0.004848 0.013306 0.003588 -0.002359 0.004057
# 4 0.000506 0.001363 0.003588 0.033462 0.003628 0.002061
# 5 -0.001103 -0.000480 -0.002359 0.003628 0.030743 -0.003760
# 6 -0.006986 -0.005582 0.004057 0.002061 -0.003760 0.041701
#
#
# Mechanical properties :
#
#
# Convention : Reuss Voigt Hill
#
# Bulk Modulus (GPa) = 44.01756 54.25321 49.13539
# Shear Modulus (GPa) = 30.71366 35.74652 33.23009
#
# Velocity S-wave (km/s) = 3.71824 4.01134 3.86757
# Velocity P-wave (km/s) = 6.18447 6.77316 6.48550
#
# Compressibility (1/GPa) = 0.02271821
#
# Stress axis : x y z
#
# Youngs Moduli (GPa) = 90.80165 85.48986 75.15158
#
# Poissons Ratio (x) = 0.10723 0.04109
# Poissons Ratio (y) = 0.11390 0.36435
# Poissons Ratio (z) = 0.04965 0.41447
#
# Static dielectric constant tensor:
#      x y z
#    x 1.941730 -0.050660 -0.021050 
#    y -0.050660 1.822750 0.027940 
#    z -0.021050 0.027940 1.820630 
# 
# From -- ./inp_files/364070.got.cif
#   From: 2010.05.17/outbox.cif.g08.bks.cpg/sg2_183_cif.got.tgz:364070.got - 2010.06.03 11:33:40.
