data_PCOD9033260
_publ_section_title
;
Structure prediction by ZEFSAII (Michael W. Deem and Ramdas Pophale) SiO2 
 PCOD9033260
Probable space group: P -1
;
_chemical_formula_sum "Si O2"
_cell_formula_units_Z 15
_cell_length_a 8.529041
_cell_length_b 16.169306
_cell_length_c 9.210093
_cell_angle_alpha 113.230672
_cell_angle_beta 92.107690
_cell_angle_gamma 136.783022
_cell_volume 684.971290
_symmetry_space_group_name_H-M "P -1"
_symmetry_group_IT_number 2
_symmetry_cell_setting 'triclinic'
loop_
_space_group_symop_operation_xyz
x,y,z
-x,-y,-z
loop_
_atom_site_type_symbol
_atom_site_label
_atom_site_fract_x
_atom_site_fract_y
_atom_site_fract_z
Si Si1 0.371243 0.132504 0.132294
Si Si2 0.500000 0.000000 0.000000
Si Si3 0.219389 0.526658 0.558945
Si Si4 0.827297 0.496706 0.916812
Si Si5 0.918911 0.956291 0.218139
Si Si6 0.265339 0.232984 0.636513
Si Si7 0.637931 0.512935 0.199119
Si Si8 0.087454 0.319908 0.173656
O O1 0.512097 0.290065 0.295545
O O2 0.544755 0.123620 0.148366
O O3 0.310783 0.112266 0.942989
O O4 0.118830 0.008327 0.143245
O O5 0.829228 0.144016 0.088858
O O6 0.189575 0.467943 0.674171
O O7 0.210632 0.438944 0.387898
O O8 0.000000 0.500000 0.500000
O O9 0.574512 0.343793 0.708686
O O10 0.993650 0.643339 0.925857
O O11 0.680480 0.488821 0.027924
O O12 0.000000 0.500000 0.000000
O O13 0.827595 0.845436 0.263235
O O14 0.073883 0.103712 0.417941
O O15 0.262123 0.338521 0.696493
O O16 0.333035 0.376807 0.153399
#
# Coordination Sequence:
#
# PCOD9033260 Si02
#       8
#     2   1   2   2   2   2   2   2
#     4  11  25  42  68  94 137 182 223 281 340 399
#     4  12  28  40  68 104 140 176 224 292 332 400
#     4  12  24  45  68 102 136 179 232 284 335 405
#     4  11  24  43  70  99 136 179 229 281 340 405
#     4  10  24  42  69  96 135 177 230 276 344 403
#     4  10  22  44  67 101 134 176 228 281 338 408
#     4  11  25  42  73  98 135 184 226 279 340 413
#     4  11  25  45  68 102 139 176 233 275 344 406
#
# _framework density 21.898727000000001
#
# number of rings (size 3 to 8) (size 9 to 14) (size 15 to 20)
#    0.000    1.067    1.333    5.200   11.200    0.000 
#    0.000    0.000    0.000    4.800    0.000    0.000 
#    0.000    0.000    0.000    0.000    0.000    0.000 
#
# Total GULP energy -83592.787362 kJ/mol
# GULP energy per Si atom -5572.852491 kJ/mol
# Density = 2.184888 g / cm^3
# Si number density = 21.898727 Si / 1000 Ang^3
#
#
#
# Elastic Constant Matrix: (Units=GPa)
#
#
# Indices 1 2 3 4 5 6 
#
# 1 64.4553 17.3215 5.1969 11.8445 -1.0106 -10.3492
# 2 17.3215 92.9511 40.2946 11.3695 -0.2694 -3.1560
# 3 5.1969 40.2946 105.0903 11.8863 -8.4210 2.1160
# 4 11.8445 11.3695 11.8863 40.0023 -6.8903 1.0466
# 5 -1.0106 -0.2694 -8.4210 -6.8903 36.9268 -5.8381
# 6 -10.3492 -3.1560 2.1160 1.0466 -5.8381 28.7857
#
#
#
# Elastic Compliance Matrix: (Units=1/GPa)
#
#
# Indices 1 2 3 4 5 6 
#
# 1 0.018169 -0.002868 0.000675 -0.004804 0.000761 0.006497
# 2 -0.002868 0.013713 -0.005034 -0.001804 -0.001363 0.000632
# 3 0.000675 -0.005034 0.011816 -0.001880 0.002221 -0.000659
# 4 -0.004804 -0.001804 -0.001880 0.028301 0.004403 -0.001923
# 5 0.000761 -0.001363 0.002221 0.004403 0.029329 0.005749
# 6 0.006497 0.000632 -0.000659 -0.001923 0.005749 0.038429
#
#
# Mechanical properties :
#
#
# Convention : Reuss Voigt Hill
#
# Bulk Modulus (GPa) = 34.19521 43.12474 38.65998
# Shear Modulus (GPa) = 30.49525 34.45520 32.47523
#
# Velocity S-wave (km/s) = 3.73575 3.97090 3.85512
# Velocity P-wave (km/s) = 5.85293 6.38433 6.12439
#
# Compressibility (1/GPa) = 0.02924386
#
# Stress axis : x y z
#
# Youngs Moduli (GPa) = 55.03923 72.92229 84.62792
#
# Poissons Ratio (x) = 0.20913 -0.05709
# Poissons Ratio (y) = 0.15784 0.42603
# Poissons Ratio (z) = -0.03713 0.36710
#
# Static dielectric constant tensor:
#      x y z
#    x 1.812190 0.000670 0.031760 
#    y 0.000670 1.830220 0.002290 
#    z 0.031760 0.002290 1.839250 
# 
# From -- ./inp_files/218259.got.cif
#   From: 2010.05.17/outbox.cif.g08.bks.cpg/sg2_110_cif.got.tgz:218259.got - 2010.06.03 11:33:40.
