data_PCOD9033223
_publ_section_title
;
Structure prediction by ZEFSAII (Michael W. Deem and Ramdas Pophale) SiO2 
 PCOD9033223
Probable space group: P -1
;
_chemical_formula_sum "Si O2"
_cell_formula_units_Z 16
_cell_length_a 6.439778
_cell_length_b 16.539637
_cell_length_c 12.166509
_cell_angle_alpha 60.265350
_cell_angle_beta 50.716427
_cell_angle_gamma 75.334714
_cell_volume 867.388339
_symmetry_space_group_name_H-M "P -1"
_symmetry_group_IT_number 2
_symmetry_cell_setting 'triclinic'
loop_
_space_group_symop_operation_xyz
x,y,z
-x,-y,-z
loop_
_atom_site_type_symbol
_atom_site_label
_atom_site_fract_x
_atom_site_fract_y
_atom_site_fract_z
Si Si1 0.938505 0.365134 0.064309
Si Si2 0.813782 0.535253 0.874986
Si Si3 0.619246 0.014538 0.282886
Si Si4 0.680115 0.683214 0.666629
Si Si5 0.867353 0.867970 0.592566
Si Si6 0.965224 0.843229 0.820666
Si Si7 0.596247 0.077943 0.003972
Si Si8 0.079845 0.154556 0.647108
O O1 0.627724 0.356710 0.215707
O O2 0.120092 0.404011 0.078745
O O3 0.998079 0.261443 0.083897
O O4 0.963436 0.441864 0.907020
O O5 0.854155 0.604202 0.711163
O O6 0.500000 0.500000 0.000000
O O7 0.328176 0.049471 0.384731
O O8 0.837333 0.082639 0.230083
O O9 0.679800 0.910331 0.364798
O O10 0.666331 0.031517 0.126673
O O11 0.689254 0.769407 0.693666
O O12 0.805915 0.738571 0.482071
O O13 0.017851 0.854068 0.664847
O O14 0.029214 0.879592 0.415646
O O15 0.657108 0.863731 0.927485
O O16 0.852449 0.136894 0.825721
O O17 0.500000 0.000000 0.000000
#
# Coordination Sequence:
#
# PCOD9033223 Si02
#       8
#     2   2   2   2   2   2   2   2
#     4  10  17  32  55  83 109 143 171 224 279 329
#     4   9  18  31  54  83 115 134 170 223 284 332
#     4  11  21  37  55  76 110 146 192 229 265 325
#     4   9  18  33  51  81 110 135 177 223 272 318
#     4   9  20  33  52  80 108 135 180 230 274 308
#     4  11  20  35  57  80 113 143 187 225 270 328
#     4  11  24  39  51  75 111 156 193 224 264 322
#     4  10  20  38  53  75 114 150 182 228 271 316
#
# _framework density 18.446178
#
# number of rings (size 3 to 8) (size 9 to 14) (size 15 to 20)
#    0.750    1.250    3.750    0.750    0.000    0.500 
#    6.750    0.000    0.000    0.750    0.000    8.750 
#    0.000    0.000    0.000    0.000    0.000    0.000 
#
# Total GULP energy -89191.154993 kJ/mol
# GULP energy per Si atom -5574.447187 kJ/mol
# Density = 1.840419 g / cm^3
# Si number density = 18.446178 Si / 1000 Ang^3
#
#
#
# Elastic Constant Matrix: (Units=GPa)
#
#
# Indices 1 2 3 4 5 6 
#
# 1 74.5198 18.4514 21.3621 -11.2628 14.1073 8.4576
# 2 18.4514 39.8027 26.4930 -22.5975 9.4818 -13.6563
# 3 21.3621 26.4930 89.9861 -15.6759 17.8297 -5.0141
# 4 -11.2628 -22.5975 -15.6759 36.1614 -1.7694 10.4361
# 5 14.1073 9.4818 17.8297 -1.7694 27.7635 -6.4766
# 6 8.4576 -13.6563 -5.0141 10.4361 -6.4766 37.5368
#
#
#
# Elastic Compliance Matrix: (Units=1/GPa)
#
#
# Indices 1 2 3 4 5 6 
#
# 1 0.018617 -0.007835 -0.000425 0.003017 -0.008514 -0.009409
# 2 -0.007835 0.052589 -0.008025 0.023078 -0.004404 0.012650
# 3 -0.000425 -0.008025 0.015194 0.001821 -0.007281 -0.002557
# 4 0.003017 0.023078 0.001821 0.045137 -0.009146 -0.006168
# 5 -0.008514 -0.004404 -0.007281 -0.009146 0.048327 0.010225
# 6 -0.009409 0.012650 -0.002557 -0.006168 0.010225 0.036500
#
#
# Mechanical properties :
#
#
# Convention : Reuss Voigt Hill
#
# Bulk Modulus (GPa) = 18.57697 37.43573 28.00635
# Shear Modulus (GPa) = 18.73531 29.49247 24.11389
#
# Velocity S-wave (km/s) = 3.19042 4.00289 3.61952
# Velocity P-wave (km/s) = 4.86462 6.45777 5.71696
#
# Compressibility (1/GPa) = 0.05383008
#
# Stress axis : x y z
#
# Youngs Moduli (GPa) = 53.71552 19.01541 65.81634
#
# Poissons Ratio (x) = 0.14898 0.02794
# Poissons Ratio (y) = 0.42085 0.52819
# Poissons Ratio (z) = 0.02281 0.15260
#
# Static dielectric constant tensor:
#      x y z
#    x 1.663080 -0.008830 0.005480 
#    y -0.008830 1.639110 -0.029760 
#    z 0.005480 -0.029760 1.668410 
# 
# From -- ./inp_files/368954.got.cif
#   From: 2010.05.17/outbox.cif.g08.bks.cpg/sg2_185_cif.got.tgz:368954.got - 2010.06.03 11:33:40.
