data_PCOD9033766
_publ_section_title
;
Structure prediction by ZEFSAII (Michael W. Deem and Ramdas Pophale) SiO2 
 PCOD9033766
Probable space group: P -1
;
_chemical_formula_sum "Si O2"
_cell_formula_units_Z 14
_cell_length_a 13.522993
_cell_length_b 6.451661
_cell_length_c 14.893232
_cell_angle_alpha 64.300853
_cell_angle_beta 148.824934
_cell_angle_gamma 106.171623
_cell_volume 594.053124
_symmetry_space_group_name_H-M "P -1"
_symmetry_group_IT_number 2
_symmetry_cell_setting 'triclinic'
loop_
_space_group_symop_operation_xyz
x,y,z
-x,-y,-z
loop_
_atom_site_type_symbol
_atom_site_label
_atom_site_fract_x
_atom_site_fract_y
_atom_site_fract_z
Si Si1 0.611583 0.129737 0.488343
Si Si2 0.971883 0.896641 0.901103
Si Si3 0.280431 0.064352 0.583792
Si Si4 0.481870 0.803345 0.093386
Si Si5 0.874182 0.401011 0.179366
Si Si6 0.751328 0.522862 0.874681
Si Si7 0.194468 0.576350 0.672985
O O1 0.480216 0.388766 0.328652
O O2 0.500000 0.000000 0.500000
O O3 0.836688 0.096434 0.699321
O O4 0.619600 0.013795 0.418669
O O5 0.844233 0.693386 0.850393
O O6 0.168718 0.744310 0.042360
O O7 0.000000 0.000000 0.000000
O O8 0.432202 0.130824 0.759176
O O9 0.098221 0.276921 0.385269
O O10 0.194470 0.849011 0.601479
O O11 0.618763 0.566945 0.206734
O O12 0.258650 0.782519 0.919502
O O13 0.500000 0.000000 0.000000
O O14 0.798827 0.481542 0.204736
O O15 0.827837 0.569761 0.025546
O O16 0.000000 0.500000 0.500000
#
# Coordination Sequence:
#
# PCOD9033766 Si02
#       7
#     2   2   2   2   2   2   2
#     4  10  23  45  70  98 138 181 232 294 350 420
#     4  10  22  44  69  98 132 180 232 288 356 422
#     4  12  25  48  69 101 147 186 238 299 354 424
#     4  12  26  44  70 100 141 191 238 291 355 423
#     4  12  24  45  70 102 143 185 237 293 354 433
#     4  10  23  43  66  97 138 176 227 296 349 412
#     4  12  25  44  69 103 142 188 233 291 360 422
#
# _framework density 23.566918000000001
#
# number of rings (size 3 to 8) (size 9 to 14) (size 15 to 20)
#    0.000    0.857    4.286    2.571    2.000    4.000 
#    2.571    0.000    0.000    0.000    0.000    0.000 
#    0.000    0.000    0.000    0.000    0.000    0.000 
#
# Total GULP energy -78294.524752 kJ/mol
# GULP energy per Si atom -5592.466054 kJ/mol
# Density = 2.351328 g / cm^3
# Si number density = 23.566918 Si / 1000 Ang^3
#
#
#
# Elastic Constant Matrix: (Units=GPa)
#
#
# Indices 1 2 3 4 5 6 
#
# 1 101.5109 23.8698 24.3422 0.7169 -12.3915 -29.7348
# 2 23.8698 64.3030 50.8021 7.6441 -2.0037 -27.3235
# 3 24.3422 50.8021 179.0596 2.6329 -13.8653 -34.2509
# 4 0.7169 7.6441 2.6329 43.7770 -3.8378 -2.0814
# 5 -12.3915 -2.0037 -13.8653 -3.8378 28.8093 10.3756
# 6 -29.7348 -27.3235 -34.2509 -2.0814 10.3756 53.1657
#
#
#
# Elastic Compliance Matrix: (Units=1/GPa)
#
#
# Indices 1 2 3 4 5 6 
#
# 1 0.012309 -0.002645 0.000308 0.000793 0.003541 0.005063
# 2 -0.002645 0.024814 -0.005387 -0.004049 -0.005697 0.008756
# 3 0.000308 -0.005387 0.007624 0.000816 0.002894 0.001783
# 4 0.000793 -0.004049 0.000816 0.023790 0.003965 -0.000954
# 5 0.003541 -0.005697 0.002894 0.003965 0.040198 -0.006773
# 6 0.005063 0.008756 0.001783 -0.000954 -0.006773 0.028574
#
#
# Mechanical properties :
#
#
# Convention : Reuss Voigt Hill
#
# Bulk Modulus (GPa) = 34.13105 60.32241 47.22673
# Shear Modulus (GPa) = 30.76476 41.54104 36.15290
#
# Velocity S-wave (km/s) = 3.61698 4.20299 3.92095
# Velocity P-wave (km/s) = 5.65309 7.01465 6.37035
#
# Compressibility (1/GPa) = 0.02929883
#
# Stress axis : x y z
#
# Youngs Moduli (GPa) = 81.24104 40.30036 131.15806
#
# Poissons Ratio (x) = 0.10660 -0.04042
# Poissons Ratio (y) = 0.21489 0.70658
# Poissons Ratio (z) = -0.02504 0.21711
#
# Static dielectric constant tensor:
#      x y z
#    x 2.461670 0.264870 -0.122030 
#    y 0.264870 2.022600 -0.130270 
#    z -0.122030 -0.130270 1.949670 
# 
# From -- ./inp_files/122802.got.cif
#   From: 2010.05.17/outbox.cif.g08.bks.cpg/sg2_62_cif.got.tgz:122802.got - 2010.06.03 11:33:40.
