data_PCOD9033199
_publ_section_title
;
Structure prediction by ZEFSAII (Michael W. Deem and Ramdas Pophale) SiO2 
 PCOD9033199
Probable space group: P -1
;
_chemical_formula_sum "Si O2"
_cell_formula_units_Z 15
_cell_length_a 17.688245
_cell_length_b 9.021439
_cell_length_c 12.704173
_cell_angle_alpha 92.666667
_cell_angle_beta 139.362608
_cell_angle_gamma 54.934917
_cell_volume 737.919133
_symmetry_space_group_name_H-M "P -1"
_symmetry_group_IT_number 2
_symmetry_cell_setting 'triclinic'
loop_
_space_group_symop_operation_xyz
x,y,z
-x,-y,-z
loop_
_atom_site_type_symbol
_atom_site_label
_atom_site_fract_x
_atom_site_fract_y
_atom_site_fract_z
Si Si1 0.690701 0.898180 0.735489
Si Si2 0.219400 0.086938 0.751165
Si Si3 0.135429 0.382374 0.481446
Si Si4 0.502642 0.362625 0.644656
Si Si5 0.804967 0.278465 0.861653
Si Si6 0.963584 0.687990 0.831537
Si Si7 0.000000 0.000000 0.500000
Si Si8 0.350194 0.468990 0.709759
O O1 0.780541 0.896586 0.731449
O O2 0.500000 0.000000 0.500000
O O3 0.624193 0.078944 0.763239
O O4 0.873613 0.601718 0.959575
O O5 0.242613 0.173611 0.680205
O O6 0.089768 0.323407 0.705961
O O7 0.083102 0.086550 0.578946
O O8 0.433600 0.796278 0.012824
O O9 0.252176 0.411384 0.580075
O O10 0.120589 0.290983 0.363239
O O11 0.666679 0.315461 0.786492
O O12 0.342630 0.514211 0.383572
O O13 0.394494 0.501349 0.646055
O O14 0.904924 0.301725 0.037699
O O15 0.000000 0.000000 0.000000
O O16 0.196609 0.729364 0.626718
#
# Coordination Sequence:
#
# PCOD9033199 Si02
#       8
#     2   2   2   2   2   2   1   2
#     4  11  21  38  61  93 129 167 219 261 311 395
#     4  10  22  44  66  96 131 166 220 279 324 393
#     4  10  23  40  65  98 128 170 221 273 328 388
#     4  11  24  41  65  94 130 174 218 266 330 390
#     4  11  24  43  60  93 139 169 218 271 319 398
#     4  11  23  38  65  92 132 172 211 270 322 379
#     4  10  24  44  66  96 130 166 228 270 328 398
#     4  11  23  43  70  93 131 176 217 275 334 391
#
# _framework density 20.32743
#
# number of rings (size 3 to 8) (size 9 to 14) (size 15 to 20)
#    0.000    1.333    2.667    2.400    1.867    4.267 
#    0.000    1.333    0.000    0.000    0.000    0.000 
#    0.000    0.000    0.000    0.000    0.000    0.000 
#
# Total GULP energy -83532.303769 kJ/mol
# GULP energy per Si atom -5568.820251 kJ/mol
# Density = 2.028116 g / cm^3
# Si number density = 20.327430 Si / 1000 Ang^3
#
#
#
# Elastic Constant Matrix: (Units=GPa)
#
#
# Indices 1 2 3 4 5 6 
#
# 1 99.6899 25.7922 33.0512 2.1408 12.0764 -11.9075
# 2 25.7922 94.1216 8.2923 0.2820 5.3983 -5.5055
# 3 33.0512 8.2923 46.1495 3.2974 9.4031 -7.3572
# 4 2.1408 0.2820 3.2974 27.0448 0.9982 8.1571
# 5 12.0764 5.3983 9.4031 0.9982 19.8033 1.7824
# 6 -11.9075 -5.5055 -7.3572 8.1571 1.7824 29.9142
#
#
#
# Elastic Compliance Matrix: (Units=1/GPa)
#
#
# Indices 1 2 3 4 5 6 
#
# 1 0.014516 -0.002766 -0.008314 -0.001084 -0.004436 0.003784
# 2 -0.002766 0.011520 0.000512 -0.000299 -0.001802 0.001334
# 3 -0.008314 0.000512 0.030911 -0.004629 -0.010076 0.006250
# 4 -0.001084 -0.000299 -0.004629 0.041494 0.002025 -0.013060
# 5 -0.004436 -0.001802 -0.010076 0.002025 0.059154 -0.008652
# 6 0.003784 0.001334 0.006250 -0.013060 -0.008652 0.040795
#
#
# Mechanical properties :
#
#
# Convention : Reuss Voigt Hill
#
# Bulk Modulus (GPa) = 27.92480 41.58138 34.75309
# Shear Modulus (GPa) = 21.60175 26.87413 24.23794
#
# Velocity S-wave (km/s) = 3.26343 3.63996 3.45683
# Velocity P-wave (km/s) = 5.28841 6.17786 5.75036
#
# Compressibility (1/GPa) = 0.03581046
#
# Stress axis : x y z
#
# Youngs Moduli (GPa) = 68.88930 86.80766 32.35057
#
# Poissons Ratio (x) = 0.24014 0.26898
# Poissons Ratio (y) = 0.19057 -0.01658
# Poissons Ratio (z) = 0.57277 -0.04448
#
# Static dielectric constant tensor:
#      x y z
#    x 1.746320 0.002650 -0.000790 
#    y 0.002650 1.709410 -0.020060 
#    z -0.000790 -0.020060 1.751030 
# 
# From -- ./inp_files/78475.got.cif
#   From: 2010.05.17/outbox.cif.g08.bks.cpg/sg2_40_cif.got.tgz:78475.got - 2010.06.03 11:33:40.
