data_PCOD9033193
_publ_section_title
;
Structure prediction by ZEFSAII (Michael W. Deem and Ramdas Pophale) SiO2 
 PCOD9033193
Probable space group: P -1
;
_chemical_formula_sum "Si O2"
_cell_formula_units_Z 14
_cell_length_a 28.478785
_cell_length_b 7.481088
_cell_length_c 14.058037
_cell_angle_alpha 38.081083
_cell_angle_beta 159.818191
_cell_angle_gamma 140.791433
_cell_volume 628.112815
_symmetry_space_group_name_H-M "P -1"
_symmetry_group_IT_number 2
_symmetry_cell_setting 'triclinic'
loop_
_space_group_symop_operation_xyz
x,y,z
-x,-y,-z
loop_
_atom_site_type_symbol
_atom_site_label
_atom_site_fract_x
_atom_site_fract_y
_atom_site_fract_z
Si Si1 0.376788 0.134980 0.159012
Si Si2 0.512294 0.249682 0.837077
Si Si3 0.364811 0.104013 0.929507
Si Si4 0.948649 0.171552 0.744310
Si Si5 0.281132 0.328461 0.489744
Si Si6 0.106167 0.744587 0.888376
Si Si7 0.042149 0.848642 0.434267
O O1 0.373297 0.459468 0.057839
O O2 0.500000 0.000000 0.500000
O O3 0.232469 0.923222 0.993839
O O4 0.407889 0.184069 0.085454
O O5 0.374202 0.372992 0.553053
O O6 0.535092 0.095790 0.845836
O O7 0.500000 0.000000 0.000000
O O8 0.207632 0.934316 0.714799
O O9 0.350907 0.350073 0.718340
O O10 0.006639 0.073936 0.796298
O O11 0.789229 0.017988 0.501232
O O12 0.000871 0.512058 0.723035
O O13 0.000000 0.000000 0.000000
O O14 0.173088 0.548527 0.176078
O O15 0.025503 0.971286 0.692176
O O16 0.000000 0.500000 0.500000
#
# Coordination Sequence:
#
# PCOD9033193 Si02
#       7
#     2   2   2   2   2   2   2
#     4  12  25  44  66 100 133 174 228 271 331 393
#     4  10  22  44  66  95 135 171 219 270 325 398
#     4  10  24  41  67  95 135 175 218 269 334 390
#     4   9  21  40  64  95 129 167 214 267 329 392
#     4   9  20  43  66  99 134 174 223 268 331 405
#     4  11  23  43  67  96 136 172 219 281 329 388
#     4  11  23  41  64  97 131 172 222 271 337 396
#
# _framework density 22.288989000000001
#
# number of rings (size 3 to 8) (size 9 to 14) (size 15 to 20)
#    0.000    1.714    1.429    1.714    0.000   13.714 
#    5.143    2.857    0.000    0.000    0.000    0.000 
#    0.000    0.000    0.000    0.000    0.000    0.000 
#
# Total GULP energy -78054.070807 kJ/mol
# GULP energy per Si atom -5575.290772 kJ/mol
# Density = 2.223826 g / cm^3
# Si number density = 22.288989 Si / 1000 Ang^3
#
#
#
# Elastic Constant Matrix: (Units=GPa)
#
#
# Indices 1 2 3 4 5 6 
#
# 1 123.7883 36.9197 30.3091 7.4206 5.3312 -5.1822
# 2 36.9197 123.4206 14.2471 -6.6895 9.6978 17.8463
# 3 30.3091 14.2471 68.8351 -8.9050 -4.8960 0.1757
# 4 7.4206 -6.6895 -8.9050 28.5086 -3.2373 4.6572
# 5 5.3312 9.6978 -4.8960 -3.2373 44.3236 5.7524
# 6 -5.1822 17.8463 0.1757 4.6572 5.7524 44.9000
#
#
#
# Elastic Compliance Matrix: (Units=1/GPa)
#
#
# Indices 1 2 3 4 5 6 
#
# 1 0.010904 -0.003351 -0.005037 -0.005998 -0.002026 0.003492
# 2 -0.003351 0.010082 -0.000168 0.003842 -0.000934 -0.004672
# 3 -0.005037 -0.000168 0.018009 0.007581 0.003420 -0.001809
# 4 -0.005998 0.003842 0.007581 0.041611 0.004687 -0.007166
# 5 -0.002026 -0.000934 0.003420 0.004687 0.024179 -0.003460
# 6 0.003492 -0.004672 -0.001809 -0.007166 -0.003460 0.025725
#
#
# Mechanical properties :
#
#
# Convention : Reuss Voigt Hill
#
# Bulk Modulus (GPa) = 45.70052 53.22176 49.46114
# Shear Modulus (GPa) = 32.27565 39.18431 35.72998
#
# Velocity S-wave (km/s) = 3.80946 4.19741 4.00813
# Velocity P-wave (km/s) = 6.31644 6.88629 6.60751
#
# Compressibility (1/GPa) = 0.02188159
#
# Stress axis : x y z
#
# Youngs Moduli (GPa) = 91.70929 99.19112 55.52901
#
# Poissons Ratio (x) = 0.33241 0.27968
# Poissons Ratio (y) = 0.30734 0.00935
# Poissons Ratio (z) = 0.46190 0.01671
#
# Static dielectric constant tensor:
#      x y z
#    x 1.863500 0.077300 0.051260 
#    y 0.077300 1.923020 0.137720 
#    z 0.051260 0.137720 2.065210 
# 
# From -- ./inp_files/364045.got.cif
#   From: 2010.05.17/outbox.cif.g08.bks.cpg/sg2_183_cif.got.tgz:364045.got - 2010.06.03 11:33:40.
