data_PCOD9033166
_publ_section_title
;
Structure prediction by ZEFSAII (Michael W. Deem and Ramdas Pophale) SiO2 
 PCOD9033166
Probable space group: P -1
;
_chemical_formula_sum "Si O2"
_cell_formula_units_Z 11
_cell_length_a 7.146070
_cell_length_b 6.455096
_cell_length_c 10.579173
_cell_angle_alpha 113.633032
_cell_angle_beta 80.745253
_cell_angle_gamma 107.376979
_cell_volume 426.198276
_symmetry_space_group_name_H-M "P -1"
_symmetry_group_IT_number 2
_symmetry_cell_setting 'triclinic'
loop_
_space_group_symop_operation_xyz
x,y,z
-x,-y,-z
loop_
_atom_site_type_symbol
_atom_site_label
_atom_site_fract_x
_atom_site_fract_y
_atom_site_fract_z
Si Si1 0.000000 0.500000 0.500000
Si Si2 0.674300 0.146422 0.600436
Si Si3 0.291075 0.057407 0.020592
Si Si4 0.646170 0.724908 0.185316
Si Si5 0.062815 0.924674 0.254580
Si Si6 0.133600 0.575711 0.795992
O O1 0.799972 0.360159 0.559686
O O2 0.893623 0.444149 0.355227
O O3 0.556607 0.220043 0.748174
O O4 0.823344 0.007145 0.609968
O O5 0.500000 0.000000 0.500000
O O6 0.148587 0.826187 0.914784
O O7 0.315558 0.261904 0.965042
O O8 0.191441 0.076211 0.169449
O O9 0.500000 0.000000 0.000000
O O10 0.668965 0.494362 0.196763
O O11 0.834159 0.921197 0.272960
O O12 0.031527 0.642367 0.178503
#
# Coordination Sequence:
#
# PCOD9033166 Si02
#       6
#     1   2   2   2   2   2
#     4  10  22  44  66  90 136 174 212 280 332 370
#     4  11  22  43  68  97 134 171 228 278 322 402
#     4  12  21  40  69  96 134 172 215 277 333 384
#     4  10  23  42  67  95 128 176 224 261 341 396
#     4   9  22  43  62  98 132 169 222 268 331 394
#     4   9  23  42  63  95 132 170 217 273 318 398
#
# _framework density 25.809585999999999
#
# number of rings (size 3 to 8) (size 9 to 14) (size 15 to 20)
#    1.091    0.727    1.818    2.182    0.000    2.182 
#    3.273    3.636    0.000    0.000    0.000    0.000 
#    0.000    0.000    0.000    0.000    0.000    0.000 
#
# Total GULP energy -61241.582488 kJ/mol
# GULP energy per Si atom -5567.416590 kJ/mol
# Density = 2.575084 g / cm^3
# Si number density = 25.809586 Si / 1000 Ang^3
#
#
#
# Elastic Constant Matrix: (Units=GPa)
#
#
# Indices 1 2 3 4 5 6 
#
# 1 122.9905 24.7466 40.1919 -14.3277 11.0167 38.4406
# 2 24.7466 88.4937 45.5791 -16.4827 -8.4503 17.1653
# 3 40.1919 45.5791 143.5368 -39.3647 15.3128 6.0449
# 4 -14.3277 -16.4827 -39.3647 41.7789 13.1996 -9.3673
# 5 11.0167 -8.4503 15.3128 13.1996 46.7005 -6.1207
# 6 38.4406 17.1653 6.0449 -9.3673 -6.1207 44.9804
#
#
#
# Elastic Compliance Matrix: (Units=1/GPa)
#
#
# Indices 1 2 3 4 5 6 
#
# 1 0.012835 -0.000527 -0.002301 0.000873 -0.004035 -0.010826
# 2 -0.000527 0.015227 -0.005481 -0.001771 0.004605 -0.004366
# 3 -0.002301 -0.005481 0.013778 0.013519 -0.008277 0.003895
# 4 0.000873 -0.001771 0.013519 0.042503 -0.016351 0.004739
# 5 -0.004035 0.004605 -0.008277 -0.016351 0.031008 0.003617
# 6 -0.010826 -0.004366 0.003895 0.004739 0.003617 0.034106
#
#
# Mechanical properties :
#
#
# Convention : Reuss Voigt Hill
#
# Bulk Modulus (GPa) = 39.64585 64.00625 51.82605
# Shear Modulus (GPa) = 28.65611 42.99219 35.82415
#
# Velocity S-wave (km/s) = 3.33572 4.08578 3.72965
# Velocity P-wave (km/s) = 5.49820 6.86377 6.21859
#
# Compressibility (1/GPa) = 0.02522332
#
# Stress axis : x y z
#
# Youngs Moduli (GPa) = 77.90920 65.67115 72.57855
#
# Poissons Ratio (x) = 0.03460 0.16700
# Poissons Ratio (y) = 0.04105 0.39781
# Poissons Ratio (z) = 0.17926 0.35995
#
# Static dielectric constant tensor:
#      x y z
#    x 2.023770 -0.050290 0.058750 
#    y -0.050290 2.080670 0.029920 
#    z 0.058750 0.029920 2.006060 
# 
# From -- ./inp_files/146982.got.cif
#   From: 2010.05.17/outbox.cif.g08.bks.cpg/sg2_74_cif.got.tgz:146982.got - 2010.06.03 11:33:40.
