data_PCOD9033255
_publ_section_title
;
Structure prediction by ZEFSAII (Michael W. Deem and Ramdas Pophale) SiO2 
 PCOD9033255
Probable space group: P -1
;
_chemical_formula_sum "Si O2"
_cell_formula_units_Z 16
_cell_length_a 16.805348
_cell_length_b 5.610058
_cell_length_c 9.556911
_cell_angle_alpha 79.592167
_cell_angle_beta 58.709850
_cell_angle_gamma 61.701986
_cell_volume 675.367926
_symmetry_space_group_name_H-M "P -1"
_symmetry_group_IT_number 2
_symmetry_cell_setting 'triclinic'
loop_
_space_group_symop_operation_xyz
x,y,z
-x,-y,-z
loop_
_atom_site_type_symbol
_atom_site_label
_atom_site_fract_x
_atom_site_fract_y
_atom_site_fract_z
Si Si1 0.892399 0.755062 0.874415
Si Si2 0.561214 0.880595 0.815634
Si Si3 0.596313 0.636566 0.281207
Si Si4 0.427820 0.460656 0.398233
Si Si5 0.208662 0.220146 0.308490
Si Si6 0.202302 0.854889 0.581019
Si Si7 0.162392 0.720588 0.937566
Si Si8 0.074003 0.702569 0.521389
O O1 0.801951 0.881377 0.823732
O O2 0.999263 0.646914 0.701005
O O3 0.885592 0.495156 0.979985
O O4 0.879499 0.010497 0.955343
O O5 0.576091 0.606830 0.753149
O O6 0.675690 0.841893 0.750814
O O7 0.484401 0.096514 0.751143
O O8 0.500000 0.000000 0.000000
O O9 0.539016 0.445599 0.332381
O O10 0.597145 0.702302 0.438330
O O11 0.713127 0.478692 0.133723
O O12 0.326661 0.747161 0.489091
O O13 0.126539 0.534244 0.352569
O O14 0.164323 0.118000 0.490763
O O15 0.155688 0.843770 0.774419
O O16 0.172855 0.665677 0.528445
O O17 0.000000 0.000000 0.500000
#
# Coordination Sequence:
#
# PCOD9033255 Si02
#       8
#     2   2   2   2   2   2   2   2
#     4  12  28  50  73 109 149 196 246 312 376 425
#     4  12  25  39  68 108 141 187 234 309 357 431
#     4  10  23  43  69  97 142 196 230 289 358 444
#     4  10  22  44  67 100 139 187 246 282 360 440
#     4  12  26  46  74 104 148 194 252 299 365 451
#     4  11  25  47  75 107 142 197 247 306 357 451
#     4  11  29  48  74 113 154 190 243 312 371 428
#     4  12  26  48  79 104 144 198 250 303 370 444
#
# _framework density 23.690791999999998
#
# number of rings (size 3 to 8) (size 9 to 14) (size 15 to 20)
#    0.000    0.750    3.750    2.250    7.000    2.500 
#    0.000    0.000    0.000    0.000    0.000    0.000 
#    0.000    0.000    0.000    0.000    0.000    0.000 
#
# Total GULP energy -89219.012424 kJ/mol
# GULP energy per Si atom -5576.188276 kJ/mol
# Density = 2.363687 g / cm^3
# Si number density = 23.690792 Si / 1000 Ang^3
#
#
#
# Elastic Constant Matrix: (Units=GPa)
#
#
# Indices 1 2 3 4 5 6 
#
# 1 63.7593 -3.7483 14.6373 9.9989 -9.7627 9.5510
# 2 -3.7483 66.2213 38.2675 -2.2014 5.1400 6.3564
# 3 14.6373 38.2675 117.1308 9.1357 -0.1545 18.0749
# 4 9.9989 -2.2014 9.1357 34.7225 0.8493 5.4605
# 5 -9.7627 5.1400 -0.1545 0.8493 47.1797 -3.8916
# 6 9.5510 6.3564 18.0749 5.4605 -3.8916 32.5049
#
#
#
# Elastic Compliance Matrix: (Units=1/GPa)
#
#
# Indices 1 2 3 4 5 6 
#
# 1 0.017941 0.002176 -0.002101 -0.004010 0.003255 -0.003465
# 2 0.002176 0.019404 -0.006597 0.002609 -0.001850 -0.001425
# 3 -0.002101 -0.006597 0.011789 -0.002244 0.000011 -0.004270
# 4 -0.004010 0.002609 -0.002244 0.031322 -0.001981 -0.003583
# 5 0.003255 -0.001850 0.000011 -0.001981 0.022304 0.002402
# 6 -0.003465 -0.001425 -0.004270 -0.003583 0.002402 0.035325
#
#
# Mechanical properties :
#
#
# Convention : Reuss Voigt Hill
#
# Bulk Modulus (GPa) = 27.70892 38.38049 33.04470
# Shear Modulus (GPa) = 30.64488 36.07842 33.36165
#
# Velocity S-wave (km/s) = 3.60048 3.90665 3.75669
# Velocity P-wave (km/s) = 5.38573 6.04855 5.72674
#
# Compressibility (1/GPa) = 0.03608946
#
# Stress axis : x y z
#
# Youngs Moduli (GPa) = 55.73937 51.53705 84.82238
#
# Poissons Ratio (x) = -0.11217 0.17823
# Poissons Ratio (y) = -0.12131 0.55959
# Poissons Ratio (z) = 0.11712 0.34000
#
# Static dielectric constant tensor:
#      x y z
#    x 1.972880 0.095170 0.056670 
#    y 0.095170 2.047380 -0.048340 
#    z 0.056670 -0.048340 1.915950 
# 
# From -- ./inp_files/279179.got.cif
#   From: 2010.05.17/outbox.cif.g08.bks.cpg/sg2_140_cif.got.tgz:279179.got - 2010.06.03 11:33:40.
