data_PCOD9033756
_publ_section_title
;
Structure prediction by ZEFSAII (Michael W. Deem and Ramdas Pophale) SiO2 
 PCOD9033756
Probable space group: P -1
;
_chemical_formula_sum "Si O2"
_cell_formula_units_Z 10
_cell_length_a 7.479230
_cell_length_b 9.589555
_cell_length_c 10.825219
_cell_angle_alpha 140.721054
_cell_angle_beta 124.723400
_cell_angle_gamma 70.729541
_cell_volume 394.723756
_symmetry_space_group_name_H-M "P -1"
_symmetry_group_IT_number 2
_symmetry_cell_setting 'triclinic'
loop_
_space_group_symop_operation_xyz
x,y,z
-x,-y,-z
loop_
_atom_site_type_symbol
_atom_site_label
_atom_site_fract_x
_atom_site_fract_y
_atom_site_fract_z
Si Si1 0.937213 0.466900 0.196785
Si Si2 0.773079 0.167518 0.279150
Si Si3 0.321054 0.941717 0.281190
Si Si4 0.307835 0.175440 0.188771
Si Si5 0.927618 0.830913 0.244583
O O1 0.010267 0.655842 0.462925
O O2 0.136554 0.332165 0.196855
O O3 0.929955 0.600618 0.156672
O O4 0.703897 0.285815 0.967405
O O5 0.552423 0.261063 0.284459
O O6 0.727141 0.931631 0.178785
O O7 0.787833 0.070235 0.081812
O O8 0.100573 0.884851 0.238614
O O9 0.500000 0.000000 0.500000
O O10 0.333038 0.136595 0.318146
O O11 0.000000 0.000000 0.500000
#
# Coordination Sequence:
#
# PCOD9033756 Si02
#       5
#     2   2   2   2   2
#     4  11  23  44  76  94 135 184 220 273 343 396
#     4  10  23  44  72 102 134 173 229 271 341 402
#     4  12  25  43  67 101 140 176 226 279 332 396
#     4  11  24  45  71 100 138 172 225 286 325 401
#     4  10  22  44  69  97 134 176 223 272 332 406
#
# _framework density 25.334171999999999
#
# number of rings (size 3 to 8) (size 9 to 14) (size 15 to 20)
#    0.000    1.200    2.000    4.200    0.000    0.800 
#    7.200    5.000    0.000    0.000    0.000    0.000 
#    0.000    0.000    0.000    0.000    0.000    0.000 
#
# Total GULP energy -55729.941958 kJ/mol
# GULP energy per Si atom -5572.994196 kJ/mol
# Density = 2.527651 g / cm^3
# Si number density = 25.334172 Si / 1000 Ang^3
#
#
#
# Elastic Constant Matrix: (Units=GPa)
#
#
# Indices 1 2 3 4 5 6 
#
# 1 35.9837 26.6554 9.2079 9.0682 -8.7439 -1.4893
# 2 26.6554 193.7485 39.1383 -15.8090 -11.0244 -7.0975
# 3 9.2079 39.1383 178.5867 -24.4526 -10.5881 -5.7336
# 4 9.0682 -15.8090 -24.4526 44.6007 -1.3726 -6.5838
# 5 -8.7439 -11.0244 -10.5881 -1.3726 33.9854 -9.9437
# 6 -1.4893 -7.0975 -5.7336 -6.5838 -9.9437 29.9911
#
#
#
# Elastic Compliance Matrix: (Units=1/GPa)
#
#
# Indices 1 2 3 4 5 6 
#
# 1 0.036079 -0.005016 -0.001677 -0.009760 0.006860 0.000416
# 2 -0.005016 0.006405 -0.000514 0.003408 0.001468 0.002403
# 3 -0.001677 -0.000514 0.006621 0.004280 0.002461 0.002817
# 4 -0.009760 0.003408 0.004280 0.029375 0.003693 0.008813
# 5 0.006860 0.001468 0.002461 0.003693 0.036720 0.014144
# 6 0.000416 0.002403 0.002817 0.008813 0.014144 0.041095
#
#
# Mechanical properties :
#
#
# Convention : Reuss Voigt Hill
#
# Bulk Modulus (GPa) = 28.82629 62.03578 45.43104
# Shear Modulus (GPa) = 27.43138 43.93659 35.68398
#
# Velocity S-wave (km/s) = 3.29413 4.16899 3.75711
# Velocity P-wave (km/s) = 5.08641 6.90754 6.06571
#
# Compressibility (1/GPa) = 0.03469055
#
# Stress axis : x y z
#
# Youngs Moduli (GPa) = 27.71697 156.13116 151.03140
#
# Poissons Ratio (x) = 0.78309 0.25333
# Poissons Ratio (y) = 0.13902 0.07767
# Poissons Ratio (z) = 0.04649 0.08029
#
# Static dielectric constant tensor:
#      x y z
#    x 2.068360 0.063920 0.058800 
#    y 0.063920 3.155550 0.567990 
#    z 0.058800 0.567990 2.416870 
# 
# From -- ./inp_files/148406.got.cif
#   From: 2010.05.17/outbox.cif.g08.bks.cpg/sg2_75_cif.got.tgz:148406.got - 2010.06.03 11:33:40.
