data_PCOD9033906
_publ_section_title
;
Structure prediction by ZEFSAII (Michael W. Deem and Ramdas Pophale) SiO2 
 PCOD9033906
Probable space group: P -1
;
_chemical_formula_sum "Si O2"
_cell_formula_units_Z 15
_cell_length_a 4.868950
_cell_length_b 5.485671
_cell_length_c 23.180438
_cell_angle_alpha 78.294629
_cell_angle_beta 117.598081
_cell_angle_gamma 97.989377
_cell_volume 536.557334
_symmetry_space_group_name_H-M "P -1"
_symmetry_group_IT_number 2
_symmetry_cell_setting 'triclinic'
loop_
_space_group_symop_operation_xyz
x,y,z
-x,-y,-z
loop_
_atom_site_type_symbol
_atom_site_label
_atom_site_fract_x
_atom_site_fract_y
_atom_site_fract_z
Si Si1 0.733691 0.723913 0.924774
Si Si2 0.210428 0.533454 0.744044
Si Si3 0.000000 0.000000 0.500000
Si Si4 0.815175 0.835447 0.613007
Si Si5 0.360094 0.821952 0.045406
Si Si6 0.692809 0.608054 0.432699
Si Si7 0.846736 0.695942 0.808095
Si Si8 0.337156 0.872809 0.300192
O O1 0.532985 0.462227 0.926545
O O2 0.904636 0.705479 0.880962
O O3 0.586429 0.994431 0.903571
O O4 0.998127 0.755133 0.998503
O O5 0.113390 0.692315 0.671515
O O6 0.115216 0.664510 0.789108
O O7 0.973502 0.297889 0.729307
O O8 0.571455 0.483764 0.781553
O O9 0.067892 0.004208 0.437513
O O10 0.329726 0.162088 0.537122
O O11 0.554106 0.625332 0.578466
O O12 0.718550 0.963837 0.656116
O O13 0.500000 0.000000 0.000000
O O14 0.620891 0.706734 0.356024
O O15 0.000000 0.500000 0.500000
O O16 0.659372 0.938916 0.761265
#
# Coordination Sequence:
#
# PCOD9033906 Si02
#       8
#     2   2   1   2   2   2   2   2
#     4  10  24  41  71 111 151 199 264 303 381 446
#     4  10  25  46  69  99 140 181 240 299 368 434
#     4  12  24  40  66  90 126 164 220 280 358 432
#     4  10  24  44  64  96 128 177 225 293 361 447
#     4  10  22  44  70 109 159 203 246 317 374 446
#     4  11  24  41  64  95 126 168 223 285 360 443
#     4  11  25  45  73 106 138 191 249 301 361 445
#     4  10  24  46  68  91 139 180 233 302 374 430
#
# _framework density 27.956005999999999
#
# number of rings (size 3 to 8) (size 9 to 14) (size 15 to 20)
#    0.000    1.600    0.000    2.400    3.733   12.800 
#    0.000    1.333    0.000    0.000    0.000    0.000 
#    0.000    0.000    0.000    0.000    0.000    0.000 
#
# Total GULP energy -83595.469354 kJ/mol
# GULP energy per Si atom -5573.031290 kJ/mol
# Density = 2.789238 g / cm^3
# Si number density = 27.956006 Si / 1000 Ang^3
#
#
#
# Elastic Constant Matrix: (Units=GPa)
#
#
# Indices 1 2 3 4 5 6 
#
# 1 124.7497 29.2183 29.3065 -4.9312 -26.8099 2.5077
# 2 29.2183 157.4021 43.5660 2.5099 -19.3402 0.0927
# 3 29.3065 43.5660 108.9254 -10.0265 -17.2375 -0.9953
# 4 -4.9312 2.5099 -10.0265 42.8196 6.5902 -8.1842
# 5 -26.8099 -19.3402 -17.2375 6.5902 45.5807 -0.5082
# 6 2.5077 0.0927 -0.9953 -8.1842 -0.5082 27.9003
#
#
#
# Elastic Compliance Matrix: (Units=1/GPa)
#
#
# Indices 1 2 3 4 5 6 
#
# 1 0.009589 -0.000770 -0.001540 -0.000104 0.004737 -0.000859
# 2 -0.000770 0.007486 -0.002624 -0.001530 0.001948 -0.000463
# 3 -0.001540 -0.002624 0.011186 0.002565 0.001855 0.001332
# 4 -0.000104 -0.001530 0.002565 0.026026 -0.003418 0.007678
# 5 0.004737 0.001948 0.001855 -0.003418 0.026738 -0.000882
# 6 -0.000859 -0.000463 0.001332 0.007678 -0.000882 0.038204
#
#
# Mechanical properties :
#
#
# Convention : Reuss Voigt Hill
#
# Bulk Modulus (GPa) = 54.36413 66.13989 60.25201
# Shear Modulus (GPa) = 36.97456 42.52586 39.75021
#
# Velocity S-wave (km/s) = 3.64070 3.90445 3.77488
# Velocity P-wave (km/s) = 6.09602 6.63598 6.37172
#
# Compressibility (1/GPa) = 0.01839448
#
# Stress axis : x y z
#
# Youngs Moduli (GPa) = 104.28388 133.57799 89.39496
#
# Poissons Ratio (x) = 0.10280 0.13767
# Poissons Ratio (y) = 0.08026 0.23458
# Poissons Ratio (z) = 0.16060 0.35051
#
# Static dielectric constant tensor:
#      x y z
#    x 1.906730 -0.131040 -0.162940 
#    y -0.131040 1.609160 0.111290 
#    z -0.162940 0.111290 1.928460 
# 
# From -- ./inp_files/614707.got.cif
#   From: 2010.05.17/outbox.cif.g08.bks.cpg/sg2_308_cif.got.tgz:614707.got - 2010.06.03 11:33:40.
