data_PCOD9033405
_publ_section_title
;
Structure prediction by ZEFSAII (Michael W. Deem and Ramdas Pophale) SiO2 
 PCOD9033405
Probable space group: P -1
;
_chemical_formula_sum "Si O2"
_cell_formula_units_Z 14
_cell_length_a 8.965129
_cell_length_b 18.842675
_cell_length_c 16.741399
_cell_angle_alpha 19.680207
_cell_angle_beta 137.785249
_cell_angle_gamma 129.085956
_cell_volume 611.342059
_symmetry_space_group_name_H-M "P -1"
_symmetry_group_IT_number 2
_symmetry_cell_setting 'triclinic'
loop_
_space_group_symop_operation_xyz
x,y,z
-x,-y,-z
loop_
_atom_site_type_symbol
_atom_site_label
_atom_site_fract_x
_atom_site_fract_y
_atom_site_fract_z
Si Si1 0.345653 0.937885 0.852913
Si Si2 0.593177 0.703865 0.342483
Si Si3 0.552539 0.173190 0.566352
Si Si4 0.470154 0.133976 0.263180
Si Si5 0.123742 0.598616 0.628558
Si Si6 0.868456 0.320990 0.269938
Si Si7 0.246299 0.505282 0.205694
O O1 0.548134 0.002487 0.816651
O O2 0.411548 0.895603 0.017334
O O3 0.309416 0.723498 0.022313
O O4 0.093502 0.115135 0.558773
O O5 0.500000 0.500000 0.500000
O O6 0.638189 0.665039 0.495863
O O7 0.846607 0.667555 0.443375
O O8 0.769302 0.262812 0.537263
O O9 0.356309 0.389577 0.290785
O O10 0.499477 0.046004 0.603159
O O11 0.659048 0.268563 0.197679
O O12 0.500000 0.000000 0.500000
O O13 0.231021 0.332977 0.946043
O O14 0.189164 0.659785 0.679066
O O15 0.972971 0.524586 0.078663
#
# Coordination Sequence:
#
# PCOD9033405 Si02
#       7
#     2   2   2   2   2   2   2
#     4  10  22  44  67  99 130 168 214 259 325 382
#     4   9  21  42  73  92 127 171 212 265 316 385
#     4  11  24  41  64  99 133 169 211 267 321 383
#     4  12  26  42  66  94 131 172 218 266 321 379
#     4  11  24  43  65  99 128 168 218 267 319 378
#     4  10  23  39  69  94 124 172 217 262 311 382
#     4   9  21  41  65  95 133 166 213 263 314 377
#
# _framework density 22.900438000000001
#
# number of rings (size 3 to 8) (size 9 to 14) (size 15 to 20)
#    0.000    1.714    1.429    1.286    6.000    8.000 
#    0.000   13.571    0.000    0.000    0.000    0.000 
#    0.000    0.000    0.000    0.000    0.000    0.000 
#
# Total GULP energy -78142.909569 kJ/mol
# GULP energy per Si atom -5581.636398 kJ/mol
# Density = 2.284832 g / cm^3
# Si number density = 22.900438 Si / 1000 Ang^3
#
#
#
# Elastic Constant Matrix: (Units=GPa)
#
#
# Indices 1 2 3 4 5 6 
#
# 1 123.2604 31.6282 21.2716 -11.4483 -13.0002 7.4321
# 2 31.6282 91.6451 2.5645 -9.9769 -4.9575 -4.3126
# 3 21.2716 2.5645 82.0036 -10.0390 -9.0898 4.3083
# 4 -11.4483 -9.9769 -10.0390 36.5600 6.1555 1.5783
# 5 -13.0002 -4.9575 -9.0898 6.1555 36.6934 -9.0340
# 6 7.4321 -4.3126 4.3083 1.5783 -9.0340 49.5085
#
#
#
# Elastic Compliance Matrix: (Units=1/GPa)
#
#
# Indices 1 2 3 4 5 6 
#
# 1 0.009650 -0.003078 -0.001955 0.001363 0.001988 -0.001227
# 2 -0.003078 0.012327 0.000707 0.002407 0.000723 0.001529
# 3 -0.001955 0.000707 0.013293 0.002902 0.002082 -0.000514
# 4 0.001363 0.002407 0.002902 0.029986 -0.003978 -0.001929
# 5 0.001988 0.000723 0.002082 -0.003978 0.030539 0.005283
# 6 -0.001227 0.001529 -0.000514 -0.001929 0.005283 0.021586
#
#
# Mechanical properties :
#
#
# Convention : Reuss Voigt Hill
#
# Bulk Modulus (GPa) = 37.56716 45.31532 41.44124
# Shear Modulus (GPa) = 37.06301 40.64870 38.85585
#
# Velocity S-wave (km/s) = 4.02735 4.21767 4.12361
# Velocity P-wave (km/s) = 6.16978 6.59918 6.38809
#
# Compressibility (1/GPa) = 0.02661899
#
# Stress axis : x y z
#
# Youngs Moduli (GPa) = 103.62329 81.12216 75.22868
#
# Poissons Ratio (x) = 0.24966 0.14709
# Poissons Ratio (y) = 0.31891 -0.05320
# Poissons Ratio (z) = 0.20261 -0.05737
#
# Static dielectric constant tensor:
#      x y z
#    x 1.864560 -0.002880 -0.050690 
#    y -0.002880 1.910570 -0.045530 
#    z -0.050690 -0.045530 1.946640 
# 
# From -- ./inp_files/562589.got.cif
#   From: 2010.05.17/outbox.cif.g08.bks.cpg/sg2_282_cif.got.tgz:562589.got - 2010.06.03 11:33:40.
