data_PCOD9033822
_publ_section_title
;
Structure prediction by ZEFSAII (Michael W. Deem and Ramdas Pophale) SiO2 
 PCOD9033822
Probable space group: P -1
;
_chemical_formula_sum "Si O2"
_cell_formula_units_Z 16
_cell_length_a 8.999859
_cell_length_b 18.014667
_cell_length_c 8.683415
_cell_angle_alpha 43.192670
_cell_angle_beta 51.883637
_cell_angle_gamma 64.862758
_cell_volume 757.288005
_symmetry_space_group_name_H-M "P -1"
_symmetry_group_IT_number 2
_symmetry_cell_setting 'triclinic'
loop_
_space_group_symop_operation_xyz
x,y,z
-x,-y,-z
loop_
_atom_site_type_symbol
_atom_site_label
_atom_site_fract_x
_atom_site_fract_y
_atom_site_fract_z
Si Si1 0.060655 0.390891 0.207479
Si Si2 0.456148 0.496589 0.715675
Si Si3 0.656309 0.039796 0.965605
Si Si4 0.717403 0.267906 0.479912
Si Si5 0.933726 0.987219 0.385823
Si Si6 0.271251 0.791670 0.795638
Si Si7 0.620738 0.904862 0.503455
Si Si8 0.132622 0.586594 0.368277
O O1 0.936136 0.297288 0.340456
O O2 0.966000 0.391114 0.437648
O O3 0.287602 0.410573 0.011361
O O4 0.000000 0.500000 0.000000
O O5 0.500000 0.500000 0.500000
O O6 0.392053 0.619003 0.612974
O O7 0.658594 0.460922 0.698437
O O8 0.634894 0.171013 0.791948
O O9 0.868919 0.030909 0.789807
O O10 0.500000 0.000000 0.000000
O O11 0.658293 0.957050 0.232415
O O12 0.710616 0.223105 0.377329
O O13 0.833381 0.100126 0.256073
O O14 0.787622 0.899572 0.529547
O O15 0.000000 0.000000 0.500000
O O16 0.480160 0.801615 0.721859
O O17 0.149680 0.694627 0.094456
O O18 0.500000 0.000000 0.500000
O O19 0.000000 0.500000 0.500000
#
# Coordination Sequence:
#
# PCOD9033822 Si02
#       8
#     2   2   2   2   2   2   2   2
#     4  10  22  44  70 101 139 176 240 292 341 427
#     4  11  24  46  73 103 137 186 235 289 357 420
#     4  12  23  44  68 104 142 184 231 291 348 423
#     4  11  23  43  74 100 142 184 235 288 360 422
#     4  11  23  46  70  99 140 188 233 287 354 416
#     4  11  25  46  68 104 138 183 233 292 360 414
#     4  10  23  43  68  99 143 176 235 292 339 422
#     4  12  26  46  71 101 143 182 232 301 353 417
#
# _framework density 21.128025000000001
#
# number of rings (size 3 to 8) (size 9 to 14) (size 15 to 20)
#    0.000    1.000    5.000    2.625    3.500    4.000 
#    2.250    0.000    0.000    0.000    0.000    0.000 
#    0.000    0.000    0.000    0.000    0.000    0.000 
#
# Total GULP energy -89079.313110 kJ/mol
# GULP energy per Si atom -5567.457069 kJ/mol
# Density = 2.107994 g / cm^3
# Si number density = 21.128025 Si / 1000 Ang^3
#
#
#
# Elastic Constant Matrix: (Units=GPa)
#
#
# Indices 1 2 3 4 5 6 
#
# 1 142.5849 28.2876 32.5706 -5.7567 -42.0325 10.6350
# 2 28.2876 72.0470 6.8635 -6.5972 -16.8905 -3.5517
# 3 32.5706 6.8635 92.3093 -13.1331 -22.1757 11.5514
# 4 -5.7567 -6.5972 -13.1331 43.3878 -1.8185 -4.9494
# 5 -42.0325 -16.8905 -22.1757 -1.8185 44.8054 -3.9073
# 6 10.6350 -3.5517 11.5514 -4.9494 -3.9073 43.8987
#
#
#
# Elastic Compliance Matrix: (Units=1/GPa)
#
#
# Indices 1 2 3 4 5 6 
#
# 1 0.010234 -0.001985 -0.001190 0.000867 0.008167 -0.001502
# 2 -0.001985 0.016121 0.000809 0.002906 0.004938 0.002340
# 3 -0.001190 0.000809 0.013438 0.004024 0.005810 -0.002212
# 4 0.000867 0.002906 0.004024 0.025297 0.005125 0.002275
# 5 0.008167 0.004938 0.005810 0.005125 0.034976 0.000583
# 6 -0.001502 0.002340 -0.002212 0.002275 0.000583 0.024223
#
#
# Mechanical properties :
#
#
# Convention : Reuss Voigt Hill
#
# Bulk Modulus (GPa) = 28.52215 49.15385 38.83800
# Shear Modulus (GPa) = 35.53461 42.36634 38.95047
#
# Velocity S-wave (km/s) = 4.10551 4.48283 4.29831
# Velocity P-wave (km/s) = 6.00022 7.07881 6.56171
#
# Compressibility (1/GPa) = 0.03506048
#
# Stress axis : x y z
#
# Youngs Moduli (GPa) = 97.71739 62.03081 74.41700
#
# Poissons Ratio (x) = 0.12310 0.08855
# Poissons Ratio (y) = 0.19393 -0.06017
# Poissons Ratio (z) = 0.11628 -0.05015
#
# Static dielectric constant tensor:
#      x y z
#    x 1.824510 -0.008010 -0.027570 
#    y -0.008010 1.620730 -0.030670 
#    z -0.027570 -0.030670 1.767730 
# 
# From -- ./inp_files/214256.got.cif
#   From: 2010.05.17/outbox.cif.g08.bks.cpg/sg2_108_cif.got.tgz:214256.got - 2010.06.03 11:33:40.
