data_PCOD9033377
_publ_section_title
;
Structure prediction by ZEFSAII (Michael W. Deem and Ramdas Pophale) SiO2 
 PCOD9033377
Probable space group: P -1
;
_chemical_formula_sum "Si O2"
_cell_formula_units_Z 15
_cell_length_a 7.876532
_cell_length_b 16.055228
_cell_length_c 14.915679
_cell_angle_alpha 151.491788
_cell_angle_beta 73.231917
_cell_angle_gamma 85.827363
_cell_volume 603.540951
_symmetry_space_group_name_H-M "P -1"
_symmetry_group_IT_number 2
_symmetry_cell_setting 'triclinic'
loop_
_space_group_symop_operation_xyz
x,y,z
-x,-y,-z
loop_
_atom_site_type_symbol
_atom_site_label
_atom_site_fract_x
_atom_site_fract_y
_atom_site_fract_z
Si Si1 0.688869 0.265930 0.518937
Si Si2 0.134908 0.050486 0.968555
Si Si3 0.045631 0.046319 0.658821
Si Si4 0.348432 0.034207 0.469538
Si Si5 0.856284 0.533732 0.214707
Si Si6 0.318507 0.188275 0.322081
Si Si7 0.476468 0.768507 0.027210
Si Si8 0.000000 0.500000 0.500000
O O1 0.422370 0.356999 0.639479
O O2 0.876505 0.020035 0.197226
O O3 0.666083 0.482843 0.698381
O O4 0.763564 0.209451 0.557575
O O5 0.434746 0.860419 0.764547
O O6 0.005653 0.327299 0.266158
O O7 0.000000 0.000000 0.000000
O O8 0.776517 0.153161 0.827152
O O9 0.170796 0.003643 0.504431
O O10 0.034767 0.248565 0.894610
O O11 0.165299 0.304490 0.705917
O O12 0.500000 0.000000 0.500000
O O13 0.530384 0.841931 0.178536
O O14 0.874518 0.610548 0.380999
O O15 0.186896 0.263701 0.318367
O O16 0.425197 0.932256 0.106801
#
# Coordination Sequence:
#
# PCOD9033377 Si02
#       8
#     2   2   2   2   2   2   2   1
#     4  10  22  44  67  97 137 185 233 287 350 419
#     4  11  27  46  73 106 138 183 237 296 362 429
#     4  11  21  39  67  97 134 183 236 278 347 413
#     4  11  21  41  64 100 139 182 235 289 345 409
#     4   9  20  42  65  95 137 185 227 290 342 418
#     4  10  24  48  70 102 143 182 238 289 367 426
#     4  10  25  43  68  97 141 185 228 291 348 425
#     4  12  26  48  74 106 140 180 236 302 358 424
#
# _framework density 24.853325999999999
#
# number of rings (size 3 to 8) (size 9 to 14) (size 15 to 20)
#    0.000    1.600    1.333    2.000    3.733    1.067 
#    7.200    0.000    0.000    0.000    0.000    0.000 
#    0.000    0.000    0.000    0.000    0.000    0.000 
#
# Total GULP energy -83642.360752 kJ/mol
# GULP energy per Si atom -5576.157383 kJ/mol
# Density = 2.479676 g / cm^3
# Si number density = 24.853326 Si / 1000 Ang^3
#
#
#
# Elastic Constant Matrix: (Units=GPa)
#
#
# Indices 1 2 3 4 5 6 
#
# 1 97.8272 42.3879 0.1309 -3.0465 -2.0301 13.2108
# 2 42.3879 166.4926 26.7864 10.8250 3.2369 -4.2891
# 3 0.1309 26.7864 93.2805 -0.0323 20.2925 8.3395
# 4 -3.0465 10.8250 -0.0323 27.9199 7.8128 -2.5543
# 5 -2.0301 3.2369 20.2925 7.8128 24.3702 -10.3664
# 6 13.2108 -4.2891 8.3395 -2.5543 -10.3664 37.4111
#
#
#
# Elastic Compliance Matrix: (Units=1/GPa)
#
#
# Indices 1 2 3 4 5 6 
#
# 1 0.012894 -0.004049 0.002773 0.003690 -0.004727 -0.006693
# 2 -0.004049 0.007946 -0.003741 -0.004533 0.004981 0.004246
# 3 0.002773 -0.003741 0.017037 0.006395 -0.019880 -0.010278
# 4 0.003690 -0.004533 0.006395 0.043269 -0.020873 -0.006078
# 5 -0.004727 0.004981 -0.019880 -0.020873 0.074202 0.025808
# 6 -0.006693 0.004246 -0.010278 -0.006078 0.025808 0.038608
#
#
# Mechanical properties :
#
#
# Convention : Reuss Voigt Hill
#
# Bulk Modulus (GPa) = 35.91747 55.13453 45.52600
# Shear Modulus (GPa) = 23.44439 37.15990 30.30215
#
# Velocity S-wave (km/s) = 3.07467 3.87094 3.49555
# Velocity P-wave (km/s) = 5.20461 6.49700 5.88638
#
# Compressibility (1/GPa) = 0.02784160
#
# Stress axis : x y z
#
# Youngs Moduli (GPa) = 77.55799 125.84544 58.69696
#
# Poissons Ratio (x) = 0.50957 -0.16275
# Poissons Ratio (y) = 0.31405 0.21958
# Poissons Ratio (z) = -0.21504 0.47078
#
# Static dielectric constant tensor:
#      x y z
#    x 1.972670 -0.001590 0.023790 
#    y -0.001590 1.976100 -0.049530 
#    z 0.023790 -0.049530 1.933070 
# 
# From -- ./inp_files/505741.got.cif
#   From: 2010.05.17/outbox.cif.g08.bks.cpg/sg2_253_cif.got.tgz:505741.got - 2010.06.03 11:33:40.
