data_PCOD9033225
_publ_section_title
;
Structure prediction by ZEFSAII (Michael W. Deem and Ramdas Pophale) SiO2 
 PCOD9033225
Probable space group: P -1
;
_chemical_formula_sum "Si O2"
_cell_formula_units_Z 16
_cell_length_a 9.884373
_cell_length_b 12.134407
_cell_length_c 8.274279
_cell_angle_alpha 115.979734
_cell_angle_beta 98.642146
_cell_angle_gamma 55.947073
_cell_volume 733.115112
_symmetry_space_group_name_H-M "P -1"
_symmetry_group_IT_number 2
_symmetry_cell_setting 'triclinic'
loop_
_space_group_symop_operation_xyz
x,y,z
-x,-y,-z
loop_
_atom_site_type_symbol
_atom_site_label
_atom_site_fract_x
_atom_site_fract_y
_atom_site_fract_z
Si Si1 0.828621 0.026953 0.040319
Si Si2 0.819078 0.094447 0.451652
Si Si3 0.709926 0.389221 0.763006
Si Si4 0.489453 0.139520 0.511710
Si Si5 0.136458 0.459011 0.259662
Si Si6 0.340538 0.134020 0.140992
Si Si7 0.663632 0.341037 0.086027
Si Si8 0.212110 0.466486 0.657253
O O1 0.825105 0.031968 0.236195
O O2 0.695004 0.190684 0.060519
O O3 0.788524 0.912915 0.891854
O O4 0.000000 0.000000 0.000000
O O5 0.754021 0.266916 0.556586
O O6 0.675603 0.094436 0.518689
O O7 0.000000 0.000000 0.500000
O O8 0.829311 0.444393 0.788993
O O9 0.524093 0.531657 0.823646
O O10 0.717352 0.320701 0.894892
O O11 0.411026 0.152947 0.331009
O O12 0.368577 0.311089 0.655019
O O13 0.500000 0.000000 0.500000
O O14 0.250886 0.286485 0.125640
O O15 0.188142 0.466757 0.459221
O O16 0.948861 0.509290 0.271508
O O17 0.500000 0.000000 0.000000
O O18 0.767092 0.400311 0.220008
#
# Coordination Sequence:
#
# PCOD9033225 Si02
#       8
#     2   2   2   2   2   2   2   2
#     4  12  26  44  72 101 138 180 224 286 334 412
#     4  12  27  46  68 101 137 180 232 280 345 405
#     4  11  25  42  68 100 136 175 223 279 338 401
#     4  11  26  43  69  97 138 183 221 283 338 409
#     4  10  23  41  68  99 133 172 221 284 329 409
#     4  11  23  44  68 101 134 180 229 270 346 401
#     4  11  24  43  68  99 134 178 225 275 335 403
#     4  10  22  44  66  98 129 175 230 268 344 396
#
# _framework density 21.824674999999999
#
# number of rings (size 3 to 8) (size 9 to 14) (size 15 to 20)
#    0.000    1.000    2.500    3.000    7.000    3.500 
#    0.000    0.000    0.000    0.000    0.000    0.000 
#    0.000    0.000    0.000    0.000    0.000    0.000 
#
# Total GULP energy -89420.734226 kJ/mol
# GULP energy per Si atom -5588.795889 kJ/mol
# Density = 2.177500 g / cm^3
# Si number density = 21.824675 Si / 1000 Ang^3
#
#
#
# Elastic Constant Matrix: (Units=GPa)
#
#
# Indices 1 2 3 4 5 6 
#
# 1 120.5530 10.8335 9.3554 1.4407 3.4244 3.1189
# 2 10.8335 64.9928 -7.6603 1.5684 -0.3976 2.8844
# 3 9.3554 -7.6603 33.4100 13.4654 7.3846 -9.3494
# 4 1.4407 1.5684 13.4654 24.6998 2.6312 8.5751
# 5 3.4244 -0.3976 7.3846 2.6312 31.8061 10.2869
# 6 3.1189 2.8844 -9.3494 8.5751 10.2869 32.1405
#
#
#
# Elastic Compliance Matrix: (Units=1/GPa)
#
#
# Indices 1 2 3 4 5 6 
#
# 1 0.008977 -0.002133 -0.006132 0.004206 0.001386 -0.004029
# 2 -0.002133 0.016750 0.008700 -0.006746 -0.002236 0.003750
# 3 -0.006132 0.008700 0.071978 -0.051529 -0.025475 0.042654
# 4 0.004206 -0.006746 -0.051529 0.081533 0.018407 -0.042436
# 5 0.001386 -0.002236 -0.025475 0.018407 0.044194 -0.026400
# 6 -0.004029 0.003750 0.042654 -0.042436 -0.026400 0.063347
#
#
# Mechanical properties :
#
#
# Convention : Reuss Voigt Hill
#
# Bulk Modulus (GPa) = 10.14448 27.11255 18.62851
# Shear Modulus (GPa) = 15.68546 31.49110 23.58828
#
# Velocity S-wave (km/s) = 2.68377 3.80269 3.29113
# Velocity P-wave (km/s) = 3.77648 5.63298 4.79543
#
# Compressibility (1/GPa) = 0.09857577
#
# Stress axis : x y z
#
# Youngs Moduli (GPa) = 111.39237 59.70124 13.89318
#
# Poissons Ratio (x) = 0.12736 0.08519
# Poissons Ratio (y) = 0.23763 -0.12088
# Poissons Ratio (z) = 0.68302 -0.51942
#
# Static dielectric constant tensor:
#      x y z
#    x 1.759120 -0.009790 -0.004080 
#    y -0.009790 1.815320 0.018820 
#    z -0.004080 0.018820 1.820130 
# 
# From -- ./inp_files/190189.got.cif
#   From: 2010.05.17/outbox.cif.g08.bks.cpg/sg2_96_cif.got.tgz:190189.got - 2010.06.03 11:33:40.
