data_PCOD9033474
_publ_section_title
;
Structure prediction by ZEFSAII (Michael W. Deem and Ramdas Pophale) SiO2 
 PCOD9033474
Probable space group: P -1
;
_chemical_formula_sum "Si O2"
_cell_formula_units_Z 14
_cell_length_a 12.987633
_cell_length_b 19.886497
_cell_length_c 11.086387
_cell_angle_alpha 144.909959
_cell_angle_beta 148.199757
_cell_angle_gamma 22.572328
_cell_volume 571.202303
_symmetry_space_group_name_H-M "P -1"
_symmetry_group_IT_number 2
_symmetry_cell_setting 'triclinic'
loop_
_space_group_symop_operation_xyz
x,y,z
-x,-y,-z
loop_
_atom_site_type_symbol
_atom_site_label
_atom_site_fract_x
_atom_site_fract_y
_atom_site_fract_z
Si Si1 0.779488 0.953461 0.744812
Si Si2 0.246123 0.117905 0.821916
Si Si3 0.254793 0.387989 0.227386
Si Si4 0.438232 0.619046 0.969208
Si Si5 0.254504 0.750158 0.308681
Si Si6 0.735648 0.086993 0.644789
Si Si7 0.594546 0.682922 0.984175
O O1 0.080611 0.762884 0.818186
O O2 0.500000 0.000000 0.500000
O O3 0.860532 0.983631 0.744443
O O4 0.638985 0.108383 0.925814
O O5 0.964572 0.190013 0.715890
O O6 0.342485 0.995725 0.625595
O O7 0.204741 0.272941 0.981956
O O8 0.500000 0.000000 0.000000
O O9 0.462101 0.317360 0.444035
O O10 0.402327 0.368033 0.222414
O O11 0.922383 0.585396 0.198579
O O12 0.628446 0.418649 0.890174
O O13 0.526227 0.615725 0.915985
O O14 0.496479 0.709771 0.239726
O O15 0.112861 0.903496 0.296697
#
# Coordination Sequence:
#
# PCOD9033474 Si02
#       7
#     2   2   2   2   2   2   2
#     4  11  24  44  71 102 145 186 244 286 359 425
#     4  12  26  45  69 103 143 188 238 287 359 425
#     4  11  24  44  72 105 144 182 242 293 357 416
#     4  11  25  46  72 106 144 187 242 288 361 423
#     4  12  26  45  72 105 146 184 239 295 356 420
#     4  11  25  45  72 100 142 189 231 297 356 415
#     4  10  22  44  68 103 142 185 234 296 347 427
#
# _framework density 24.509706000000001
#
# number of rings (size 3 to 8) (size 9 to 14) (size 15 to 20)
#    0.000    0.857    2.857    4.286    4.000    2.857 
#    0.000    7.143    0.000    0.000    0.000    0.000 
#    0.000    0.000    0.000    0.000    0.000    0.000 
#
# Total GULP energy -78265.632667 kJ/mol
# GULP energy per Si atom -5590.402333 kJ/mol
# Density = 2.445392 g / cm^3
# Si number density = 24.509706 Si / 1000 Ang^3
#
#
#
# Elastic Constant Matrix: (Units=GPa)
#
#
# Indices 1 2 3 4 5 6 
#
# 1 82.4604 14.1010 23.9552 -1.8744 -4.3443 -3.3908
# 2 14.1010 111.6642 54.5741 -0.7435 -2.9797 -9.5928
# 3 23.9552 54.5741 128.2671 9.7714 -17.5442 -10.7815
# 4 -1.8744 -0.7435 9.7714 44.7886 3.3848 1.8032
# 5 -4.3443 -2.9797 -17.5442 3.3848 38.6833 -0.3873
# 6 -3.3908 -9.5928 -10.7815 1.8032 -0.3873 33.8724
#
#
#
# Elastic Compliance Matrix: (Units=1/GPa)
#
#
# Indices 1 2 3 4 5 6 
#
# 1 0.012906 -0.000511 -0.002186 0.000967 0.000338 0.000404
# 2 -0.000511 0.011567 -0.005007 0.001317 -0.001537 0.001543
# 3 -0.002186 -0.005007 0.011422 -0.003122 0.004844 0.002220
# 4 0.000967 0.001317 -0.003122 0.023390 -0.003271 -0.001807
# 5 0.000338 -0.001537 0.004844 -0.003271 0.028270 0.001638
# 6 0.000404 0.001543 0.002220 -0.001807 0.001638 0.030822
#
#
# Mechanical properties :
#
#
# Convention : Reuss Voigt Hill
#
# Bulk Modulus (GPa) = 48.81279 56.40581 52.60930
# Shear Modulus (GPa) = 35.55798 38.78629 37.17214
#
# Velocity S-wave (km/s) = 3.81303 3.98236 3.89862
# Velocity P-wave (km/s) = 6.27252 6.64900 6.46351
#
# Compressibility (1/GPa) = 0.02048644
#
# Stress axis : x y z
#
# Youngs Moduli (GPa) = 77.48363 86.44985 87.55051
#
# Poissons Ratio (x) = 0.04418 0.19142
# Poissons Ratio (y) = 0.03960 0.43837
# Poissons Ratio (z) = 0.16941 0.43285
#
# Static dielectric constant tensor:
#      x y z
#    x 1.992420 -0.011500 0.033150 
#    y -0.011500 1.992540 -0.028570 
#    z 0.033150 -0.028570 2.024590 
# 
# From -- ./inp_files/458147.got.cif
#   From: 2010.05.17/outbox.cif.g08.bks.cpg/sg2_230_cif.got.tgz:458147.got - 2010.06.03 11:33:40.
