data_PCOD9033378
_publ_section_title
;
Structure prediction by ZEFSAII (Michael W. Deem and Ramdas Pophale) SiO2 
 PCOD9033378
Probable space group: P -1
;
_chemical_formula_sum "Si O2"
_cell_formula_units_Z 12
_cell_length_a 7.811527
_cell_length_b 6.887011
_cell_length_c 18.404668
_cell_angle_alpha 74.656928
_cell_angle_beta 48.340554
_cell_angle_gamma 52.801278
_cell_volume 573.344942
_symmetry_space_group_name_H-M "P -1"
_symmetry_group_IT_number 2
_symmetry_cell_setting 'triclinic'
loop_
_space_group_symop_operation_xyz
x,y,z
-x,-y,-z
loop_
_atom_site_type_symbol
_atom_site_label
_atom_site_fract_x
_atom_site_fract_y
_atom_site_fract_z
Si Si1 0.800405 0.958016 0.106605
Si Si2 0.573826 0.050512 0.895941
Si Si3 0.167285 0.326670 0.255404
Si Si4 0.012657 0.157427 0.771968
Si Si5 0.449613 0.200796 0.433514
Si Si6 0.979902 0.241654 0.458706
O O1 0.939049 0.837666 0.156218
O O2 0.691886 0.835329 0.096099
O O3 0.496412 0.215889 0.187312
O O4 0.000000 0.000000 0.000000
O O5 0.811973 0.780347 0.819259
O O6 0.716386 0.193332 0.844246
O O7 0.500000 0.000000 0.000000
O O8 0.067469 0.217355 0.352559
O O9 0.988123 0.620189 0.283250
O O10 0.264065 0.913746 0.682300
O O11 0.218017 0.232431 0.439668
O O12 0.500000 0.000000 0.500000
O O13 0.313229 0.480318 0.474233
O O14 0.000000 0.000000 0.500000
#
# Coordination Sequence:
#
# PCOD9033378 Si02
#       6
#     2   2   2   2   2   2
#     4  10  22  44  67  97 138 172 221 284 338 397
#     4  10  23  41  67 101 129 176 230 268 340 414
#     4  10  24  43  65 101 133 175 230 281 332 416
#     4  12  22  46  69  94 144 175 222 284 342 401
#     4  11  24  41  69 100 131 183 224 280 348 398
#     4  11  25  44  67  99 138 173 234 282 332 417
#
# _framework density 20.929808000000001
#
# number of rings (size 3 to 8) (size 9 to 14) (size 15 to 20)
#    1.000    0.333    5.000    0.000    2.333    4.667 
#    3.000    1.667    0.000    0.000    0.000    0.000 
#    0.000    0.000    0.000    0.000    0.000    0.000 
#
# Total GULP energy -66901.600445 kJ/mol
# GULP energy per Si atom -5575.133370 kJ/mol
# Density = 2.088217 g / cm^3
# Si number density = 20.929808 Si / 1000 Ang^3
#
#
#
# Elastic Constant Matrix: (Units=GPa)
#
#
# Indices 1 2 3 4 5 6 
#
# 1 104.7174 10.1388 39.6206 -6.6939 5.3125 12.5948
# 2 10.1388 103.7600 59.1130 -8.0490 8.2126 6.2348
# 3 39.6206 59.1130 170.1309 -7.1601 16.6763 6.0372
# 4 -6.6939 -8.0490 -7.1601 23.0584 8.7637 4.4086
# 5 5.3125 8.2126 16.6763 8.7637 26.8584 -0.8347
# 6 12.5948 6.2348 6.0372 4.4086 -0.8347 19.5179
#
#
#
# Elastic Compliance Matrix: (Units=1/GPa)
#
#
# Indices 1 2 3 4 5 6 
#
# 1 0.011993 0.001516 -0.002356 0.006451 -0.003761 -0.009113
# 2 0.001516 0.012886 -0.003984 0.006253 -0.003976 -0.005445
# 3 -0.002356 -0.003984 0.008335 0.002208 -0.004225 -0.000464
# 4 0.006451 0.006253 0.002208 0.061981 -0.025464 -0.021932
# 5 -0.003761 -0.003976 -0.004225 -0.025464 0.050526 0.012917
# 6 -0.009113 -0.005445 -0.000464 -0.021932 0.012917 0.064505
#
#
# Mechanical properties :
#
#
# Convention : Reuss Voigt Hill
#
# Bulk Modulus (GPa) = 42.43547 66.26148 54.34847
# Shear Modulus (GPa) = 21.95583 31.86933 26.91258
#
# Velocity S-wave (km/s) = 3.24237 3.90638 3.58976
# Velocity P-wave (km/s) = 5.85973 7.21624 6.57307
#
# Compressibility (1/GPa) = 0.02356519
#
# Stress axis : x y z
#
# Youngs Moduli (GPa) = 83.37863 77.60117 119.98247
#
# Poissons Ratio (x) = -0.11766 0.28272
# Poissons Ratio (y) = -0.12642 0.47806
# Poissons Ratio (z) = 0.19647 0.30920
#
# Static dielectric constant tensor:
#      x y z
#    x 1.798940 -0.006740 0.029010 
#    y -0.006740 1.783830 0.011500 
#    z 0.029010 0.011500 1.763290 
# 
# From -- ./inp_files/582115.got.cif
#   From: 2010.05.17/outbox.cif.g08.bks.cpg/sg2_292_cif.got.tgz:582115.got - 2010.06.03 11:33:40.
