data_PCOD9033723
_publ_section_title
;
Structure prediction by ZEFSAII (Michael W. Deem and Ramdas Pophale) SiO2 
 PCOD9033723
Probable space group: P -1
;
_chemical_formula_sum "Si O2"
_cell_formula_units_Z 14
_cell_length_a 9.799365
_cell_length_b 9.271164
_cell_length_c 21.054436
_cell_angle_alpha 38.339368
_cell_angle_beta 33.921990
_cell_angle_gamma 44.886586
_cell_volume 652.929240
_symmetry_space_group_name_H-M "P -1"
_symmetry_group_IT_number 2
_symmetry_cell_setting 'triclinic'
loop_
_space_group_symop_operation_xyz
x,y,z
-x,-y,-z
loop_
_atom_site_type_symbol
_atom_site_label
_atom_site_fract_x
_atom_site_fract_y
_atom_site_fract_z
Si Si1 0.580308 0.364199 0.831548
Si Si2 0.969166 0.832897 0.707491
Si Si3 0.523995 0.669516 0.874571
Si Si4 0.882890 0.836943 0.886082
Si Si5 0.815637 0.771327 0.576988
Si Si6 0.791830 0.480541 0.384879
Si Si7 0.289633 0.978440 0.763909
O O1 0.609378 0.491199 0.844561
O O2 0.693777 0.546117 0.679494
O O3 0.735554 0.105533 0.853060
O O4 0.295848 0.321728 0.956042
O O5 0.711509 0.837566 0.768146
O O6 0.929914 0.775449 0.815469
O O7 0.140542 0.628542 0.672637
O O8 0.077880 0.072783 0.570998
O O9 0.290020 0.843705 0.877148
O O10 0.500000 0.500000 0.000000
O O11 0.138938 0.846125 0.818801
O O12 0.038238 0.677384 0.573323
O O13 0.579752 0.937976 0.644069
O O14 0.500000 0.500000 0.500000
O O15 0.829703 0.750817 0.280879
#
# Coordination Sequence:
#
# PCOD9033723 Si02
#       7
#     2   2   2   2   2   2   2
#     4  10  22  44  69  94 145 181 225 271 356 396
#     4  12  23  41  71 105 137 174 238 284 330 403
#     4  11  22  44  73 100 130 180 228 288 327 413
#     4  11  24  43  70 101 137 188 225 279 340 417
#     4  11  23  42  73  98 137 185 224 285 339 398
#     4  12  22  43  70 104 134 184 226 283 342 413
#     4  11  23  44  74  94 141 182 222 277 357 395
#
# _framework density 21.441832999999999
#
# number of rings (size 3 to 8) (size 9 to 14) (size 15 to 20)
#    0.000    0.857    7.143    1.286    0.000    3.429 
#    0.000    7.143    0.000    0.000    0.000    0.000 
#    0.000    0.000    0.000    0.000    0.000    0.000 
#
# Total GULP energy -78110.266637 kJ/mol
# GULP energy per Si atom -5579.304760 kJ/mol
# Density = 2.139303 g / cm^3
# Si number density = 21.441833 Si / 1000 Ang^3
#
#
#
# Elastic Constant Matrix: (Units=GPa)
#
#
# Indices 1 2 3 4 5 6 
#
# 1 101.2788 19.9232 22.9194 14.6747 -20.7495 -4.7688
# 2 19.9232 91.9934 16.0997 -11.1299 -6.5013 -7.8580
# 3 22.9194 16.0997 96.5089 -12.2144 -24.5109 -3.1602
# 4 14.6747 -11.1299 -12.2144 33.6387 -0.0020 -6.9105
# 5 -20.7495 -6.5013 -24.5109 -0.0020 28.3767 -1.8958
# 6 -4.7688 -7.8580 -3.1602 -6.9105 -1.8958 30.6061
#
#
#
# Elastic Compliance Matrix: (Units=1/GPa)
#
#
# Indices 1 2 3 4 5 6 
#
# 1 0.013518 -0.002999 -0.001702 -0.007519 0.007723 -0.000059
# 2 -0.002999 0.012748 -0.000284 0.006295 0.000767 0.004245
# 3 -0.001702 -0.000284 0.014730 0.006700 0.011642 0.003417
# 4 -0.007519 0.006295 0.006700 0.039625 0.002418 0.010233
# 5 0.007723 0.000767 0.011642 0.002418 0.051543 0.006341
# 6 -0.000059 0.004245 0.003417 0.010233 0.006341 0.036810
#
#
# Mechanical properties :
#
#
# Convention : Reuss Voigt Hill
#
# Bulk Modulus (GPa) = 32.23107 45.29617 38.76362
# Shear Modulus (GPa) = 26.41513 33.91355 30.16434
#
# Velocity S-wave (km/s) = 3.51371 3.98132 3.75480
# Velocity P-wave (km/s) = 5.61481 6.50427 6.07584
#
# Compressibility (1/GPa) = 0.03102596
#
# Stress axis : x y z
#
# Youngs Moduli (GPa) = 73.97743 78.44452 67.88841
#
# Poissons Ratio (x) = 0.23522 0.11556
# Poissons Ratio (y) = 0.22183 0.01928
# Poissons Ratio (z) = 0.12592 0.02228
#
# Static dielectric constant tensor:
#      x y z
#    x 1.769110 -0.026780 -0.021020 
#    y -0.026780 1.783700 -0.006110 
#    z -0.021020 -0.006110 1.875820 
# 
# From -- ./inp_files/587110.got.cif
#   From: 2010.05.17/outbox.cif.g08.bks.cpg/sg2_294_cif.got.tgz:587110.got - 2010.06.03 11:33:40.
