data_PCOD9033536
_publ_section_title
;
Structure prediction by ZEFSAII (Michael W. Deem and Ramdas Pophale) SiO2 
 PCOD9033536
Probable space group: P -1
;
_chemical_formula_sum "Si O2"
_cell_formula_units_Z 14
_cell_length_a 13.691449
_cell_length_b 24.110797
_cell_length_c 13.121332
_cell_angle_alpha 159.219723
_cell_angle_beta 32.196937
_cell_angle_gamma 154.946883
_cell_volume 650.742811
_symmetry_space_group_name_H-M "P -1"
_symmetry_group_IT_number 2
_symmetry_cell_setting 'triclinic'
loop_
_space_group_symop_operation_xyz
x,y,z
-x,-y,-z
loop_
_atom_site_type_symbol
_atom_site_label
_atom_site_fract_x
_atom_site_fract_y
_atom_site_fract_z
Si Si1 0.128904 0.407013 0.701470
Si Si2 0.747175 0.419049 0.328749
Si Si3 0.469265 0.559449 0.848979
Si Si4 0.682150 0.989460 0.382078
Si Si5 0.416982 0.008876 0.288492
Si Si6 0.639878 0.685319 0.123580
Si Si7 0.048246 0.669184 0.669734
O O1 0.257338 0.515971 0.670656
O O2 0.273563 0.449228 0.747850
O O3 0.941173 0.176447 0.451573
O O4 0.000000 0.500000 0.000000
O O5 0.554993 0.428064 0.565090
O O6 0.975607 0.578649 0.464195
O O7 0.699761 0.211995 0.022276
O O8 0.642172 0.785433 0.043670
O O9 0.456824 0.614895 0.070673
O O10 0.631204 0.007223 0.575184
O O11 0.500000 0.000000 0.500000
O O12 0.315585 0.122432 0.536527
O O13 0.684421 0.145591 0.253568
O O14 0.500000 0.500000 0.000000
O O15 0.875558 0.722929 0.943919
O O16 0.000000 0.500000 0.500000
#
# Coordination Sequence:
#
# PCOD9033536 Si02
#       7
#     2   2   2   2   2   2   2
#     4  12  22  38  67  96 130 173 217 259 330 384
#     4  11  25  42  63  98 132 166 220 272 318 389
#     4  10  24  40  63  94 134 169 215 275 319 389
#     4  11  21  38  64  96 130 173 214 260 324 388
#     4  11  23  41  68  93 132 167 219 265 326 383
#     4  10  22  44  68  95 128 173 219 270 324 387
#     4  11  24  44  68  93 129 174 214 269 332 380
#
# _framework density 21.513874999999999
#
# number of rings (size 3 to 8) (size 9 to 14) (size 15 to 20)
#    0.000    1.143    4.286    1.286    2.000    4.571 
#    0.000    0.714    0.000    0.000    0.000    0.000 
#    0.000    0.000    0.000    0.000    0.000    0.000 
#
# Total GULP energy -78062.488607 kJ/mol
# GULP energy per Si atom -5575.892043 kJ/mol
# Density = 2.146491 g / cm^3
# Si number density = 21.513875 Si / 1000 Ang^3
#
#
#
# Elastic Constant Matrix: (Units=GPa)
#
#
# Indices 1 2 3 4 5 6 
#
# 1 57.4943 -5.5429 6.1603 13.4095 -10.0882 8.1300
# 2 -5.5429 79.1579 32.0432 6.8371 -5.5777 5.6120
# 3 6.1603 32.0432 153.0572 10.3451 -22.3588 14.0007
# 4 13.4095 6.8371 10.3451 37.1852 1.0902 -4.9572
# 5 -10.0882 -5.5777 -22.3588 1.0902 27.2038 3.1272
# 6 8.1300 5.6120 14.0007 -4.9572 3.1272 29.9706
#
#
#
# Elastic Compliance Matrix: (Units=1/GPa)
#
#
# Indices 1 2 3 4 5 6 
#
# 1 0.024270 0.003651 0.002061 -0.011930 0.013253 -0.011586
# 2 0.003651 0.014582 -0.002124 -0.003996 0.003186 -0.003722
# 3 0.002061 -0.002124 0.008935 -0.003869 0.008501 -0.005862
# 4 -0.011930 -0.003996 -0.003869 0.035039 -0.011295 0.012766
# 5 0.013253 0.003186 0.008501 -0.011295 0.051539 -0.015409
# 6 -0.011586 -0.003722 -0.005862 0.012766 -0.015409 0.043664
#
#
# Mechanical properties :
#
#
# Convention : Reuss Voigt Hill
#
# Bulk Modulus (GPa) = 18.19394 39.44786 28.82090
# Shear Modulus (GPa) = 26.43083 36.00850 31.21967
#
# Velocity S-wave (km/s) = 3.50887 4.09557 3.81352
# Velocity P-wave (km/s) = 4.98913 6.38285 5.72853
#
# Compressibility (1/GPa) = 0.05496337
#
# Stress axis : x y z
#
# Youngs Moduli (GPa) = 41.20258 68.57831 111.92209
#
# Poissons Ratio (x) = -0.25037 -0.23067
# Poissons Ratio (y) = -0.15043 0.23768
# Poissons Ratio (z) = -0.08492 0.14564
#
# Static dielectric constant tensor:
#      x y z
#    x 1.902100 -0.005730 0.082090 
#    y -0.005730 1.644820 -0.105270 
#    z 0.082090 -0.105270 1.922610 
# 
# From -- ./inp_files/503575.got.cif
#   From: 2010.05.17/outbox.cif.g08.bks.cpg/sg2_252_cif.got.tgz:503575.got - 2010.06.03 11:33:40.
