data_PCOD9033198
_publ_section_title
;
Structure prediction by ZEFSAII (Michael W. Deem and Ramdas Pophale) SiO2 
 PCOD9033198
Probable space group: P -1
;
_chemical_formula_sum "Si O2"
_cell_formula_units_Z 12
_cell_length_a 7.842129
_cell_length_b 5.249823
_cell_length_c 11.770086
_cell_angle_alpha 83.565764
_cell_angle_beta 80.491301
_cell_angle_gamma 107.660694
_cell_volume 448.557690
_symmetry_space_group_name_H-M "P -1"
_symmetry_group_IT_number 2
_symmetry_cell_setting 'triclinic'
loop_
_space_group_symop_operation_xyz
x,y,z
-x,-y,-z
loop_
_atom_site_type_symbol
_atom_site_label
_atom_site_fract_x
_atom_site_fract_y
_atom_site_fract_z
Si Si1 0.338821 0.324238 0.941364
Si Si2 0.231187 0.881151 0.138670
Si Si3 0.715474 0.577078 0.504480
Si Si4 0.650364 0.008165 0.637907
Si Si5 0.040860 0.289309 0.134933
Si Si6 0.716558 0.404731 0.280845
O O1 0.368284 0.422942 0.804316
O O2 0.500000 0.500000 0.000000
O O3 0.136411 0.339720 0.997040
O O4 0.310159 0.016269 0.001610
O O5 0.176510 0.561152 0.164982
O O6 0.357123 0.009421 0.224086
O O7 0.066866 0.002883 0.171558
O O8 0.500000 0.500000 0.500000
O O9 0.757911 0.834882 0.569210
O O10 0.806753 0.584467 0.371129
O O11 0.733238 0.319347 0.580829
O O12 0.437934 0.860336 0.638602
O O13 0.848399 0.291204 0.198416
#
# Coordination Sequence:
#
# PCOD9033198 Si02
#       6
#     2   2   2   2   2   2
#     4  10  22  44  66  96 125 169 212 257 320 384
#     4  10  23  44  63  94 131 165 210 258 315 380
#     4  10  23  40  64  99 123 169 215 260 309 370
#     4  11  22  44  67  93 127 169 220 254 305 384
#     4  10  24  41  62 101 129 162 210 259 329 365
#     4  11  21  43  66  96 128 168 208 272 310 373
#
# _framework density 26.752410000000001
#
# number of rings (size 3 to 8) (size 9 to 14) (size 15 to 20)
#    1.000    0.667    1.667    3.500    0.000    5.333 
#    9.000    5.000    0.000    0.000    0.000    0.000 
#    0.000    0.000    0.000    0.000    0.000    0.000 
#
# Total GULP energy -66997.944287 kJ/mol
# GULP energy per Si atom -5583.162024 kJ/mol
# Density = 2.669152 g / cm^3
# Si number density = 26.752410 Si / 1000 Ang^3
#
#
#
# Elastic Constant Matrix: (Units=GPa)
#
#
# Indices 1 2 3 4 5 6 
#
# 1 55.8376 29.6240 21.0982 4.1263 -22.3478 -18.5377
# 2 29.6240 146.8217 51.0536 13.3751 -2.6885 -11.9038
# 3 21.0982 51.0536 124.4599 -11.9051 1.0046 -13.0987
# 4 4.1263 13.3751 -11.9051 39.5753 6.0429 -4.2846
# 5 -22.3478 -2.6885 1.0046 6.0429 28.1398 5.6146
# 6 -18.5377 -11.9038 -13.0987 -4.2846 5.6146 37.8021
#
#
#
# Elastic Compliance Matrix: (Units=1/GPa)
#
#
# Indices 1 2 3 4 5 6 
#
# 1 0.037189 -0.003904 -0.004536 -0.007201 0.028806 0.010341
# 2 -0.003904 0.009053 -0.003430 -0.003542 -0.001260 -0.000467
# 3 -0.004536 -0.003430 0.011068 0.006117 -0.006062 0.002125
# 4 -0.007201 -0.003542 0.006117 0.031472 -0.013646 0.003067
# 5 0.028806 -0.001260 -0.006062 -0.013646 0.061243 0.000986
# 6 0.010341 -0.000467 0.002125 0.003067 0.000986 0.032315
#
#
# Mechanical properties :
#
#
# Convention : Reuss Voigt Hill
#
# Bulk Modulus (GPa) = 29.78785 58.96341 44.37563
# Shear Modulus (GPa) = 23.01286 36.12634 29.56960
#
# Velocity S-wave (km/s) = 2.93613 3.67876 3.32822
# Velocity P-wave (km/s) = 4.75954 6.33503 5.60294
#
# Compressibility (1/GPa) = 0.03357074
#
# Stress axis : x y z
#
# Youngs Moduli (GPa) = 26.88999 110.45926 90.35025
#
# Poissons Ratio (x) = 0.43128 0.40978
# Poissons Ratio (y) = 0.10499 0.30986
# Poissons Ratio (z) = 0.12196 0.37882
#
# Static dielectric constant tensor:
#      x y z
#    x 2.195250 0.005130 0.012720 
#    y 0.005130 2.099910 0.021830 
#    z 0.012720 0.021830 2.150740 
# 
# From -- ./inp_files/91886.got.cif
#   From: 2010.05.17/outbox.cif.g08.bks.cpg/sg2_46_cif.got.tgz:91886.got - 2010.06.03 11:33:40.
