data_PCOD9033762
_publ_section_title
;
Structure prediction by ZEFSAII (Michael W. Deem and Ramdas Pophale) SiO2 
 PCOD9033762
Probable space group: P -1
;
_chemical_formula_sum "Si O2"
_cell_formula_units_Z 14
_cell_length_a 9.823181
_cell_length_b 22.261703
_cell_length_c 9.417822
_cell_angle_alpha 155.291922
_cell_angle_beta 134.853924
_cell_angle_gamma 44.919386
_cell_volume 594.287575
_symmetry_space_group_name_H-M "P -1"
_symmetry_group_IT_number 2
_symmetry_cell_setting 'triclinic'
loop_
_space_group_symop_operation_xyz
x,y,z
-x,-y,-z
loop_
_atom_site_type_symbol
_atom_site_label
_atom_site_fract_x
_atom_site_fract_y
_atom_site_fract_z
Si Si1 0.179698 0.477219 0.469937
Si Si2 0.417338 0.753240 0.712796
Si Si3 0.530838 0.946602 0.745167
Si Si4 0.001843 0.256109 0.712254
Si Si5 0.887183 0.014420 0.594046
Si Si6 0.074066 0.216431 0.375566
Si Si7 0.689777 0.366164 0.337724
O O1 0.378739 0.363005 0.422329
O O2 0.245955 0.617150 0.745912
O O3 0.000000 0.500000 0.500000
O O4 0.095423 0.394018 0.101659
O O5 0.379965 0.747066 0.842986
O O6 0.233316 0.709307 0.403291
O O7 0.416424 0.916458 0.007242
O O8 0.338544 0.920104 0.469629
O O9 0.706186 0.800897 0.554291
O O10 0.500000 0.000000 0.000000
O O11 0.077416 0.147966 0.664973
O O12 0.086593 0.169735 0.447223
O O13 0.000000 0.000000 0.500000
O O14 0.981179 0.110338 0.978474
O O15 0.902703 0.363719 0.561658
O O16 0.500000 0.500000 0.500000
#
# Coordination Sequence:
#
# PCOD9033762 Si02
#       7
#     2   2   2   2   2   2   2
#     4  11  25  44  73 100 139 188 239 290 344 407
#     4  10  22  44  69  97 142 179 235 287 345 420
#     4  12  24  41  70 108 141 179 231 295 356 415
#     4  11  24  44  69 101 139 182 235 285 347 423
#     4  12  24  42  69 101 144 178 224 293 357 414
#     4  11  25  42  72 103 140 184 228 286 356 418
#     4   9  23  45  68  97 140 184 235 280 340 417
#
# _framework density 23.557618999999999
#
# number of rings (size 3 to 8) (size 9 to 14) (size 15 to 20)
#    0.000    1.143    4.286    0.429    6.000    6.857 
#    0.000    1.429    0.000    0.000    0.000    0.000 
#    0.000    0.000    0.000    0.000    0.000    0.000 
#
# Total GULP energy -78060.547226 kJ/mol
# GULP energy per Si atom -5575.753373 kJ/mol
# Density = 2.350400 g / cm^3
# Si number density = 23.557619 Si / 1000 Ang^3
#
#
#
# Elastic Constant Matrix: (Units=GPa)
#
#
# Indices 1 2 3 4 5 6 
#
# 1 165.5243 78.5830 21.4269 3.5507 -14.9511 -5.9655
# 2 78.5830 108.3971 27.5903 -3.5849 4.8967 -16.8712
# 3 21.4269 27.5903 79.0429 -10.2577 15.3424 9.3065
# 4 3.5507 -3.5849 -10.2577 29.3735 1.9310 14.5039
# 5 -14.9511 4.8967 15.3424 1.9310 31.3684 -3.8252
# 6 -5.9655 -16.8712 9.3065 14.5039 -3.8252 76.2590
#
#
#
# Elastic Compliance Matrix: (Units=1/GPa)
#
#
# Indices 1 2 3 4 5 6 
#
# 1 0.010748 -0.007587 -0.002333 -0.003828 0.007753 0.000564
# 2 -0.007587 0.016182 -0.003024 0.000631 -0.004334 0.003018
# 3 -0.002333 -0.003024 0.018367 0.009757 -0.010894 -0.005495
# 4 -0.003828 0.000631 0.009757 0.043727 -0.010631 -0.010200
# 5 0.007753 -0.004334 -0.010894 -0.010631 0.042862 0.005149
# 6 0.000564 0.003018 -0.005495 -0.010200 0.005149 0.016694
#
#
# Mechanical properties :
#
#
# Convention : Reuss Voigt Hill
#
# Bulk Modulus (GPa) = 51.52418 67.57385 59.54901
# Shear Modulus (GPa) = 27.63380 42.42443 35.02911
#
# Velocity S-wave (km/s) = 3.42867 4.24828 3.86029
# Velocity P-wave (km/s) = 6.13134 7.26709 6.72324
#
# Compressibility (1/GPa) = 0.01940836
#
# Stress axis : x y z
#
# Youngs Moduli (GPa) = 93.03889 61.79827 54.44504
#
# Poissons Ratio (x) = 0.46887 0.12704
# Poissons Ratio (y) = 0.70589 0.16463
# Poissons Ratio (z) = 0.21710 0.18687
#
# Static dielectric constant tensor:
#      x y z
#    x 1.942840 -0.002860 0.021840 
#    y -0.002860 1.952490 0.116230 
#    z 0.021840 0.116230 2.160830 
# 
# From -- ./inp_files/223290.got.cif
#   From: 2010.05.17/outbox.cif.g08.bks.cpg/sg2_112_cif.got.tgz:223290.got - 2010.06.03 11:33:40.
