data_PCOD9033460
_publ_section_title
;
Structure prediction by ZEFSAII (Michael W. Deem and Ramdas Pophale) SiO2 
 PCOD9033460
Probable space group: P -1
;
_chemical_formula_sum "Si O2"
_cell_formula_units_Z 15
_cell_length_a 12.238996
_cell_length_b 9.317364
_cell_length_c 17.366967
_cell_angle_alpha 127.180684
_cell_angle_beta 150.815763
_cell_angle_gamma 40.696047
_cell_volume 619.263336
_symmetry_space_group_name_H-M "P -1"
_symmetry_group_IT_number 2
_symmetry_cell_setting 'triclinic'
loop_
_space_group_symop_operation_xyz
x,y,z
-x,-y,-z
loop_
_atom_site_type_symbol
_atom_site_label
_atom_site_fract_x
_atom_site_fract_y
_atom_site_fract_z
Si Si1 0.655936 0.932219 0.396754
Si Si2 0.687534 0.321095 0.491206
Si Si3 0.131860 0.128860 0.248080
Si Si4 0.000000 0.500000 0.500000
Si Si5 0.117209 0.403680 0.799934
Si Si6 0.003151 0.625500 0.968100
Si Si7 0.468406 0.643106 0.319916
Si Si8 0.404400 0.854012 0.094351
O O1 0.925847 0.753854 0.553385
O O2 0.649048 0.757652 0.278610
O O3 0.691338 0.107311 0.436615
O O4 0.369496 0.046573 0.303199
O O5 0.500000 0.500000 0.500000
O O6 0.544432 0.461832 0.372084
O O7 0.989654 0.268167 0.663849
O O8 0.034259 0.380408 0.280198
O O9 0.293751 0.903118 0.326791
O O10 0.844420 0.169429 0.056599
O O11 0.739906 0.569182 0.418399
O O12 0.039478 0.500000 0.870170
O O13 0.438440 0.251972 0.923456
O O14 0.256956 0.644262 0.133258
O O15 0.737207 0.882999 0.898531
O O16 0.000000 0.500000 0.000000
#
# Coordination Sequence:
#
# PCOD9033460 Si02
#       8
#     2   2   2   1   2   2   2   2
#     4  11  22  44  71  97 146 188 232 287 358 418
#     4  12  24  46  70 103 141 190 230 287 356 426
#     4  10  22  44  68 102 140 188 229 295 350 415
#     4  10  24  42  64 108 126 186 236 286 344 422
#     4  12  25  42  73 104 137 188 239 286 354 419
#     4  11  24  46  71  99 143 185 231 293 353 418
#     4  10  24  43  71  99 142 186 233 288 355 414
#     4  11  23  41  71 100 135 184 237 289 345 416
#
# _framework density 24.222327
#
# number of rings (size 3 to 8) (size 9 to 14) (size 15 to 20)
#    0.000    1.067    2.667    3.200    3.733    4.267 
#    4.800    1.333    0.000    0.000    0.000    0.000 
#    0.000    0.000    0.000    0.000    0.000    0.000 
#
# Total GULP energy -83579.762816 kJ/mol
# GULP energy per Si atom -5571.984188 kJ/mol
# Density = 2.416720 g / cm^3
# Si number density = 24.222327 Si / 1000 Ang^3
#
#
#
# Elastic Constant Matrix: (Units=GPa)
#
#
# Indices 1 2 3 4 5 6 
#
# 1 95.3620 81.7135 51.9565 7.5724 3.3248 13.4336
# 2 81.7135 144.2195 34.1592 6.3719 25.3282 7.8130
# 3 51.9565 34.1592 80.9314 9.6675 41.1166 -11.5756
# 4 7.5724 6.3719 9.6675 19.9892 11.9814 7.0725
# 5 3.3248 25.3282 41.1166 11.9814 20.1958 11.0443
# 6 13.4336 7.8130 -11.5756 7.0725 11.0443 49.7352
#
#
#
# Elastic Compliance Matrix: (Units=1/GPa)
#
#
# Indices 1 2 3 4 5 6 
#
# 1 0.006372 -0.002020 0.009906 0.006968 -0.025916 0.005666
# 2 -0.002020 0.008450 -0.008604 -0.003080 0.011794 -0.004965
# 3 0.009906 -0.008604 -0.002875 -0.013135 0.026035 -0.005907
# 4 0.006968 -0.003080 -0.013135 0.058052 0.002240 -0.013208
# 5 -0.025916 0.011794 0.026035 0.002240 -0.024242 0.016272
# 6 0.005666 -0.004965 -0.005907 -0.013208 0.016272 0.016246
#
#
# Mechanical properties :
#
#
# Convention : Reuss Voigt Hill
#
# Bulk Modulus (GPa) = 95.13188 72.90792 84.01990
# Shear Modulus (GPa) = 74.69003 28.16295 51.42649
#
# Velocity S-wave (km/s) = 5.55897 3.41352 4.61271
# Velocity P-wave (km/s) = 8.97567 6.76025 7.94555
#
# Compressibility (1/GPa) = 0.01051172
#
# Stress axis : x y z
#
# Youngs Moduli (GPa) = 156.93154 118.34157 -347.83616
#
# Poissons Ratio (x) = 0.23907 3.44576
# Poissons Ratio (y) = 0.31703 -2.99277
# Poissons Ratio (z) = -1.55461 1.01821
#
# Static dielectric constant tensor:
#      x y z
#    x 2.058280 0.008840 -0.058980 
#    y 0.008840 1.836620 0.176990 
#    z -0.058980 0.176990 1.699190 
# 
# From -- ./inp_files/566985.got.cif
#   From: 2010.05.17/outbox.cif.g08.bks.cpg/sg2_284_cif.got.tgz:566985.got - 2010.06.03 11:33:40.
