data_PCOD9033402
_publ_section_title
;
Structure prediction by ZEFSAII (Michael W. Deem and Ramdas Pophale) SiO2 
 PCOD9033402
Probable space group: P -1
;
_chemical_formula_sum "Si O2"
_cell_formula_units_Z 16
_cell_length_a 16.194918
_cell_length_b 14.470546
_cell_length_c 9.462381
_cell_angle_alpha 65.213576
_cell_angle_beta 62.742785
_cell_angle_gamma 18.512868
_cell_volume 625.022648
_symmetry_space_group_name_H-M "P -1"
_symmetry_group_IT_number 2
_symmetry_cell_setting 'triclinic'
loop_
_space_group_symop_operation_xyz
x,y,z
-x,-y,-z
loop_
_atom_site_type_symbol
_atom_site_label
_atom_site_fract_x
_atom_site_fract_y
_atom_site_fract_z
Si Si1 0.443631 0.155849 0.714482
Si Si2 0.778065 0.094614 0.128034
Si Si3 0.031634 0.297540 0.100703
Si Si4 0.621838 0.326942 0.805982
Si Si5 0.571503 0.732200 0.630071
Si Si6 0.963784 0.154292 0.647504
Si Si7 0.656774 0.151720 0.661227
Si Si8 0.378218 0.242161 0.113919
O O1 0.143231 0.451320 0.818425
O O2 0.471891 0.136836 0.536295
O O3 0.536084 0.169732 0.693702
O O4 0.382631 0.115314 0.190782
O O5 0.585840 0.380737 0.153161
O O6 0.676248 0.088196 0.260091
O O7 0.754426 0.127671 0.958088
O O8 0.035817 0.852790 0.175981
O O9 0.844999 0.483129 0.990002
O O10 0.089305 0.139311 0.253170
O O11 0.325486 0.030181 0.993967
O O12 0.842224 0.176750 0.667622
O O13 0.495257 0.386337 0.747157
O O14 0.788621 0.434254 0.581836
O O15 0.659817 0.683221 0.743493
O O16 0.245158 0.887693 0.526352
#
# Coordination Sequence:
#
# PCOD9033402 Si02
#       8
#     2   2   2   2   2   2   2   2
#     4  12  26  49  73 106 152 192 247 306 367 440
#     4  10  22  44  67  98 145 185 246 298 362 434
#     4  12  27  49  73 111 148 195 245 306 365 437
#     4  10  24  42  67 104 140 191 244 297 369 434
#     4  11  25  46  70 108 143 197 244 306 366 435
#     4  11  23  43  69 102 147 189 242 306 363 436
#     4  12  25  43  73 108 146 198 241 303 368 439
#     4  12  29  47  79 108 148 198 250 303 368 435
#
# _framework density 25.599070999999999
#
# number of rings (size 3 to 8) (size 9 to 14) (size 15 to 20)
#    0.000    0.750    3.750    2.625    5.250    1.500 
#    0.000    1.875    0.000    0.000    0.000    0.000 
#    0.000    0.000    0.000    0.000    0.000    0.000 
#
# Total GULP energy -89569.648146 kJ/mol
# GULP energy per Si atom -5598.103009 kJ/mol
# Density = 2.554081 g / cm^3
# Si number density = 25.599071 Si / 1000 Ang^3
#
#
#
# Elastic Constant Matrix: (Units=GPa)
#
#
# Indices 1 2 3 4 5 6 
#
# 1 115.5944 24.7393 48.7306 7.6278 13.4972 -5.1507
# 2 24.7393 71.1205 32.0693 -10.0339 1.6788 -9.0877
# 3 48.7306 32.0693 156.6925 0.3978 13.8869 -0.4134
# 4 7.6278 -10.0339 0.3978 37.7314 -2.1918 3.1193
# 5 13.4972 1.6788 13.8869 -2.1918 34.0064 0.3887
# 6 -5.1507 -9.0877 -0.4134 3.1193 0.3887 28.1898
#
#
#
# Elastic Compliance Matrix: (Units=1/GPa)
#
#
# Indices 1 2 3 4 5 6 
#
# 1 0.011013 -0.002893 -0.002517 -0.003289 -0.003429 0.001454
# 2 -0.002893 0.017601 -0.002855 0.005021 0.001717 0.004524
# 3 -0.002517 -0.002855 0.007934 -0.000358 -0.002109 -0.001195
# 4 -0.003289 0.005021 -0.000358 0.028870 0.003090 -0.002225
# 5 -0.003429 0.001717 -0.002109 0.003090 0.031753 -0.000884
# 6 0.001454 0.004524 -0.001195 -0.002225 -0.000884 0.037439
#
#
# Mechanical properties :
#
#
# Convention : Reuss Voigt Hill
#
# Bulk Modulus (GPa) = 49.95886 61.60955 55.78421
# Shear Modulus (GPa) = 31.68298 35.84341 33.76319
#
# Velocity S-wave (km/s) = 3.52186 3.74596 3.63564
# Velocity P-wave (km/s) = 6.00801 6.54439 6.28193
#
# Compressibility (1/GPa) = 0.02001647
#
# Stress axis : x y z
#
# Youngs Moduli (GPa) = 90.79853 56.81616 126.04385
#
# Poissons Ratio (x) = 0.16439 0.31723
# Poissons Ratio (y) = 0.26272 0.35991
# Poissons Ratio (z) = 0.22853 0.16223
#
# Static dielectric constant tensor:
#      x y z
#    x 2.023720 -0.019440 0.007090 
#    y -0.019440 2.027000 -0.004170 
#    z 0.007090 -0.004170 2.021250 
# 
# From -- ./inp_files/348056.got.cif
#   From: 2010.05.17/outbox.cif.g08.bks.cpg/sg2_175_cif.got.tgz:348056.got - 2010.06.03 11:33:40.
