data_PCOD9033944
_publ_section_title
;
Structure prediction by ZEFSAII (Michael W. Deem and Ramdas Pophale) SiO2 
 PCOD9033944
Probable space group: P -1
;
_chemical_formula_sum "Si O2"
_cell_formula_units_Z 13
_cell_length_a 14.662772
_cell_length_b 10.603694
_cell_length_c 9.787083
_cell_angle_alpha 137.373140
_cell_angle_beta 26.780309
_cell_angle_gamma 138.111275
_cell_volume 444.785092
_symmetry_space_group_name_H-M "P -1"
_symmetry_group_IT_number 2
_symmetry_cell_setting 'triclinic'
loop_
_space_group_symop_operation_xyz
x,y,z
-x,-y,-z
loop_
_atom_site_type_symbol
_atom_site_label
_atom_site_fract_x
_atom_site_fract_y
_atom_site_fract_z
Si Si1 0.217515 0.997272 0.398566
Si Si2 0.798491 0.023520 0.896443
Si Si3 0.489159 0.454449 0.786859
Si Si4 0.661589 0.966631 0.423554
Si Si5 0.808539 0.394833 0.499391
Si Si6 0.742773 0.412829 0.012490
Si Si7 0.000000 0.500000 0.000000
O O1 0.249835 0.086947 0.273444
O O2 0.315065 0.817828 0.101300
O O3 0.285520 0.068652 0.517253
O O4 0.960785 0.937465 0.692950
O O5 0.572887 0.008928 0.249147
O O6 0.910212 0.253695 0.911772
O O7 0.356929 0.228734 0.789210
O O8 0.730767 0.459937 0.506677
O O9 0.376047 0.571159 0.131437
O O10 0.441054 0.517975 0.752847
O O11 0.806475 0.171533 0.337533
O O12 0.043647 0.522441 0.313842
O O13 0.835916 0.513205 0.107159
#
# Coordination Sequence:
#
# PCOD9033944 Si02
#       7
#     2   2   2   2   2   2   1
#     4  10  23  42  68  96 135 182 221 273 339 396
#     4  10  23  43  66  99 135 175 224 279 332 400
#     4  11  25  42  67 100 133 181 224 272 340 393
#     4  12  24  43  69 100 135 175 226 278 335 400
#     4  11  26  44  66 102 137 179 223 277 337 395
#     4  11  23  45  68  98 139 176 223 281 331 400
#     4  10  22  44  70  96 130 172 228 270 334 398
#
# _framework density 29.227596999999999
#
# number of rings (size 3 to 8) (size 9 to 14) (size 15 to 20)
#    0.000    1.231    1.538    3.231    4.308    0.615 
#    2.769    7.692    0.000    0.000    0.000    0.000 
#    0.000    0.000    0.000    0.000    0.000    0.000 
#
# Total GULP energy -72707.703132 kJ/mol
# GULP energy per Si atom -5592.900241 kJ/mol
# Density = 2.916107 g / cm^3
# Si number density = 29.227597 Si / 1000 Ang^3
#
#
#
# Elastic Constant Matrix: (Units=GPa)
#
#
# Indices 1 2 3 4 5 6 
#
# 1 177.6654 20.1138 33.5680 5.1572 -26.2984 18.6151
# 2 20.1138 142.1328 8.7849 14.8915 -6.0784 11.0215
# 3 33.5680 8.7849 103.0173 -6.2092 -19.8245 -4.1389
# 4 5.1572 14.8915 -6.2092 38.7070 5.5002 0.2935
# 5 -26.2984 -6.0784 -19.8245 5.5002 47.5003 4.4340
# 6 18.6151 11.0215 -4.1389 0.2935 4.4340 44.5850
#
#
#
# Elastic Compliance Matrix: (Units=1/GPa)
#
#
# Indices 1 2 3 4 5 6 
#
# 1 0.006915 -0.000295 -0.001775 -0.001570 0.003542 -0.003321
# 2 -0.000295 0.007639 -0.000609 -0.003139 0.001102 -0.001911
# 3 -0.001775 -0.000609 0.011130 0.001785 0.003230 0.001592
# 4 -0.001570 -0.003139 0.001785 0.028086 -0.003947 0.001805
# 5 0.003542 0.001102 0.003230 -0.003947 0.025327 -0.003944
# 6 -0.003321 -0.001911 0.001592 0.001805 -0.003944 0.024816
#
#
# Mechanical properties :
#
#
# Convention : Reuss Voigt Hill
#
# Bulk Modulus (GPa) = 49.19683 60.86099 55.02891
# Shear Modulus (GPa) = 43.08574 50.18172 46.63373
#
# Velocity S-wave (km/s) = 3.84363 4.14808 3.99875
# Velocity P-wave (km/s) = 6.04705 6.61894 6.33945
#
# Compressibility (1/GPa) = 0.02032651
#
# Stress axis : x y z
#
# Youngs Moduli (GPa) = 144.61118 130.90175 89.84449
#
# Poissons Ratio (x) = 0.03867 0.15943
# Poissons Ratio (y) = 0.04272 0.05473
# Poissons Ratio (z) = 0.25662 0.07974
#
# Static dielectric constant tensor:
#      x y z
#    x 2.142800 -0.040980 -0.233710 
#    y -0.040980 2.211360 0.073070 
#    z -0.233710 0.073070 1.746820 
# 
# From -- ./inp_files/450725.got.cif
#   From: 2010.05.17/outbox.cif.g08.bks.cpg/sg2_226_cif.got.tgz:450725.got - 2010.06.03 11:33:40.
