data_PCOD9033282
_publ_section_title
;
Structure prediction by ZEFSAII (Michael W. Deem and Ramdas Pophale) SiO2 
 PCOD9033282
Probable space group: P -1
;
_chemical_formula_sum "Si O2"
_cell_formula_units_Z 16
_cell_length_a 9.187658
_cell_length_b 13.013238
_cell_length_c 10.496431
_cell_angle_alpha 120.290998
_cell_angle_beta 82.804339
_cell_angle_gamma 136.636172
_cell_volume 679.563234
_symmetry_space_group_name_H-M "P -1"
_symmetry_group_IT_number 2
_symmetry_cell_setting 'triclinic'
loop_
_space_group_symop_operation_xyz
x,y,z
-x,-y,-z
loop_
_atom_site_type_symbol
_atom_site_label
_atom_site_fract_x
_atom_site_fract_y
_atom_site_fract_z
Si Si1 0.733820 0.372578 0.434279
Si Si2 0.744475 0.385830 0.923063
Si Si3 0.200001 0.992340 0.923373
Si Si4 0.101007 0.062824 0.722593
Si Si5 0.559482 0.047271 0.816559
Si Si6 0.380331 0.291913 0.586965
Si Si7 0.059093 0.278834 0.009292
Si Si8 0.439139 0.613571 0.793497
O O1 0.609759 0.380595 0.554601
O O2 0.697050 0.411997 0.325107
O O3 0.000000 0.500000 0.500000
O O4 0.584341 0.158373 0.329213
O O5 0.651869 0.394299 0.065277
O O6 0.770828 0.503678 0.888833
O O7 0.606562 0.176978 0.784238
O O8 0.000000 0.500000 0.000000
O O9 0.152783 0.004359 0.793714
O O10 0.405780 0.024955 0.919168
O O11 0.985215 0.796918 0.893060
O O12 0.300968 0.166869 0.102114
O O13 0.280789 0.172921 0.654605
O O14 0.128719 0.211646 0.872495
O O15 0.839778 0.874365 0.585923
O O16 0.807283 0.163080 0.914813
O O17 0.414174 0.455962 0.696537
#
# Coordination Sequence:
#
# PCOD9033282 Si02
#       8
#     2   2   2   2   2   2   2   2
#     4  12  27  47  73 105 146 204 248 296 360 438
#     4   9  21  37  72 108 138 186 228 299 372 422
#     4  11  24  41  73 111 148 181 239 306 366 435
#     4  11  24  44  75 110 144 192 237 305 374 437
#     4  10  22  44  67 103 147 184 238 298 357 429
#     4  11  25  50  72 102 152 194 246 299 365 444
#     4  11  19  43  70 109 144 185 234 299 376 425
#     4  11  23  47  72 104 147 191 243 299 361 434
#
# _framework density 23.544533999999999
#
# number of rings (size 3 to 8) (size 9 to 14) (size 15 to 20)
#    0.000    1.250    3.750    1.125    5.250    0.500 
#    9.000    0.625    0.000    0.000    0.000    0.000 
#    0.000    0.000    0.000    0.000    0.000    0.000 
#
# Total GULP energy -89524.237922 kJ/mol
# GULP energy per Si atom -5595.264870 kJ/mol
# Density = 2.349095 g / cm^3
# Si number density = 23.544534 Si / 1000 Ang^3
#
#
#
# Elastic Constant Matrix: (Units=GPa)
#
#
# Indices 1 2 3 4 5 6 
#
# 1 138.2417 67.3204 47.1670 -5.1489 -0.3817 -2.6161
# 2 67.3204 178.8958 62.6906 1.9169 7.2248 -31.8496
# 3 47.1670 62.6906 80.6725 13.0587 9.1638 -13.4935
# 4 -5.1489 1.9169 13.0587 47.5189 -14.5422 -3.0285
# 5 -0.3817 7.2248 9.1638 -14.5422 37.7547 8.1224
# 6 -2.6161 -31.8496 -13.4935 -3.0285 8.1224 47.4403
#
#
#
# Elastic Compliance Matrix: (Units=1/GPa)
#
#
# Indices 1 2 3 4 5 6 
#
# 1 0.010661 -0.002828 -0.005735 0.003942 0.004296 -0.003426
# 2 -0.002828 0.009200 -0.004534 0.000393 -0.001620 0.005034
# 3 -0.005735 -0.004534 0.022433 -0.009104 -0.008998 0.003980
# 4 0.003942 0.000393 -0.009104 0.027919 0.013495 -0.002636
# 5 0.004296 -0.001620 -0.008998 0.013495 0.036100 -0.008729
# 6 -0.003426 0.005034 0.003980 -0.002636 -0.008729 0.026728
#
#
# Mechanical properties :
#
#
# Convention : Reuss Voigt Hill
#
# Bulk Modulus (GPa) = 62.10451 83.57399 72.83925
# Shear Modulus (GPa) = 30.37614 41.25158 35.81386
#
# Velocity S-wave (km/s) = 3.59577 4.19031 3.90437
# Velocity P-wave (km/s) = 6.60864 7.68016 7.16446
#
# Compressibility (1/GPa) = 0.01610189
#
# Stress axis : x y z
#
# Youngs Moduli (GPa) = 93.79636 108.69363 44.57624
#
# Poissons Ratio (x) = 0.30738 0.25564
# Poissons Ratio (y) = 0.26525 0.20210
# Poissons Ratio (z) = 0.53791 0.49279
#
# Static dielectric constant tensor:
#      x y z
#    x 1.916500 0.019140 0.015100 
#    y 0.019140 1.937380 0.009620 
#    z 0.015100 0.009620 1.893440 
# 
# From -- ./inp_files/392851.got.cif
#   From: 2010.05.17/outbox.cif.g08.bks.cpg/sg2_197_cif.got.tgz:392851.got - 2010.06.03 11:33:40.
