data_PCOD9033146
_publ_section_title
;
Structure prediction by ZEFSAII (Michael W. Deem and Ramdas Pophale) SiO2 
 PCOD9033146
Probable space group: P -1
;
_chemical_formula_sum "Si O2"
_cell_formula_units_Z 16
_cell_length_a 8.804863
_cell_length_b 5.206016
_cell_length_c 14.889465
_cell_angle_alpha 88.895224
_cell_angle_beta 64.085525
_cell_angle_gamma 81.780468
_cell_volume 606.857405
_symmetry_space_group_name_H-M "P -1"
_symmetry_group_IT_number 2
_symmetry_cell_setting 'triclinic'
loop_
_space_group_symop_operation_xyz
x,y,z
-x,-y,-z
loop_
_atom_site_type_symbol
_atom_site_label
_atom_site_fract_x
_atom_site_fract_y
_atom_site_fract_z
Si Si1 0.708156 0.712778 0.929268
Si Si2 0.239365 0.608740 0.404485
Si Si3 0.164845 0.962472 0.889838
Si Si4 0.072922 0.394632 0.624981
Si Si5 0.527899 0.850000 0.754794
Si Si6 0.620229 0.230882 0.864489
Si Si7 0.438870 0.135840 0.605687
Si Si8 0.950009 0.501595 0.170355
O O1 0.654840 0.523862 0.866180
O O2 0.871717 0.541016 0.929443
O O3 0.741238 0.996089 0.885723
O O4 0.558608 0.755841 0.038404
O O5 0.141487 0.547335 0.522480
O O6 0.321023 0.364877 0.322092
O O7 0.409041 0.711600 0.399517
O O8 0.077442 0.741700 0.382791
O O9 0.362849 0.842449 0.864272
O O10 0.127220 0.752605 0.829024
O O11 0.160320 0.244350 0.843279
O O12 0.000000 0.000000 0.000000
O O13 0.250744 0.265900 0.625707
O O14 0.996778 0.511628 0.738413
O O15 0.603805 0.099423 0.773656
O O16 0.432150 0.928258 0.686114
O O17 0.500000 0.000000 0.500000
#
# Coordination Sequence:
#
# PCOD9033146 Si02
#       8
#     2   2   2   2   2   2   2   2
#     4  10  22  44  66 103 143 192 244 322 381 451
#     4  11  27  49  76 113 157 202 261 330 393 475
#     4  12  28  47  73 110 154 206 262 324 395 466
#     4  11  25  49  75 115 154 203 264 322 398 470
#     4  12  26  45  74 108 148 207 262 319 395 475
#     4  10  23  40  70 100 143 191 251 312 385 456
#     4  12  26  48  75 110 153 205 256 331 393 473
#     4  12  25  45  73 105 148 204 254 318 389 467
#
# _framework density 26.365335999999999
#
# number of rings (size 3 to 8) (size 9 to 14) (size 15 to 20)
#    0.000    0.750    2.500    3.750    5.250    2.500 
#    0.000    0.000    0.000    0.000    0.000    0.000 
#    0.000    0.000    0.000    0.000    0.000    0.000 
#
# Total GULP energy -89134.886842 kJ/mol
# GULP energy per Si atom -5570.930428 kJ/mol
# Density = 2.630533 g / cm^3
# Si number density = 26.365336 Si / 1000 Ang^3
#
#
#
# Elastic Constant Matrix: (Units=GPa)
#
#
# Indices 1 2 3 4 5 6 
#
# 1 169.7726 27.8282 37.1468 10.1381 -5.8524 -5.6370
# 2 27.8282 56.9853 40.5656 21.8959 4.1857 -6.2233
# 3 37.1468 40.5656 142.1842 14.0455 7.0264 22.1653
# 4 10.1381 21.8959 14.0455 30.7753 5.4250 12.7597
# 5 -5.8524 4.1857 7.0264 5.4250 62.5387 8.0356
# 6 -5.6370 -6.2233 22.1653 12.7597 8.0356 27.6811
#
#
#
# Elastic Compliance Matrix: (Units=1/GPa)
#
#
# Indices 1 2 3 4 5 6 
#
# 1 0.006717 -0.000352 -0.002036 -0.002815 0.000606 0.004040
# 2 -0.000352 0.060286 -0.020194 -0.056396 -0.004214 0.056871
# 3 -0.002036 -0.020194 0.015530 0.018661 0.001181 -0.026335
# 4 -0.002815 -0.056396 0.018661 0.094670 0.002526 -0.072567
# 5 0.000606 -0.004214 0.001181 0.002526 0.016988 -0.007866
# 6 0.004040 0.056871 -0.026335 -0.072567 -0.007866 0.106555
#
#
# Mechanical properties :
#
#
# Convention : Reuss Voigt Hill
#
# Bulk Modulus (GPa) = 26.76127 64.44702 45.60414
# Shear Modulus (GPa) = 13.95221 41.75911 27.85566
#
# Velocity S-wave (km/s) = 2.30290 3.98410 3.25395
# Velocity P-wave (km/s) = 4.15251 6.75729 5.60822
#
# Compressibility (1/GPa) = 0.03736743
#
# Stress axis : x y z
#
# Youngs Moduli (GPa) = 148.88498 16.58768 64.39107
#
# Poissons Ratio (x) = 0.00585 0.13110
# Poissons Ratio (y) = 0.05247 1.30032
# Poissons Ratio (z) = 0.30313 0.33497
#
# Static dielectric constant tensor:
#      x y z
#    x 2.713570 0.059540 -0.136560 
#    y 0.059540 2.013170 -0.240450 
#    z -0.136560 -0.240450 1.916330 
# 
# From -- ./inp_files/488511.got.cif
#   From: 2010.05.17/outbox.cif.g08.bks.cpg/sg2_245_cif.got.tgz:488511.got - 2010.06.03 11:33:40.
