data_PCOD9033483
_publ_section_title
;
Structure prediction by ZEFSAII (Michael W. Deem and Ramdas Pophale) SiO2 
 PCOD9033483
Probable space group: P -1
;
_chemical_formula_sum "Si O2"
_cell_formula_units_Z 15
_cell_length_a 14.543636
_cell_length_b 8.364043
_cell_length_c 16.517690
_cell_angle_alpha 106.839475
_cell_angle_beta 149.065370
_cell_angle_gamma 52.532617
_cell_volume 674.247901
_symmetry_space_group_name_H-M "P -1"
_symmetry_group_IT_number 2
_symmetry_cell_setting 'triclinic'
loop_
_space_group_symop_operation_xyz
x,y,z
-x,-y,-z
loop_
_atom_site_type_symbol
_atom_site_label
_atom_site_fract_x
_atom_site_fract_y
_atom_site_fract_z
Si Si1 0.056922 0.081252 0.808456
Si Si2 0.404012 0.822884 0.591587
Si Si3 0.683058 0.861769 0.696015
Si Si4 0.209241 0.921849 0.080043
Si Si5 0.757343 0.734369 0.123844
Si Si6 0.012923 0.601893 0.605202
Si Si7 0.296860 0.500291 0.071694
Si Si8 0.500000 0.500000 0.000000
O O1 0.112339 0.225914 0.834463
O O2 0.779932 0.195333 0.586693
O O3 0.271485 0.800831 0.897241
O O4 0.077117 0.075117 0.920356
O O5 0.614934 0.738416 0.672364
O O6 0.550397 0.668288 0.760316
O O7 0.223287 0.106394 0.518191
O O8 0.500000 0.000000 0.500000
O O9 0.633321 0.043835 0.749737
O O10 0.986109 0.677955 0.874034
O O11 0.359905 0.650892 0.130682
O O12 0.000000 0.000000 0.000000
O O13 0.954721 0.543982 0.315021
O O14 0.644945 0.640930 0.985775
O O15 0.500000 0.000000 0.000000
O O16 0.272884 0.536843 0.794243
O O17 0.000000 0.500000 0.500000
#
# Coordination Sequence:
#
# PCOD9033483 Si02
#       8
#     2   2   2   2   2   2   2   1
#     4  11  24  45  70 102 146 184 243 296 366 429
#     4  11  24  42  64 103 140 185 236 294 359 437
#     4  11  23  44  71 100 139 187 240 296 366 431
#     4  10  23  44  72 102 138 188 234 298 361 424
#     4  12  24  45  71 105 139 193 242 300 362 429
#     4  11  24  44  68 100 143 188 247 300 368 428
#     4  11  24  44  68 104 141 185 238 297 357 438
#     4  10  22  44  68 104 140 194 232 310 350 434
#
# _framework density 22.247011000000001
#
# number of rings (size 3 to 8) (size 9 to 14) (size 15 to 20)
#    0.000    1.067    1.333    6.000    1.867    3.200 
#    2.400    6.000    0.000    0.000    0.000    0.000 
#    0.000    0.000    0.000    0.000    0.000    0.000 
#
# Total GULP energy -83692.454242 kJ/mol
# GULP energy per Si atom -5579.496949 kJ/mol
# Density = 2.219638 g / cm^3
# Si number density = 22.247011 Si / 1000 Ang^3
#
#
#
# Elastic Constant Matrix: (Units=GPa)
#
#
# Indices 1 2 3 4 5 6 
#
# 1 81.1986 12.7650 45.8252 6.3934 -32.7409 6.8495
# 2 12.7650 103.4676 44.4398 25.4525 -15.1354 1.4690
# 3 45.8252 44.4398 168.5263 14.2566 -28.3321 1.3726
# 4 6.3934 25.4525 14.2566 47.0429 1.0544 -6.6062
# 5 -32.7409 -15.1354 -28.3321 1.0544 60.4731 -4.1883
# 6 6.8495 1.4690 1.3726 -6.6062 -4.1883 25.5952
#
#
#
# Elastic Compliance Matrix: (Units=1/GPa)
#
#
# Indices 1 2 3 4 5 6 
#
# 1 0.017987 0.001256 -0.003584 -0.002794 0.008140 -0.004083
# 2 0.001256 0.012689 -0.002681 -0.006590 0.002562 -0.002202
# 3 -0.003584 -0.002681 0.007826 -0.000348 0.001115 0.000786
# 4 -0.002794 -0.006590 -0.000348 0.026425 -0.003271 0.007430
# 5 0.008140 0.002562 0.001115 -0.003271 0.022192 0.000402
# 6 -0.004083 -0.002202 0.000786 0.007430 0.000402 0.042230
#
#
# Mechanical properties :
#
#
# Convention : Reuss Voigt Hill
#
# Bulk Modulus (GPa) = 35.10851 62.13915 48.62383
# Shear Modulus (GPa) = 33.58818 43.29974 38.44396
#
# Velocity S-wave (km/s) = 3.88981 4.41649 4.16149
# Velocity P-wave (km/s) = 5.99914 7.34842 6.70779
#
# Compressibility (1/GPa) = 0.02848312
#
# Stress axis : x y z
#
# Youngs Moduli (GPa) = 55.59499 78.81013 127.77760
#
# Poissons Ratio (x) = -0.09901 0.45799
# Poissons Ratio (y) = -0.06984 0.34263
# Poissons Ratio (z) = 0.19927 0.21132
#
# Static dielectric constant tensor:
#      x y z
#    x 1.951560 -0.051110 -0.013020 
#    y -0.051110 1.849280 0.000500 
#    z -0.013020 0.000500 1.759500 
# 
# From -- ./inp_files/530015.got.cif
#   From: 2010.05.17/outbox.cif.g08.bks.cpg/sg2_266_cif.got.tgz:530015.got - 2010.06.03 11:33:40.
