data_PCOD9033492
_publ_section_title
;
Structure prediction by ZEFSAII (Michael W. Deem and Ramdas Pophale) SiO2 
 PCOD9033492
Probable space group: P -1
;
_chemical_formula_sum "Si O2"
_cell_formula_units_Z 15
_cell_length_a 17.708390
_cell_length_b 9.548880
_cell_length_c 6.674914
_cell_angle_alpha 87.398531
_cell_angle_beta 78.314961
_cell_angle_gamma 30.207751
_cell_volume 536.524190
_symmetry_space_group_name_H-M "P -1"
_symmetry_group_IT_number 2
_symmetry_cell_setting 'triclinic'
loop_
_space_group_symop_operation_xyz
x,y,z
-x,-y,-z
loop_
_atom_site_type_symbol
_atom_site_label
_atom_site_fract_x
_atom_site_fract_y
_atom_site_fract_z
Si Si1 0.193781 0.538670 0.124933
Si Si2 0.784649 0.894261 0.261303
Si Si3 0.393094 0.746377 0.324640
Si Si4 0.000000 0.000000 0.000000
Si Si5 0.923715 0.257158 0.419042
Si Si6 0.104895 0.252794 0.229574
Si Si7 0.429089 0.024133 0.724104
Si Si8 0.633654 0.485134 0.919061
O O1 0.196490 0.499954 0.358930
O O2 0.201392 0.701957 0.086471
O O3 0.015814 0.816709 0.119772
O O4 0.333701 0.256157 0.936465
O O5 0.701314 0.874333 0.303291
O O6 0.963704 0.587776 0.262179
O O7 0.653606 0.198072 0.422904
O O8 0.805348 0.903154 0.019406
O O9 0.369334 0.643957 0.214424
O O10 0.240051 0.083853 0.320742
O O11 0.539306 0.596955 0.162741
O O12 0.119362 0.739835 0.770708
O O13 0.033841 0.216255 0.328710
O O14 0.000000 0.000000 0.500000
O O15 0.500000 0.000000 0.500000
O O16 0.549452 0.734699 0.806610
#
# Coordination Sequence:
#
# PCOD9033492 Si02
#       8
#     2   2   2   1   2   2   2   2
#     4  11  25  45  73 105 144 184 235 296 354 424
#     4  11  26  45  74 103 137 191 234 294 358 415
#     4  11  24  49  72  99 145 179 239 296 349 432
#     4  10  22  44  68 106 142 176 236 282 360 414
#     4  10  23  41  70 106 142 185 226 294 356 417
#     4  11  24  45  69 105 139 179 240 289 358 423
#     4  12  27  48  72 104 144 192 242 293 351 429
#     4  11  26  46  72 104 138 191 235 291 360 417
#
# _framework density 27.957732
#
# number of rings (size 3 to 8) (size 9 to 14) (size 15 to 20)
#    0.000    1.067    1.333    4.000    5.600    5.867 
#    4.800    0.000    0.000    0.000    0.000    0.000 
#    0.000    0.000    0.000    0.000    0.000    0.000 
#
# Total GULP energy -83736.120415 kJ/mol
# GULP energy per Si atom -5582.408028 kJ/mol
# Density = 2.789410 g / cm^3
# Si number density = 27.957732 Si / 1000 Ang^3
#
#
#
# Elastic Constant Matrix: (Units=GPa)
#
#
# Indices 1 2 3 4 5 6 
#
# 1 119.6039 17.6965 58.6284 12.4273 -22.7789 11.0045
# 2 17.6965 85.7201 34.0522 5.6807 -14.6935 22.7699
# 3 58.6284 34.0522 270.2330 51.0816 -20.5433 22.9247
# 4 12.4273 5.6807 51.0816 55.7404 4.8212 -2.6232
# 5 -22.7789 -14.6935 -20.5433 4.8212 51.7398 -1.3630
# 6 11.0045 22.7699 22.9247 -2.6232 -1.3630 31.4484
#
#
#
# Elastic Compliance Matrix: (Units=1/GPa)
#
#
# Indices 1 2 3 4 5 6 
#
# 1 0.010198 -0.000137 -0.001428 -0.001405 0.003952 -0.002375
# 2 -0.000137 0.015598 -0.000265 -0.002198 0.004178 -0.011055
# 3 -0.001428 -0.000265 0.005422 -0.004950 0.001816 -0.003596
# 4 -0.001405 -0.002198 -0.004950 0.023817 -0.005231 0.007451
# 5 0.003952 0.004178 0.001816 -0.005231 0.023327 -0.005157
# 6 -0.002375 -0.011055 -0.003596 0.007451 -0.005157 0.043652
#
#
# Mechanical properties :
#
#
# Convention : Reuss Voigt Hill
#
# Bulk Modulus (GPa) = 36.28564 77.36792 56.82678
# Shear Modulus (GPa) = 37.07564 52.13105 44.60334
#
# Velocity S-wave (km/s) = 3.64556 4.32283 3.99856
# Velocity P-wave (km/s) = 5.54320 7.25597 6.45663
#
# Compressibility (1/GPa) = 0.02755911
#
# Stress axis : x y z
#
# Youngs Moduli (GPa) = 98.05556 64.11262 184.41881
#
# Poissons Ratio (x) = 0.00877 0.26332
# Poissons Ratio (y) = 0.01341 0.04886
# Poissons Ratio (z) = 0.14001 0.01698
#
# Static dielectric constant tensor:
#      x y z
#    x 1.907110 0.339040 -0.168990 
#    y 0.339040 1.817070 0.274470 
#    z -0.168990 0.274470 2.111850 
# 
# From -- ./inp_files/118211.got.cif
#   From: 2010.05.17/outbox.cif.g08.bks.cpg/sg2_60_cif.got.tgz:118211.got - 2010.06.03 11:33:40.
