data_PCOD9033706
_publ_section_title
;
Structure prediction by ZEFSAII (Michael W. Deem and Ramdas Pophale) SiO2 
 PCOD9033706
Probable space group: P -1
;
_chemical_formula_sum "Si O2"
_cell_formula_units_Z 16
_cell_length_a 20.857696
_cell_length_b 7.340901
_cell_length_c 8.711001
_cell_angle_alpha 58.471409
_cell_angle_beta 39.836465
_cell_angle_gamma 52.860719
_cell_volume 676.505260
_symmetry_space_group_name_H-M "P -1"
_symmetry_group_IT_number 2
_symmetry_cell_setting 'triclinic'
loop_
_space_group_symop_operation_xyz
x,y,z
-x,-y,-z
loop_
_atom_site_type_symbol
_atom_site_label
_atom_site_fract_x
_atom_site_fract_y
_atom_site_fract_z
Si Si1 0.216589 0.841915 0.761940
Si Si2 0.825536 0.188443 0.794962
Si Si3 0.991126 0.697387 0.715617
Si Si4 0.283650 0.242493 0.584659
Si Si5 0.373689 0.915070 0.845917
Si Si6 0.549595 0.509797 0.572038
Si Si7 0.500752 0.180847 0.046020
Si Si8 0.084776 0.671522 0.873282
O O1 0.323159 0.620763 0.621059
O O2 0.125232 0.851078 0.804124
O O3 0.248901 0.065014 0.623213
O O4 0.183655 0.796628 0.012074
O O5 0.893593 0.338235 0.551736
O O6 0.705843 0.228938 0.939790
O O7 0.900025 0.928893 0.717682
O O8 0.999691 0.755062 0.855327
O O9 0.958590 0.476502 0.866503
O O10 0.387557 0.264839 0.306360
O O11 0.187561 0.481116 0.685282
O O12 0.312427 0.123153 0.752447
O O13 0.485685 0.772823 0.617248
O O14 0.406074 0.943088 0.946730
O O15 0.500000 0.500000 0.500000
O O16 0.519788 0.379238 0.826665
O O17 0.500000 0.000000 0.000000
#
# Coordination Sequence:
#
# PCOD9033706 Si02
#       8
#     2   2   2   2   2   2   2   2
#     4  11  23  42  68  96 131 173 216 270 336 390
#     4  10  22  44  69  92 134 172 217 277 338 382
#     4  10  23  44  65  98 129 169 225 279 329 392
#     4  11  23  46  64 100 139 174 220 274 334 390
#     4  11  23  43  66  95 138 180 210 279 331 391
#     4  12  23  43  66  99 135 173 219 269 329 404
#     4  12  25  39  66 100 135 176 225 263 329 407
#     4  11  24  42  71  95 129 172 224 275 335 391
#
# _framework density 23.650963000000001
#
# number of rings (size 3 to 8) (size 9 to 14) (size 15 to 20)
#    0.000    1.000    6.250    1.500    3.500    2.000 
#    0.000    0.000    0.000    0.000    0.000    0.000 
#    0.000    0.000    0.000    0.000    0.000    0.000 
#
# Total GULP energy -89502.459725 kJ/mol
# GULP energy per Si atom -5593.903733 kJ/mol
# Density = 2.359713 g / cm^3
# Si number density = 23.650963 Si / 1000 Ang^3
#
#
#
# Elastic Constant Matrix: (Units=GPa)
#
#
# Indices 1 2 3 4 5 6 
#
# 1 131.4242 23.5078 -0.5463 4.2395 -3.5875 10.2459
# 2 23.5078 59.1140 12.2033 5.7648 -0.2909 -4.8411
# 3 -0.5463 12.2033 145.0687 0.2632 -10.8516 -0.8364
# 4 4.2395 5.7648 0.2632 30.4894 -5.7831 -3.5145
# 5 -3.5875 -0.2909 -10.8516 -5.7831 34.3247 -4.1291
# 6 10.2459 -4.8411 -0.8364 -3.5145 -4.1291 29.5724
#
#
#
# Elastic Compliance Matrix: (Units=1/GPa)
#
#
# Indices 1 2 3 4 5 6 
#
# 1 0.008593 -0.003703 0.000355 -0.000838 0.000403 -0.003617
# 2 -0.003703 0.019328 -0.001668 -0.002810 -0.000747 0.003961
# 3 0.000355 -0.001668 0.007218 0.000695 0.002450 0.000233
# 4 -0.000838 -0.002810 0.000695 0.035274 0.006650 0.004971
# 5 0.000403 -0.000747 0.002450 0.006650 0.031668 0.005019
# 6 -0.003617 0.003961 0.000233 0.004971 0.005019 0.037015
#
#
# Mechanical properties :
#
#
# Convention : Reuss Voigt Hill
#
# Bulk Modulus (GPa) = 39.82920 45.10406 42.46663
# Shear Modulus (GPa) = 31.74655 38.90676 35.32666
#
# Velocity S-wave (km/s) = 3.66771 4.06031 3.86899
# Velocity P-wave (km/s) = 5.90026 6.41043 6.16063
#
# Compressibility (1/GPa) = 0.02510721
#
# Stress axis : x y z
#
# Youngs Moduli (GPa) = 116.37768 51.73831 138.53715
#
# Poissons Ratio (x) = 0.19157 -0.04913
# Poissons Ratio (y) = 0.43091 0.23105
# Poissons Ratio (z) = -0.04127 0.08629
#
# Static dielectric constant tensor:
#      x y z
#    x 1.825580 0.225040 -0.147550 
#    y 0.225040 1.327710 0.300940 
#    z -0.147550 0.300940 1.714280 
# 
# From -- ./inp_files/342524.got.cif
#   From: 2010.05.17/outbox.cif.g08.bks.cpg/sg2_172_cif.got.tgz:342524.got - 2010.06.03 11:33:40.
