data_PCOD9033294
_publ_section_title
;
Structure prediction by ZEFSAII (Michael W. Deem and Ramdas Pophale) SiO2 
 PCOD9033294
Probable space group: P -1
;
_chemical_formula_sum "Si O2"
_cell_formula_units_Z 14
_cell_length_a 23.773049
_cell_length_b 13.985367
_cell_length_c 9.821990
_cell_angle_alpha 137.098254
_cell_angle_beta 33.304703
_cell_angle_gamma 159.294310
_cell_volume 613.234775
_symmetry_space_group_name_H-M "P -1"
_symmetry_group_IT_number 2
_symmetry_cell_setting 'triclinic'
loop_
_space_group_symop_operation_xyz
x,y,z
-x,-y,-z
loop_
_atom_site_type_symbol
_atom_site_label
_atom_site_fract_x
_atom_site_fract_y
_atom_site_fract_z
Si Si1 0.989856 0.356611 0.769658
Si Si2 0.890105 0.773244 0.141255
Si Si3 0.546841 0.839992 0.159126
Si Si4 0.178276 0.319075 0.500021
Si Si5 0.273186 0.161590 0.598696
Si Si6 0.360297 0.885509 0.461903
Si Si7 0.501771 0.836741 0.796551
O O1 0.116437 0.389718 0.626210
O O2 0.122538 0.564477 0.590891
O O3 0.000000 0.500000 0.000000
O O4 0.760986 0.035842 0.878869
O O5 0.827156 0.667137 0.312673
O O6 0.849199 0.890705 0.319470
O O7 0.726695 0.497761 0.088436
O O8 0.120188 0.003444 0.872848
O O9 0.386338 0.535298 0.221284
O O10 0.471333 0.865550 0.228048
O O11 0.593782 0.984241 0.352069
O O12 0.000000 0.000000 0.500000
O O13 0.500000 0.500000 0.500000
O O14 0.336213 0.073346 0.363833
O O15 0.428345 0.074777 0.409275
O O16 0.500000 0.000000 0.000000
#
# Coordination Sequence:
#
# PCOD9033294 Si02
#       7
#     2   2   2   2   2   2   2
#     4   9  20  35  61  91 118 159 198 241 315 371
#     4  10  22  44  67  84 128 168 202 260 306 364
#     4   9  18  37  58  89 118 159 195 244 310 361
#     4  11  23  39  60  95 123 157 206 247 303 375
#     4   9  22  44  65  89 119 170 215 250 310 362
#     4   9  18  35  59  88 123 149 194 253 305 369
#     4  11  23  40  67  96 120 159 214 260 308 363
#
# _framework density 22.829758000000002
#
# number of rings (size 3 to 8) (size 9 to 14) (size 15 to 20)
#    0.000    2.286    1.429    0.857    4.000    1.143 
#   18.000    0.000    0.000    0.000    0.000    0.000 
#    0.000    0.000    0.000    0.000    0.000    0.000 
#
# Total GULP energy -78003.497133 kJ/mol
# GULP energy per Si atom -5571.678367 kJ/mol
# Density = 2.277780 g / cm^3
# Si number density = 22.829758 Si / 1000 Ang^3
#
#
#
# Elastic Constant Matrix: (Units=GPa)
#
#
# Indices 1 2 3 4 5 6 
#
# 1 39.5545 17.0825 23.2001 -8.4339 -7.8767 -12.7595
# 2 17.0825 109.4945 43.7847 -27.2020 -4.5930 -13.0452
# 3 23.2001 43.7847 92.7062 -18.0546 -21.1265 0.8217
# 4 -8.4339 -27.2020 -18.0546 57.1517 -9.1474 0.2744
# 5 -7.8767 -4.5930 -21.1265 -9.1474 21.0465 -1.0503
# 6 -12.7595 -13.0452 0.8217 0.2744 -1.0503 26.5636
#
#
#
# Elastic Compliance Matrix: (Units=1/GPa)
#
#
# Indices 1 2 3 4 5 6 
#
# 1 0.038554 0.000810 -0.006407 0.005826 0.011680 0.019516
# 2 0.000810 0.013234 -0.005660 0.004573 -0.000153 0.007010
# 3 -0.006407 -0.005660 0.020752 0.006073 0.019549 -0.005789
# 4 0.005826 0.004573 0.006073 0.025745 0.020734 0.005410
# 5 0.011680 -0.000153 0.019549 0.020734 0.080881 0.007914
# 6 0.019516 0.007010 -0.005789 0.005410 0.007914 0.050899
#
#
# Mechanical properties :
#
#
# Convention : Reuss Voigt Hill
#
# Bulk Modulus (GPa) = 19.98948 45.54331 32.76639
# Shear Modulus (GPa) = 18.56979 31.46490 25.01735
#
# Velocity S-wave (km/s) = 2.85512 3.71649 3.31391
# Velocity P-wave (km/s) = 4.43213 6.19749 5.38761
#
# Compressibility (1/GPa) = 0.05002631
#
# Stress axis : x y z
#
# Youngs Moduli (GPa) = 25.93782 75.56011 48.18764
#
# Poissons Ratio (x) = -0.06119 0.30875
# Poissons Ratio (y) = -0.02101 0.27273
# Poissons Ratio (z) = 0.16619 0.42765
#
# Static dielectric constant tensor:
#      x y z
#    x 1.917540 0.025280 0.062150 
#    y 0.025280 1.940290 -0.052890 
#    z 0.062150 -0.052890 1.931780 
# 
# From -- ./inp_files/400025.got.cif
#   From: 2010.05.17/outbox.cif.g08.bks.cpg/sg2_201_cif.got.tgz:400025.got - 2010.06.03 11:33:40.
