data_PCOD9033636
_publ_section_title
;
Structure prediction by ZEFSAII (Michael W. Deem and Ramdas Pophale) SiO2 
 PCOD9033636
Probable space group: P -1
;
_chemical_formula_sum "Si O2"
_cell_formula_units_Z 14
_cell_length_a 15.626230
_cell_length_b 5.219250
_cell_length_c 17.657607
_cell_angle_alpha 123.118688
_cell_angle_beta 27.526502
_cell_angle_gamma 112.649034
_cell_volume 538.723207
_symmetry_space_group_name_H-M "P -1"
_symmetry_group_IT_number 2
_symmetry_cell_setting 'triclinic'
loop_
_space_group_symop_operation_xyz
x,y,z
-x,-y,-z
loop_
_atom_site_type_symbol
_atom_site_label
_atom_site_fract_x
_atom_site_fract_y
_atom_site_fract_z
Si Si1 0.382059 0.214489 0.332442
Si Si2 0.300321 0.304049 0.934550
Si Si3 0.097140 0.492189 0.340071
Si Si4 0.225177 0.846187 0.804761
Si Si5 0.580380 0.681408 0.840827
Si Si6 0.005635 0.157038 0.679472
Si Si7 0.522529 0.335409 0.561592
O O1 0.307970 0.254310 0.311511
O O2 0.390206 0.553494 0.414076
O O3 0.235755 0.085862 0.479787
O O4 0.593411 0.980083 0.138112
O O5 0.420713 0.548506 0.903991
O O6 0.310537 0.131211 0.817426
O O7 0.086366 0.521701 0.149779
O O8 0.300825 0.525207 0.218985
O O9 0.058569 0.728868 0.337823
O O10 0.000000 0.500000 0.500000
O O11 0.068748 0.143120 0.282175
O O12 0.313333 0.576098 0.753389
O O13 0.317255 0.655762 0.627176
O O14 0.000000 0.000000 0.000000
O O15 0.500000 0.000000 0.000000
O O16 0.500000 0.000000 0.500000
#
# Coordination Sequence:
#
# PCOD9033636 Si02
#       7
#     2   2   2   2   2   2   2
#     4  11  25  43  69  97 137 185 236 289 356 422
#     4  11  25  43  68 100 140 180 236 289 355 426
#     4  12  25  43  69  97 141 187 242 289 344 413
#     4  10  22  44  70 101 137 176 230 296 362 425
#     4  12  24  41  64  96 138 186 229 289 343 412
#     4  12  26  46  68 104 140 188 241 291 349 420
#     4  10  22  44  69 101 135 178 231 293 362 430
#
# _framework density 25.987373000000002
#
# number of rings (size 3 to 8) (size 9 to 14) (size 15 to 20)
#    0.000    0.857    2.857    3.857    2.000    1.714 
#    2.571    0.000    0.000    0.000    0.000    0.000 
#    0.000    0.000    0.000    0.000    0.000    0.000 
#
# Total GULP energy -78032.628677 kJ/mol
# GULP energy per Si atom -5573.759191 kJ/mol
# Density = 2.592822 g / cm^3
# Si number density = 25.987373 Si / 1000 Ang^3
#
#
#
# Elastic Constant Matrix: (Units=GPa)
#
#
# Indices 1 2 3 4 5 6 
#
# 1 112.5134 40.8780 24.6064 11.1710 9.8417 13.1568
# 2 40.8780 124.4929 15.1204 12.1939 -0.6716 16.2660
# 3 24.6064 15.1204 80.9708 21.5202 -6.7950 7.3175
# 4 11.1710 12.1939 21.5202 40.4096 11.3705 2.2894
# 5 9.8417 -0.6716 -6.7950 11.3705 45.9761 8.2699
# 6 13.1568 16.2660 7.3175 2.2894 8.2699 42.5680
#
#
#
# Elastic Compliance Matrix: (Units=1/GPa)
#
#
# Indices 1 2 3 4 5 6 
#
# 1 0.011025 -0.003150 -0.002965 0.000311 -0.002708 -0.001185
# 2 -0.003150 0.009696 0.000288 -0.002614 0.002052 -0.003039
# 3 -0.002965 0.000288 0.016473 -0.009554 0.005915 -0.002661
# 4 0.000311 -0.002614 -0.009554 0.033262 -0.010237 0.002745
# 5 -0.002708 0.002052 0.005915 -0.010237 0.026776 -0.005615
# 6 -0.001185 -0.003039 -0.002661 0.002745 -0.005615 0.026420
#
#
# Mechanical properties :
#
#
# Convention : Reuss Voigt Hill
#
# Bulk Modulus (GPa) = 39.15371 53.24296 46.19833
# Shear Modulus (GPa) = 34.76539 41.61554 38.19046
#
# Velocity S-wave (km/s) = 3.66154 4.00606 3.83767
# Velocity P-wave (km/s) = 5.74238 6.47538 6.11986
#
# Compressibility (1/GPa) = 0.02554037
#
# Stress axis : x y z
#
# Youngs Moduli (GPa) = 90.69933 103.13359 60.70380
#
# Poissons Ratio (x) = 0.32491 0.17999
# Poissons Ratio (y) = 0.28574 -0.01749
# Poissons Ratio (z) = 0.26893 -0.02972
#
# Static dielectric constant tensor:
#      x y z
#    x 2.190030 0.000510 -0.053130 
#    y 0.000510 2.206390 -0.128990 
#    z -0.053130 -0.128990 2.276550 
# 
# From -- ./inp_files/49240.got.cif
#   From: 2010.05.17/outbox.cif.g08.bks.cpg/sg2_25_cif.got.tgz:49240.got - 2010.06.03 11:33:40.
