data_PCOD9033771
_publ_section_title
;
Structure prediction by ZEFSAII (Michael W. Deem and Ramdas Pophale) SiO2 
 PCOD9033771
Probable space group: P -1
;
_chemical_formula_sum "Si O2"
_cell_formula_units_Z 14
_cell_length_a 10.343703
_cell_length_b 14.454126
_cell_length_c 9.485968
_cell_angle_alpha 68.198697
_cell_angle_beta 109.303365
_cell_angle_gamma 154.568827
_cell_volume 565.428709
_symmetry_space_group_name_H-M "P -1"
_symmetry_group_IT_number 2
_symmetry_cell_setting 'triclinic'
loop_
_space_group_symop_operation_xyz
x,y,z
-x,-y,-z
loop_
_atom_site_type_symbol
_atom_site_label
_atom_site_fract_x
_atom_site_fract_y
_atom_site_fract_z
Si Si1 0.164643 0.373308 0.057370
Si Si2 0.134017 0.365154 0.361037
Si Si3 0.109198 0.985463 0.444015
Si Si4 0.657031 0.289073 0.664021
Si Si5 0.302634 0.761272 0.991936
Si Si6 0.466558 0.981114 0.326502
Si Si7 0.787523 0.824110 0.900034
O O1 0.296871 0.461905 0.215817
O O2 0.131175 0.236580 0.080250
O O3 0.859434 0.240911 0.012586
O O4 0.433623 0.594119 0.938805
O O5 0.180545 0.499839 0.377893
O O6 0.127339 0.259424 0.506790
O O7 0.790571 0.147035 0.308801
O O8 0.424524 0.161090 0.528163
O O9 0.155691 0.063161 0.268163
O O10 0.000000 0.000000 0.500000
O O11 0.781555 0.261802 0.671312
O O12 0.557287 0.200117 0.840270
O O13 0.507487 0.909296 0.839173
O O14 0.000000 0.500000 0.000000
O O15 0.500000 0.000000 0.500000
O O16 0.000000 0.000000 0.000000
#
# Coordination Sequence:
#
# PCOD9033771 Si02
#       7
#     2   2   2   2   2   2   2
#     4  10  23  45  71 104 139 175 242 282 342 424
#     4  10  22  44  69  98 136 182 230 278 348 416
#     4  11  25  45  69 101 136 176 239 286 341 419
#     4  11  24  45  71  97 139 189 224 279 357 412
#     4  11  22  45  74 103 140 186 230 279 352 428
#     4  10  23  43  64 104 140 174 230 279 337 419
#     4  11  26  47  71 101 137 185 235 294 346 403
#
# _framework density 24.759972999999999
#
# number of rings (size 3 to 8) (size 9 to 14) (size 15 to 20)
#    0.000    1.429    4.286    0.429    2.000    5.714 
#   10.286    0.000    0.000    0.000    0.000    0.000 
#    0.000    0.000    0.000    0.000    0.000    0.000 
#
# Total GULP energy -77976.919957 kJ/mol
# GULP energy per Si atom -5569.779997 kJ/mol
# Density = 2.470362 g / cm^3
# Si number density = 24.759973 Si / 1000 Ang^3
#
#
#
# Elastic Constant Matrix: (Units=GPa)
#
#
# Indices 1 2 3 4 5 6 
#
# 1 61.4188 27.4176 41.3042 -16.3727 0.4878 -16.9997
# 2 27.4176 110.0555 59.9548 -3.1896 12.1957 -45.1025
# 3 41.3042 59.9548 251.4726 -2.9061 12.0227 -20.1172
# 4 -16.3727 -3.1896 -2.9061 45.7680 -5.3690 7.4976
# 5 0.4878 12.1957 12.0227 -5.3690 32.3975 -2.8642
# 6 -16.9997 -45.1025 -20.1172 7.4976 -2.8642 49.1202
#
#
#
# Elastic Compliance Matrix: (Units=1/GPa)
#
#
# Indices 1 2 3 4 5 6 
#
# 1 0.022259 -0.003015 -0.002782 0.007500 0.003327 0.002845
# 2 -0.003015 0.017314 -0.002309 -0.002892 -0.004851 0.014067
# 3 -0.002782 -0.002309 0.004950 -0.000813 -0.001149 -0.000999
# 4 0.007500 -0.002892 -0.000813 0.025538 0.005157 -0.003990
# 5 0.003327 -0.004851 -0.001149 0.005157 0.033694 -0.002596
# 6 0.002845 0.014067 -0.000999 -0.003990 -0.002596 0.034308
#
#
# Mechanical properties :
#
#
# Convention : Reuss Voigt Hill
#
# Bulk Modulus (GPa) = 35.32261 75.58890 55.45575
# Shear Modulus (GPa) = 30.54159 45.07518 37.80838
#
# Velocity S-wave (km/s) = 3.51594 4.27134 3.91192
# Velocity P-wave (km/s) = 5.54792 7.41086 6.54600
#
# Compressibility (1/GPa) = 0.02831048
#
# Stress axis : x y z
#
# Youngs Moduli (GPa) = 44.92607 57.75668 202.03624
#
# Poissons Ratio (x) = 0.17415 0.56205
# Poissons Ratio (y) = 0.13546 0.46646
# Poissons Ratio (z) = 0.12498 0.13335
#
# Static dielectric constant tensor:
#      x y z
#    x 3.277650 -0.704110 0.355680 
#    y -0.704110 2.345140 -0.217520 
#    z 0.355680 -0.217520 2.156780 
# 
# From -- ./inp_files/272537.got.cif
#   From: 2010.05.17/outbox.cif.g08.bks.cpg/sg2_137_cif.got.tgz:272537.got - 2010.06.03 11:33:40.
