data_PCOD9033004
_publ_section_title
;
Structure prediction by ZEFSAII (Michael W. Deem and Ramdas Pophale) SiO2 
 PCOD9033004
Probable space group: P -1
;
_chemical_formula_sum "Si O2"
_cell_formula_units_Z 16
_cell_length_a 15.841945
_cell_length_b 14.578823
_cell_length_c 18.462998
_cell_angle_alpha 19.442528
_cell_angle_beta 31.900004
_cell_angle_gamma 40.822676
_cell_volume 726.399241
_symmetry_space_group_name_H-M "P -1"
_symmetry_group_IT_number 2
_symmetry_cell_setting 'triclinic'
loop_
_space_group_symop_operation_xyz
x,y,z
-x,-y,-z
loop_
_atom_site_type_symbol
_atom_site_label
_atom_site_fract_x
_atom_site_fract_y
_atom_site_fract_z
Si Si1 0.115395 0.353925 0.200540
Si Si2 0.027146 0.121509 0.809427
Si Si3 0.768361 0.257744 0.806575
Si Si4 0.455463 0.758569 0.883751
Si Si5 0.798603 0.215380 0.461948
Si Si6 0.488964 0.842039 0.050543
Si Si7 0.685483 0.138471 0.232266
Si Si8 0.328116 0.624412 0.708282
O O1 0.925957 0.364315 0.320615
O O2 0.120028 0.026899 0.451323
O O3 0.233894 0.550632 0.025603
O O4 0.195211 0.477058 0.974049
O O5 0.092734 0.458067 0.521587
O O6 0.863125 0.053430 0.930617
O O7 0.176327 0.030079 0.727869
O O8 0.000000 0.000000 0.000000
O O9 0.675802 0.167153 0.866857
O O10 0.632598 0.316185 0.919252
O O11 0.330990 0.849492 0.850830
O O12 0.603909 0.038892 0.577171
O O13 0.500000 0.500000 0.000000
O O14 0.750524 0.405468 0.292183
O O15 0.633735 0.028653 0.756760
O O16 0.525693 0.534842 0.267549
O O17 0.500000 0.000000 0.000000
O O18 0.500000 0.000000 0.500000
#
# Coordination Sequence:
#
# PCOD9033004 Si02
#       8
#     2   2   2   2   2   2   2   2
#     4  10  23  40  65 101 137 173 228 292 350 422
#     4  11  25  45  68  99 142 184 224 291 366 416
#     4  11  25  46  66  99 144 179 234 297 346 426
#     4  12  23  39  72 106 137 180 232 290 354 424
#     4  10  22  44  64  97 138 178 230 295 348 403
#     4  11  26  44  69  97 133 188 243 285 342 421
#     4  12  23  40  68 104 135 178 234 280 353 431
#     4  11  22  42  70  98 137 181 230 293 354 410
#
# _framework density 22.026454000000001
#
# number of rings (size 3 to 8) (size 9 to 14) (size 15 to 20)
#    0.000    1.000    3.750    2.625    3.500    2.500 
#    0.000    0.000    0.000    0.000    0.000    0.000 
#    0.000    0.000    0.000    0.000    0.000    0.000 
#
# Total GULP energy -89365.537026 kJ/mol
# GULP energy per Si atom -5585.346064 kJ/mol
# Density = 2.197632 g / cm^3
# Si number density = 22.026454 Si / 1000 Ang^3
#
#
#
# Elastic Constant Matrix: (Units=GPa)
#
#
# Indices 1 2 3 4 5 6 
#
# 1 162.5067 29.3829 27.6211 6.0330 -10.6031 -8.0041
# 2 29.3829 58.9095 2.1413 -4.9820 -3.7220 -12.6584
# 3 27.6211 2.1413 76.1310 -0.9616 -4.3165 -1.8259
# 4 6.0330 -4.9820 -0.9616 15.3201 2.1870 -2.1650
# 5 -10.6031 -3.7220 -4.3165 2.1870 44.0494 2.9010
# 6 -8.0041 -12.6584 -1.8259 -2.1650 2.9010 35.6400
#
#
#
# Elastic Compliance Matrix: (Units=1/GPa)
#
#
# Indices 1 2 3 4 5 6 
#
# 1 0.007591 -0.004057 -0.002622 -0.004724 0.001480 -0.000278
# 2 -0.004057 0.021343 0.001168 0.009648 -0.000020 0.007317
# 3 -0.002622 0.001168 0.014137 0.002290 0.000697 0.000632
# 4 -0.004724 0.009648 0.002290 0.072024 -0.004147 0.007196
# 5 0.001480 -0.000020 0.000697 -0.004147 0.023449 -0.001799
# 6 -0.000278 0.007317 0.000632 0.007196 -0.001799 0.031211
#
#
# Mechanical properties :
#
#
# Convention : Reuss Voigt Hill
#
# Bulk Modulus (GPa) = 31.20220 46.20421 38.70321
# Shear Modulus (GPa) = 26.11492 34.89534 30.50513
#
# Velocity S-wave (km/s) = 3.44701 3.98458 3.72550
# Velocity P-wave (km/s) = 5.48079 6.49549 6.00959
#
# Compressibility (1/GPa) = 0.03204902
#
# Stress axis : x y z
#
# Youngs Moduli (GPa) = 131.73378 46.85361 70.73393
#
# Poissons Ratio (x) = 0.19007 0.18549
# Poissons Ratio (y) = 0.53439 -0.08260
# Poissons Ratio (z) = 0.34546 -0.05471
#
# Static dielectric constant tensor:
#      x y z
#    x 1.874050 -0.068220 -0.003470 
#    y -0.068220 1.870870 -0.021690 
#    z -0.003470 -0.021690 1.805010 
# 
# From -- ./inp_files/574006.got.cif
#   From: 2010.05.17/outbox.cif.g08.bks.cpg/sg2_288_cif.got.tgz:574006.got - 2010.06.03 11:33:40.
