data_PCOD9033218
_publ_section_title
;
Structure prediction by ZEFSAII (Michael W. Deem and Ramdas Pophale) SiO2 
 PCOD9033218
Probable space group: P -1
;
_chemical_formula_sum "Si O2"
_cell_formula_units_Z 13
_cell_length_a 12.319126
_cell_length_b 12.386149
_cell_length_c 12.546285
_cell_angle_alpha 117.070302
_cell_angle_beta 144.821310
_cell_angle_gamma 36.278067
_cell_volume 523.098297
_symmetry_space_group_name_H-M "P -1"
_symmetry_group_IT_number 2
_symmetry_cell_setting 'triclinic'
loop_
_space_group_symop_operation_xyz
x,y,z
-x,-y,-z
loop_
_atom_site_type_symbol
_atom_site_label
_atom_site_fract_x
_atom_site_fract_y
_atom_site_fract_z
Si Si1 0.325128 0.609726 0.293725
Si Si2 0.000000 0.500000 0.500000
Si Si3 0.690320 0.730594 0.178620
Si Si4 0.775339 0.883003 0.573694
Si Si5 0.610037 0.240250 0.251723
Si Si6 0.403145 0.135278 0.172117
Si Si7 0.895127 0.061006 0.065075
O O1 0.500000 0.500000 0.500000
O O2 0.551649 0.414632 0.299646
O O3 0.174512 0.824257 0.245732
O O4 0.973977 0.720459 0.061471
O O5 0.075257 0.496276 0.425477
O O6 0.965758 0.663169 0.579237
O O7 0.622740 0.908646 0.185143
O O8 0.504140 0.748358 0.949918
O O9 0.495193 0.787608 0.159582
O O10 0.062289 0.825160 0.813948
O O11 0.500000 0.000000 0.500000
O O12 0.557335 0.059501 0.379773
O O13 0.391824 0.268901 0.165712
O O14 0.000000 0.000000 0.500000
O O15 0.000000 0.000000 0.000000
#
# Coordination Sequence:
#
# PCOD9033218 Si02
#       7
#     2   1   2   2   2   2   2
#     4  11  24  44  68 101 134 187 238 277 357 426
#     4  10  24  42  64 102 130 184 228 286 350 416
#     4  10  23  42  65  98 137 171 235 285 356 406
#     4  11  23  44  71  95 144 179 237 288 352 423
#     4  12  24  42  68 102 139 180 229 300 350 417
#     4  10  22  44  66  97 136 185 228 287 350 418
#     4  11  24  46  68  98 138 185 230 291 347 429
#
# _framework density 24.851927
#
# number of rings (size 3 to 8) (size 9 to 14) (size 15 to 20)
#    0.000    1.231    0.000    7.385    4.308    0.615 
#   16.615    0.000    0.000    0.000    0.000    0.000 
#    0.000    0.000    0.000    0.000    0.000    0.000 
#
# Total GULP energy -72518.045227 kJ/mol
# GULP energy per Si atom -5578.311171 kJ/mol
# Density = 2.479536 g / cm^3
# Si number density = 24.851927 Si / 1000 Ang^3
#
#
#
# Elastic Constant Matrix: (Units=GPa)
#
#
# Indices 1 2 3 4 5 6 
#
# 1 77.6705 17.4699 6.4028 9.3653 -4.5378 5.6280
# 2 17.4699 145.4823 38.2072 29.3172 -4.8766 22.8957
# 3 6.4028 38.2072 98.2829 26.4550 -16.8622 -5.0881
# 4 9.3653 29.3172 26.4550 50.9535 2.7142 -4.0143
# 5 -4.5378 -4.8766 -16.8622 2.7142 56.0677 9.4742
# 6 5.6280 22.8957 -5.0881 -4.0143 9.4742 28.8046
#
#
#
# Elastic Compliance Matrix: (Units=1/GPa)
#
#
# Indices 1 2 3 4 5 6 
#
# 1 0.013636 -0.000626 0.000191 -0.002580 0.001750 -0.003068
# 2 -0.000626 0.010384 -0.002740 -0.005331 0.001978 -0.010009
# 3 0.000191 -0.002740 0.013449 -0.005435 0.003653 0.002557
# 4 -0.002580 -0.005331 -0.005435 0.026993 -0.005176 0.009246
# 5 0.001750 0.001978 0.003653 -0.005176 0.021002 -0.008898
# 6 -0.003068 -0.010009 0.002557 0.009246 -0.008898 0.047939
#
#
# Mechanical properties :
#
#
# Convention : Reuss Voigt Hill
#
# Bulk Modulus (GPa) = 32.13462 49.51061 40.82262
# Shear Modulus (GPa) = 33.30518 44.45556 38.88037
#
# Velocity S-wave (km/s) = 3.66477 4.23403 3.95964
# Velocity P-wave (km/s) = 5.55571 6.62331 6.11286
#
# Compressibility (1/GPa) = 0.03111909
#
# Stress axis : x y z
#
# Youngs Moduli (GPa) = 73.33734 96.29917 74.35288
#
# Poissons Ratio (x) = 0.06030 -0.01420
# Poissons Ratio (y) = 0.04592 0.20372
# Poissons Ratio (z) = -0.01401 0.26385
#
# Static dielectric constant tensor:
#      x y z
#    x 2.042840 -0.065260 -0.096640 
#    y -0.065260 2.012400 0.142080 
#    z -0.096640 0.142080 1.659650 
# 
# From -- ./inp_files/181600.got.cif
#   From: 2010.05.17/outbox.cif.g08.bks.cpg/sg2_91_cif.got.tgz:181600.got - 2010.06.03 11:33:40.
