data_PCOD9033156
_publ_section_title
;
Structure prediction by ZEFSAII (Michael W. Deem and Ramdas Pophale) SiO2 
 PCOD9033156
Probable space group: P -1
;
_chemical_formula_sum "Si O2"
_cell_formula_units_Z 12
_cell_length_a 13.840661
_cell_length_b 6.902278
_cell_length_c 5.111001
_cell_angle_alpha 68.836285
_cell_angle_beta 74.442697
_cell_angle_gamma 77.946497
_cell_volume 435.228479
_symmetry_space_group_name_H-M "P -1"
_symmetry_group_IT_number 2
_symmetry_cell_setting 'triclinic'
loop_
_space_group_symop_operation_xyz
x,y,z
-x,-y,-z
loop_
_atom_site_type_symbol
_atom_site_label
_atom_site_fract_x
_atom_site_fract_y
_atom_site_fract_z
Si Si1 0.338965 0.639492 0.667741
Si Si2 0.908894 0.570245 0.332785
Si Si3 0.564553 0.673316 0.610344
Si Si4 0.793257 0.978638 0.189612
Si Si5 0.957839 0.174007 0.237200
Si Si6 0.334270 0.204578 0.021184
O O1 0.449127 0.634751 0.726828
O O2 0.368965 0.551369 0.397965
O O3 0.285457 0.449332 0.921431
O O4 0.281783 0.863741 0.661890
O O5 0.820455 0.745376 0.408725
O O6 0.882188 0.350404 0.356903
O O7 0.000000 0.500000 0.500000
O O8 0.955757 0.699080 0.002469
O O9 0.583886 0.802275 0.270888
O O10 0.604620 0.800196 0.755201
O O11 0.745328 0.941605 0.960124
O O12 0.896348 0.082580 0.092602
O O13 0.000000 0.000000 0.500000
#
# Coordination Sequence:
#
# PCOD9033156 Si02
#       6
#     2   2   2   2   2   2
#     4   9  22  43  69 102 146 193 250 301 374 443
#     4  11  25  49  73 102 151 198 253 309 381 466
#     4   9  21  46  68  97 152 199 234 309 374 443
#     4  12  24  44  71 114 139 196 251 316 373 448
#     4  11  25  48  74 107 147 200 249 313 393 451
#     4  10  22  44  66 106 144 190 251 305 370 448
#
# _framework density 27.571729000000001
#
# number of rings (size 3 to 8) (size 9 to 14) (size 15 to 20)
#    1.000    0.667    1.667    2.000    0.000    2.667 
#    9.000    0.000    0.000    0.000    0.000    0.000 
#    0.000    0.000    0.000    0.000    0.000    0.000 
#
# Total GULP energy -67127.425573 kJ/mol
# GULP energy per Si atom -5593.952131 kJ/mol
# Density = 2.750897 g / cm^3
# Si number density = 27.571729 Si / 1000 Ang^3
#
#
#
# Elastic Constant Matrix: (Units=GPa)
#
#
# Indices 1 2 3 4 5 6 
#
# 1 112.3131 67.9965 48.6246 23.1721 19.4548 7.2079
# 2 67.9965 218.2197 60.7129 32.1789 14.9396 -14.1759
# 3 48.6246 60.7129 177.5630 28.7876 24.5328 15.0606
# 4 23.1721 32.1789 28.7876 53.5325 22.8977 10.6244
# 5 19.4548 14.9396 24.5328 22.8977 31.6758 15.3693
# 6 7.2079 -14.1759 15.0606 10.6244 15.3693 70.6027
#
#
#
# Elastic Compliance Matrix: (Units=1/GPa)
#
#
# Indices 1 2 3 4 5 6 
#
# 1 0.012341 -0.003035 -0.001604 -0.000813 -0.004066 -0.000519
# 2 -0.003035 0.006322 -0.001182 -0.002527 0.000616 0.002078
# 3 -0.001604 -0.001182 0.007103 -0.001055 -0.002797 -0.000821
# 4 -0.000813 -0.002527 -0.001055 0.029010 -0.018166 -0.000610
# 5 -0.004066 0.000616 -0.002797 -0.018166 0.052771 -0.007618
# 6 -0.000519 0.002078 -0.000821 -0.000610 -0.007618 0.016559
#
#
# Mechanical properties :
#
#
# Convention : Reuss Voigt Hill
#
# Bulk Modulus (GPa) = 70.80515 95.86264 83.33390
# Shear Modulus (GPa) = 35.59817 53.21299 44.40558
#
# Velocity S-wave (km/s) = 3.59710 4.39792 4.01752
# Velocity P-wave (km/s) = 6.55655 7.78671 7.19796
#
# Compressibility (1/GPa) = 0.01412327
#
# Stress axis : x y z
#
# Youngs Moduli (GPa) = 81.03238 158.16555 140.79454
#
# Poissons Ratio (x) = 0.47996 0.22587
# Poissons Ratio (y) = 0.24590 0.16649
# Poissons Ratio (z) = 0.12999 0.18703
#
# Static dielectric constant tensor:
#      x y z
#    x 2.251050 -0.053590 -0.064320 
#    y -0.053590 2.203000 -0.001410 
#    z -0.064320 -0.001410 2.236010 
# 
# From -- ./inp_files/102033.got.cif
#   From: 2010.05.17/outbox.cif.g08.bks.cpg/sg2_52_cif.got.tgz:102033.got - 2010.06.03 11:33:40.
