data_PCOD9033698
_publ_section_title
;
Structure prediction by ZEFSAII (Michael W. Deem and Ramdas Pophale) SiO2 
 PCOD9033698
Probable space group: P -1
;
_chemical_formula_sum "Si O2"
_cell_formula_units_Z 13
_cell_length_a 7.971830
_cell_length_b 12.187257
_cell_length_c 12.834800
_cell_angle_alpha 32.850274
_cell_angle_beta 94.839321
_cell_angle_gamma 115.344825
_cell_volume 505.851377
_symmetry_space_group_name_H-M "P -1"
_symmetry_group_IT_number 2
_symmetry_cell_setting 'triclinic'
loop_
_space_group_symop_operation_xyz
x,y,z
-x,-y,-z
loop_
_atom_site_type_symbol
_atom_site_label
_atom_site_fract_x
_atom_site_fract_y
_atom_site_fract_z
Si Si1 0.505843 0.268836 0.215678
Si Si2 0.629922 0.741631 0.559308
Si Si3 0.437483 0.117159 0.769048
Si Si4 0.013989 0.751251 0.583470
Si Si5 0.000000 0.500000 0.000000
Si Si6 0.323081 0.114353 0.992245
Si Si7 0.096695 0.378230 0.549334
O O1 0.475889 0.231334 0.369227
O O2 0.500000 0.500000 0.000000
O O3 0.465057 0.426375 0.774000
O O4 0.737230 0.361114 0.116869
O O5 0.667427 0.907538 0.326886
O O6 0.871727 0.843790 0.521681
O O7 0.536916 0.969249 0.891862
O O8 0.653029 0.435291 0.544492
O O9 0.295401 0.041660 0.926100
O O10 0.904764 0.589136 0.599665
O O11 0.990479 0.588754 0.809702
O O12 0.274806 0.994637 0.378487
O O13 0.081348 0.932650 0.179785
O O14 0.000000 0.500000 0.500000
#
# Coordination Sequence:
#
# PCOD9033698 Si02
#       7
#     2   2   2   2   1   2   2
#     4  12  28  55  75 117 153 207 276 328 399 474
#     4  12  25  47  80 115 159 204 265 331 389 480
#     4  10  23  45  70 114 158 204 258 319 396 471
#     4  12  27  51  78 114 160 203 266 329 393 476
#     4  12  30  52  84 108 158 216 260 332 406 460
#     4  10  22  44  69 109 159 207 256 315 396 464
#     4  10  23  43  72 110 154 202 258 315 387 472
#
# _framework density 25.699248999999998
#
# number of rings (size 3 to 8) (size 9 to 14) (size 15 to 20)
#    0.000    0.923    3.077    2.308    4.308    1.846 
#    2.769    0.000    0.000    0.000    0.000    0.000 
#    0.000    0.000    0.000    0.000    0.000    0.000 
#
# Total GULP energy -72689.321589 kJ/mol
# GULP energy per Si atom -5591.486276 kJ/mol
# Density = 2.564076 g / cm^3
# Si number density = 25.699249 Si / 1000 Ang^3
#
#
#
# Elastic Constant Matrix: (Units=GPa)
#
#
# Indices 1 2 3 4 5 6 
#
# 1 139.3819 45.4603 57.1229 -2.5830 -21.0412 37.1479
# 2 45.4603 72.0895 33.5072 6.7468 1.1914 4.7296
# 3 57.1229 33.5072 146.3747 21.0444 1.1459 23.8265
# 4 -2.5830 6.7468 21.0444 46.7689 3.1828 2.8011
# 5 -21.0412 1.1914 1.1459 3.1828 55.7235 1.5899
# 6 37.1479 4.7296 23.8265 2.8011 1.5899 33.3933
#
#
#
# Elastic Compliance Matrix: (Units=1/GPa)
#
#
# Indices 1 2 3 4 5 6 
#
# 1 0.016180 -0.008516 -0.002390 0.003691 0.006578 -0.015711
# 2 -0.008516 0.020033 -0.002266 -0.002607 -0.003695 0.008648
# 3 -0.002390 -0.002266 0.009379 -0.003774 -0.000735 -0.003361
# 4 0.003691 -0.002607 -0.003774 0.023825 0.000253 -0.003054
# 5 0.006578 -0.003695 -0.000735 0.000253 0.020717 -0.007278
# 6 -0.015711 0.008648 -0.003361 -0.003054 -0.007278 0.049199
#
#
# Mechanical properties :
#
#
# Convention : Reuss Voigt Hill
#
# Bulk Modulus (GPa) = 51.95440 70.00299 60.97870
# Shear Modulus (GPa) = 29.05395 41.96086 35.50740
#
# Velocity S-wave (km/s) = 3.36599 4.04513 3.72109
# Velocity P-wave (km/s) = 5.94699 7.00828 6.49933
#
# Compressibility (1/GPa) = 0.01924765
#
# Stress axis : x y z
#
# Youngs Moduli (GPa) = 61.80401 49.91747 106.62673
#
# Poissons Ratio (x) = 0.42510 0.25479
# Poissons Ratio (y) = 0.52633 0.24166
# Poissons Ratio (z) = 0.14769 0.11313
#
# Static dielectric constant tensor:
#      x y z
#    x 2.103080 0.011700 0.015350 
#    y 0.011700 2.067890 -0.063900 
#    z 0.015350 -0.063900 2.037590 
# 
# From -- ./inp_files/249431.got.cif
#   From: 2010.05.17/outbox.cif.g08.bks.cpg/sg2_125_cif.got.tgz:249431.got - 2010.06.03 11:33:40.
