data_PCOD9033430
_publ_section_title
;
Structure prediction by ZEFSAII (Michael W. Deem and Ramdas Pophale) SiO2 
 PCOD9033430
Probable space group: P -1
;
_chemical_formula_sum "Si O2"
_cell_formula_units_Z 14
_cell_length_a 6.067642
_cell_length_b 19.249664
_cell_length_c 6.006308
_cell_angle_alpha 114.636714
_cell_angle_beta 106.474639
_cell_angle_gamma 103.423810
_cell_volume 559.920353
_symmetry_space_group_name_H-M "P -1"
_symmetry_group_IT_number 2
_symmetry_cell_setting 'triclinic'
loop_
_space_group_symop_operation_xyz
x,y,z
-x,-y,-z
loop_
_atom_site_type_symbol
_atom_site_label
_atom_site_fract_x
_atom_site_fract_y
_atom_site_fract_z
Si Si1 0.126891 0.743151 0.401002
Si Si2 0.000395 0.113681 0.223135
Si Si3 0.484973 0.178651 0.753952
Si Si4 0.518880 0.695244 0.729435
Si Si5 0.646221 0.623104 0.287109
Si Si6 0.804508 0.949248 0.188291
Si Si7 0.276545 0.535791 0.725284
O O1 0.100012 0.821440 0.616971
O O2 0.257111 0.774230 0.240533
O O3 0.303261 0.714654 0.569329
O O4 0.861779 0.663276 0.218011
O O5 0.269757 0.136797 0.453825
O O6 0.809671 0.020249 0.114428
O O7 0.077147 0.108020 0.982650
O O8 0.450037 0.107202 0.831568
O O9 0.412370 0.244506 0.959890
O O10 0.699899 0.695514 0.581380
O O11 0.426275 0.601505 0.668193
O O12 0.666019 0.543600 0.301642
O O13 0.370993 0.591601 0.052794
O O14 0.000000 0.000000 0.500000
O O15 0.000000 0.500000 0.500000
#
# Coordination Sequence:
#
# PCOD9033430 Si02
#       7
#     2   2   2   2   2   2   2
#     4  12  24  41  68 103 140 186 238 293 355 432
#     4  10  22  44  68 100 138 187 239 297 353 423
#     4  11  24  43  67  99 141 185 237 297 354 429
#     4  12  25  45  68 103 140 185 236 297 360 428
#     4  11  26  48  74 104 145 187 240 301 353 429
#     4   9  20  42  70  97 139 186 237 296 356 420
#     4  11  24  50  74 106 140 189 240 297 362 426
#
# _framework density 25.003558000000002
#
# number of rings (size 3 to 8) (size 9 to 14) (size 15 to 20)
#    0.000    1.143    1.429    4.714    0.000    5.714 
#   10.286   10.000    0.000    0.000    0.000    0.000 
#    0.000    0.000    0.000    0.000    0.000    0.000 
#
# Total GULP energy -78252.874933 kJ/mol
# GULP energy per Si atom -5589.491067 kJ/mol
# Density = 2.494665 g / cm^3
# Si number density = 25.003558 Si / 1000 Ang^3
#
#
#
# Elastic Constant Matrix: (Units=GPa)
#
#
# Indices 1 2 3 4 5 6 
#
# 1 61.6545 61.9280 40.8647 -8.1989 -18.1442 18.1042
# 2 61.9280 170.7304 21.0573 -1.9817 -19.9222 24.9601
# 3 40.8647 21.0573 139.5343 4.4130 -19.9035 11.4825
# 4 -8.1989 -1.9817 4.4130 35.2028 -5.4676 -1.1804
# 5 -18.1442 -19.9222 -19.9035 -5.4676 46.0615 -6.0983
# 6 18.1042 24.9601 11.4825 -1.1804 -6.0983 45.5269
#
#
#
# Elastic Compliance Matrix: (Units=1/GPa)
#
#
# Indices 1 2 3 4 5 6 
#
# 1 0.037722 -0.010888 -0.008249 0.010105 0.007024 -0.005748
# 2 -0.010888 0.009805 0.001954 -0.002230 0.000326 -0.001553
# 3 -0.008249 0.001954 0.009582 -0.002799 0.001392 -0.000094
# 4 0.010105 -0.002230 -0.002799 0.031825 0.005514 -0.000526
# 5 0.007024 0.000326 0.001392 0.005514 0.025912 0.000291
# 6 -0.005748 -0.001553 -0.000094 -0.000526 0.000291 0.025151
#
#
# Mechanical properties :
#
#
# Convention : Reuss Voigt Hill
#
# Bulk Modulus (GPa) = 43.97026 68.84659 56.40843
# Shear Modulus (GPa) = 27.48107 41.89618 34.68863
#
# Velocity S-wave (km/s) = 3.31884 4.09786 3.72875
# Velocity P-wave (km/s) = 5.68420 7.06997 6.41461
#
# Compressibility (1/GPa) = 0.02274264
#
# Stress axis : x y z
#
# Youngs Moduli (GPa) = 26.50997 101.99253 104.35766
#
# Poissons Ratio (x) = 1.11049 0.86084
# Poissons Ratio (y) = 0.28864 -0.20390
# Poissons Ratio (z) = 0.21868 -0.19928
#
# Static dielectric constant tensor:
#      x y z
#    x 1.989220 0.018950 -0.004700 
#    y 0.018950 2.025720 -0.020920 
#    z -0.004700 -0.020920 2.001390 
# 
# From -- ./inp_files/11705.got.cif
#   From: 2010.05.17/outbox.cif.g08.bks.cpg/sg2_6_cif.got.tgz:11705.got - 2010.06.03 11:33:40.
