data_PCOD9033577
_publ_section_title
;
Structure prediction by ZEFSAII (Michael W. Deem and Ramdas Pophale) SiO2 
 PCOD9033577
Probable space group: P -1
;
_chemical_formula_sum "Si O2"
_cell_formula_units_Z 16
_cell_length_a 12.129891
_cell_length_b 13.702405
_cell_length_c 11.498323
_cell_angle_alpha 61.350277
_cell_angle_beta 86.025846
_cell_angle_gamma 33.694144
_cell_volume 684.738963
_symmetry_space_group_name_H-M "P -1"
_symmetry_group_IT_number 2
_symmetry_cell_setting 'triclinic'
loop_
_space_group_symop_operation_xyz
x,y,z
-x,-y,-z
loop_
_atom_site_type_symbol
_atom_site_label
_atom_site_fract_x
_atom_site_fract_y
_atom_site_fract_z
Si Si1 0.076736 0.300960 0.092813
Si Si2 0.540133 0.087018 0.496414
Si Si3 0.803438 0.281116 0.878306
Si Si4 0.646550 0.506201 0.009782
Si Si5 0.651445 0.447307 0.300253
Si Si6 0.721495 0.987928 0.992835
Si Si7 0.007702 0.375597 0.636147
Si Si8 0.140087 0.065873 0.630010
O O1 0.248795 0.109232 0.301789
O O2 0.239303 0.115462 0.070705
O O3 0.000000 0.500000 0.000000
O O4 0.806557 0.475441 0.010080
O O5 0.252563 0.382920 0.400346
O O6 0.500000 0.000000 0.500000
O O7 0.658284 0.061455 0.405256
O O8 0.724074 0.366728 0.969792
O O9 0.540007 0.485205 0.708483
O O10 0.998424 0.205517 0.886756
O O11 0.000000 0.000000 0.000000
O O12 0.329856 0.822901 0.841462
O O13 0.725191 0.378980 0.197777
O O14 0.910892 0.208894 0.498333
O O15 0.495612 0.711616 0.173371
O O16 0.721739 0.899403 0.149895
O O17 0.000000 0.500000 0.500000
O O18 0.997087 0.292869 0.584585
#
# Coordination Sequence:
#
# PCOD9033577 Si02
#       8
#     2   2   2   2   2   2   2   2
#     4  11  23  39  65  95 131 185 226 278 351 407
#     4  12  23  42  62  95 138 178 232 285 335 408
#     4   9  21  42  74  99 132 183 230 288 355 407
#     4  11  22  43  67  98 138 178 227 288 344 415
#     4  11  22  43  69 101 135 179 234 288 351 409
#     4  10  22  44  68  97 141 180 234 289 345 420
#     4  12  25  42  68  98 139 188 229 288 345 411
#     4  12  25  43  69 104 141 179 237 287 344 417
#
# _framework density 23.366568999999998
#
# number of rings (size 3 to 8) (size 9 to 14) (size 15 to 20)
#    0.000    1.000    3.750    4.125    0.000    0.500 
#    0.000    2.500    0.000    0.000    0.000    0.000 
#    0.000    0.000    0.000    0.000    0.000    0.000 
#
# Total GULP energy -89492.434509 kJ/mol
# GULP energy per Si atom -5593.277157 kJ/mol
# Density = 2.331339 g / cm^3
# Si number density = 23.366569 Si / 1000 Ang^3
#
#
#
# Elastic Constant Matrix: (Units=GPa)
#
#
# Indices 1 2 3 4 5 6 
#
# 1 93.3660 26.0872 23.9110 -0.9828 19.7391 21.8410
# 2 26.0872 130.1062 13.0595 -6.4208 6.9167 23.2393
# 3 23.9110 13.0595 106.9661 6.8480 22.3193 19.8264
# 4 -0.9828 -6.4208 6.8480 34.9892 5.4096 2.0502
# 5 19.7391 6.9167 22.3193 5.4096 42.9657 1.1577
# 6 21.8410 23.2393 19.8264 2.0502 1.1577 33.8706
#
#
#
# Elastic Compliance Matrix: (Units=1/GPa)
#
#
# Indices 1 2 3 4 5 6 
#
# 1 0.014343 -0.000941 -0.000365 0.001753 -0.006246 -0.008282
# 2 -0.000941 0.009068 0.000333 0.002120 -0.001308 -0.005893
# 3 -0.000365 0.000333 0.011897 -0.000995 -0.005760 -0.006700
# 4 0.001753 0.002120 -0.000995 0.030097 -0.004320 -0.003677
# 5 -0.006246 -0.001308 -0.005760 -0.004320 0.029687 0.007544
# 6 -0.008282 -0.005893 -0.006700 -0.003677 0.007544 0.042795
#
#
# Mechanical properties :
#
#
# Convention : Reuss Voigt Hill
#
# Bulk Modulus (GPa) = 29.97482 50.72819 40.35151
# Shear Modulus (GPa) = 33.12235 40.19048 36.65642
#
# Velocity S-wave (km/s) = 3.76907 4.15179 3.96505
# Velocity P-wave (km/s) = 5.63889 6.68879 6.18616
#
# Compressibility (1/GPa) = 0.03336133
#
# Stress axis : x y z
#
# Youngs Moduli (GPa) = 69.71827 110.27541 84.05333
#
# Poissons Ratio (x) = 0.10382 0.03070
# Poissons Ratio (y) = 0.06564 -0.02798
# Poissons Ratio (z) = 0.02546 -0.03671
#
# Static dielectric constant tensor:
#      x y z
#    x 2.054800 -0.029800 -0.040250 
#    y -0.029800 1.887450 0.000010 
#    z -0.040250 0.000010 1.881670 
# 
# From -- ./inp_files/273075.got.cif
#   From: 2010.05.17/outbox.cif.g08.bks.cpg/sg2_137_cif.got.tgz:273075.got - 2010.06.03 11:33:40.
