data_PCOD9033722
_publ_section_title
;
Structure prediction by ZEFSAII (Michael W. Deem and Ramdas Pophale) SiO2 
 PCOD9033722
Probable space group: P -1
;
_chemical_formula_sum "Si O2"
_cell_formula_units_Z 16
_cell_length_a 18.053190
_cell_length_b 13.604469
_cell_length_c 9.024985
_cell_angle_alpha 44.277194
_cell_angle_beta 152.688367
_cell_angle_gamma 143.732682
_cell_volume 601.626885
_symmetry_space_group_name_H-M "P -1"
_symmetry_group_IT_number 2
_symmetry_cell_setting 'triclinic'
loop_
_space_group_symop_operation_xyz
x,y,z
-x,-y,-z
loop_
_atom_site_type_symbol
_atom_site_label
_atom_site_fract_x
_atom_site_fract_y
_atom_site_fract_z
Si Si1 0.092740 0.710799 0.235872
Si Si2 0.512246 0.092244 0.142497
Si Si3 0.534632 0.399889 0.793958
Si Si4 0.647659 0.535212 0.351416
Si Si5 0.174829 0.986887 0.875720
Si Si6 0.087422 0.269785 0.807372
Si Si7 0.622703 0.832336 0.654329
Si Si8 0.004510 0.604954 0.745550
O O1 0.316591 0.784364 0.574199
O O2 0.983265 0.517437 0.218985
O O3 0.017988 0.759227 0.193083
O O4 0.080905 0.804525 0.973705
O O5 0.566846 0.956897 0.349465
O O6 0.517911 0.230843 0.896030
O O7 0.316588 0.004682 0.979191
O O8 0.500000 0.500000 0.500000
O O9 0.373764 0.356571 0.678314
O O10 0.737303 0.535683 0.080252
O O11 0.568459 0.352153 0.478749
O O12 0.831370 0.613934 0.494251
O O13 0.500000 0.500000 0.000000
O O14 0.000000 0.000000 0.500000
O O15 0.302972 0.104561 0.113372
O O16 0.941941 0.245627 0.443187
O O17 0.203866 0.177480 0.097461
O O18 0.000000 0.500000 0.000000
#
# Coordination Sequence:
#
# PCOD9033722 Si02
#       8
#     2   2   2   2   2   2   2   2
#     4  11  24  45  71  98 145 188 238 291 361 425
#     4  11  23  44  71 100 140 185 237 286 358 425
#     4  11  25  41  74 104 141 182 233 294 364 426
#     4  11  20  43  68  97 138 185 234 289 350 423
#     4  11  25  40  71 105 138 179 241 298 353 423
#     4  11  25  45  70 104 145 191 236 295 364 418
#     4  10  22  44  69  94 139 194 233 279 361 422
#     4  12  25  38  70 107 139 180 240 302 349 419
#
# _framework density 26.594553999999999
#
# number of rings (size 3 to 8) (size 9 to 14) (size 15 to 20)
#    0.000    1.000    3.750    4.125    5.250    2.000 
#    0.000    2.500    2.750    0.000    0.000    0.000 
#    0.000    0.000    0.000    0.000    0.000    0.000 
#
# Total GULP energy -89267.514651 kJ/mol
# GULP energy per Si atom -5579.219666 kJ/mol
# Density = 2.653402 g / cm^3
# Si number density = 26.594554 Si / 1000 Ang^3
#
#
#
# Elastic Constant Matrix: (Units=GPa)
#
#
# Indices 1 2 3 4 5 6 
#
# 1 128.6953 49.3550 45.6587 -4.4747 14.7806 -6.7623
# 2 49.3550 88.9677 40.0474 -31.4763 12.1392 -13.7599
# 3 45.6587 40.0474 133.4660 -50.0981 -3.3070 -6.1730
# 4 -4.4747 -31.4763 -50.0981 58.0110 -3.1429 1.6406
# 5 14.7806 12.1392 -3.3070 -3.1429 34.2802 -0.9935
# 6 -6.7623 -13.7599 -6.1730 1.6406 -0.9935 42.7077
#
#
#
# Elastic Compliance Matrix: (Units=1/GPa)
#
#
# Indices 1 2 3 4 5 6 
#
# 1 0.012304 -0.006661 -0.005066 -0.007242 -0.004121 -0.000748
# 2 -0.006661 0.019481 0.000367 0.010078 -0.002927 0.004819
# 3 -0.005066 0.000367 0.013731 0.011883 0.004496 0.000949
# 4 -0.007242 0.010078 0.011883 0.032539 0.003760 0.002656
# 5 -0.004121 -0.002927 0.004496 0.003760 0.032754 -0.000328
# 6 -0.000748 0.004819 0.000949 0.002656 -0.000328 0.024877
#
#
# Mechanical properties :
#
#
# Convention : Reuss Voigt Hill
#
# Bulk Modulus (GPa) = 43.86698 69.02792 56.44745
# Shear Modulus (GPa) = 30.11979 41.40431 35.76205
#
# Velocity S-wave (km/s) = 3.36900 3.95000 3.67101
# Velocity P-wave (km/s) = 5.62708 6.84218 6.26416
#
# Compressibility (1/GPa) = 0.02279619
#
# Stress axis : x y z
#
# Youngs Moduli (GPa) = 81.27310 51.33318 72.82670
#
# Poissons Ratio (x) = 0.34194 0.36891
# Poissons Ratio (y) = 0.54137 -0.02671
# Poissons Ratio (z) = 0.41169 -0.01883
#
# Static dielectric constant tensor:
#      x y z
#    x 2.111320 0.074970 0.023350 
#    y 0.074970 2.366070 0.115680 
#    z 0.023350 0.115680 2.266510 
# 
# From -- ./inp_files/335658.got.cif
#   From: 2010.05.17/outbox.cif.g08.bks.cpg/sg2_168_cif.got.tgz:335658.got - 2010.06.03 11:33:40.
