data_PCOD9033271
_publ_section_title
;
Structure prediction by ZEFSAII (Michael W. Deem and Ramdas Pophale) SiO2 
 PCOD9033271
Probable space group: P -1
;
_chemical_formula_sum "Si O2"
_cell_formula_units_Z 14
_cell_length_a 8.907795
_cell_length_b 18.276883
_cell_length_c 24.706567
_cell_angle_alpha 17.861982
_cell_angle_beta 151.225710
_cell_angle_gamma 149.842245
_cell_volume 581.185911
_symmetry_space_group_name_H-M "P -1"
_symmetry_group_IT_number 2
_symmetry_cell_setting 'triclinic'
loop_
_space_group_symop_operation_xyz
x,y,z
-x,-y,-z
loop_
_atom_site_type_symbol
_atom_site_label
_atom_site_fract_x
_atom_site_fract_y
_atom_site_fract_z
Si Si1 0.310367 0.015308 0.623636
Si Si2 0.760804 0.410497 0.438874
Si Si3 0.624784 0.337982 0.928445
Si Si4 0.642346 0.498157 0.945510
Si Si5 0.990559 0.366641 0.343373
Si Si6 0.442712 0.890419 0.118789
Si Si7 0.160418 0.364412 0.510527
O O1 0.617310 0.130400 0.604413
O O2 0.238838 0.220520 0.498430
O O3 0.346317 0.764123 0.839376
O O4 0.000000 0.000000 0.500000
O O5 0.437920 0.503515 0.255534
O O6 0.000000 0.500000 0.500000
O O7 0.954095 0.516738 0.371384
O O8 0.003669 0.341317 0.048105
O O9 0.572439 0.441053 0.899253
O O10 0.418359 0.076666 0.028773
O O11 0.366978 0.625340 0.793594
O O12 0.161029 0.652767 0.196717
O O13 0.961523 0.255855 0.472748
O O14 0.760738 0.804114 0.298380
O O15 0.500000 0.000000 0.000000
O O16 0.500000 0.500000 0.500000
#
# Coordination Sequence:
#
# PCOD9033271 Si02
#       7
#     2   2   2   2   2   2   2
#     4  12  27  48  72 110 148 191 245 301 372 441
#     4  12  24  44  72 106 148 186 237 306 366 421
#     4  11  24  47  69 109 146 191 250 294 362 444
#     4  11  26  48  75 103 151 196 244 298 360 446
#     4  11  25  48  72 104 145 193 242 299 366 435
#     4  11  24  42  70 108 145 182 244 305 357 431
#     4  10  22  44  67 101 142 185 239 294 357 433
#
# _framework density 24.088678999999999
#
# number of rings (size 3 to 8) (size 9 to 14) (size 15 to 20)
#    0.000    0.857    2.857    4.286    4.000    3.429 
#    0.000    2.857    0.000    0.000    0.000    0.000 
#    0.000    0.000    0.000    0.000    0.000    0.000 
#
# Total GULP energy -78012.826527 kJ/mol
# GULP energy per Si atom -5572.344752 kJ/mol
# Density = 2.403385 g / cm^3
# Si number density = 24.088679 Si / 1000 Ang^3
#
#
#
# Elastic Constant Matrix: (Units=GPa)
#
#
# Indices 1 2 3 4 5 6 
#
# 1 84.7007 26.5888 12.8327 9.6339 -1.4769 9.4218
# 2 26.5888 84.1308 19.9309 12.5956 -17.3645 -5.8946
# 3 12.8327 19.9309 95.4278 28.4630 -17.5855 -0.2876
# 4 9.6339 12.5956 28.4630 42.2041 -11.3708 -1.4552
# 5 -1.4769 -17.3645 -17.5855 -11.3708 39.5685 9.8929
# 6 9.4218 -5.8946 -0.2876 -1.4552 9.8929 37.5619
#
#
#
# Elastic Compliance Matrix: (Units=1/GPa)
#
#
# Indices 1 2 3 4 5 6 
#
# 1 0.013952 -0.004523 -0.000614 -0.001907 -0.001298 -0.003946
# 2 -0.004523 0.014962 -0.001241 -0.001182 0.004977 0.002116
# 3 -0.000614 -0.001241 0.013836 -0.007888 0.003613 -0.001192
# 4 -0.001907 -0.001182 -0.007888 0.031101 0.004798 0.000174
# 5 -0.001298 0.004977 0.003613 0.004798 0.032182 -0.007156
# 6 -0.003946 0.002116 -0.001192 0.000174 -0.007156 0.029827
#
#
# Mechanical properties :
#
#
# Convention : Reuss Voigt Hill
#
# Bulk Modulus (GPa) = 33.33866 42.55157 37.94512
# Shear Modulus (GPa) = 31.52305 37.52737 34.52521
#
# Velocity S-wave (km/s) = 3.62142 3.95129 3.78994
# Velocity P-wave (km/s) = 5.59966 6.20643 5.91084
#
# Compressibility (1/GPa) = 0.02999521
#
# Stress axis : x y z
#
# Youngs Moduli (GPa) = 71.67253 66.83522 72.27611
#
# Poissons Ratio (x) = 0.30230 0.04438
# Poissons Ratio (y) = 0.32418 0.08966
# Poissons Ratio (z) = 0.04401 0.08291
#
# Static dielectric constant tensor:
#      x y z
#    x 2.003000 0.014740 -0.107350 
#    y 0.014740 1.965180 -0.005160 
#    z -0.107350 -0.005160 1.817380 
# 
# From -- ./inp_files/158380.got.cif
#   From: 2010.05.17/outbox.cif.g08.bks.cpg/sg2_80_cif.got.tgz:158380.got - 2010.06.03 11:33:40.
