data_PCOD9033719
_publ_section_title
;
Structure prediction by ZEFSAII (Michael W. Deem and Ramdas Pophale) SiO2 
 PCOD9033719
Probable space group: P -1
;
_chemical_formula_sum "Si O2"
_cell_formula_units_Z 14
_cell_length_a 13.340411
_cell_length_b 12.643678
_cell_length_c 6.819115
_cell_angle_alpha 129.732868
_cell_angle_beta 55.253998
_cell_angle_gamma 132.563603
_cell_volume 631.976152
_symmetry_space_group_name_H-M "P -1"
_symmetry_group_IT_number 2
_symmetry_cell_setting 'triclinic'
loop_
_space_group_symop_operation_xyz
x,y,z
-x,-y,-z
loop_
_atom_site_type_symbol
_atom_site_label
_atom_site_fract_x
_atom_site_fract_y
_atom_site_fract_z
Si Si1 0.535001 0.093177 0.774121
Si Si2 0.353834 0.288640 0.763144
Si Si3 0.708046 0.000133 0.768330
Si Si4 0.996225 0.697346 0.087848
Si Si5 0.369252 0.601674 0.181001
Si Si6 0.070250 0.180319 0.077048
Si Si7 0.096779 0.451680 0.583994
O O1 0.626821 0.276544 0.836475
O O2 0.500000 0.000000 0.500000
O O3 0.625016 0.047633 0.761557
O O4 0.388779 0.050837 0.991011
O O5 0.295799 0.154113 0.503629
O O6 0.494900 0.309690 0.726295
O O7 0.233594 0.238951 0.003113
O O8 0.381009 0.463046 0.890943
O O9 0.859769 0.151440 0.817353
O O10 0.938560 0.771572 0.079760
O O11 0.892961 0.598839 0.264554
O O12 0.031919 0.567620 0.800829
O O13 0.235665 0.536645 0.396307
O O14 0.011045 0.278526 0.375760
O O15 0.000000 0.000000 0.000000
#
# Coordination Sequence:
#
# PCOD9033719 Si02
#       7
#     2   2   2   2   2   2   2
#     4  11  23  42  67  97 134 171 220 276 332 392
#     4  10  23  43  62 101 131 173 222 263 337 394
#     4  11  25  41  68 102 129 173 224 276 334 394
#     4  11  25  44  68 100 134 174 228 279 325 400
#     4  10  22  44  69  94 135 175 217 278 330 399
#     4  11  25  44  68  98 137 181 222 271 337 400
#     4  10  24  45  69  95 132 178 226 275 338 388
#
# _framework density 22.152733000000001
#
# number of rings (size 3 to 8) (size 9 to 14) (size 15 to 20)
#    0.000    1.429    1.429    2.143    4.000   10.857 
#    5.143    0.000    0.000    0.000    0.000    0.000 
#    0.000    0.000    0.000    0.000    0.000    0.000 
#
# Total GULP energy -78184.594368 kJ/mol
# GULP energy per Si atom -5584.613883 kJ/mol
# Density = 2.210231 g / cm^3
# Si number density = 22.152733 Si / 1000 Ang^3
#
#
#
# Elastic Constant Matrix: (Units=GPa)
#
#
# Indices 1 2 3 4 5 6 
#
# 1 58.5273 38.9357 25.4909 -0.1453 -2.8228 -9.8165
# 2 38.9357 152.4183 57.8444 6.6050 -9.8099 -27.4112
# 3 25.4909 57.8444 126.6197 17.7506 -9.1729 -16.0263
# 4 -0.1453 6.6050 17.7506 50.4060 1.7371 2.9555
# 5 -2.8228 -9.8099 -9.1729 1.7371 18.2673 3.0324
# 6 -9.8165 -27.4112 -16.0263 2.9555 3.0324 37.6763
#
#
#
# Elastic Compliance Matrix: (Units=1/GPa)
#
#
# Indices 1 2 3 4 5 6 
#
# 1 0.021223 -0.004405 -0.002341 0.001410 -0.000606 0.001267
# 2 -0.004405 0.009734 -0.002694 -0.000697 0.002489 0.004642
# 3 -0.002341 -0.002694 0.010611 -0.003626 0.003542 0.001943
# 4 0.001410 -0.000697 -0.003626 0.021513 -0.003511 -0.003088
# 5 -0.000606 0.002489 0.003542 -0.003511 0.058307 -0.001258
# 6 0.001267 0.004642 0.001943 -0.003088 -0.001258 0.031419
#
#
# Mechanical properties :
#
#
# Convention : Reuss Voigt Hill
#
# Bulk Modulus (GPa) = 44.07958 64.67859 54.37909
# Shear Modulus (GPa) = 27.89378 35.62287 31.75833
#
# Velocity S-wave (km/s) = 3.55231 4.01441 3.79041
# Velocity P-wave (km/s) = 6.06353 7.12372 6.61490
#
# Compressibility (1/GPa) = 0.02268624
#
# Stress axis : x y z
#
# Youngs Moduli (GPa) = 47.11841 102.73174 94.24452
#
# Poissons Ratio (x) = 0.45255 0.22066
# Poissons Ratio (y) = 0.20757 0.25392
# Poissons Ratio (z) = 0.11032 0.27679
#
# Static dielectric constant tensor:
#      x y z
#    x 1.365230 0.703370 0.087330 
#    y 0.703370 0.822390 -0.078290 
#    z 0.087330 -0.078290 1.841720 
# 
# From -- ./inp_files/95599.got.cif
#   From: 2010.05.17/outbox.cif.g08.bks.cpg/sg2_48_cif.got.tgz:95599.got - 2010.06.03 11:33:40.
