data_PCOD9033894
_publ_section_title
;
Structure prediction by ZEFSAII (Michael W. Deem and Ramdas Pophale) SiO2 
 PCOD9033894
Probable space group: P -1
;
_chemical_formula_sum "Si O2"
_cell_formula_units_Z 14
_cell_length_a 14.047063
_cell_length_b 12.156484
_cell_length_c 9.325973
_cell_angle_alpha 53.577204
_cell_angle_beta 140.268220
_cell_angle_gamma 146.583068
_cell_volume 555.331846
_symmetry_space_group_name_H-M "P -1"
_symmetry_group_IT_number 2
_symmetry_cell_setting 'triclinic'
loop_
_space_group_symop_operation_xyz
x,y,z
-x,-y,-z
loop_
_atom_site_type_symbol
_atom_site_label
_atom_site_fract_x
_atom_site_fract_y
_atom_site_fract_z
Si Si1 0.775159 0.327111 0.457681
Si Si2 0.729842 0.726555 0.050739
Si Si3 0.888600 0.045715 0.474962
Si Si4 0.095709 0.873114 0.142875
Si Si5 0.438477 0.963744 0.788703
Si Si6 0.785769 0.403973 0.732467
Si Si7 0.864699 0.730163 0.685343
O O1 0.600973 0.201745 0.220407
O O2 0.793664 0.424103 0.552373
O O3 0.000000 0.500000 0.500000
O O4 0.768878 0.168541 0.631433
O O5 0.893158 0.757232 0.108036
O O6 0.873364 0.829777 0.281274
O O7 0.500000 0.500000 0.000000
O O8 0.742104 0.886852 0.871158
O O9 0.776264 0.084073 0.411126
O O10 0.936224 0.132310 0.305607
O O11 0.767450 0.817652 0.508006
O O12 0.970022 0.769543 0.928571
O O13 0.614610 0.172506 0.750200
O O14 0.500000 0.000000 0.000000
O O15 0.717978 0.506013 0.636709
O O16 0.000000 0.500000 0.000000
#
# Coordination Sequence:
#
# PCOD9033894 Si02
#       7
#     2   2   2   2   2   2   2
#     4  12  25  47  72 103 146 201 254 311 373 445
#     4  10  22  45  75 107 149 193 242 313 381 447
#     4  10  22  46  70 104 145 187 244 300 371 451
#     4  10  22  44  70 107 148 184 251 308 367 453
#     4  12  27  47  74 104 146 196 250 319 372 445
#     4  12  25  46  71 104 145 193 250 306 375 453
#     4  10  22  44  71 100 145 185 232 307 367 443
#
# _framework density 25.210152000000001
#
# number of rings (size 3 to 8) (size 9 to 14) (size 15 to 20)
#    0.000    1.143    2.857    3.000    0.000    1.714 
#   10.286    0.000    0.000    0.000    0.000    0.000 
#    0.000    0.000    0.000    0.000    0.000    0.000 
#
# Total GULP energy -78262.998745 kJ/mol
# GULP energy per Si atom -5590.214196 kJ/mol
# Density = 2.515277 g / cm^3
# Si number density = 25.210152 Si / 1000 Ang^3
#
#
#
# Elastic Constant Matrix: (Units=GPa)
#
#
# Indices 1 2 3 4 5 6 
#
# 1 109.5160 40.5887 34.6692 13.7141 -38.8198 5.1464
# 2 40.5887 147.6087 24.0868 18.3277 -8.2764 9.8770
# 3 34.6692 24.0868 89.5691 7.4937 -33.7959 3.6742
# 4 13.7141 18.3277 7.4937 35.5862 -10.0154 -1.7303
# 5 -38.8198 -8.2764 -33.7959 -10.0154 54.9787 -1.6288
# 6 5.1464 9.8770 3.6742 -1.7303 -1.6288 49.2585
#
#
#
# Elastic Compliance Matrix: (Units=1/GPa)
#
#
# Indices 1 2 3 4 5 6 
#
# 1 0.013707 -0.002909 -0.001306 -0.001227 0.008199 -0.000523
# 2 -0.002909 0.008246 -0.001696 -0.003555 -0.002545 -0.001432
# 3 -0.001306 -0.001696 0.015214 0.000477 0.008251 -0.000369
# 4 -0.001227 -0.003555 0.000477 0.031737 0.004735 0.002077
# 5 0.008199 -0.002545 0.008251 0.004735 0.029535 0.000181
# 6 -0.000523 -0.001432 -0.000369 0.002077 0.000181 0.020749
#
#
# Mechanical properties :
#
#
# Convention : Reuss Voigt Hill
#
# Bulk Modulus (GPa) = 39.45234 60.59812 50.02523
# Shear Modulus (GPa) = 35.85309 44.45461 40.15385
#
# Velocity S-wave (km/s) = 3.77526 4.20380 3.99528
# Velocity P-wave (km/s) = 5.88955 6.90304 6.41633
#
# Compressibility (1/GPa) = 0.02534704
#
# Stress axis : x y z
#
# Youngs Moduli (GPa) = 72.95553 121.27520 65.72696
#
# Poissons Ratio (x) = 0.35278 0.08581
# Poissons Ratio (y) = 0.21222 0.11145
# Poissons Ratio (z) = 0.09525 0.20563
#
# Static dielectric constant tensor:
#      x y z
#    x 2.043910 -0.044220 0.030760 
#    y -0.044220 2.015690 0.024910 
#    z 0.030760 0.024910 2.124230 
# 
# From -- ./inp_files/306817.got.cif
#   From: 2010.05.17/outbox.cif.g08.bks.cpg/sg2_154_cif.got.tgz:306817.got - 2010.06.03 11:33:40.
