data_PCOD9033479
_publ_section_title
;
Structure prediction by ZEFSAII (Michael W. Deem and Ramdas Pophale) SiO2 
 PCOD9033479
Probable space group: P -1
;
_chemical_formula_sum "Si O2"
_cell_formula_units_Z 16
_cell_length_a 9.464608
_cell_length_b 7.050776
_cell_length_c 14.274113
_cell_angle_alpha 62.103003
_cell_angle_beta 123.173702
_cell_angle_gamma 88.076777
_cell_volume 648.414264
_symmetry_space_group_name_H-M "P -1"
_symmetry_group_IT_number 2
_symmetry_cell_setting 'triclinic'
loop_
_space_group_symop_operation_xyz
x,y,z
-x,-y,-z
loop_
_atom_site_type_symbol
_atom_site_label
_atom_site_fract_x
_atom_site_fract_y
_atom_site_fract_z
Si Si1 0.983737 0.250086 0.025387
Si Si2 0.867527 0.503605 0.533646
Si Si3 0.588128 0.273612 0.846045
Si Si4 0.004332 0.543245 0.202963
Si Si5 0.424021 0.990926 0.726276
Si Si6 0.445284 0.624074 0.551259
Si Si7 0.659587 0.426933 0.150360
Si Si8 0.705564 0.888453 0.696828
O O1 0.786374 0.236216 0.970670
O O2 0.023840 0.248954 0.928924
O O3 0.000000 0.500000 0.000000
O O4 0.141309 0.074215 0.188956
O O5 0.959666 0.413983 0.686957
O O6 0.716694 0.768081 0.424111
O O7 0.755493 0.353398 0.496666
O O8 0.000000 0.500000 0.500000
O O9 0.536819 0.065569 0.830885
O O10 0.573342 0.445681 0.713898
O O11 0.427166 0.407398 0.830275
O O12 0.180587 0.323737 0.280121
O O13 0.832523 0.466508 0.162419
O O14 0.313400 0.836783 0.753923
O O15 0.570287 0.848869 0.733190
O O16 0.500000 0.500000 0.500000
O O17 0.410871 0.885174 0.456000
O O18 0.500000 0.500000 0.000000
#
# Coordination Sequence:
#
# PCOD9033479 Si02
#       8
#     2   2   2   2   2   2   2   2
#     4  10  22  44  68 104 140 170 230 287 339 409
#     4  11  25  45  65 100 140 176 234 285 338 414
#     4  11  24  47  73  99 142 185 226 286 349 404
#     4  11  24  41  72 101 132 188 220 287 354 397
#     4  11  26  45  70 102 139 181 231 286 344 410
#     4  11  22  44  68 102 137 174 227 286 341 408
#     4  12  26  48  68  98 145 183 233 282 339 421
#     4  11  23  43  68 105 134 172 229 285 342 410
#
# _framework density 24.675581000000001
#
# number of rings (size 3 to 8) (size 9 to 14) (size 15 to 20)
#    0.000    1.000    2.500    6.000    3.500    2.000 
#    2.250    0.000    0.000    0.000    0.000    0.000 
#    0.000    0.000    0.000    0.000    0.000    0.000 
#
# Total GULP energy -89552.039775 kJ/mol
# GULP energy per Si atom -5597.002486 kJ/mol
# Density = 2.461942 g / cm^3
# Si number density = 24.675581 Si / 1000 Ang^3
#
#
#
# Elastic Constant Matrix: (Units=GPa)
#
#
# Indices 1 2 3 4 5 6 
#
# 1 145.0577 33.5367 -2.1851 3.5792 4.2471 5.4482
# 2 33.5367 89.7888 -5.3114 -1.8820 0.7753 -1.8699
# 3 -2.1851 -5.3114 50.7339 3.3819 -2.9571 -0.9087
# 4 3.5792 -1.8820 3.3819 33.0573 0.3127 -2.3998
# 5 4.2471 0.7753 -2.9571 0.3127 39.5924 11.7309
# 6 5.4482 -1.8699 -0.9087 -2.3998 11.7309 48.1716
#
#
#
# Elastic Compliance Matrix: (Units=1/GPa)
#
#
# Indices 1 2 3 4 5 6 
#
# 1 0.007636 -0.002886 0.000053 -0.001058 -0.000481 -0.000910
# 2 -0.002886 0.012321 0.001110 0.000967 -0.000124 0.000904
# 3 0.000053 0.001110 0.020050 -0.002012 0.001501 -0.000050
# 4 -0.001058 0.000967 -0.002012 0.030769 -0.000849 0.001859
# 5 -0.000481 -0.000124 0.001501 -0.000849 0.027396 -0.006636
# 6 -0.000910 0.000904 -0.000050 0.001859 -0.006636 0.022605
#
#
# Mechanical properties :
#
#
# Convention : Reuss Voigt Hill
#
# Bulk Modulus (GPa) = 27.35147 37.51788 32.43467
# Shear Modulus (GPa) = 36.65411 41.46692 39.06052
#
# Velocity S-wave (km/s) = 3.85832 4.10382 3.98296
# Velocity P-wave (km/s) = 5.56393 6.13943 5.85875
#
# Compressibility (1/GPa) = 0.03656111
#
# Stress axis : x y z
#
# Youngs Moduli (GPa) = 130.95498 81.16198 49.87571
#
# Poissons Ratio (x) = 0.23424 -0.00264
# Poissons Ratio (y) = 0.37794 -0.05537
# Poissons Ratio (z) = -0.00694 -0.09010
#
# Static dielectric constant tensor:
#      x y z
#    x 2.012810 0.042620 -0.040460 
#    y 0.042620 2.086080 0.014880 
#    z -0.040460 0.014880 2.044620 
# 
# From -- ./inp_files/492332.got.cif
#   From: 2010.05.17/outbox.cif.g08.bks.cpg/sg2_247_cif.got.tgz:492332.got - 2010.06.03 11:33:40.
