data_PCOD9033620
_publ_section_title
;
Structure prediction by ZEFSAII (Michael W. Deem and Ramdas Pophale) SiO2 
 PCOD9033620
Probable space group: P -1
;
_chemical_formula_sum "Si O2"
_cell_formula_units_Z 16
_cell_length_a 25.618600
_cell_length_b 6.179642
_cell_length_c 7.402905
_cell_angle_alpha 112.748538
_cell_angle_beta 137.966429
_cell_angle_gamma 85.927102
_cell_volume 677.873423
_symmetry_space_group_name_H-M "P -1"
_symmetry_group_IT_number 2
_symmetry_cell_setting 'triclinic'
loop_
_space_group_symop_operation_xyz
x,y,z
-x,-y,-z
loop_
_atom_site_type_symbol
_atom_site_label
_atom_site_fract_x
_atom_site_fract_y
_atom_site_fract_z
Si Si1 0.249081 0.973315 0.223395
Si Si2 0.266306 0.565680 0.874145
Si Si3 0.124280 0.072886 0.394666
Si Si4 0.995630 0.611082 0.828410
Si Si5 0.919144 0.075875 0.349578
Si Si6 0.403706 0.391949 0.179983
Si Si7 0.403205 0.454383 0.773164
Si Si8 0.682676 0.165211 0.277596
O O1 0.267980 0.887757 0.442292
O O2 0.329860 0.204522 0.432654
O O3 0.234145 0.737954 0.974916
O O4 0.165135 0.040937 0.020069
O O5 0.214274 0.269940 0.651901
O O6 0.267146 0.660461 0.701199
O O7 0.354921 0.569185 0.181461
O O8 0.066285 0.237099 0.267641
O O9 0.112575 0.995612 0.549684
O O10 0.086106 0.820026 0.098955
O O11 0.957317 0.376209 0.525551
O O12 0.000000 0.500000 0.000000
O O13 0.000000 0.000000 0.500000
O O14 0.500000 0.500000 0.500000
O O15 0.393085 0.407729 0.944703
O O16 0.366810 0.098158 0.032651
O O17 0.378557 0.698763 0.755874
O O18 0.500000 0.500000 0.000000
#
# Coordination Sequence:
#
# PCOD9033620 Si02
#       8
#     2   2   2   2   2   2   2   2
#     4  11  26  47  73 104 141 198 238 293 371 427
#     4  11  25  45  74 102 141 191 239 293 355 434
#     4  10  22  44  69 100 131 182 242 285 362 426
#     4   9  20  44  65  97 129 172 230 289 353 420
#     4  11  25  47  68 105 140 185 244 304 368 426
#     4  10  25  43  70 109 139 188 239 292 357 425
#     4  10  25  44  70 109 147 188 235 292 360 429
#     4  10  26  48  66 110 145 188 239 295 356 428
#
# _framework density 23.603227
#
# number of rings (size 3 to 8) (size 9 to 14) (size 15 to 20)
#    0.000    1.750    1.250    0.000    8.750    2.500 
#   24.750    0.000    0.000    0.000    0.000    0.000 
#    0.000    0.000    0.000    0.000    0.000    0.000 
#
# Total GULP energy -89399.659570 kJ/mol
# GULP energy per Si atom -5587.478723 kJ/mol
# Density = 2.354950 g / cm^3
# Si number density = 23.603227 Si / 1000 Ang^3
#
#
#
# Elastic Constant Matrix: (Units=GPa)
#
#
# Indices 1 2 3 4 5 6 
#
# 1 78.0359 33.3130 31.9430 -0.8497 15.0563 6.9605
# 2 33.3130 119.3064 55.4997 1.2794 14.9417 1.8531
# 3 31.9430 55.4997 140.0755 -4.7496 24.4740 -1.4398
# 4 -0.8497 1.2794 -4.7496 44.3422 -2.5685 2.9995
# 5 15.0563 14.9417 24.4740 -2.5685 36.3348 -4.5005
# 6 6.9605 1.8531 -1.4398 2.9995 -4.5005 41.2487
#
#
#
# Elastic Compliance Matrix: (Units=1/GPa)
#
#
# Indices 1 2 3 4 5 6 
#
# 1 0.015971 -0.003068 -0.001645 0.000162 -0.004625 -0.003131
# 2 -0.003068 0.011008 -0.003523 -0.000799 -0.000957 -0.000146
# 3 -0.001645 -0.003523 0.009694 0.000842 -0.004309 0.000243
# 4 0.000162 -0.000799 0.000842 0.022835 0.001122 -0.001500
# 5 -0.004625 -0.000957 -0.004309 0.001122 0.033338 0.004229
# 6 -0.003131 -0.000146 0.000243 -0.001500 0.004229 0.025357
#
#
# Mechanical properties :
#
#
# Convention : Reuss Voigt Hill
#
# Bulk Modulus (GPa) = 49.50430 64.32548 56.91489
# Shear Modulus (GPa) = 35.35834 38.82927 37.09381
#
# Velocity S-wave (km/s) = 3.87464 4.06036 3.96859
# Velocity P-wave (km/s) = 6.40595 7.02097 6.72050
#
# Compressibility (1/GPa) = 0.02020027
#
# Stress axis : x y z
#
# Youngs Moduli (GPa) = 62.61300 90.84170 103.15484
#
# Poissons Ratio (x) = 0.27872 0.16970
# Poissons Ratio (y) = 0.19211 0.36345
# Poissons Ratio (z) = 0.10300 0.32007
#
# Static dielectric constant tensor:
#      x y z
#    x 1.983310 -0.032930 0.081320 
#    y -0.032930 1.910270 -0.005110 
#    z 0.081320 -0.005110 2.036950 
# 
# From -- ./inp_files/358270.got.cif
#   From: 2010.05.17/outbox.cif.g08.bks.cpg/sg2_180_cif.got.tgz:358270.got - 2010.06.03 11:33:40.
