data_PCOD9033950
_publ_section_title
;
Structure prediction by ZEFSAII (Michael W. Deem and Ramdas Pophale) SiO2 
 PCOD9033950
Probable space group: P -1
;
_chemical_formula_sum "Si O2"
_cell_formula_units_Z 16
_cell_length_a 12.519395
_cell_length_b 16.365895
_cell_length_c 8.371428
_cell_angle_alpha 84.486665
_cell_angle_beta 86.721670
_cell_angle_gamma 152.640777
_cell_volume 745.567249
_symmetry_space_group_name_H-M "P -1"
_symmetry_group_IT_number 2
_symmetry_cell_setting 'triclinic'
loop_
_space_group_symop_operation_xyz
x,y,z
-x,-y,-z
loop_
_atom_site_type_symbol
_atom_site_label
_atom_site_fract_x
_atom_site_fract_y
_atom_site_fract_z
Si Si1 0.628441 0.905264 0.705313
Si Si2 0.660779 0.184382 0.019195
Si Si3 0.741838 0.614377 0.990518
Si Si4 0.513440 0.194062 0.753725
Si Si5 0.102385 0.983280 0.044474
Si Si6 0.839554 0.522936 0.180815
Si Si7 0.041260 0.428595 0.495956
Si Si8 0.857791 0.156288 0.353920
O O1 0.378680 0.688520 0.716265
O O2 0.773955 0.947602 0.808509
O O3 0.807799 0.059972 0.523394
O O4 0.504099 0.895800 0.809075
O O5 0.667489 0.260015 0.870703
O O6 0.943677 0.354912 0.982532
O O7 0.500000 0.000000 0.000000
O O8 0.911040 0.710569 0.802016
O O9 0.500000 0.500000 0.000000
O O10 0.706441 0.505226 0.106882
O O11 0.895289 0.773320 0.073666
O O12 0.677036 0.373250 0.617380
O O13 0.386442 0.032093 0.695413
O O14 0.300589 0.096240 0.874764
O O15 0.000000 0.000000 0.000000
O O16 0.978479 0.628628 0.318810
O O17 0.000000 0.500000 0.500000
O O18 0.895692 0.273072 0.406847
#
# Coordination Sequence:
#
# PCOD9033950 Si02
#       8
#     2   2   2   2   2   2   2   2
#     4  11  24  42  67  99 136 181 225 283 344 402
#     4  11  22  40  65  95 137 181 224 273 340 411
#     4  11  26  48  71 100 130 182 233 284 347 410
#     4  10  23  43  63 100 138 179 222 279 339 409
#     4  10  22  44  70  96 134 175 229 286 349 399
#     4  12  24  44  67  99 137 181 231 274 340 418
#     4  12  25  42  67 102 142 178 230 276 338 405
#     4  11  25  46  68 100 140 179 229 285 340 401
#
# _framework density 21.460169
#
# number of rings (size 3 to 8) (size 9 to 14) (size 15 to 20)
#    0.000    1.000    2.500    4.875    5.250    2.500 
#    2.250    3.125    0.000    0.000    0.000    0.000 
#    0.000    0.000    0.000    0.000    0.000    0.000 
#
# Total GULP energy -89257.499314 kJ/mol
# GULP energy per Si atom -5578.593707 kJ/mol
# Density = 2.141133 g / cm^3
# Si number density = 21.460169 Si / 1000 Ang^3
#
#
#
# Elastic Constant Matrix: (Units=GPa)
#
#
# Indices 1 2 3 4 5 6 
#
# 1 108.6067 20.2597 20.7463 6.5090 6.9143 3.3359
# 2 20.2597 89.9396 25.5936 -0.6925 0.7496 -6.0505
# 3 20.7463 25.5936 83.8648 -0.9316 14.4060 -8.0528
# 4 6.5090 -0.6925 -0.9316 33.5767 -2.9615 2.2826
# 5 6.9143 0.7496 14.4060 -2.9615 13.0020 0.1613
# 6 3.3359 -6.0505 -8.0528 2.2826 0.1613 35.1798
#
#
#
# Elastic Compliance Matrix: (Units=1/GPa)
#
#
# Indices 1 2 3 4 5 6 
#
# 1 0.010307 -0.002019 -0.001345 -0.002366 -0.004395 -0.001459
# 2 -0.002019 0.012810 -0.004148 0.000899 0.005119 0.001363
# 3 -0.001345 -0.004148 0.016959 -0.001190 -0.018150 0.003457
# 4 -0.002366 0.000899 -0.001190 0.031212 0.009658 -0.001963
# 5 -0.004395 0.005119 -0.018150 0.009658 0.101312 -0.003949
# 6 -0.001459 0.001363 0.003457 -0.001963 -0.003949 0.029735
#
#
# Mechanical properties :
#
#
# Convention : Reuss Voigt Hill
#
# Bulk Modulus (GPa) = 39.91713 46.17891 43.04802
# Shear Modulus (GPa) = 22.15230 30.73914 26.44572
#
# Velocity S-wave (km/s) = 3.21635 3.78879 3.51424
# Velocity P-wave (km/s) = 5.69510 6.38005 6.04728
#
# Compressibility (1/GPa) = 0.02505190
#
# Stress axis : x y z
#
# Youngs Moduli (GPa) = 97.01688 78.06562 58.96554
#
# Poissons Ratio (x) = 0.15760 0.07931
# Poissons Ratio (y) = 0.19586 0.24461
# Poissons Ratio (z) = 0.13050 0.32384
#
# Static dielectric constant tensor:
#      x y z
#    x 1.792060 0.002010 -0.030090 
#    y 0.002010 1.853200 0.006110 
#    z -0.030090 0.006110 1.901110 
# 
# From -- ./inp_files/187941.got.cif
#   From: 2010.05.17/outbox.cif.g08.bks.cpg/sg2_94_cif.got.tgz:187941.got - 2010.06.03 11:33:40.
