data_PCOD9033956
_publ_section_title
;
Structure prediction by ZEFSAII (Michael W. Deem and Ramdas Pophale) SiO2 
 PCOD9033956
Probable space group: P -1
;
_chemical_formula_sum "Si O2"
_cell_formula_units_Z 16
_cell_length_a 9.410107
_cell_length_b 29.668791
_cell_length_c 9.275782
_cell_angle_alpha 35.753805
_cell_angle_beta 119.093844
_cell_angle_gamma 145.284636
_cell_volume 723.391079
_symmetry_space_group_name_H-M "P -1"
_symmetry_group_IT_number 2
_symmetry_cell_setting 'triclinic'
loop_
_space_group_symop_operation_xyz
x,y,z
-x,-y,-z
loop_
_atom_site_type_symbol
_atom_site_label
_atom_site_fract_x
_atom_site_fract_y
_atom_site_fract_z
Si Si1 0.694401 0.457191 0.452275
Si Si2 0.760211 0.161535 0.178245
Si Si3 0.077133 0.707871 0.793308
Si Si4 0.173389 0.885649 0.186568
Si Si5 0.689671 0.303167 0.703432
Si Si6 0.289231 0.092410 0.816041
Si Si7 0.188560 0.260872 0.892104
Si Si8 0.687797 0.856152 0.640581
O O1 0.555147 0.321343 0.678059
O O2 0.455025 0.409003 0.552773
O O3 0.966148 0.552282 0.452232
O O4 0.828486 0.548091 0.136739
O O5 0.931517 0.239584 0.209061
O O6 0.500000 0.000000 0.500000
O O7 0.613207 0.187020 0.018908
O O8 0.978302 0.223927 0.994094
O O9 0.039395 0.752598 0.527720
O O10 0.393435 0.787550 0.725073
O O11 0.010423 0.845565 0.064311
O O12 0.500000 0.000000 0.000000
O O13 0.242863 0.981466 0.083556
O O14 0.571553 0.247333 0.627775
O O15 0.282774 0.114514 0.589772
O O16 0.000000 0.000000 0.000000
O O17 0.336490 0.245602 0.081592
O O18 0.000000 0.000000 0.500000
#
# Coordination Sequence:
#
# PCOD9033956 Si02
#       8
#     2   2   2   2   2   2   2   2
#     4  10  24  47  70  95 138 197 234 273 346 415
#     4  11  23  39  70 104 138 172 230 289 357 400
#     4  11  25  44  72  97 138 191 230 282 344 421
#     4  12  23  46  70 105 141 177 222 296 367 400
#     4  10  22  44  70  96 140 187 228 285 338 414
#     4  12  26  39  71 110 142 171 233 294 353 410
#     4  12  25  42  70 101 142 184 230 284 343 422
#     4  12  24  43  68 107 138 184 226 286 361 414
#
# _framework density 22.11805
#
# number of rings (size 3 to 8) (size 9 to 14) (size 15 to 20)
#    0.000    0.750    2.500    6.000    7.000    2.500 
#    0.000    2.500    0.000    0.000    0.000    0.000 
#    0.000    0.000    0.000    0.000    0.000    0.000 
#
# Total GULP energy -89150.959041 kJ/mol
# GULP energy per Si atom -5571.934940 kJ/mol
# Density = 2.206771 g / cm^3
# Si number density = 22.118050 Si / 1000 Ang^3
#
#
#
# Elastic Constant Matrix: (Units=GPa)
#
#
# Indices 1 2 3 4 5 6 
#
# 1 141.0039 21.3269 72.6468 -0.6219 -11.4585 -16.6578
# 2 21.3269 109.0852 29.9684 13.7928 0.6349 -17.5308
# 3 72.6468 29.9684 129.3810 20.1812 -7.8581 -0.6206
# 4 -0.6219 13.7928 20.1812 32.0092 -1.3496 2.4488
# 5 -11.4585 0.6349 -7.8581 -1.3496 45.3883 1.3292
# 6 -16.6578 -17.5308 -0.6206 2.4488 1.3292 24.5326
#
#
#
# Elastic Compliance Matrix: (Units=1/GPa)
#
#
# Indices 1 2 3 4 5 6 
#
# 1 0.011803 0.000367 -0.007218 0.004109 0.001625 0.007596
# 2 0.000367 0.011724 -0.002251 -0.004354 -0.000856 0.009051
# 3 -0.007218 -0.002251 0.013429 -0.007198 0.000481 -0.005478
# 4 0.004109 -0.004354 -0.007198 0.038116 0.001114 -0.004368
# 5 0.001625 -0.000856 0.000481 0.001114 0.022595 -0.000831
# 6 0.007596 0.009051 -0.005478 -0.004368 -0.000831 0.052730
#
#
# Mechanical properties :
#
#
# Convention : Reuss Voigt Hill
#
# Bulk Modulus (GPa) = 53.32915 69.70604 61.51760
# Shear Modulus (GPa) = 28.59564 37.42122 33.00843
#
# Velocity S-wave (km/s) = 3.59954 4.11772 3.86732
# Velocity P-wave (km/s) = 6.43732 7.36148 6.91485
#
# Compressibility (1/GPa) = 0.01875147
#
# Stress axis : x y z
#
# Youngs Moduli (GPa) = 84.72518 85.29594 74.46481
#
# Poissons Ratio (x) = -0.03131 0.53750
# Poissons Ratio (y) = -0.03110 0.16763
# Poissons Ratio (z) = 0.61156 0.19201
#
# Static dielectric constant tensor:
#      x y z
#    x 1.752730 -0.024330 0.064520 
#    y -0.024330 1.844360 0.066330 
#    z 0.064520 0.066330 2.415870 
# 
# From -- ./inp_files/227718.got.cif
#   From: 2010.05.17/outbox.cif.g08.bks.cpg/sg2_114_cif.got.tgz:227718.got - 2010.06.03 11:33:40.
