data_PCOD9033119
_publ_section_title
;
Structure prediction by ZEFSAII (Michael W. Deem and Ramdas Pophale) SiO2 
 PCOD9033119
Probable space group: P -1
;
_chemical_formula_sum "Si O2"
_cell_formula_units_Z 15
_cell_length_a 7.888504
_cell_length_b 16.653665
_cell_length_c 8.649748
_cell_angle_alpha 116.198564
_cell_angle_beta 51.443263
_cell_angle_gamma 83.145691
_cell_volume 659.349688
_symmetry_space_group_name_H-M "P -1"
_symmetry_group_IT_number 2
_symmetry_cell_setting 'triclinic'
loop_
_space_group_symop_operation_xyz
x,y,z
-x,-y,-z
loop_
_atom_site_type_symbol
_atom_site_label
_atom_site_fract_x
_atom_site_fract_y
_atom_site_fract_z
Si Si1 0.312890 0.620690 0.139028
Si Si2 0.846932 0.606822 0.276193
Si Si3 0.701591 0.958657 0.497591
Si Si4 0.553202 0.811382 0.426399
Si Si5 0.000000 0.000000 0.500000
Si Si6 0.331247 0.181992 0.985258
Si Si7 0.734570 0.605710 0.671661
Si Si8 0.049755 0.852336 0.637150
O O1 0.227293 0.724311 0.381231
O O2 0.052872 0.632623 0.239861
O O3 0.500000 0.500000 0.000000
O O4 0.484021 0.621951 0.907062
O O5 0.639022 0.702833 0.369254
O O6 0.728295 0.590799 0.481555
O O7 0.000000 0.500000 0.000000
O O8 0.642788 0.876193 0.529230
O O9 0.999307 0.918277 0.287334
O O10 0.500000 0.000000 0.500000
O O11 0.630002 0.070793 0.724445
O O12 0.245162 0.876219 0.629969
O O13 0.695728 0.788210 0.156748
O O14 0.963139 0.923494 0.592034
O O15 0.276949 0.285367 0.193476
O O16 0.165421 0.139684 0.117449
O O17 0.000000 0.500000 0.500000
#
# Coordination Sequence:
#
# PCOD9033119 Si02
#       8
#     2   2   2   2   1   2   2   2
#     4  12  23  44  72  99 136 181 232 284 354 425
#     4  12  26  42  70 103 140 180 226 301 357 418
#     4  10  22  44  66 100 143 182 230 297 346 414
#     4  11  24  47  65 102 148 175 235 303 347 417
#     4  12  22  44  70  98 142 190 234 286 364 412
#     4  11  23  44  71  98 137 188 231 288 354 422
#     4  12  23  43  71 104 134 181 238 285 354 433
#     4  12  24  43  72 101 136 190 235 287 360 423
#
# _framework density 22.749687999999999
#
# number of rings (size 3 to 8) (size 9 to 14) (size 15 to 20)
#    0.000    0.533    6.667    2.400    0.000    2.667 
#    2.400    0.000    0.000    0.000    0.000    0.000 
#    0.000    0.000    0.000    0.000    0.000    0.000 
#
# Total GULP energy -83542.164622 kJ/mol
# GULP energy per Si atom -5569.477641 kJ/mol
# Density = 2.269791 g / cm^3
# Si number density = 22.749688 Si / 1000 Ang^3
#
#
#
# Elastic Constant Matrix: (Units=GPa)
#
#
# Indices 1 2 3 4 5 6 
#
# 1 104.0149 28.6735 -0.6725 -7.4076 0.5697 9.9136
# 2 28.6735 136.1786 33.5112 -12.8431 0.4952 -12.7288
# 3 -0.6725 33.5112 88.0173 -20.5723 4.6237 1.6153
# 4 -7.4076 -12.8431 -20.5723 61.9157 14.3089 -7.5341
# 5 0.5697 0.4952 4.6237 14.3089 30.2396 3.3523
# 6 9.9136 -12.7288 1.6153 -7.5341 3.3523 53.9851
#
#
#
# Elastic Compliance Matrix: (Units=1/GPa)
#
#
# Indices 1 2 3 4 5 6 
#
# 1 0.010690 -0.002737 0.001440 0.001024 -0.000587 -0.002472
# 2 -0.002737 0.009089 -0.003310 0.000886 -0.000331 0.002889
# 3 0.001440 -0.003310 0.014082 0.005150 -0.004511 -0.000467
# 4 0.001024 0.000886 0.005150 0.021195 -0.011241 0.003523
# 5 -0.000587 -0.000331 -0.004511 -0.011241 0.039522 -0.003858
# 6 -0.002472 0.002889 -0.000467 0.003523 -0.003858 0.020404
#
#
# Mechanical properties :
#
#
# Convention : Reuss Voigt Hill
#
# Bulk Modulus (GPa) = 40.57617 50.13724 45.35670
# Shear Modulus (GPa) = 37.76079 47.00799 42.38439
#
# Velocity S-wave (km/s) = 4.07853 4.55060 4.32102
# Velocity P-wave (km/s) = 6.32881 7.04962 6.69892
#
# Compressibility (1/GPa) = 0.02464501
#
# Stress axis : x y z
#
# Youngs Moduli (GPa) = 93.54797 110.02323 71.01286
#
# Poissons Ratio (x) = 0.30117 -0.10222
# Poissons Ratio (y) = 0.25608 0.23505
# Poissons Ratio (z) = -0.13466 0.36417
#
# Static dielectric constant tensor:
#      x y z
#    x 2.244370 -0.077700 0.051330 
#    y -0.077700 1.861670 0.018570 
#    z 0.051330 0.018570 1.957160 
# 
# From -- ./inp_files/208141.got.cif
#   From: 2010.05.17/outbox.cif.g08.bks.cpg/sg2_105_cif.got.tgz:208141.got - 2010.06.03 11:33:40.
