data_PCOD9033959
_publ_section_title
;
Structure prediction by ZEFSAII (Michael W. Deem and Ramdas Pophale) SiO2 
 PCOD9033959
Probable space group: P -1
;
_chemical_formula_sum "Si O2"
_cell_formula_units_Z 15
_cell_length_a 6.507546
_cell_length_b 16.404783
_cell_length_c 6.251798
_cell_angle_alpha 84.118953
_cell_angle_beta 70.355393
_cell_angle_gamma 95.476266
_cell_volume 619.217855
_symmetry_space_group_name_H-M "P -1"
_symmetry_group_IT_number 2
_symmetry_cell_setting 'triclinic'
loop_
_space_group_symop_operation_xyz
x,y,z
-x,-y,-z
loop_
_atom_site_type_symbol
_atom_site_label
_atom_site_fract_x
_atom_site_fract_y
_atom_site_fract_z
Si Si1 0.559639 0.256340 0.485024
Si Si2 0.744682 0.704868 0.043942
Si Si3 0.429405 0.599422 0.889029
Si Si4 0.928760 0.148035 0.292424
Si Si5 0.976803 0.563134 0.188233
Si Si6 0.244764 0.098680 0.526169
Si Si7 0.385824 0.984028 0.816180
Si Si8 0.500000 0.500000 0.500000
O O1 0.627687 0.337310 0.296310
O O2 0.760560 0.203872 0.442638
O O3 0.365139 0.192698 0.461426
O O4 0.457041 0.281763 0.734784
O O5 0.649305 0.647247 0.899030
O O6 0.875043 0.790597 0.898004
O O7 0.901366 0.650897 0.128517
O O8 0.465489 0.519754 0.761130
O O9 0.236253 0.587604 0.134895
O O10 0.797281 0.092756 0.167756
O O11 0.026235 0.097656 0.463423
O O12 0.775455 0.524629 0.417849
O O13 0.000000 0.500000 0.000000
O O14 0.400766 0.039683 0.377132
O O15 0.265213 0.062480 0.767442
O O16 0.500000 0.000000 0.000000
#
# Coordination Sequence:
#
# PCOD9033959 Si02
#       8
#     2   2   2   2   2   2   2   1
#     4  11  24  43  67 104 144 182 244 303 361 432
#     4  12  25  43  73 103 138 197 240 302 368 435
#     4  11  23  44  67 100 143 180 244 299 360 435
#     4  11  24  46  75 105 147 194 248 305 369 434
#     4  10  23  44  69 101 138 185 240 292 360 436
#     4  10  23  46  69 105 147 189 245 306 363 435
#     4  10  24  46  73 106 148 195 246 299 364 442
#     4  10  22  44  70  96 144 184 234 298 362 430
#
# _framework density 24.224105999999999
#
# number of rings (size 3 to 8) (size 9 to 14) (size 15 to 20)
#    0.000    1.333    4.000    0.400    1.867    4.800 
#    7.200    2.000    0.000    0.000    0.000    0.000 
#    0.000    0.000    0.000    0.000    0.000    0.000 
#
# Total GULP energy -83501.969325 kJ/mol
# GULP energy per Si atom -5566.797955 kJ/mol
# Density = 2.416897 g / cm^3
# Si number density = 24.224106 Si / 1000 Ang^3
#
#
#
# Elastic Constant Matrix: (Units=GPa)
#
#
# Indices 1 2 3 4 5 6 
#
# 1 139.7696 42.6719 61.5877 -6.3378 5.7221 12.0149
# 2 42.6719 67.8016 22.6252 -18.2899 16.3379 0.6155
# 3 61.5877 22.6252 93.6729 0.1281 -7.4140 0.3024
# 4 -6.3378 -18.2899 0.1281 36.7705 1.8726 -3.1526
# 5 5.7221 16.3379 -7.4140 1.8726 54.9576 -5.0554
# 6 12.0149 0.6155 0.3024 -3.1526 -5.0554 42.0610
#
#
#
# Elastic Compliance Matrix: (Units=1/GPa)
#
#
# Indices 1 2 3 4 5 6 
#
# 1 0.012013 -0.005311 -0.006672 -0.000801 -0.000864 -0.003470
# 2 -0.005311 0.023854 -0.002859 0.011428 -0.007205 0.001179
# 3 -0.006672 -0.002859 0.016066 -0.002651 0.003997 0.002114
# 4 -0.000801 0.011428 -0.002651 0.033159 -0.004616 0.002011
# 5 -0.000864 -0.007205 0.003997 -0.004616 0.021358 0.002545
# 6 -0.003470 0.001179 0.002114 0.002011 0.002545 0.025190
#
#
# Mechanical properties :
#
#
# Convention : Reuss Voigt Hill
#
# Bulk Modulus (GPa) = 44.94652 61.66818 53.30735
# Shear Modulus (GPa) = 29.63143 38.38178 34.00660
#
# Velocity S-wave (km/s) = 3.50125 3.98483 3.75084
# Velocity P-wave (km/s) = 5.91099 6.83260 6.38843
#
# Compressibility (1/GPa) = 0.02224866
#
# Stress axis : x y z
#
# Youngs Moduli (GPa) = 83.24232 41.92221 62.24444
#
# Poissons Ratio (x) = 0.22264 0.41527
# Poissons Ratio (y) = 0.44208 0.17799
# Poissons Ratio (z) = 0.55537 0.11987
#
# Static dielectric constant tensor:
#      x y z
#    x 1.977280 0.024490 0.077670 
#    y 0.024490 1.974210 -0.079530 
#    z 0.077670 -0.079530 2.157100 
# 
# From -- ./inp_files/7874.got.cif
#   From: 2010.05.17/outbox.cif.g08.bks.cpg/sg2_4_cif.got.tgz:7874.got - 2010.06.03 11:33:40.
