data_PCOD9033185
_publ_section_title
;
Structure prediction by ZEFSAII (Michael W. Deem and Ramdas Pophale) SiO2 
 PCOD9033185
Probable space group: P -1
;
_chemical_formula_sum "Si O2"
_cell_formula_units_Z 15
_cell_length_a 9.279176
_cell_length_b 8.815788
_cell_length_c 18.500898
_cell_angle_alpha 144.434736
_cell_angle_beta 142.047201
_cell_angle_gamma 45.797494
_cell_volume 534.748358
_symmetry_space_group_name_H-M "P -1"
_symmetry_group_IT_number 2
_symmetry_cell_setting 'triclinic'
loop_
_space_group_symop_operation_xyz
x,y,z
-x,-y,-z
loop_
_atom_site_type_symbol
_atom_site_label
_atom_site_fract_x
_atom_site_fract_y
_atom_site_fract_z
Si Si1 0.656570 0.488734 0.418402
Si Si2 0.422232 0.761410 0.021574
Si Si3 0.359920 0.963507 0.312575
Si Si4 0.221795 0.239118 0.215571
Si Si5 0.070287 0.314838 0.794190
Si Si6 0.096956 0.119732 0.511787
Si Si7 0.539000 0.605227 0.849928
Si Si8 0.000000 0.500000 0.000000
O O1 0.652892 0.804436 0.544641
O O2 0.443180 0.396692 0.345742
O O3 0.608680 0.410842 0.286680
O O4 0.907074 0.357524 0.500006
O O5 0.675807 0.865633 0.174054
O O6 0.239936 0.997673 0.073129
O O7 0.500000 0.500000 0.000000
O O8 0.407671 0.676789 0.900370
O O9 0.253465 0.106898 0.254579
O O10 0.633759 0.843046 0.357413
O O11 0.267919 0.685411 0.184334
O O12 0.991053 0.462265 0.205371
O O13 0.038301 0.474996 0.916121
O O14 0.892123 0.110713 0.632665
O O15 0.000000 0.000000 0.500000
O O16 0.760913 0.759653 0.994425
#
# Coordination Sequence:
#
# PCOD9033185 Si02
#       8
#     2   2   2   2   2   2   2   1
#     4  12  24  42  70 101 131 182 223 273 339 400
#     4  11  24  45  65  97 140 172 225 284 327 391
#     4  12  24  44  68 100 139 172 225 283 331 396
#     4  12  22  42  71 100 130 181 227 270 335 403
#     4  11  23  40  69  97 129 176 227 268 336 396
#     4  12  23  40  69  98 134 173 222 276 331 395
#     4  11  25  45  69  99 141 176 222 284 335 396
#     4  10  22  44  66  94 132 182 214 270 338 392
#
# _framework density 28.050577000000001
#
# number of rings (size 3 to 8) (size 9 to 14) (size 15 to 20)
#    0.000    0.533    6.667    1.600    0.000    2.667 
#    0.000    0.000    0.000    0.000    0.000    0.000 
#    0.000    0.000    0.000    0.000    0.000    0.000 
#
# Total GULP energy -83930.101532 kJ/mol
# GULP energy per Si atom -5595.340102 kJ/mol
# Density = 2.798673 g / cm^3
# Si number density = 28.050577 Si / 1000 Ang^3
#
#
#
# Elastic Constant Matrix: (Units=GPa)
#
#
# Indices 1 2 3 4 5 6 
#
# 1 95.4763 55.7138 26.5718 -23.3618 0.6911 -9.1680
# 2 55.7138 203.6511 62.9024 -9.5997 -8.9860 -5.1493
# 3 26.5718 62.9024 132.9909 -8.4123 -9.2615 -1.8643
# 4 -23.3618 -9.5997 -8.4123 60.0865 10.2828 2.5476
# 5 0.6911 -8.9860 -9.2615 10.2828 39.9346 -3.0766
# 6 -9.1680 -5.1493 -1.8643 2.5476 -3.0766 54.9628
#
#
#
# Elastic Compliance Matrix: (Units=1/GPa)
#
#
# Indices 1 2 3 4 5 6 
#
# 1 0.014179 -0.003376 -0.001057 0.005177 -0.002457 0.001636
# 2 -0.003376 0.006596 -0.002412 -0.000804 0.001196 0.000077
# 3 -0.001057 -0.002412 0.008989 0.000205 0.001506 -0.000023
# 4 0.005177 -0.000804 0.000205 0.019474 -0.005268 -0.000402
# 5 -0.002457 0.001196 0.001506 -0.005268 0.027175 0.001519
# 6 0.001636 0.000077 -0.000023 -0.000402 0.001519 0.018577
#
#
# Mechanical properties :
#
#
# Convention : Reuss Voigt Hill
#
# Bulk Modulus (GPa) = 62.20917 80.27713 71.24315
# Shear Modulus (GPa) = 43.84522 50.12547 46.98534
#
# Velocity S-wave (km/s) = 3.95787 4.23184 4.09714
# Velocity P-wave (km/s) = 6.56597 7.24974 6.91631
#
# Compressibility (1/GPa) = 0.01607480
#
# Stress axis : x y z
#
# Youngs Moduli (GPa) = 70.52513 151.61741 111.25056
#
# Poissons Ratio (x) = 0.51180 0.11761
# Poissons Ratio (y) = 0.23807 0.26829
# Poissons Ratio (z) = 0.07456 0.36564
#
# Static dielectric constant tensor:
#      x y z
#    x 2.379460 0.084460 0.296830 
#    y 0.084460 2.345620 0.099350 
#    z 0.296830 0.099350 2.394360 
# 
# From -- ./inp_files/256111.got.cif
#   From: 2010.05.17/outbox.cif.g08.bks.cpg/sg2_129_cif.got.tgz:256111.got - 2010.06.03 11:33:40.
