data_PCOD9033398
_publ_section_title
;
Structure prediction by ZEFSAII (Michael W. Deem and Ramdas Pophale) SiO2 
 PCOD9033398
Probable space group: P -1
;
_chemical_formula_sum "Si O2"
_cell_formula_units_Z 16
_cell_length_a 14.978864
_cell_length_b 5.131843
_cell_length_c 25.247237
_cell_angle_alpha 79.316737
_cell_angle_beta 150.648236
_cell_angle_gamma 118.836788
_cell_volume 697.421386
_symmetry_space_group_name_H-M "P -1"
_symmetry_group_IT_number 2
_symmetry_cell_setting 'triclinic'
loop_
_space_group_symop_operation_xyz
x,y,z
-x,-y,-z
loop_
_atom_site_type_symbol
_atom_site_label
_atom_site_fract_x
_atom_site_fract_y
_atom_site_fract_z
Si Si1 0.934793 0.405884 0.588539
Si Si2 0.502180 0.217985 0.539332
Si Si3 0.280651 0.494974 0.947532
Si Si4 0.604805 0.311588 0.117866
Si Si5 0.849778 0.894051 0.479640
Si Si6 0.653716 0.780288 0.790717
Si Si7 0.880848 0.369547 0.807803
Si Si8 0.100596 0.830860 0.002048
O O1 0.894068 0.679444 0.547992
O O2 0.197714 0.604056 0.742424
O O3 0.729889 0.076323 0.532888
O O4 0.915442 0.227446 0.530437
O O5 0.500000 0.500000 0.500000
O O6 0.742977 0.420317 0.692828
O O7 0.500000 0.000000 0.500000
O O8 0.445707 0.405078 0.052271
O O9 0.429657 0.904205 0.024143
O O10 0.257946 0.459908 0.873572
O O11 0.023376 0.283494 0.851460
O O12 0.568255 0.612217 0.327415
O O13 0.000000 0.000000 0.500000
O O14 0.906269 0.877095 0.905043
O O15 0.674776 0.053655 0.752772
O O16 0.657302 0.847797 0.852880
O O17 0.077015 0.696137 0.936091
O O18 0.000000 0.500000 0.000000
#
# Coordination Sequence:
#
# PCOD9033398 Si02
#       8
#     2   2   2   2   2   2   2   2
#     4  12  25  50  70 101 146 186 235 295 347 423
#     4  12  27  43  73 110 142 189 234 289 358 428
#     4  10  23  41  69  98 135 182 227 287 347 411
#     4  10  23  45  65  96 140 181 230 282 343 419
#     4  12  27  47  73 100 138 192 235 291 355 421
#     4  10  22  44  67  98 142 175 233 298 356 419
#     4  11  23  41  70 102 140 178 235 291 358 418
#     4   9  21  41  66  99 131 180 220 295 359 405
#
# _framework density 22.941652000000001
#
# number of rings (size 3 to 8) (size 9 to 14) (size 15 to 20)
#    0.000    1.250    1.250    3.375    5.250    4.000 
#   11.250    0.000    0.000    0.000    0.000    0.000 
#    0.000    0.000    0.000    0.000    0.000    0.000 
#
# Total GULP energy -89511.564371 kJ/mol
# GULP energy per Si atom -5594.472773 kJ/mol
# Density = 2.288944 g / cm^3
# Si number density = 22.941652 Si / 1000 Ang^3
#
#
#
# Elastic Constant Matrix: (Units=GPa)
#
#
# Indices 1 2 3 4 5 6 
#
# 1 100.4994 10.0400 12.2656 -6.1634 -6.3856 0.9486
# 2 10.0400 77.9432 2.1799 -26.5015 2.1028 -2.3984
# 3 12.2656 2.1799 96.7909 -27.5747 -20.6176 4.0604
# 4 -6.1634 -26.5015 -27.5747 30.5794 -0.7089 3.8776
# 5 -6.3856 2.1028 -20.6176 -0.7089 34.2942 1.6300
# 6 0.9486 -2.3984 4.0604 3.8776 1.6300 39.4418
#
#
#
# Elastic Compliance Matrix: (Units=1/GPa)
#
#
# Indices 1 2 3 4 5 6 
#
# 1 0.010297 -0.001256 -0.000863 0.000285 0.001497 -0.000325
# 2 -0.001256 0.021368 0.007941 0.025793 0.003867 -0.002184
# 3 -0.000863 0.007941 0.020563 0.026136 0.012478 -0.004698
# 4 0.000285 0.025793 0.026136 0.080288 0.016305 -0.009696
# 5 0.001497 0.003867 0.012478 0.016305 0.037241 -0.004227
# 6 -0.000325 -0.002184 -0.004698 -0.009696 -0.004227 0.026840
#
#
# Mechanical properties :
#
#
# Convention : Reuss Voigt Hill
#
# Bulk Modulus (GPa) = 15.65611 36.02273 25.83942
# Shear Modulus (GPa) = 24.24332 37.57962 30.91147
#
# Velocity S-wave (km/s) = 3.25428 4.05168 3.67467
# Velocity P-wave (km/s) = 4.57816 6.13385 5.41219
#
# Compressibility (1/GPa) = 0.06387284
#
# Stress axis : x y z
#
# Youngs Moduli (GPa) = 97.11830 46.79946 48.63091
#
# Poissons Ratio (x) = 0.05877 0.04196
# Poissons Ratio (y) = 0.12196 -0.38619
# Poissons Ratio (z) = 0.08381 -0.37165
#
# Static dielectric constant tensor:
#      x y z
#    x 1.886090 0.025130 -0.010780 
#    y 0.025130 1.908730 -0.020300 
#    z -0.010780 -0.020300 1.849760 
# 
# From -- ./inp_files/611248.got.cif
#   From: 2010.05.17/outbox.cif.g08.bks.cpg/sg2_306_cif.got.tgz:611248.got - 2010.06.03 11:33:40.
