data_PCOD9033900
_publ_section_title
;
Structure prediction by ZEFSAII (Michael W. Deem and Ramdas Pophale) SiO2 
 PCOD9033900
Probable space group: P -1
;
_chemical_formula_sum "Si O2"
_cell_formula_units_Z 13
_cell_length_a 10.352282
_cell_length_b 18.688350
_cell_length_c 5.584170
_cell_angle_alpha 122.335222
_cell_angle_beta 52.774222
_cell_angle_gamma 139.586931
_cell_volume 551.886535
_symmetry_space_group_name_H-M "P -1"
_symmetry_group_IT_number 2
_symmetry_cell_setting 'triclinic'
loop_
_space_group_symop_operation_xyz
x,y,z
-x,-y,-z
loop_
_atom_site_type_symbol
_atom_site_label
_atom_site_fract_x
_atom_site_fract_y
_atom_site_fract_z
Si Si1 0.500626 0.447710 0.656449
Si Si2 0.500000 0.000000 0.000000
Si Si3 0.802278 0.243609 0.798687
Si Si4 0.476510 0.225062 0.773604
Si Si5 0.169840 0.249228 0.396016
Si Si6 0.142720 0.991166 0.484751
Si Si7 0.815111 0.410771 0.366061
O O1 0.500000 0.500000 0.500000
O O2 0.277980 0.320434 0.646636
O O3 0.703360 0.453073 0.441622
O O4 0.500000 0.500000 0.000000
O O5 0.296579 0.987237 0.140850
O O6 0.330615 0.869006 0.089552
O O7 0.632777 0.226494 0.775347
O O8 0.009924 0.265520 0.498751
O O9 0.894208 0.359217 0.027904
O O10 0.298846 0.098498 0.665573
O O11 0.618094 0.302003 0.532193
O O12 0.366372 0.273023 0.079840
O O13 0.012345 0.118562 0.384641
O O14 0.000000 0.000000 0.500000
O O15 0.000000 0.500000 0.500000
#
# Coordination Sequence:
#
# PCOD9033900 Si02
#       7
#     2   1   2   2   2   2   2
#     4  12  27  50  79 114 158 207 273 338 403 484
#     4  10  22  44  70 108 148 194 248 312 372 480
#     4  11  25  47  73 109 153 198 258 314 398 473
#     4  12  25  48  75 108 154 203 257 328 393 474
#     4  11  25  45  74 112 149 198 259 318 397 473
#     4  11  23  42  73 105 150 194 251 314 395 467
#     4  12  27  50  77 108 155 207 260 334 398 476
#
# _framework density 23.555565999999999
#
# number of rings (size 3 to 8) (size 9 to 14) (size 15 to 20)
#    0.000    0.615    3.077    4.154    2.154    4.308 
#    2.769    0.000    0.000    0.000    0.000    0.000 
#    0.000    0.000    0.000    0.000    0.000    0.000 
#
# Total GULP energy -72408.487137 kJ/mol
# GULP energy per Si atom -5569.883626 kJ/mol
# Density = 2.350195 g / cm^3
# Si number density = 23.555566 Si / 1000 Ang^3
#
#
#
# Elastic Constant Matrix: (Units=GPa)
#
#
# Indices 1 2 3 4 5 6 
#
# 1 206.5763 35.7887 62.3243 10.2018 -38.9690 1.4985
# 2 35.7887 90.6015 38.0257 34.4720 7.6970 8.7508
# 3 62.3243 38.0257 36.0006 -15.0063 -7.0004 -5.8740
# 4 10.2018 34.4720 -15.0063 24.9208 22.6813 0.2140
# 5 -38.9690 7.6970 -7.0004 22.6813 45.0712 3.7306
# 6 1.4985 8.7508 -5.8740 0.2140 3.7306 44.3397
#
#
#
# Elastic Compliance Matrix: (Units=1/GPa)
#
#
# Indices 1 2 3 4 5 6 
#
# 1 0.004709 -0.007156 0.003709 0.009169 0.001122 0.001606
# 2 -0.007156 0.004980 0.010748 0.013855 -0.012479 0.001666
# 3 0.003709 0.010748 -0.001170 -0.034000 0.018614 -0.003804
# 4 0.009169 0.013855 -0.034000 -0.007471 0.004695 -0.007908
# 5 0.001122 -0.012479 0.018614 0.004695 0.025592 0.002715
# 6 0.001606 0.001666 -0.003804 -0.007908 0.002715 0.021476
#
#
# Mechanical properties :
#
#
# Convention : Reuss Voigt Hill
#
# Bulk Modulus (GPa) = 43.24897 67.27287 55.26092
# Shear Modulus (GPa) = 121.30015 36.00232 78.65124
#
# Velocity S-wave (km/s) = 7.18381 3.91372 5.78465
# Velocity P-wave (km/s) = 9.33862 7.00315 8.25390
#
# Compressibility (1/GPa) = 0.02312194
#
# Stress axis : x y z
#
# Youngs Moduli (GPa) = 212.37293 200.78317 -854.36604
#
# Poissons Ratio (x) = 1.43680 3.16898
# Poissons Ratio (y) = 1.51973 9.18307
# Poissons Ratio (z) = -0.78772 -2.15810
#
# Static dielectric constant tensor:
#      x y z
#    x 1.886950 -0.002560 -0.020840 
#    y -0.002560 1.978810 0.013890 
#    z -0.020840 0.013890 1.945100 
# 
# From -- ./inp_files/48875.got.cif
#   From: 2010.05.17/outbox.cif.g08.bks.cpg/sg2_25_cif.got.tgz:48875.got - 2010.06.03 11:33:40.
