data_PCOD9033129
_publ_section_title
;
Structure prediction by ZEFSAII (Michael W. Deem and Ramdas Pophale) SiO2 
 PCOD9033129
Probable space group: P -1
;
_chemical_formula_sum "Si O2"
_cell_formula_units_Z 14
_cell_length_a 4.999039
_cell_length_b 13.473401
_cell_length_c 14.678924
_cell_angle_alpha 141.168593
_cell_angle_beta 76.277356
_cell_angle_gamma 121.299405
_cell_volume 503.169817
_symmetry_space_group_name_H-M "P -1"
_symmetry_group_IT_number 2
_symmetry_cell_setting 'triclinic'
loop_
_space_group_symop_operation_xyz
x,y,z
-x,-y,-z
loop_
_atom_site_type_symbol
_atom_site_label
_atom_site_fract_x
_atom_site_fract_y
_atom_site_fract_z
Si Si1 0.437040 0.238464 0.401931
Si Si2 0.709401 0.080097 0.400273
Si Si3 0.077418 0.332800 0.718841
Si Si4 0.138262 0.690442 0.959235
Si Si5 0.256044 0.401657 0.259153
Si Si6 0.708463 0.725790 0.155037
Si Si7 0.692643 0.054320 0.117536
O O1 0.476044 0.135131 0.412690
O O2 0.678980 0.459593 0.563589
O O3 0.577472 0.177478 0.266171
O O4 0.058701 0.177202 0.386005
O O5 0.814429 0.176988 0.559994
O O6 0.566679 0.857750 0.252100
O O7 0.025994 0.493589 0.875462
O O8 0.396802 0.476522 0.733518
O O9 0.155703 0.242597 0.730609
O O10 0.990844 0.628652 0.824793
O O11 0.974315 0.782486 0.093560
O O12 0.525585 0.854713 0.040995
O O13 0.080949 0.191952 0.165774
O O14 0.500000 0.500000 0.000000
O O15 0.500000 0.000000 0.000000
#
# Coordination Sequence:
#
# PCOD9033129 Si02
#       7
#     2   2   2   2   2   2   2
#     4  11  23  48  73 103 145 183 240 286 353 426
#     4  11  26  47  73 104 142 190 233 293 350 425
#     4  11  24  44  68 101 140 186 237 285 352 422
#     4  11  22  44  66 104 138 180 238 287 355 408
#     4  10  22  44  66 101 140 184 231 288 348 420
#     4  12  25  43  71 101 142 184 235 298 350 418
#     4  10  23  43  71 101 145 180 235 289 356 415
#
# _framework density 27.823606999999999
#
# number of rings (size 3 to 8) (size 9 to 14) (size 15 to 20)
#    0.000    1.143    4.286    1.286    2.000    1.714 
#    5.143    5.000    0.000    0.000    0.000    0.000 
#    0.000    0.000    0.000    0.000    0.000    0.000 
#
# Total GULP energy -78473.117630 kJ/mol
# GULP energy per Si atom -5605.222688 kJ/mol
# Density = 2.776028 g / cm^3
# Si number density = 27.823607 Si / 1000 Ang^3
#
#
#
# Elastic Constant Matrix: (Units=GPa)
#
#
# Indices 1 2 3 4 5 6 
#
# 1 74.1525 23.7395 10.3201 8.2928 -0.2163 2.1598
# 2 23.7395 118.5715 49.0048 31.6488 11.4136 22.9496
# 3 10.3201 49.0048 166.9696 14.2551 7.8091 8.5225
# 4 8.2928 31.6488 14.2551 76.0367 -2.5175 2.2476
# 5 -0.2163 11.4136 7.8091 -2.5175 42.2544 -5.2111
# 6 2.1598 22.9496 8.5225 2.2476 -5.2111 50.4840
#
#
#
# Elastic Compliance Matrix: (Units=1/GPa)
#
#
# Indices 1 2 3 4 5 6 
#
# 1 0.014486 -0.003071 -0.000063 -0.000283 0.001010 0.000904
# 2 -0.003071 0.012787 -0.002724 -0.004445 -0.003900 -0.005426
# 3 -0.000063 -0.002724 0.006829 -0.000158 -0.000531 0.000040
# 4 -0.000283 -0.004445 -0.000158 0.015091 0.002328 0.001628
# 5 0.001010 -0.003900 -0.000531 0.002328 0.025498 0.004348
# 6 0.000904 -0.005426 0.000040 0.001628 0.004348 0.022606
#
#
# Mechanical properties :
#
#
# Convention : Reuss Voigt Hill
#
# Bulk Modulus (GPa) = 44.67244 58.42470 51.54857
# Shear Modulus (GPa) = 42.92805 52.19697 47.56251
#
# Velocity S-wave (km/s) = 3.93219 4.33598 4.13901
# Velocity P-wave (km/s) = 6.05860 6.79054 6.43498
#
# Compressibility (1/GPa) = 0.02238517
#
# Stress axis : x y z
#
# Youngs Moduli (GPa) = 69.03279 78.20721 146.43825
#
# Poissons Ratio (x) = 0.24014 0.00927
# Poissons Ratio (y) = 0.21197 0.39891
# Poissons Ratio (z) = 0.00437 0.21305
#
# Static dielectric constant tensor:
#      x y z
#    x 2.202910 0.086550 -0.065100 
#    y 0.086550 2.205390 -0.022310 
#    z -0.065100 -0.022310 2.145820 
# 
# From -- ./inp_files/28161.got.cif
#   From: 2010.05.17/outbox.cif.g08.bks.cpg/sg2_15_cif.got.tgz:28161.got - 2010.06.03 11:33:40.
