data_PCOD9033588
_publ_section_title
;
Structure prediction by ZEFSAII (Michael W. Deem and Ramdas Pophale) SiO2 
 PCOD9033588
Probable space group: P -1
;
_chemical_formula_sum "Si O2"
_cell_formula_units_Z 14
_cell_length_a 7.001429
_cell_length_b 11.110175
_cell_length_c 12.620223
_cell_angle_alpha 73.010571
_cell_angle_beta 42.202395
_cell_angle_gamma 68.371484
_cell_volume 612.733759
_symmetry_space_group_name_H-M "P -1"
_symmetry_group_IT_number 2
_symmetry_cell_setting 'triclinic'
loop_
_space_group_symop_operation_xyz
x,y,z
-x,-y,-z
loop_
_atom_site_type_symbol
_atom_site_label
_atom_site_fract_x
_atom_site_fract_y
_atom_site_fract_z
Si Si1 0.170096 0.988971 0.042874
Si Si2 0.386409 0.349369 0.761822
Si Si3 0.161559 0.497676 0.123731
Si Si4 0.352024 0.229552 0.012449
Si Si5 0.124699 0.813565 0.511369
Si Si6 0.860678 0.466350 0.459922
Si Si7 0.168009 0.006768 0.607257
O O1 0.234570 0.127246 0.013134
O O2 0.001855 0.956045 0.223978
O O3 0.453033 0.868371 0.958014
O O4 0.000000 0.000000 0.000000
O O5 0.037701 0.397070 0.899622
O O6 0.534621 0.230280 0.654929
O O7 0.525302 0.465370 0.628115
O O8 0.507977 0.302165 0.840287
O O9 0.160674 0.354759 0.117854
O O10 0.972028 0.536867 0.298870
O O11 0.500000 0.500000 0.000000
O O12 0.117844 0.872497 0.615090
O O13 0.016195 0.683496 0.581536
O O14 0.948053 0.903429 0.469112
O O15 0.000000 0.500000 0.500000
O O16 0.500000 0.000000 0.500000
#
# Coordination Sequence:
#
# PCOD9033588 Si02
#       7
#     2   2   2   2   2   2   2
#     4  11  26  44  69 101 139 182 224 294 354 415
#     4  10  23  47  70  94 145 184 228 290 339 421
#     4  12  26  42  72 106 139 185 232 289 352 418
#     4  11  25  47  67  98 141 179 234 282 352 415
#     4   9  23  43  71  96 139 180 235 290 340 412
#     4  10  22  44  68  98 135 180 232 279 348 413
#     4  11  23  42  70 101 132 181 240 284 346 413
#
# _framework density 22.848424999999999
#
# number of rings (size 3 to 8) (size 9 to 14) (size 15 to 20)
#    0.857    0.571    1.429    2.571    4.000    3.429 
#    2.571    0.000    0.000    0.000    0.000    0.000 
#    0.000    0.000    0.000    0.000    0.000    0.000 
#
# Total GULP energy -77995.286221 kJ/mol
# GULP energy per Si atom -5571.091873 kJ/mol
# Density = 2.279642 g / cm^3
# Si number density = 22.848425 Si / 1000 Ang^3
#
#
#
# Elastic Constant Matrix: (Units=GPa)
#
#
# Indices 1 2 3 4 5 6 
#
# 1 169.8595 53.4622 32.4722 9.9723 6.1407 -7.1376
# 2 53.4622 76.2190 -8.4704 8.1328 4.3171 -13.2188
# 3 32.4722 -8.4704 73.4976 1.7183 10.8361 -3.5710
# 4 9.9723 8.1328 1.7183 31.1131 4.9386 -1.7070
# 5 6.1407 4.3171 10.8361 4.9386 43.7133 8.2458
# 6 -7.1376 -13.2188 -3.5710 -1.7070 8.2458 28.9436
#
#
#
# Elastic Compliance Matrix: (Units=1/GPa)
#
#
# Indices 1 2 3 4 5 6 
#
# 1 0.009076 -0.007259 -0.005105 -0.001040 0.001224 -0.002117
# 2 -0.007259 0.021170 0.006820 -0.002355 -0.004348 0.009820
# 3 -0.005105 0.006820 0.017715 0.000040 -0.005405 0.005584
# 4 -0.001040 -0.002355 0.000040 0.033782 -0.003776 0.001741
# 5 0.001224 -0.004348 -0.005405 -0.003776 0.026827 -0.010216
# 6 -0.002117 0.009820 0.005584 0.001741 -0.010216 0.042215
#
#
# Mechanical properties :
#
#
# Convention : Reuss Voigt Hill
#
# Bulk Modulus (GPa) = 27.12055 52.72268 39.92161
# Shear Modulus (GPa) = 28.70840 36.89481 32.80161
#
# Velocity S-wave (km/s) = 3.54852 4.02277 3.79307
# Velocity P-wave (km/s) = 5.35582 6.68595 6.05751
#
# Compressibility (1/GPa) = 0.03687242
#
# Stress axis : x y z
#
# Youngs Moduli (GPa) = 110.18351 47.23598 56.44977
#
# Poissons Ratio (x) = 0.34288 0.28820
# Poissons Ratio (y) = 0.79982 -0.38499
# Poissons Ratio (z) = 0.56254 -0.32216
#
# Static dielectric constant tensor:
#      x y z
#    x 1.830000 -0.011270 -0.068290 
#    y -0.011270 1.888090 -0.013900 
#    z -0.068290 -0.013900 1.997960 
# 
# From -- ./inp_files/362851.got.cif
#   From: 2010.05.17/outbox.cif.g08.bks.cpg/sg2_182_cif.got.tgz:362851.got - 2010.06.03 11:33:40.
