data_PCOD9033769
_publ_section_title
;
Structure prediction by ZEFSAII (Michael W. Deem and Ramdas Pophale) SiO2 
 PCOD9033769
Probable space group: P -1
;
_chemical_formula_sum "Si O2"
_cell_formula_units_Z 16
_cell_length_a 11.901841
_cell_length_b 21.312731
_cell_length_c 9.147334
_cell_angle_alpha 32.298361
_cell_angle_beta 125.789328
_cell_angle_gamma 138.438045
_cell_volume 815.059214
_symmetry_space_group_name_H-M "P -1"
_symmetry_group_IT_number 2
_symmetry_cell_setting 'triclinic'
loop_
_space_group_symop_operation_xyz
x,y,z
-x,-y,-z
loop_
_atom_site_type_symbol
_atom_site_label
_atom_site_fract_x
_atom_site_fract_y
_atom_site_fract_z
Si Si1 0.194723 0.096777 0.406228
Si Si2 0.356301 0.264660 0.918827
Si Si3 0.865377 0.463421 0.847768
Si Si4 0.431492 0.849875 0.823809
Si Si5 0.653974 0.084133 0.066026
Si Si6 0.664663 0.557436 0.684627
Si Si7 0.702554 0.623840 0.910298
Si Si8 0.016467 0.380386 0.677989
O O1 0.279526 0.231975 0.314710
O O2 0.289113 0.018411 0.639386
O O3 0.213423 0.151706 0.145999
O O4 0.000000 0.000000 0.500000
O O5 0.467893 0.414087 0.807208
O O6 0.308192 0.312231 0.644536
O O7 0.454210 0.199544 0.056858
O O8 0.745561 0.494927 0.776023
O O9 0.935944 0.566189 0.557785
O O10 0.760405 0.293201 0.067804
O O11 0.000000 0.500000 0.000000
O O12 0.422055 0.877174 0.934068
O O13 0.500000 0.000000 0.500000
O O14 0.831511 0.227026 0.858037
O O15 0.500000 0.000000 0.000000
O O16 0.744106 0.612138 0.796841
O O17 0.500000 0.500000 0.000000
O O18 0.831468 0.615524 0.131199
O O19 0.000000 0.500000 0.500000
#
# Coordination Sequence:
#
# PCOD9033769 Si02
#       8
#     2   2   2   2   2   2   2   2
#     4  12  25  46  68 101 146 184 231 292 357 419
#     4  10  22  44  69  98 135 181 232 293 347 418
#     4  11  25  43  72 100 141 182 228 296 361 414
#     4  11  24  45  69  99 140 182 233 291 351 430
#     4  12  29  46  71 102 145 192 238 291 366 422
#     4  10  23  40  69 101 130 176 237 283 350 413
#     4  12  26  43  73 103 141 187 238 290 356 423
#     4  12  26  47  72 104 143 181 244 299 347 428
#
# _framework density 19.630476999999999
#
# number of rings (size 3 to 8) (size 9 to 14) (size 15 to 20)
#    0.000    0.750    5.000    1.500    8.750    0.000 
#    0.000    0.625    0.000    0.000    0.000    0.000 
#    0.000    0.000    0.000    0.000    0.000    0.000 
#
# Total GULP energy -89220.650234 kJ/mol
# GULP energy per Si atom -5576.290640 kJ/mol
# Density = 1.958580 g / cm^3
# Si number density = 19.630477 Si / 1000 Ang^3
#
#
#
# Elastic Constant Matrix: (Units=GPa)
#
#
# Indices 1 2 3 4 5 6 
#
# 1 98.2179 54.6121 41.5444 0.3437 -23.2646 -9.3589
# 2 54.6121 142.1774 68.9068 -0.3436 -20.8961 -7.2122
# 3 41.5444 68.9068 136.9110 1.7573 -17.0136 4.1647
# 4 0.3437 -0.3436 1.7573 37.7072 -5.7251 -0.0748
# 5 -23.2646 -20.8961 -17.0136 -5.7251 45.0802 -2.6070
# 6 -9.3589 -7.2122 4.1647 -0.0748 -2.6070 43.1979
#
#
#
# Elastic Compliance Matrix: (Units=1/GPa)
#
#
# Indices 1 2 3 4 5 6 
#
# 1 0.014655 -0.003705 -0.002020 0.000746 0.005356 0.003076
# 2 -0.003705 0.010794 -0.004152 0.000585 0.001685 0.001502
# 3 -0.002020 -0.004152 0.010161 -0.000391 0.000699 -0.002069
# 4 0.000746 0.000585 -0.000391 0.027144 0.003989 0.000585
# 5 0.005356 0.001685 0.000699 0.003989 0.026671 0.002991
# 6 0.003076 0.001502 -0.002069 0.000585 0.002991 0.024447
#
#
# Mechanical properties :
#
#
# Convention : Reuss Voigt Hill
#
# Bulk Modulus (GPa) = 63.06543 78.60367 70.83455
# Shear Modulus (GPa) = 35.99362 39.34659 37.67010
#
# Velocity S-wave (km/s) = 4.28665 4.48187 4.38535
# Velocity P-wave (km/s) = 7.52971 8.17994 7.86155
#
# Compressibility (1/GPa) = 0.01585655
#
# Stress axis : x y z
#
# Youngs Moduli (GPa) = 68.23546 92.63998 98.41137
#
# Poissons Ratio (x) = 0.34327 0.19875
# Poissons Ratio (y) = 0.25284 0.40862
# Poissons Ratio (z) = 0.13781 0.38466
#
# Static dielectric constant tensor:
#      x y z
#    x 1.804770 0.136790 -0.115780 
#    y 0.136790 1.947840 -0.073190 
#    z -0.115780 -0.073190 1.812670 
# 
# From -- ./inp_files/282656.got.cif
#   From: 2010.05.17/outbox.cif.g08.bks.cpg/sg2_142_cif.got.tgz:282656.got - 2010.06.03 11:33:40.
