data_PCOD9033330
_publ_section_title
;
Structure prediction by ZEFSAII (Michael W. Deem and Ramdas Pophale) SiO2 
 PCOD9033330
Probable space group: P -1
;
_chemical_formula_sum "Si O2"
_cell_formula_units_Z 16
_cell_length_a 16.983884
_cell_length_b 8.306339
_cell_length_c 6.202408
_cell_angle_alpha 55.302458
_cell_angle_beta 104.072648
_cell_angle_gamma 102.903880
_cell_volume 693.839468
_symmetry_space_group_name_H-M "P -1"
_symmetry_group_IT_number 2
_symmetry_cell_setting 'triclinic'
loop_
_space_group_symop_operation_xyz
x,y,z
-x,-y,-z
loop_
_atom_site_type_symbol
_atom_site_label
_atom_site_fract_x
_atom_site_fract_y
_atom_site_fract_z
Si Si1 0.667199 0.612061 0.005198
Si Si2 0.149288 0.813826 0.053211
Si Si3 0.838288 0.571186 0.368915
Si Si4 0.958323 0.884270 0.356032
Si Si5 0.568873 0.348394 0.425212
Si Si6 0.665644 0.008427 0.942397
Si Si7 0.392756 0.277629 0.525423
Si Si8 0.934660 0.416296 0.200945
O O1 0.676008 0.645025 0.731643
O O2 0.747665 0.578543 0.217882
O O3 0.601358 0.425232 0.155011
O O4 0.645187 0.822605 0.913991
O O5 0.237257 0.936643 0.030049
O O6 0.133003 0.719885 0.875928
O O7 0.074204 0.945839 0.943216
O O8 0.152862 0.634400 0.354593
O O9 0.872817 0.742598 0.424832
O O10 0.895067 0.580273 0.185739
O O11 0.020237 0.718679 0.500621
O O12 0.000000 0.000000 0.500000
O O13 0.474481 0.269564 0.445440
O O14 0.584550 0.550434 0.417656
O O15 0.621880 0.189847 0.686326
O O16 0.634547 0.925248 0.217469
O O17 0.000000 0.500000 0.000000
#
# Coordination Sequence:
#
# PCOD9033330 Si02
#       8
#     2   2   2   2   2   2   2   2
#     4  11  24  40  66  99 134 172 223 270 328 393
#     4  11  24  43  65  94 131 171 216 271 332 390
#     4  12  24  43  68  94 132 173 217 274 332 392
#     4  10  23  45  66  95 128 167 219 271 326 394
#     4  10  22  44  67  94 137 176 219 270 327 391
#     4  11  23  41  66  98 136 172 221 274 322 392
#     4  10  24  41  67 100 132 177 220 270 327 386
#     4  11  25  43  69  93 126 172 217 272 333 394
#
# _framework density 23.060092000000001
#
# number of rings (size 3 to 8) (size 9 to 14) (size 15 to 20)
#    0.000    1.250    3.750    1.125    1.750    4.000 
#    4.500    0.000    0.000    0.000    0.000    0.000 
#    0.000    0.000    0.000    0.000    0.000    0.000 
#
# Total GULP energy -89323.081829 kJ/mol
# GULP energy per Si atom -5582.692614 kJ/mol
# Density = 2.300761 g / cm^3
# Si number density = 23.060092 Si / 1000 Ang^3
#
#
#
# Elastic Constant Matrix: (Units=GPa)
#
#
# Indices 1 2 3 4 5 6 
#
# 1 77.4844 26.8424 34.1219 -6.1908 8.6762 6.8858
# 2 26.8424 51.6132 19.0479 -11.2394 -5.0043 16.2453
# 3 34.1219 19.0479 119.6435 -21.7922 4.9724 15.8329
# 4 -6.1908 -11.2394 -21.7922 35.4475 2.7375 8.1279
# 5 8.6762 -5.0043 4.9724 2.7375 42.4167 -6.4946
# 6 6.8858 16.2453 15.8329 8.1279 -6.4946 26.0871
#
#
#
# Elastic Compliance Matrix: (Units=1/GPa)
#
#
# Indices 1 2 3 4 5 6 
#
# 1 0.018270 -0.010509 -0.004784 -0.003971 -0.003391 0.005019
# 2 -0.010509 0.036224 0.004361 0.018763 0.000386 -0.028181
# 3 -0.004784 0.004361 0.013206 0.012101 -0.002977 -0.013979
# 4 -0.003971 0.018763 0.012101 0.049501 -0.006967 -0.035138
# 5 -0.003391 0.000386 -0.002977 -0.006967 0.026846 0.011315
# 6 0.005019 -0.028181 -0.013979 -0.035138 0.011315 0.076807
#
#
# Mechanical properties :
#
#
# Convention : Reuss Voigt Hill
#
# Bulk Modulus (GPa) = 21.81706 45.41838 33.61772
# Shear Modulus (GPa) = 19.38008 32.03886 25.70947
#
# Velocity S-wave (km/s) = 2.90214 3.73146 3.34262
# Velocity P-wave (km/s) = 4.55098 6.18898 5.43207
#
# Compressibility (1/GPa) = 0.04583570
#
# Stress axis : x y z
#
# Youngs Moduli (GPa) = 54.73590 27.60580 75.72298
#
# Poissons Ratio (x) = 0.29011 0.36224
# Poissons Ratio (y) = 0.57523 -0.33022
# Poissons Ratio (z) = 0.26185 -0.12039
#
# Static dielectric constant tensor:
#      x y z
#    x 1.910610 -0.021640 -0.024670 
#    y -0.021640 1.888540 0.032560 
#    z -0.024670 0.032560 1.885430 
# 
# From -- ./inp_files/106129.got.cif
#   From: 2010.05.17/outbox.cif.g08.bks.cpg/sg2_54_cif.got.tgz:106129.got - 2010.06.03 11:33:40.
