data_PCOD9033816
_publ_section_title
;
Structure prediction by ZEFSAII (Michael W. Deem and Ramdas Pophale) SiO2 
 PCOD9033816
Probable space group: P -1
;
_chemical_formula_sum "Si O2"
_cell_formula_units_Z 15
_cell_length_a 11.088283
_cell_length_b 17.813564
_cell_length_c 5.391220
_cell_angle_alpha 83.354657
_cell_angle_beta 82.590998
_cell_angle_gamma 31.534124
_cell_volume 552.256208
_symmetry_space_group_name_H-M "P -1"
_symmetry_group_IT_number 2
_symmetry_cell_setting 'triclinic'
loop_
_space_group_symop_operation_xyz
x,y,z
-x,-y,-z
loop_
_atom_site_type_symbol
_atom_site_label
_atom_site_fract_x
_atom_site_fract_y
_atom_site_fract_z
Si Si1 0.938231 0.896336 0.448835
Si Si2 0.416746 0.379809 0.837825
Si Si3 0.500000 0.500000 0.500000
Si Si4 0.532847 0.781859 0.453178
Si Si5 0.055408 0.396459 0.320804
Si Si6 0.312752 0.163653 0.971891
Si Si7 0.144141 0.850960 0.926928
Si Si8 0.930034 0.322280 0.680717
O O1 0.940421 0.804298 0.495024
O O2 0.078918 0.831286 0.181369
O O3 0.696763 0.066367 0.411361
O O4 0.059657 0.864939 0.676950
O O5 0.425688 0.459148 0.690260
O O6 0.536117 0.255068 0.672010
O O7 0.578606 0.287784 0.073254
O O8 0.152715 0.486602 0.868210
O O9 0.666694 0.437850 0.705266
O O10 0.774529 0.634043 0.580973
O O11 0.598938 0.818237 0.246852
O O12 0.951477 0.395406 0.550798
O O13 0.256477 0.239875 0.200299
O O14 0.077968 0.246654 0.917456
O O15 0.500000 0.000000 0.000000
O O16 0.000000 0.000000 0.000000
#
# Coordination Sequence:
#
# PCOD9033816 Si02
#       8
#     2   2   1   2   2   2   2   2
#     4  12  26  45  77 109 155 194 258 313 379 450
#     4  11  24  47  72 107 151 197 258 314 383 461
#     4  10  22  44  70 100 146 196 246 310 378 452
#     4  11  25  43  70 106 145 198 252 317 375 453
#     4  10  24  44  69 103 145 200 250 311 378 452
#     4  11  24  43  69 104 148 194 253 309 379 450
#     4  12  27  47  72 115 148 203 249 315 380 450
#     4  10  23  41  68 102 141 193 244 309 368 451
#
# _framework density 27.161306
#
# number of rings (size 3 to 8) (size 9 to 14) (size 15 to 20)
#    0.000    1.067    2.667    2.400    5.600    3.733 
#    2.400    2.667    0.000    0.000    0.000    0.000 
#    0.000    0.000    0.000    0.000    0.000    0.000 
#
# Total GULP energy -83649.842584 kJ/mol
# GULP energy per Si atom -5576.656172 kJ/mol
# Density = 2.709949 g / cm^3
# Si number density = 27.161306 Si / 1000 Ang^3
#
#
#
# Elastic Constant Matrix: (Units=GPa)
#
#
# Indices 1 2 3 4 5 6 
#
# 1 105.9480 48.0585 36.7022 -8.0281 9.9423 -15.3489
# 2 48.0585 126.8682 17.0443 -28.5184 2.2018 -0.9725
# 3 36.7022 17.0443 77.4251 -26.8809 0.6597 -11.2580
# 4 -8.0281 -28.5184 -26.8809 42.4125 -10.4344 14.9078
# 5 9.9423 2.2018 0.6597 -10.4344 41.8159 -7.0228
# 6 -15.3489 -0.9725 -11.2580 14.9078 -7.0228 66.0153
#
#
#
# Elastic Compliance Matrix: (Units=1/GPa)
#
#
# Indices 1 2 3 4 5 6 
#
# 1 0.015933 -0.006942 -0.008850 -0.009843 -0.005106 0.003773
# 2 -0.006942 0.012473 0.004083 0.011523 0.003303 -0.002985
# 3 -0.008850 0.004083 0.021757 0.016727 0.005471 -0.001482
# 4 -0.009843 0.011523 0.016727 0.045844 0.011499 -0.008396
# 5 -0.005106 0.003303 0.005471 0.011499 0.027763 0.000151
# 6 0.003773 -0.002985 -0.001482 -0.008396 0.000151 0.017640
#
#
# Mechanical properties :
#
#
# Convention : Reuss Voigt Hill
#
# Bulk Modulus (GPa) = 37.38805 57.09459 47.24132
# Shear Modulus (GPa) = 28.77818 43.94450 36.36134
#
# Velocity S-wave (km/s) = 3.25857 4.02669 3.66282
# Velocity P-wave (km/s) = 5.28704 6.53339 5.94298
#
# Compressibility (1/GPa) = 0.02674652
#
# Stress axis : x y z
#
# Youngs Moduli (GPa) = 62.76327 80.17263 45.96179
#
# Poissons Ratio (x) = 0.55652 0.40676
# Poissons Ratio (y) = 0.43567 -0.18767
# Poissons Ratio (z) = 0.55545 -0.32735
#
# Static dielectric constant tensor:
#      x y z
#    x 2.100500 -0.099760 -0.013110 
#    y -0.099760 2.113720 0.023810 
#    z -0.013110 0.023810 2.176800 
# 
# From -- ./inp_files/83237.got.cif
#   From: 2010.05.17/outbox.cif.g08.bks.cpg/sg2_42_cif.got.tgz:83237.got - 2010.06.03 11:33:40.
