data_PCOD9033465
_publ_section_title
;
Structure prediction by ZEFSAII (Michael W. Deem and Ramdas Pophale) SiO2 
 PCOD9033465
Probable space group: P -1
;
_chemical_formula_sum "Si O2"
_cell_formula_units_Z 15
_cell_length_a 18.760389
_cell_length_b 12.451566
_cell_length_c 8.493814
_cell_angle_alpha 62.327419
_cell_angle_beta 136.785549
_cell_angle_gamma 147.956692
_cell_volume 653.454626
_symmetry_space_group_name_H-M "P -1"
_symmetry_group_IT_number 2
_symmetry_cell_setting 'triclinic'
loop_
_space_group_symop_operation_xyz
x,y,z
-x,-y,-z
loop_
_atom_site_type_symbol
_atom_site_label
_atom_site_fract_x
_atom_site_fract_y
_atom_site_fract_z
Si Si1 0.936241 0.871570 0.324938
Si Si2 0.235825 0.298531 0.339132
Si Si3 0.582243 0.465669 0.863480
Si Si4 0.500000 0.000000 0.500000
Si Si5 0.167761 0.495177 0.202878
Si Si6 0.840206 0.269163 0.610853
Si Si7 0.041806 0.701895 0.670476
Si Si8 0.400135 0.029343 0.856134
O O1 0.011797 0.807959 0.488934
O O2 0.709740 0.636624 0.096780
O O3 0.000000 0.000000 0.500000
O O4 0.029960 0.039636 0.220049
O O5 0.387091 0.349764 0.615080
O O6 0.297515 0.388372 0.200053
O O7 0.240629 0.429903 0.348582
O O8 0.535938 0.277599 0.922320
O O9 0.650599 0.242353 0.659919
O O10 0.674568 0.128797 0.568390
O O11 0.030817 0.372465 0.217612
O O12 0.029648 0.394328 0.904514
O O13 0.913402 0.474055 0.533972
O O14 0.750149 0.102932 0.438845
O O15 0.266424 0.890929 0.889156
O O16 0.500000 0.000000 0.000000
#
# Coordination Sequence:
#
# PCOD9033465 Si02
#       8
#     2   2   2   1   2   2   2   2
#     4  12  25  49  71 104 141 189 232 299 359 421
#     4  11  25  48  73 103 139 193 238 290 356 428
#     4  11  27  48  72 104 143 187 244 290 354 434
#     4  10  22  44  68 102 144 180 238 284 346 414
#     4  11  25  46  75 104 145 190 241 289 357 432
#     4  11  26  44  73 106 142 193 237 293 355 433
#     4  11  24  47  68 105 145 182 236 297 359 416
#     4  12  27  46  74 106 145 190 236 302 363 420
#
# _framework density 22.954923000000001
#
# number of rings (size 3 to 8) (size 9 to 14) (size 15 to 20)
#    0.000    0.800    2.667    4.000    7.467    3.733 
#    2.400    0.000    0.000    0.000    0.000    0.000 
#    0.000    0.000    0.000    0.000    0.000    0.000 
#
# Total GULP energy -83735.103419 kJ/mol
# GULP energy per Si atom -5582.340228 kJ/mol
# Density = 2.290268 g / cm^3
# Si number density = 22.954923 Si / 1000 Ang^3
#
#
#
# Elastic Constant Matrix: (Units=GPa)
#
#
# Indices 1 2 3 4 5 6 
#
# 1 90.8237 33.0781 32.3975 10.6235 8.0789 -9.8204
# 2 33.0781 131.6650 56.2132 26.9846 1.6825 -10.8513
# 3 32.3975 56.2132 72.7427 32.7820 -8.6222 -19.1175
# 4 10.6235 26.9846 32.7820 33.8867 -6.3949 -1.3121
# 5 8.0789 1.6825 -8.6222 -6.3949 35.7769 8.2406
# 6 -9.8204 -10.8513 -19.1175 -1.3121 8.2406 31.8935
#
#
#
# Elastic Compliance Matrix: (Units=1/GPa)
#
#
# Indices 1 2 3 4 5 6 
#
# 1 0.014040 -0.000931 -0.006576 0.001869 -0.004689 0.001353
# 2 -0.000931 0.011711 -0.008624 -0.001182 -0.002424 -0.000894
# 3 -0.006576 -0.008624 0.042493 -0.031024 0.002292 0.018644
# 4 0.001869 -0.001182 -0.031024 0.060524 0.007066 -0.017759
# 5 -0.004689 -0.002424 0.002292 0.007066 0.033045 -0.009142
# 6 0.001353 -0.000894 0.018644 -0.017759 -0.009142 0.044274
#
#
# Mechanical properties :
#
#
# Convention : Reuss Voigt Hill
#
# Bulk Modulus (GPa) = 27.79279 59.84545 43.81912
# Shear Modulus (GPa) = 19.97261 31.88092 25.92677
#
# Velocity S-wave (km/s) = 2.95291 3.73077 3.36440
# Velocity P-wave (km/s) = 4.87443 6.68473 5.85003
#
# Compressibility (1/GPa) = 0.03598056
#
# Stress axis : x y z
#
# Youngs Moduli (GPa) = 71.22540 85.39167 23.53330
#
# Poissons Ratio (x) = 0.07954 0.15475
# Poissons Ratio (y) = 0.06634 0.20296
# Poissons Ratio (z) = 0.46836 0.73645
#
# Static dielectric constant tensor:
#      x y z
#    x 1.854400 0.035180 -0.005940 
#    y 0.035180 1.842720 -0.036560 
#    z -0.005940 -0.036560 1.903580 
# 
# From -- ./inp_files/333165.got.cif
#   From: 2010.05.17/outbox.cif.g08.bks.cpg/sg2_167_cif.got.tgz:333165.got - 2010.06.03 11:33:40.
