data_PCOD9033625
_publ_section_title
;
Structure prediction by ZEFSAII (Michael W. Deem and Ramdas Pophale) SiO2 
 PCOD9033625
Probable space group: P -1
;
_chemical_formula_sum "Si O2"
_cell_formula_units_Z 16
_cell_length_a 23.608117
_cell_length_b 7.889316
_cell_length_c 13.845435
_cell_angle_alpha 54.373387
_cell_angle_beta 20.826277
_cell_angle_gamma 43.843762
_cell_volume 589.514943
_symmetry_space_group_name_H-M "P -1"
_symmetry_group_IT_number 2
_symmetry_cell_setting 'triclinic'
loop_
_space_group_symop_operation_xyz
x,y,z
-x,-y,-z
loop_
_atom_site_type_symbol
_atom_site_label
_atom_site_fract_x
_atom_site_fract_y
_atom_site_fract_z
Si Si1 0.956560 0.430604 0.942985
Si Si2 0.486539 0.333863 0.157357
Si Si3 0.805352 0.148423 0.857171
Si Si4 0.508410 0.761132 0.521386
Si Si5 0.704916 0.655197 0.895979
Si Si6 0.935918 0.201288 0.287042
Si Si7 0.629058 0.047316 0.538122
Si Si8 0.966706 0.712750 0.347047
O O1 0.962203 0.647668 0.919294
O O2 0.132312 0.137580 0.795848
O O3 0.017128 0.407166 0.742238
O O4 0.735475 0.510560 0.264139
O O5 0.689541 0.133102 0.960582
O O6 0.418209 0.158252 0.296887
O O7 0.294962 0.565445 0.447394
O O8 0.500000 0.500000 0.000000
O O9 0.664770 0.219455 0.151846
O O10 0.788476 0.405046 0.778061
O O11 0.019767 0.906708 0.635805
O O12 0.500000 0.000000 0.500000
O O13 0.467842 0.800123 0.458623
O O14 0.758868 0.822045 0.697849
O O15 0.851737 0.522845 0.798828
O O16 0.483858 0.774663 0.247189
O O17 0.987690 0.946142 0.233213
#
# Coordination Sequence:
#
# PCOD9033625 Si02
#       8
#     2   2   2   2   2   2   2   2
#     4  11  24  42  72 103 133 181 226 282 346 395
#     4  11  24  40  65 104 134 169 227 277 336 417
#     4  11  25  43  69  93 132 187 215 282 340 385
#     4  12  23  47  69  95 137 179 237 280 327 408
#     4  10  23  43  66 101 136 177 225 279 343 404
#     4  10  23  43  65 102 134 177 227 270 342 405
#     4  11  24  42  68 100 132 179 226 278 342 403
#     4  10  22  44  69 100 143 175 223 282 338 415
#
# _framework density 27.140957
#
# number of rings (size 3 to 8) (size 9 to 14) (size 15 to 20)
#    0.000    1.250    3.750    0.750    5.250    3.000 
#    0.000    0.625    0.000    0.000    0.000    0.000 
#    0.000    0.000    0.000    0.000    0.000    0.000 
#
# Total GULP energy -89476.738158 kJ/mol
# GULP energy per Si atom -5592.296135 kJ/mol
# Density = 2.707918 g / cm^3
# Si number density = 27.140957 Si / 1000 Ang^3
#
#
#
# Elastic Constant Matrix: (Units=GPa)
#
#
# Indices 1 2 3 4 5 6 
#
# 1 85.5350 19.6644 38.0104 -0.3555 2.9245 -6.4343
# 2 19.6644 97.0562 24.8554 -8.8804 3.8035 2.9036
# 3 38.0104 24.8554 139.3217 -3.4460 2.5906 -19.9208
# 4 -0.3555 -8.8804 -3.4460 40.6990 -6.0213 -0.7712
# 5 2.9245 3.8035 2.5906 -6.0213 33.2450 -1.5596
# 6 -6.4343 2.9036 -19.9208 -0.7712 -1.5596 30.3411
#
#
#
# Elastic Compliance Matrix: (Units=1/GPa)
#
#
# Indices 1 2 3 4 5 6 
#
# 1 0.013688 -0.002000 -0.003251 -0.000694 -0.000805 0.000901
# 2 -0.002000 0.011483 -0.001822 0.002175 -0.000729 -0.002701
# 3 -0.003251 -0.001822 0.009191 0.000476 0.000124 0.005538
# 4 -0.000694 0.002175 0.000476 0.025758 0.004480 0.000842
# 5 -0.000805 -0.000729 0.000124 0.004480 0.031115 0.001694
# 6 0.000901 -0.002701 0.005538 0.000842 0.001694 0.037152
#
#
# Mechanical properties :
#
#
# Convention : Reuss Voigt Hill
#
# Bulk Modulus (GPa) = 49.46380 54.10815 51.78597
# Shear Modulus (GPa) = 33.49579 36.81587 35.15583
#
# Velocity S-wave (km/s) = 3.51685 3.68702 3.60294
# Velocity P-wave (km/s) = 5.89536 6.17291 6.03573
#
# Compressibility (1/GPa) = 0.02021681
#
# Stress axis : x y z
#
# Youngs Moduli (GPa) = 73.05692 87.08202 108.80275
#
# Poissons Ratio (x) = 0.17413 0.35373
# Poissons Ratio (y) = 0.14608 0.19824
# Poissons Ratio (z) = 0.23752 0.15867
#
# Static dielectric constant tensor:
#      x y z
#    x 2.109740 -0.012680 -0.004690 
#    y -0.012680 2.155250 0.053840 
#    z -0.004690 0.053840 2.279430 
# 
# From -- ./inp_files/543803.got.cif
#   From: 2010.05.17/outbox.cif.g08.bks.cpg/sg2_272_cif.got.tgz:543803.got - 2010.06.03 11:33:40.
