data_PCOD9033949
_publ_section_title
;
Structure prediction by ZEFSAII (Michael W. Deem and Ramdas Pophale) SiO2 
 PCOD9033949
Probable space group: P -1
;
_chemical_formula_sum "Si O2"
_cell_formula_units_Z 15
_cell_length_a 9.169188
_cell_length_b 22.659123
_cell_length_c 6.950261
_cell_angle_alpha 132.266818
_cell_angle_beta 112.648868
_cell_angle_gamma 39.065650
_cell_volume 643.679049
_symmetry_space_group_name_H-M "P -1"
_symmetry_group_IT_number 2
_symmetry_cell_setting 'triclinic'
loop_
_space_group_symop_operation_xyz
x,y,z
-x,-y,-z
loop_
_atom_site_type_symbol
_atom_site_label
_atom_site_fract_x
_atom_site_fract_y
_atom_site_fract_z
Si Si1 0.658058 0.680828 0.581680
Si Si2 0.639164 0.460831 0.180368
Si Si3 0.500000 0.000000 0.000000
Si Si4 0.304717 0.669831 0.736786
Si Si5 0.908712 0.925114 0.245402
Si Si6 0.053136 0.394776 0.084530
Si Si7 0.133291 0.911428 0.687886
Si Si8 0.145699 0.262978 0.468258
O O1 0.852025 0.541776 0.299243
O O2 0.379439 0.775443 0.586351
O O3 0.731228 0.736976 0.644276
O O4 0.718324 0.667176 0.807973
O O5 0.521779 0.579149 0.498489
O O6 0.612218 0.394865 0.157176
O O7 0.912737 0.377512 0.086378
O O8 0.500000 0.500000 0.000000
O O9 0.322383 0.124084 0.312888
O O10 0.723840 0.925646 0.106610
O O11 0.112887 0.676821 0.579244
O O12 0.159372 0.805603 0.002341
O O13 0.965243 0.920808 0.486837
O O14 0.806928 0.039460 0.323936
O O15 0.119588 0.337522 0.785841
O O16 0.000000 0.000000 0.000000
#
# Coordination Sequence:
#
# PCOD9033949 Si02
#       8
#     2   2   1   2   2   2   2   2
#     4  11  25  44  63  97 133 173 233 272 335 404
#     4  11  22  39  61  97 128 170 218 276 334 402
#     4  10  22  44  70  96 134 172 220 278 336 406
#     4  10  23  39  66  92 136 169 217 281 343 401
#     4  10  24  45  66  99 131 179 223 281 343 402
#     4  11  25  41  68  96 129 178 224 282 330 401
#     4  11  26  45  69  98 134 181 231 279 337 408
#     4  11  21  45  65  93 130 173 218 277 343 388
#
# _framework density 23.303539000000001
#
# number of rings (size 3 to 8) (size 9 to 14) (size 15 to 20)
#    0.000    1.333    4.000    0.400    5.600    0.000 
#    2.400    1.333    0.000    0.000    0.000    0.000 
#    0.000    0.000    0.000    0.000    0.000    0.000 
#
# Total GULP energy -83601.251887 kJ/mol
# GULP energy per Si atom -5573.416792 kJ/mol
# Density = 2.325050 g / cm^3
# Si number density = 23.303539 Si / 1000 Ang^3
#
#
#
# Elastic Constant Matrix: (Units=GPa)
#
#
# Indices 1 2 3 4 5 6 
#
# 1 35.7876 5.9223 7.1951 -18.9032 -0.6779 -8.9241
# 2 5.9223 149.9426 54.5303 -16.7751 -1.2098 -8.8443
# 3 7.1951 54.5303 112.0871 -32.2445 14.9262 -8.3944
# 4 -18.9032 -16.7751 -32.2445 39.9437 -2.4547 9.0351
# 5 -0.6779 -1.2098 14.9262 -2.4547 21.5203 -1.5267
# 6 -8.9241 -8.8443 -8.3944 9.0351 -1.5267 24.6354
#
#
#
# Elastic Compliance Matrix: (Units=1/GPa)
#
#
# Indices 1 2 3 4 5 6 
#
# 1 0.039918 -0.000175 0.003697 0.019993 0.001561 0.008421
# 2 -0.000175 0.008427 -0.004566 -0.000405 0.003715 0.001785
# 3 0.003697 -0.004566 0.015586 0.011804 -0.009598 0.000087
# 4 0.019993 -0.000405 0.011804 0.044933 -0.002848 -0.005537
# 5 0.001561 0.003715 -0.009598 -0.002848 0.053269 0.002975
# 6 0.008421 0.001785 0.000087 -0.005537 0.002975 0.046528
#
#
# Mechanical properties :
#
#
# Convention : Reuss Voigt Hill
#
# Bulk Modulus (GPa) = 16.16996 48.12364 32.14680
# Shear Modulus (GPa) = 21.61103 32.56454 27.08779
#
# Velocity S-wave (km/s) = 3.04858 3.74225 3.41308
# Velocity P-wave (km/s) = 4.39837 6.27441 5.41820
#
# Compressibility (1/GPa) = 0.06184306
#
# Stress axis : x y z
#
# Youngs Moduli (GPa) = 25.05107 118.67214 64.15985
#
# Poissons Ratio (x) = 0.02078 -0.23720
# Poissons Ratio (y) = 0.00439 0.29295
# Poissons Ratio (z) = -0.09261 0.54185
#
# Static dielectric constant tensor:
#      x y z
#    x 1.953770 0.022730 0.056120 
#    y 0.022730 1.877110 0.013140 
#    z 0.056120 0.013140 1.842100 
# 
# From -- ./inp_files/84587.got.cif
#   From: 2010.05.17/outbox.cif.g08.bks.cpg/sg2_43_cif.got.tgz:84587.got - 2010.06.03 11:33:40.
