data_PCOD9033500
_publ_section_title
;
Structure prediction by ZEFSAII (Michael W. Deem and Ramdas Pophale) SiO2 
 PCOD9033500
Probable space group: P -1
;
_chemical_formula_sum "Si O2"
_cell_formula_units_Z 12
_cell_length_a 4.887900
_cell_length_b 15.592894
_cell_length_c 7.518462
_cell_angle_alpha 52.255307
_cell_angle_beta 94.509472
_cell_angle_gamma 83.350554
_cell_volume 441.844899
_symmetry_space_group_name_H-M "P -1"
_symmetry_group_IT_number 2
_symmetry_cell_setting 'triclinic'
loop_
_space_group_symop_operation_xyz
x,y,z
-x,-y,-z
loop_
_atom_site_type_symbol
_atom_site_label
_atom_site_fract_x
_atom_site_fract_y
_atom_site_fract_z
Si Si1 0.042994 0.336707 0.634281
Si Si2 0.587042 0.311384 0.912109
Si Si3 0.911023 0.861620 0.699129
Si Si4 0.231798 0.480968 0.189258
Si Si5 0.123110 0.968034 0.241860
Si Si6 0.383598 0.242369 0.456917
O O1 0.276983 0.311524 0.831393
O O2 0.069697 0.450610 0.394683
O O3 0.151094 0.249929 0.590808
O O4 0.753337 0.326373 0.717946
O O5 0.622204 0.418226 0.891351
O O6 0.778277 0.202727 0.148402
O O7 0.921635 0.937683 0.427266
O O8 0.752678 0.772424 0.720666
O O9 0.779522 0.931245 0.775470
O O10 0.448999 0.364991 0.309851
O O11 0.000000 0.500000 0.000000
O O12 0.368378 0.860835 0.369431
O O13 0.000000 0.000000 0.000000
#
# Coordination Sequence:
#
# PCOD9033500 Si02
#       6
#     2   2   2   2   2   2
#     4  10  26  41  77 105 153 193 247 290 377 428
#     4  12  23  49  69 114 147 196 243 308 355 458
#     4  11  26  44  76 101 147 190 251 299 379 427
#     4  10  22  44  68 109 149 194 242 302 365 447
#     4  11  26  49  70 105 143 192 252 309 367 436
#     4  10  24  44  71 105 141 193 239 302 372 433
#
# _framework density 27.158852
#
# number of rings (size 3 to 8) (size 9 to 14) (size 15 to 20)
#    1.000    0.333    1.667    2.500    7.000    0.667 
#    3.000    2.500    0.000    0.000    0.000    0.000 
#    0.000    0.000    0.000    0.000    0.000    0.000 
#
# Total GULP energy -67280.730084 kJ/mol
# GULP energy per Si atom -5606.727507 kJ/mol
# Density = 2.709704 g / cm^3
# Si number density = 27.158852 Si / 1000 Ang^3
#
#
#
# Elastic Constant Matrix: (Units=GPa)
#
#
# Indices 1 2 3 4 5 6 
#
# 1 53.2985 23.6429 23.0595 7.8946 4.5072 -11.5284
# 2 23.6429 225.9190 70.0462 6.2917 19.1826 -5.5598
# 3 23.0595 70.0462 210.2362 30.5445 10.1310 -6.7070
# 4 7.8946 6.2917 30.5445 61.7683 -9.1182 2.0368
# 5 4.5072 19.1826 10.1310 -9.1182 54.3399 5.7746
# 6 -11.5284 -5.5598 -6.7070 2.0368 5.7746 28.6921
#
#
#
# Elastic Compliance Matrix: (Units=1/GPa)
#
#
# Indices 1 2 3 4 5 6 
#
# 1 0.022553 -0.001477 -0.001148 -0.002852 -0.002595 0.009232
# 2 -0.001477 0.005173 -0.001509 0.000187 -0.001426 0.000330
# 3 -0.001148 -0.001509 0.005874 -0.002793 -0.001045 0.001028
# 4 -0.002852 0.000187 -0.002793 0.018672 0.004243 -0.003942
# 5 -0.002595 -0.001426 -0.001045 0.004243 0.020668 -0.006024
# 6 0.009232 0.000330 0.001028 -0.003942 -0.006024 0.040359
#
#
# Mechanical properties :
#
#
# Convention : Reuss Voigt Hill
#
# Bulk Modulus (GPa) = 39.47703 80.32788 59.90245
# Shear Modulus (GPa) = 38.45811 53.80707 46.13259
#
# Velocity S-wave (km/s) = 3.76712 4.45589 4.12590
# Velocity P-wave (km/s) = 5.78694 7.49097 6.69340
#
# Compressibility (1/GPa) = 0.02533119
#
# Stress axis : x y z
#
# Youngs Moduli (GPa) = 44.34033 193.31342 170.23602
#
# Poissons Ratio (x) = 0.28562 0.19535
# Poissons Ratio (y) = 0.06551 0.25696
# Poissons Ratio (z) = 0.05088 0.29179
#
# Static dielectric constant tensor:
#      x y z
#    x 2.195850 0.053480 -0.124980 
#    y 0.053480 2.203580 -0.028650 
#    z -0.124980 -0.028650 2.099740 
# 
# From -- ./inp_files/137395.got.cif
#   From: 2010.05.17/outbox.cif.g08.bks.cpg/sg2_69_cif.got.tgz:137395.got - 2010.06.03 11:33:40.
