data_PCOD9033484
_publ_section_title
;
Structure prediction by ZEFSAII (Michael W. Deem and Ramdas Pophale) SiO2 
 PCOD9033484
Probable space group: P -1
;
_chemical_formula_sum "Si O2"
_cell_formula_units_Z 15
_cell_length_a 17.561903
_cell_length_b 21.286500
_cell_length_c 10.115877
_cell_angle_alpha 33.950527
_cell_angle_beta 44.112559
_cell_angle_gamma 18.890756
_cell_volume 635.302991
_symmetry_space_group_name_H-M "P -1"
_symmetry_group_IT_number 2
_symmetry_cell_setting 'triclinic'
loop_
_space_group_symop_operation_xyz
x,y,z
-x,-y,-z
loop_
_atom_site_type_symbol
_atom_site_label
_atom_site_fract_x
_atom_site_fract_y
_atom_site_fract_z
Si Si1 0.476794 0.410370 0.025206
Si Si2 0.425185 0.114000 0.211839
Si Si3 0.000000 0.500000 0.500000
Si Si4 0.759872 0.194526 0.551423
Si Si5 0.358759 0.394043 0.657715
Si Si6 0.865581 0.391858 0.711785
Si Si7 0.364944 0.952354 0.696842
Si Si8 0.026526 0.908910 0.265596
O O1 0.227131 0.621178 0.054872
O O2 0.512340 0.264229 0.152046
O O3 0.728607 0.181946 0.199251
O O4 0.450040 0.535296 0.736112
O O5 0.283607 0.128738 0.392302
O O6 0.437859 0.171760 0.232888
O O7 0.323734 0.298633 0.913680
O O8 0.709855 0.815955 0.338030
O O9 0.114499 0.509819 0.407563
O O10 0.633374 0.188599 0.715962
O O11 0.817178 0.182362 0.649476
O O12 0.000000 0.000000 0.500000
O O13 0.335877 0.416846 0.489245
O O14 0.150043 0.672335 0.494771
O O15 0.128666 0.129498 0.766646
O O16 0.000000 0.000000 0.000000
#
# Coordination Sequence:
#
# PCOD9033484 Si02
#       8
#     2   2   1   2   2   2   2   2
#     4  12  25  49  75 106 155 194 251 306 375 452
#     4  10  23  42  71 103 142 191 248 307 368 453
#     4  10  22  44  68 104 144 194 244 300 384 432
#     4  12  30  46  74 115 149 201 253 312 381 449
#     4  12  26  45  73 109 147 196 257 308 375 452
#     4  11  25  44  73 107 143 196 244 313 368 449
#     4  10  22  45  70 101 139 196 241 300 378 432
#     4  12  27  49  76 109 153 201 254 314 376 450
#
# _framework density 23.610782
#
# number of rings (size 3 to 8) (size 9 to 14) (size 15 to 20)
#    0.000    0.800    4.000    2.000    7.467    2.133 
#    0.000    0.000    0.000    0.000    0.000    0.000 
#    0.000    0.000    0.000    0.000    0.000    0.000 
#
# Total GULP energy -83684.589913 kJ/mol
# GULP energy per Si atom -5578.972661 kJ/mol
# Density = 2.355704 g / cm^3
# Si number density = 23.610782 Si / 1000 Ang^3
#
#
#
# Elastic Constant Matrix: (Units=GPa)
#
#
# Indices 1 2 3 4 5 6 
#
# 1 92.1680 8.9938 10.9423 -1.0957 1.5866 5.5999
# 2 8.9938 104.3506 39.0407 1.5270 -7.5748 -10.6801
# 3 10.9423 39.0407 118.8226 17.1992 -3.5430 8.3025
# 4 -1.0957 1.5270 17.1992 35.4440 -1.0275 2.8333
# 5 1.5866 -7.5748 -3.5430 -1.0275 35.9395 -9.1840
# 6 5.5999 -10.6801 8.3025 2.8333 -9.1840 27.5898
#
#
#
# Elastic Compliance Matrix: (Units=1/GPa)
#
#
# Indices 1 2 3 4 5 6 
#
# 1 0.011271 -0.001205 -0.000596 0.000899 -0.001603 -0.003201
# 2 -0.001205 0.012481 -0.004571 0.001147 0.004246 0.007747
# 3 -0.000596 -0.004571 0.010969 -0.004791 -0.001237 -0.004869
# 4 0.000899 0.001147 -0.004791 0.030633 0.000259 -0.001356
# 5 -0.001603 0.004246 -0.001237 0.000259 0.031988 0.012962
# 6 -0.003201 0.007747 -0.004869 -0.001356 0.012962 0.045813
#
#
# Mechanical properties :
#
#
# Convention : Reuss Voigt Hill
#
# Bulk Modulus (GPa) = 45.50174 48.14387 46.82280
# Shear Modulus (GPa) = 30.63246 36.88564 33.75905
#
# Velocity S-wave (km/s) = 3.60584 3.95680 3.78539
# Velocity P-wave (km/s) = 6.05389 6.42728 6.24338
#
# Compressibility (1/GPa) = 0.02197718
#
# Stress axis : x y z
#
# Youngs Moduli (GPa) = 88.72411 80.11988 91.16314
#
# Poissons Ratio (x) = 0.09658 0.05435
# Poissons Ratio (y) = 0.10695 0.41667
# Poissons Ratio (z) = 0.05289 0.36619
#
# Static dielectric constant tensor:
#      x y z
#    x 1.863420 -0.041960 0.021040 
#    y -0.041960 1.952830 0.004320 
#    z 0.021040 0.004320 1.966470 
# 
# From -- ./inp_files/337459.got.cif
#   From: 2010.05.17/outbox.cif.g08.bks.cpg/sg2_169_cif.got.tgz:337459.got - 2010.06.03 11:33:40.
