data_PCOD9033113
_publ_section_title
;
Structure prediction by ZEFSAII (Michael W. Deem and Ramdas Pophale) SiO2 
 PCOD9033113
Probable space group: P -1
;
_chemical_formula_sum "Si O2"
_cell_formula_units_Z 15
_cell_length_a 20.962019
_cell_length_b 17.675797
_cell_length_c 18.279382
_cell_angle_alpha 24.287486
_cell_angle_beta 18.258049
_cell_angle_gamma 17.676380
_cell_volume 642.714414
_symmetry_space_group_name_H-M "P -1"
_symmetry_group_IT_number 2
_symmetry_cell_setting 'triclinic'
loop_
_space_group_symop_operation_xyz
x,y,z
-x,-y,-z
loop_
_atom_site_type_symbol
_atom_site_label
_atom_site_fract_x
_atom_site_fract_y
_atom_site_fract_z
Si Si1 0.500000 0.500000 0.000000
Si Si2 0.840647 0.265122 0.978236
Si Si3 0.789231 0.925090 0.553916
Si Si4 0.223950 0.668252 0.744557
Si Si5 0.470914 0.267726 0.472831
Si Si6 0.890956 0.264118 0.358936
Si Si7 0.109233 0.326954 0.197282
Si Si8 0.776910 0.629875 0.495659
O O1 0.396975 0.535079 0.995931
O O2 0.389628 0.360772 0.265862
O O3 0.047286 0.303496 0.732269
O O4 0.709226 0.267187 0.194018
O O5 0.000000 0.000000 0.000000
O O6 0.703426 0.900575 0.748944
O O7 0.012893 0.656953 0.509005
O O8 0.888189 0.074447 0.325919
O O9 0.549619 0.086108 0.612785
O O10 0.559645 0.485908 0.538941
O O11 0.099676 0.729569 0.744183
O O12 0.160701 0.511297 0.988498
O O13 0.194964 0.537207 0.561335
O O14 0.409185 0.210007 0.513512
O O15 0.083680 0.285555 0.177023
O O16 0.000000 0.000000 0.500000
#
# Coordination Sequence:
#
# PCOD9033113 Si02
#       8
#     1   2   2   2   2   2   2   2
#     4  10  22  44  66 100 128 176 228 272 338 400
#     4  11  24  44  70  99 138 177 223 282 338 403
#     4  11  23  44  64  97 135 178 226 279 334 402
#     4  11  25  43  68  96 137 177 227 286 336 406
#     4  10  24  42  63 100 133 176 228 270 341 403
#     4  11  23  45  68 100 135 173 232 281 338 409
#     4  11  24  44  66  99 134 179 227 278 345 399
#     4  10  24  43  66 100 139 176 228 281 336 407
#
# _framework density 23.338514
#
# number of rings (size 3 to 8) (size 9 to 14) (size 15 to 20)
#    0.000    1.333    2.667    1.600    3.733    4.800 
#    9.600    0.000    0.000    0.000    0.000    0.000 
#    0.000    0.000    0.000    0.000    0.000    0.000 
#
# Total GULP energy -83557.803354 kJ/mol
# GULP energy per Si atom -5570.520224 kJ/mol
# Density = 2.328539 g / cm^3
# Si number density = 23.338514 Si / 1000 Ang^3
#
#
#
# Elastic Constant Matrix: (Units=GPa)
#
#
# Indices 1 2 3 4 5 6 
#
# 1 119.4153 30.3989 56.3216 -24.8689 10.2938 -18.1671
# 2 30.3989 62.0729 22.3329 -16.6894 -2.8913 1.0887
# 3 56.3216 22.3329 139.6520 -19.6453 -23.7571 3.2143
# 4 -24.8689 -16.6894 -19.6453 33.0263 6.2695 0.6930
# 5 10.2938 -2.8913 -23.7571 6.2695 43.9107 -17.1095
# 6 -18.1671 1.0887 3.2143 0.6930 -17.1095 34.6199
#
#
#
# Elastic Compliance Matrix: (Units=1/GPa)
#
#
# Indices 1 2 3 4 5 6 
#
# 1 0.014566 -0.003719 -0.005368 0.006809 -0.005414 0.005447
# 2 -0.003719 0.020120 -0.000709 0.007058 -0.000286 -0.002801
# 3 -0.005368 -0.000709 0.010689 0.000695 0.006706 -0.000487
# 4 0.006809 0.007058 0.000695 0.040725 -0.006945 -0.000960
# 5 -0.005414 -0.000286 0.006706 -0.006945 0.033875 0.013426
# 6 0.005447 -0.002801 -0.000487 -0.000960 0.013426 0.038531
#
#
# Mechanical properties :
#
#
# Convention : Reuss Voigt Hill
#
# Bulk Modulus (GPa) = 38.78597 59.91634 49.35115
# Shear Modulus (GPa) = 26.78204 36.45050 31.61627
#
# Velocity S-wave (km/s) = 3.39122 3.95627 3.68459
# Velocity P-wave (km/s) = 5.65586 6.82627 6.26844
#
# Compressibility (1/GPa) = 0.02578252
#
# Stress axis : x y z
#
# Youngs Moduli (GPa) = 68.65201 49.70165 93.55620
#
# Poissons Ratio (x) = 0.18484 0.50224
# Poissons Ratio (y) = 0.25532 0.06633
# Poissons Ratio (z) = 0.36854 0.03524
#
# Static dielectric constant tensor:
#      x y z
#    x 1.922450 -0.020440 0.002550 
#    y -0.020440 1.946240 0.019750 
#    z 0.002550 0.019750 1.854640 
# 
# From -- ./inp_files/578400.got.cif
#   From: 2010.05.17/outbox.cif.g08.bks.cpg/sg2_290_cif.got.tgz:578400.got - 2010.06.03 11:33:40.
