data_PCOD9033513
_publ_section_title
;
Structure prediction by ZEFSAII (Michael W. Deem and Ramdas Pophale) SiO2 
 PCOD9033513
Probable space group: P -1
;
_chemical_formula_sum "Si O2"
_cell_formula_units_Z 15
_cell_length_a 21.663171
_cell_length_b 17.713480
_cell_length_c 9.353722
_cell_angle_alpha 130.730937
_cell_angle_beta 41.400118
_cell_angle_gamma 163.380794
_cell_volume 635.857352
_symmetry_space_group_name_H-M "P -1"
_symmetry_group_IT_number 2
_symmetry_cell_setting 'triclinic'
loop_
_space_group_symop_operation_xyz
x,y,z
-x,-y,-z
loop_
_atom_site_type_symbol
_atom_site_label
_atom_site_fract_x
_atom_site_fract_y
_atom_site_fract_z
Si Si1 0.590771 0.771088 0.962054
Si Si2 0.538760 0.639952 0.192333
Si Si3 0.939660 0.046357 0.461780
Si Si4 0.960299 0.706016 0.636612
Si Si5 0.000000 0.000000 0.000000
Si Si6 0.949663 0.316598 0.002110
Si Si7 0.896655 0.291166 0.364992
Si Si8 0.706666 0.293431 0.369116
O O1 0.730305 0.831259 0.688842
O O2 0.729778 0.013538 0.980755
O O3 0.632334 0.803123 0.100044
O O4 0.270304 0.446102 0.100088
O O5 0.230527 0.355694 0.410273
O O6 0.749426 0.826181 0.178436
O O7 0.500000 0.500000 0.000000
O O8 0.888450 0.092360 0.507517
O O9 0.951379 0.972826 0.228207
O O10 0.799194 0.453228 0.536441
O O11 0.109864 0.803259 0.624836
O O12 0.054393 0.414342 0.102780
O O13 0.824804 0.301439 0.182983
O O14 0.181899 0.544252 0.766363
O O15 0.000000 0.500000 0.500000
O O16 0.603163 0.018600 0.486173
#
# Coordination Sequence:
#
# PCOD9033513 Si02
#       8
#     2   2   2   2   1   2   2   2
#     4  11  22  42  68  93 131 170 218 259 318 392
#     4   9  22  44  67  93 127 163 203 263 326 386
#     4  10  23  43  65  95 127 166 207 265 325 384
#     4  11  23  41  63  94 130 173 214 271 315 371
#     4  10  22  44  68  92 126 158 202 264 330 384
#     4  11  23  40  64  94 127 182 217 263 323 369
#     4  12  24  39  64  93 128 177 224 266 316 373
#     4  11  23  43  62  87 140 175 218 271 313 371
#
# _framework density 23.590198000000001
#
# number of rings (size 3 to 8) (size 9 to 14) (size 15 to 20)
#    0.000    1.333    4.000    1.200    1.867    3.733 
#    2.400    6.667    0.000    0.000    0.000    0.000 
#    0.000    0.000    0.000    0.000    0.000    0.000 
#
# Total GULP energy -83561.350627 kJ/mol
# GULP energy per Si atom -5570.756708 kJ/mol
# Density = 2.353651 g / cm^3
# Si number density = 23.590198 Si / 1000 Ang^3
#
#
#
# Elastic Constant Matrix: (Units=GPa)
#
#
# Indices 1 2 3 4 5 6 
#
# 1 80.1742 -1.3251 -5.8192 -10.2191 2.3137 19.8045
# 2 -1.3251 34.8708 8.4436 -0.7293 14.7246 16.0728
# 3 -5.8192 8.4436 107.7884 -7.9072 18.7375 13.5778
# 4 -10.2191 -0.7293 -7.9072 29.2229 -11.3459 6.6655
# 5 2.3137 14.7246 18.7375 -11.3459 31.9318 5.2324
# 6 19.8045 16.0728 13.5778 6.6655 5.2324 42.0677
#
#
#
# Elastic Compliance Matrix: (Units=1/GPa)
#
#
# Indices 1 2 3 4 5 6 
#
# 1 0.017233 0.006202 0.002821 0.009836 -0.000150 -0.012933
# 2 0.006202 0.045137 0.002589 0.000699 -0.019472 -0.018690
# 3 0.002821 0.002589 0.011202 0.003067 -0.005951 -0.005679
# 4 0.009836 0.000699 0.003067 0.048714 0.017051 -0.015727
# 5 -0.000150 -0.019472 -0.005951 0.017051 0.049769 0.000539
# 6 -0.012933 -0.018690 -0.005679 -0.015727 0.000539 0.041258
#
#
# Mechanical properties :
#
#
# Convention : Reuss Voigt Hill
#
# Bulk Modulus (GPa) = 10.33094 25.04801 17.68947
# Shear Modulus (GPa) = 22.48667 35.41344 28.95005
#
# Velocity S-wave (km/s) = 3.09078 3.87873 3.50695
# Velocity P-wave (km/s) = 4.13836 5.54079 4.89011
#
# Compressibility (1/GPa) = 0.09679666
#
# Stress axis : x y z
#
# Youngs Moduli (GPa) = 58.02899 22.15459 89.27143
#
# Poissons Ratio (x) = -0.13739 -0.25186
# Poissons Ratio (y) = -0.35988 -0.23117
# Poissons Ratio (z) = -0.16371 -0.05737
#
# Static dielectric constant tensor:
#      x y z
#    x 1.787760 0.051630 -0.006030 
#    y 0.051630 1.932730 0.018550 
#    z -0.006030 0.018550 1.934520 
# 
# From -- ./inp_files/348105.got.cif
#   From: 2010.05.17/outbox.cif.g08.bks.cpg/sg2_175_cif.got.tgz:348105.got - 2010.06.03 11:33:40.
