data_PCOD9033489
_publ_section_title
;
Structure prediction by ZEFSAII (Michael W. Deem and Ramdas Pophale) SiO2 
 PCOD9033489
Probable space group: P -1
;
_chemical_formula_sum "Si O2"
_cell_formula_units_Z 16
_cell_length_a 5.052183
_cell_length_b 11.952064
_cell_length_c 12.248343
_cell_angle_alpha 82.976727
_cell_angle_beta 114.452757
_cell_angle_gamma 92.830987
_cell_volume 668.211371
_symmetry_space_group_name_H-M "P -1"
_symmetry_group_IT_number 2
_symmetry_cell_setting 'triclinic'
loop_
_space_group_symop_operation_xyz
x,y,z
-x,-y,-z
loop_
_atom_site_type_symbol
_atom_site_label
_atom_site_fract_x
_atom_site_fract_y
_atom_site_fract_z
Si Si1 0.821077 0.667931 0.583083
Si Si2 0.562733 0.682829 0.975731
Si Si3 0.307595 0.060938 0.050145
Si Si4 0.416048 0.006360 0.667964
Si Si5 0.889371 0.143991 0.508697
Si Si6 0.336389 0.742660 0.349856
Si Si7 0.820471 0.379448 0.878975
Si Si8 0.559987 0.403291 0.269348
O O1 0.959276 0.792425 0.574551
O O2 0.100193 0.585818 0.642099
O O3 0.593788 0.660812 0.444849
O O4 0.627853 0.654872 0.660149
O O5 0.319042 0.670119 0.028319
O O6 0.836163 0.597686 0.049730
O O7 0.701070 0.806717 0.991228
O O8 0.439020 0.664960 0.836070
O O9 0.454605 0.043861 0.194833
O O10 0.500000 0.000000 0.000000
O O11 0.000000 0.000000 0.000000
O O12 0.563349 0.127263 0.659356
O O13 0.079597 0.046648 0.609564
O O14 0.400685 0.913628 0.580706
O O15 0.868159 0.243263 0.582105
O O16 0.206432 0.702345 0.220000
O O17 0.617513 0.484102 0.800844
#
# Coordination Sequence:
#
# PCOD9033489 Si02
#       8
#     2   2   2   2   2   2   2   2
#     4  11  24  43  72 103 140 171 231 283 356 399
#     4  12  26  49  72 101 141 183 236 289 342 408
#     4  12  27  44  68 105 139 183 225 283 341 411
#     4  10  23  41  70 100 140 185 233 274 345 414
#     4  10  22  44  68 105 140 186 226 284 340 420
#     4  11  24  43  70 102 147 179 227 285 347 418
#     4  12  28  46  75  99 139 185 236 289 351 404
#     4  12  25  48  73 104 134 183 236 292 343 415
#
# _framework density 23.944519
#
# number of rings (size 3 to 8) (size 9 to 14) (size 15 to 20)
#    0.000    0.750    1.250    5.625    7.000    2.000 
#    0.000    0.000    0.000    0.000    0.000    0.000 
#    0.000    0.000    0.000    0.000    0.000    0.000 
#
# Total GULP energy -89501.861213 kJ/mol
# GULP energy per Si atom -5593.866326 kJ/mol
# Density = 2.389002 g / cm^3
# Si number density = 23.944519 Si / 1000 Ang^3
#
#
#
# Elastic Constant Matrix: (Units=GPa)
#
#
# Indices 1 2 3 4 5 6 
#
# 1 121.3568 -4.9896 51.4094 9.6297 -15.2820 -13.3936
# 2 -4.9896 45.1735 18.1648 1.3263 -14.2267 -11.6996
# 3 51.4094 18.1648 151.3840 7.6866 -7.9629 -2.2091
# 4 9.6297 1.3263 7.6866 38.6111 -8.0156 5.5691
# 5 -15.2820 -14.2267 -7.9629 -8.0156 44.4909 -12.3022
# 6 -13.3936 -11.6996 -2.2091 5.5691 -12.3022 33.1076
#
#
#
# Elastic Compliance Matrix: (Units=1/GPa)
#
#
# Indices 1 2 3 4 5 6 
#
# 1 0.013720 0.010214 -0.005028 -0.002530 0.010232 0.013052
# 2 0.010214 0.039643 -0.006599 -0.001819 0.021906 0.026147
# 3 -0.005028 -0.006599 0.008851 -0.000318 -0.003722 -0.005105
# 4 -0.002530 -0.001819 -0.000318 0.027876 0.001952 -0.005651
# 5 0.010232 0.021906 -0.003722 0.001952 0.039907 0.026132
# 6 0.013052 0.026147 -0.005105 -0.005651 0.026132 0.055045
#
#
# Mechanical properties :
#
#
# Convention : Reuss Voigt Hill
#
# Bulk Modulus (GPa) = 16.83854 49.67592 33.25723
# Shear Modulus (GPa) = 24.07747 40.13058 32.10403
#
# Velocity S-wave (km/s) = 3.17449 4.09832 3.66562
# Velocity P-wave (km/s) = 4.52593 6.57162 5.64226
#
# Compressibility (1/GPa) = 0.05938757
#
# Stress axis : x y z
#
# Youngs Moduli (GPa) = 72.88833 25.22526 112.98421
#
# Poissons Ratio (x) = -0.25765 0.56804
# Poissons Ratio (y) = -0.74449 0.74561
# Poissons Ratio (z) = 0.36645 0.16647
#
# Static dielectric constant tensor:
#      x y z
#    x 1.986390 -0.013270 -0.017940 
#    y -0.013270 1.981890 -0.029480 
#    z -0.017940 -0.029480 1.880690 
# 
# From -- ./inp_files/364384.got.cif
#   From: 2010.05.17/outbox.cif.g08.bks.cpg/sg2_183_cif.got.tgz:364384.got - 2010.06.03 11:33:40.
