data_PCOD9033690
_publ_section_title
;
Structure prediction by ZEFSAII (Michael W. Deem and Ramdas Pophale) SiO2 
 PCOD9033690
Probable space group: P -1
;
_chemical_formula_sum "Si O2"
_cell_formula_units_Z 16
_cell_length_a 16.627100
_cell_length_b 15.633815
_cell_length_c 5.320328
_cell_angle_alpha 116.854517
_cell_angle_beta 51.577289
_cell_angle_gamma 144.796785
_cell_volume 619.782097
_symmetry_space_group_name_H-M "P -1"
_symmetry_group_IT_number 2
_symmetry_cell_setting 'triclinic'
loop_
_space_group_symop_operation_xyz
x,y,z
-x,-y,-z
loop_
_atom_site_type_symbol
_atom_site_label
_atom_site_fract_x
_atom_site_fract_y
_atom_site_fract_z
Si Si1 0.189159 0.651746 0.407680
Si Si2 0.643331 0.372612 0.575917
Si Si3 0.566739 0.451651 0.197790
Si Si4 0.092454 0.858576 0.401848
Si Si5 0.868318 0.324110 0.948268
Si Si6 0.872778 0.860371 0.752447
Si Si7 0.841922 0.658457 0.260969
Si Si8 0.360712 0.158786 0.539016
O O1 0.276749 0.626904 0.347141
O O2 0.247158 0.718349 0.102768
O O3 0.000000 0.500000 0.500000
O O4 0.204699 0.742144 0.718745
O O5 0.781020 0.515934 0.320471
O O6 0.491447 0.208460 0.540184
O O7 0.559021 0.411682 0.877774
O O8 0.500000 0.500000 0.500000
O O9 0.756873 0.590664 0.072020
O O10 0.470858 0.302686 0.338326
O O11 0.071380 0.733447 0.357084
O O12 0.978968 0.864758 0.725901
O O13 0.028412 0.805449 0.164443
O O14 0.265201 0.016732 0.360294
O O15 0.000000 0.500000 0.000000
O O16 0.776567 0.710925 0.582131
O O17 0.764003 0.859900 0.100426
O O18 0.000000 0.000000 0.500000
#
# Coordination Sequence:
#
# PCOD9033690 Si02
#       8
#     2   2   2   2   2   2   2   2
#     4  10  23  40  75  99 143 173 248 303 370 418
#     4  11  24  42  68  99 139 189 229 304 360 430
#     4  11  24  39  66  96 142 189 234 287 359 434
#     4  10  24  42  70  97 143 182 236 300 360 427
#     4  10  22  44  69 107 131 181 241 312 360 423
#     4  10  23  40  68 102 143 186 232 287 354 438
#     4   9  22  38  63  98 133 176 241 280 351 414
#     4  11  25  44  62 101 146 184 235 284 363 443
#
# _framework density 25.815526999999999
#
# number of rings (size 3 to 8) (size 9 to 14) (size 15 to 20)
#    0.750    1.000    0.000    3.375   10.500    4.000 
#    0.000    1.250    0.000    0.000    0.000    0.000 
#    0.000    0.000    0.000    0.000    0.000    0.000 
#
# Total GULP energy -89096.148271 kJ/mol
# GULP energy per Si atom -5568.509267 kJ/mol
# Density = 2.575677 g / cm^3
# Si number density = 25.815527 Si / 1000 Ang^3
#
#
#
# Elastic Constant Matrix: (Units=GPa)
#
#
# Indices 1 2 3 4 5 6 
#
# 1 121.9405 76.3293 40.6537 10.8457 -12.8512 1.8021
# 2 76.3293 158.8881 39.8671 25.5593 10.5379 25.7290
# 3 40.6537 39.8671 90.4707 0.8318 -10.5833 10.5819
# 4 10.8457 25.5593 0.8318 34.2272 1.0388 12.9482
# 5 -12.8512 10.5379 -10.5833 1.0388 52.0833 10.2452
# 6 1.8021 25.7290 10.5819 12.9482 10.2452 41.1885
#
#
#
# Elastic Compliance Matrix: (Units=1/GPa)
#
#
# Indices 1 2 3 4 5 6 
#
# 1 0.013720 -0.006406 -0.003392 -0.001010 0.003269 0.003777
# 2 -0.006406 0.011574 -0.002115 -0.004948 -0.003469 -0.003988
# 3 -0.003392 -0.002115 0.014351 0.003805 0.003262 -0.004225
# 4 -0.001010 -0.004948 0.003805 0.036887 0.002782 -0.010131
# 5 0.003269 -0.003469 0.003262 0.002782 0.022348 -0.005248
# 6 0.003777 -0.003988 -0.004225 -0.010131 -0.005248 0.032180
#
#
# Mechanical properties :
#
#
# Convention : Reuss Voigt Hill
#
# Bulk Modulus (GPa) = 63.22392 76.11107 69.66749
# Shear Modulus (GPa) = 31.21907 39.79641 35.50774
#
# Velocity S-wave (km/s) = 3.48129 3.93054 3.71272
# Velocity P-wave (km/s) = 6.37989 7.08135 6.73975
#
# Compressibility (1/GPa) = 0.01581680
#
# Stress axis : x y z
#
# Youngs Moduli (GPa) = 72.88606 86.40378 69.68326
#
# Poissons Ratio (x) = 0.55349 0.23639
# Poissons Ratio (y) = 0.46690 0.14741
# Poissons Ratio (z) = 0.24726 0.18278
#
# Static dielectric constant tensor:
#      x y z
#    x 2.183370 -0.025930 0.005110 
#    y -0.025930 2.062490 -0.074270 
#    z 0.005110 -0.074270 2.210740 
# 
# From -- ./inp_files/111514.got.cif
#   From: 2010.05.17/outbox.cif.g08.bks.cpg/sg2_56_cif.got.tgz:111514.got - 2010.06.03 11:33:40.
