data_PCOD9033699
_publ_section_title
;
Structure prediction by ZEFSAII (Michael W. Deem and Ramdas Pophale) SiO2 
 PCOD9033699
Probable space group: P -1
;
_chemical_formula_sum "Si O2"
_cell_formula_units_Z 12
_cell_length_a 17.265146
_cell_length_b 11.828396
_cell_length_c 5.395880
_cell_angle_alpha 100.371349
_cell_angle_beta 112.687690
_cell_angle_gamma 28.605413
_cell_volume 454.300975
_symmetry_space_group_name_H-M "P -1"
_symmetry_group_IT_number 2
_symmetry_cell_setting 'triclinic'
loop_
_space_group_symop_operation_xyz
x,y,z
-x,-y,-z
loop_
_atom_site_type_symbol
_atom_site_label
_atom_site_fract_x
_atom_site_fract_y
_atom_site_fract_z
Si Si1 0.789351 0.219918 0.868005
Si Si2 0.613163 0.788233 0.852005
Si Si3 0.248238 0.196351 0.366904
Si Si4 0.640117 0.514842 0.307352
Si Si5 0.785348 0.982918 0.997510
Si Si6 0.883386 0.420417 0.421619
O O1 0.678227 0.397775 0.559490
O O2 0.722058 0.351567 0.101837
O O3 0.782316 0.092216 0.849788
O O4 0.000000 0.000000 0.000000
O O5 0.683795 0.797818 0.755281
O O6 0.445224 0.912075 0.605978
O O7 0.792107 0.509431 0.077793
O O8 0.500000 0.000000 0.000000
O O9 0.142819 0.410650 0.504806
O O10 0.140605 0.220872 0.132302
O O11 0.747174 0.506348 0.453006
O O12 0.576635 0.208804 0.903616
O O13 0.913501 0.854495 0.340770
#
# Coordination Sequence:
#
# PCOD9033699 Si02
#       6
#     2   2   2   2   2   2
#     4  12  28  56  82 114 154 210 265 326 394 466
#     4   9  19  40  67 100 150 195 250 307 381 457
#     4  10  22  44  69 114 150 204 253 316 393 460
#     4  12  28  53  81 117 157 206 265 325 393 465
#     4  12  26  48  78 114 159 203 262 327 388 468
#     4  11  25  45  76 112 155 205 257 321 389 471
#
# _framework density 26.414210000000001
#
# number of rings (size 3 to 8) (size 9 to 14) (size 15 to 20)
#    0.000    1.000    1.667    5.000    4.667    0.667 
#    9.000    0.000    0.000    0.000    0.000    0.000 
#    0.000    0.000    0.000    0.000    0.000    0.000 
#
# Total GULP energy -67246.706300 kJ/mol
# GULP energy per Si atom -5603.892192 kJ/mol
# Density = 2.635409 g / cm^3
# Si number density = 26.414210 Si / 1000 Ang^3
#
#
#
# Elastic Constant Matrix: (Units=GPa)
#
#
# Indices 1 2 3 4 5 6 
#
# 1 106.1085 46.1678 47.8189 -0.8270 15.0903 22.3570
# 2 46.1678 92.4695 42.7101 -19.0536 1.0046 -2.2590
# 3 47.8189 42.7101 162.8370 -48.9240 -10.1919 -3.8059
# 4 -0.8270 -19.0536 -48.9240 61.6689 -9.9694 6.4199
# 5 15.0903 1.0046 -10.1919 -9.9694 43.4594 -10.3621
# 6 22.3570 -2.2590 -3.8059 6.4199 -10.3621 50.4677
#
#
#
# Elastic Compliance Matrix: (Units=1/GPa)
#
#
# Indices 1 2 3 4 5 6 
#
# 1 0.021773 -0.009320 -0.008201 -0.010157 -0.014549 -0.012376
# 2 -0.009320 0.016436 0.000652 0.005823 0.005615 0.005326
# 3 -0.008201 0.000652 0.012364 0.010893 0.009459 0.005151
# 4 -0.010157 0.005823 0.010893 0.028215 0.013558 0.004776
# 5 -0.014549 0.005615 0.009459 0.013558 0.036398 0.013158
# 6 -0.012376 0.005326 0.005151 0.004776 0.013158 0.028018
#
#
# Mechanical properties :
#
#
# Convention : Reuss Voigt Hill
#
# Bulk Modulus (GPa) = 59.40583 70.53429 64.97006
# Shear Modulus (GPa) = 27.38940 46.10040 36.74490
#
# Velocity S-wave (km/s) = 3.22362 4.18220 3.73380
# Velocity P-wave (km/s) = 6.03279 7.07687 6.57559
#
# Compressibility (1/GPa) = 0.01683336
#
# Stress axis : x y z
#
# Youngs Moduli (GPa) = 45.92891 60.84321 80.88260
#
# Poissons Ratio (x) = 0.56706 0.66331
# Poissons Ratio (y) = 0.42806 -0.05270
# Poissons Ratio (z) = 0.37666 -0.03964
#
# Static dielectric constant tensor:
#      x y z
#    x 1.987370 -0.002480 -0.021820 
#    y -0.002480 2.120800 0.043970 
#    z -0.021820 0.043970 2.160670 
# 
# From -- ./inp_files/108657.got.cif
#   From: 2010.05.17/outbox.cif.g08.bks.cpg/sg2_55_cif.got.tgz:108657.got - 2010.06.03 11:33:40.
