data_PCOD9033327
_publ_section_title
;
Structure prediction by ZEFSAII (Michael W. Deem and Ramdas Pophale) SiO2 
 PCOD9033327
Probable space group: P -1
;
_chemical_formula_sum "Si O2"
_cell_formula_units_Z 14
_cell_length_a 5.510610
_cell_length_b 12.531626
_cell_length_c 12.996446
_cell_angle_alpha 135.619374
_cell_angle_beta 121.776418
_cell_angle_gamma 65.217197
_cell_volume 532.251757
_symmetry_space_group_name_H-M "P -1"
_symmetry_group_IT_number 2
_symmetry_cell_setting 'triclinic'
loop_
_space_group_symop_operation_xyz
x,y,z
-x,-y,-z
loop_
_atom_site_type_symbol
_atom_site_label
_atom_site_fract_x
_atom_site_fract_y
_atom_site_fract_z
Si Si1 0.163848 0.760437 0.462888
Si Si2 0.969914 0.162825 0.161444
Si Si3 0.547908 0.771613 0.221311
Si Si4 0.047879 0.000555 0.269413
Si Si5 0.429674 0.577868 0.230727
Si Si6 0.054555 0.482638 0.377619
Si Si7 0.345420 0.262085 0.021718
O O1 0.856308 0.762351 0.337940
O O2 0.141228 0.919983 0.627356
O O3 0.220545 0.618781 0.458687
O O4 0.382917 0.723204 0.394671
O O5 0.142798 0.303187 0.255119
O O6 0.065294 0.128065 0.274636
O O7 0.633996 0.216610 0.117510
O O8 0.000000 0.000000 0.000000
O O9 0.384934 0.636521 0.146279
O O10 0.577059 0.753952 0.093779
O O11 0.359506 0.926172 0.313152
O O12 0.884005 0.859050 0.091351
O O13 0.749326 0.509222 0.271973
O O14 0.245438 0.441045 0.133400
O O15 0.000000 0.500000 0.500000
#
# Coordination Sequence:
#
# PCOD9033327 Si02
#       7
#     2   2   2   2   2   2   2
#     4  11  25  44  67 100 130 174 218 268 322 390
#     4  11  23  44  68  97 131 171 216 269 328 384
#     4  11  24  44  69  94 132 173 223 268 321 381
#     4  12  25  42  68  98 135 170 218 269 327 385
#     4  10  25  43  67  98 132 169 222 266 325 388
#     4  10  22  44  67  94 131 173 214 264 324 385
#     4  11  25  43  68  99 130 173 216 272 325 387
#
# _framework density 26.303343999999999
#
# number of rings (size 3 to 8) (size 9 to 14) (size 15 to 20)
#    0.000    1.143    2.857    2.143    2.000    9.714 
#    0.000    0.000    0.000    0.000    0.000    0.000 
#    0.000    0.000    0.000    0.000    0.000    0.000 
#
# Total GULP energy -78425.068852 kJ/mol
# GULP energy per Si atom -5601.790632 kJ/mol
# Density = 2.624348 g / cm^3
# Si number density = 26.303344 Si / 1000 Ang^3
#
#
#
# Elastic Constant Matrix: (Units=GPa)
#
#
# Indices 1 2 3 4 5 6 
#
# 1 41.5079 34.9480 10.0574 2.8428 -2.7232 2.9980
# 2 34.9480 171.5568 34.3304 -2.4927 -2.5310 -2.1932
# 3 10.0574 34.3304 97.2206 20.6964 -10.9868 -6.4937
# 4 2.8428 -2.4927 20.6964 40.2478 -6.5024 -9.3760
# 5 -2.7232 -2.5310 -10.9868 -6.5024 47.3055 -3.2530
# 6 2.9980 -2.1932 -6.4937 -9.3760 -3.2530 21.2146
#
#
#
# Elastic Compliance Matrix: (Units=1/GPa)
#
#
# Indices 1 2 3 4 5 6 
#
# 1 0.030181 -0.006171 -0.000560 -0.003732 0.000305 -0.006677
# 2 -0.006171 0.007651 -0.002495 0.002675 -0.000015 0.002079
# 3 -0.000560 -0.002495 0.012843 -0.006058 0.002080 0.001394
# 4 -0.003732 0.002675 -0.006058 0.032234 0.003901 0.013794
# 5 0.000305 -0.000015 0.002080 0.003901 0.022573 0.005777
# 6 -0.006677 0.002079 0.001394 0.013794 0.005777 0.055705
#
#
# Mechanical properties :
#
#
# Convention : Reuss Voigt Hill
#
# Bulk Modulus (GPa) = 31.03528 52.10632 41.57080
# Shear Modulus (GPa) = 26.26321 37.15022 31.70671
#
# Velocity S-wave (km/s) = 3.16329 3.76224 3.47569
# Velocity P-wave (km/s) = 5.01662 6.22297 5.65207
#
# Compressibility (1/GPa) = 0.03222139
#
# Stress axis : x y z
#
# Youngs Moduli (GPa) = 33.13303 130.70664 77.86415
#
# Poissons Ratio (x) = 0.80663 0.04361
# Poissons Ratio (y) = 0.20447 0.19430
# Poissons Ratio (z) = 0.01856 0.32617
#
# Static dielectric constant tensor:
#      x y z
#    x 2.048820 0.058830 0.014370 
#    y 0.058830 2.023090 0.040450 
#    z 0.014370 0.040450 2.065850 
# 
# From -- ./inp_files/34128.got.cif
#   From: 2010.05.17/outbox.cif.g08.bks.cpg/sg2_18_cif.got.tgz:34128.got - 2010.06.03 11:33:40.
