data_PCOD9033851
_publ_section_title
;
Structure prediction by ZEFSAII (Michael W. Deem and Ramdas Pophale) SiO2 
 PCOD9033851
Probable space group: P -1
;
_chemical_formula_sum "Si O2"
_cell_formula_units_Z 15
_cell_length_a 5.116105
_cell_length_b 20.839239
_cell_length_c 8.727483
_cell_angle_alpha 38.490439
_cell_angle_beta 86.123337
_cell_angle_gamma 82.873622
_cell_volume 573.990859
_symmetry_space_group_name_H-M "P -1"
_symmetry_group_IT_number 2
_symmetry_cell_setting 'triclinic'
loop_
_space_group_symop_operation_xyz
x,y,z
-x,-y,-z
loop_
_atom_site_type_symbol
_atom_site_label
_atom_site_fract_x
_atom_site_fract_y
_atom_site_fract_z
Si Si1 0.279187 0.451732 0.008437
Si Si2 0.164052 0.422121 0.749572
Si Si3 0.367066 0.263556 0.802716
Si Si4 0.790854 0.761813 0.473530
Si Si5 0.041183 0.770406 0.731689
Si Si6 0.636473 0.962783 0.406064
Si Si7 0.120805 0.851759 0.884074
Si Si8 0.500000 0.000000 0.000000
O O1 0.325647 0.326212 0.254363
O O2 0.500000 0.500000 0.000000
O O3 0.289629 0.477465 0.780932
O O4 0.000000 0.500000 0.000000
O O5 0.361829 0.354241 0.757305
O O6 0.000000 0.500000 0.500000
O O7 0.981221 0.343263 0.987314
O O8 0.238108 0.292067 0.590128
O O9 0.663683 0.208796 0.898711
O O10 0.159466 0.188815 0.013100
O O11 0.065732 0.769484 0.545554
O O12 0.657932 0.878672 0.229191
O O13 0.204727 0.825817 0.751216
O O14 0.763224 0.845054 0.610519
O O15 0.884984 0.030901 0.279516
O O16 0.500000 0.000000 0.500000
O O17 0.484569 0.997534 0.192688
#
# Coordination Sequence:
#
# PCOD9033851 Si02
#       8
#     2   2   2   2   2   2   2   1
#     4  11  26  48  76 108 143 191 246 310 369 441
#     4  10  22  44  70 103 138 182 239 292 366 430
#     4  11  24  44  72 103 142 189 238 298 358 446
#     4  10  22  46  72 106 152 190 249 304 380 441
#     4   9  22  39  64 101 135 184 234 295 355 435
#     4  11  21  42  70 102 146 188 244 296 369 438
#     4  11  23  44  69 103 140 189 239 290 366 432
#     4  10  22  44  72 114 150 206 246 314 376 460
#
# _framework density 26.132818
#
# number of rings (size 3 to 8) (size 9 to 14) (size 15 to 20)
#    0.000    1.600    1.333    2.800    0.000    6.400 
#    2.400    8.000    0.000    0.000    0.000    0.000 
#    0.000    0.000    0.000    0.000    0.000    0.000 
#
# Total GULP energy -83528.544692 kJ/mol
# GULP energy per Si atom -5568.569646 kJ/mol
# Density = 2.607334 g / cm^3
# Si number density = 26.132818 Si / 1000 Ang^3
#
#
#
# Elastic Constant Matrix: (Units=GPa)
#
#
# Indices 1 2 3 4 5 6 
#
# 1 74.4049 21.3911 28.7549 -1.0983 13.2720 9.6076
# 2 21.3911 170.0453 53.1279 36.0127 13.7459 20.4464
# 3 28.7549 53.1279 180.8379 20.3649 30.8199 6.7120
# 4 -1.0983 36.0127 20.3649 73.6605 4.1248 6.3865
# 5 13.2720 13.7459 30.8199 4.1248 20.3799 -0.1705
# 6 9.6076 20.4464 6.7120 6.3865 -0.1705 20.2864
#
#
#
# Elastic Compliance Matrix: (Units=1/GPa)
#
#
# Indices 1 2 3 4 5 6 
#
# 1 0.016672 -0.000545 -0.000747 0.001947 -0.009819 -0.007795
# 2 -0.000545 0.007922 -0.001240 -0.002834 -0.002592 -0.006445
# 3 -0.000747 -0.001240 0.007938 -0.000941 -0.010498 -0.000814
# 4 0.001947 -0.002834 -0.000941 0.015543 -0.001102 -0.002657
# 5 -0.009819 -0.002592 -0.010498 -0.001102 0.073407 0.011700
# 6 -0.007795 -0.006445 -0.000814 -0.002657 0.011700 0.060686
#
#
# Mechanical properties :
#
#
# Convention : Reuss Voigt Hill
#
# Bulk Modulus (GPa) = 36.40857 70.20400 53.30629
# Shear Modulus (GPa) = 25.45963 44.33298 34.89630
#
# Velocity S-wave (km/s) = 3.12467 4.12326 3.65820
# Velocity P-wave (km/s) = 5.19427 7.04209 6.18755
#
# Compressibility (1/GPa) = 0.02746606
#
# Stress axis : x y z
#
# Youngs Moduli (GPa) = 59.97991 126.23631 125.96953
#
# Poissons Ratio (x) = 0.06883 0.09416
# Poissons Ratio (y) = 0.03271 0.15625
# Poissons Ratio (z) = 0.04483 0.15658
#
# Static dielectric constant tensor:
#      x y z
#    x 2.099940 -0.002160 -0.057670 
#    y -0.002160 2.171020 -0.019640 
#    z -0.057670 -0.019640 2.076940 
# 
# From -- ./inp_files/140477.got.cif
#   From: 2010.05.17/outbox.cif.g08.bks.cpg/sg2_71_cif.got.tgz:140477.got - 2010.06.03 11:33:40.
