data_PCOD9033785
_publ_section_title
;
Structure prediction by ZEFSAII (Michael W. Deem and Ramdas Pophale) SiO2 
 PCOD9033785
Probable space group: P -1
;
_chemical_formula_sum "Si O2"
_cell_formula_units_Z 15
_cell_length_a 14.583441
_cell_length_b 10.287825
_cell_length_c 8.204872
_cell_angle_alpha 72.771353
_cell_angle_beta 50.064104
_cell_angle_gamma 111.709884
_cell_volume 580.928464
_symmetry_space_group_name_H-M "P -1"
_symmetry_group_IT_number 2
_symmetry_cell_setting 'triclinic'
loop_
_space_group_symop_operation_xyz
x,y,z
-x,-y,-z
loop_
_atom_site_type_symbol
_atom_site_label
_atom_site_fract_x
_atom_site_fract_y
_atom_site_fract_z
Si Si1 0.407742 0.277921 0.725743
Si Si2 0.731930 0.444413 0.445351
Si Si3 0.645862 0.076746 0.673106
Si Si4 0.983889 0.294777 0.422291
Si Si5 0.579507 0.925095 0.494279
Si Si6 0.066442 0.666214 0.182183
Si Si7 0.000000 0.000000 0.500000
Si Si8 0.045243 0.097216 0.094809
O O1 0.500000 0.500000 0.500000
O O2 0.519691 0.312729 0.736304
O O3 0.189082 0.126026 0.036245
O O4 0.452381 0.220968 0.542117
O O5 0.717813 0.283852 0.437062
O O6 0.849275 0.667716 0.141370
O O7 0.854058 0.516130 0.438211
O O8 0.824479 0.170441 0.517676
O O9 0.538666 0.883611 0.745415
O O10 0.500000 0.000000 0.000000
O O11 0.886538 0.237062 0.729685
O O12 0.103019 0.536887 0.180912
O O13 0.074053 0.226474 0.341218
O O14 0.500000 0.000000 0.500000
O O15 0.803296 0.138700 0.160257
O O16 0.109692 0.053099 0.535267
O O17 0.000000 0.000000 0.000000
#
# Coordination Sequence:
#
# PCOD9033785 Si02
#       8
#     2   2   2   2   2   2   1   2
#     4  10  23  43  66 102 140 183 230 293 357 430
#     4  10  22  44  69  99 133 189 232 291 358 417
#     4  11  25  42  70 102 144 183 239 304 355 420
#     4  10  24  43  65 105 142 181 234 303 348 428
#     4  12  23  40  71 102 132 183 239 287 357 431
#     4  10  23  44  72  98 138 186 239 290 358 428
#     4  12  26  38  70 108 140 184 232 296 362 420
#     4  11  25  45  72 100 147 190 238 289 363 437
#
# _framework density 25.820736
#
# number of rings (size 3 to 8) (size 9 to 14) (size 15 to 20)
#    0.000    1.333    1.333    3.200    7.467    1.067 
#    0.000    2.667    0.000    8.000    0.000    0.000 
#    0.000    0.000    0.000    0.000    0.000    0.000 
#
# Total GULP energy -83516.853691 kJ/mol
# GULP energy per Si atom -5567.790246 kJ/mol
# Density = 2.576197 g / cm^3
# Si number density = 25.820736 Si / 1000 Ang^3
#
#
#
# Elastic Constant Matrix: (Units=GPa)
#
#
# Indices 1 2 3 4 5 6 
#
# 1 143.7488 57.1716 9.7650 -1.6505 -8.8961 -12.6431
# 2 57.1716 185.4596 22.4661 -0.3102 8.2947 -29.1495
# 3 9.7650 22.4661 49.2480 -4.8261 7.2600 -8.0432
# 4 -1.6505 -0.3102 -4.8261 33.8913 -1.0400 7.0988
# 5 -8.8961 8.2947 7.2600 -1.0400 47.7402 0.7944
# 6 -12.6431 -29.1495 -8.0432 7.0988 0.7944 53.2559
#
#
#
# Elastic Compliance Matrix: (Units=1/GPa)
#
#
# Indices 1 2 3 4 5 6 
#
# 1 0.008146 -0.002450 -0.000706 0.000248 0.002049 0.000422
# 2 -0.002450 0.006942 -0.002073 -0.001036 -0.001421 0.003064
# 3 -0.000706 -0.002073 0.022406 0.002669 -0.003150 0.001773
# 4 0.000248 -0.001036 0.002669 0.030789 0.000561 -0.004218
# 5 0.002049 -0.001421 -0.003150 0.000561 0.022086 -0.001171
# 6 0.000422 0.003064 0.001773 -0.004218 -0.001171 0.021402
#
#
# Mechanical properties :
#
#
# Convention : Reuss Voigt Hill
#
# Bulk Modulus (GPa) = 36.98769 61.91796 49.45282
# Shear Modulus (GPa) = 38.09736 46.24774 42.17255
#
# Velocity S-wave (km/s) = 3.84533 4.23674 4.04577
# Velocity P-wave (km/s) = 5.83707 6.92570 6.40455
#
# Compressibility (1/GPa) = 0.02703602
#
# Stress axis : x y z
#
# Youngs Moduli (GPa) = 122.75988 144.05228 44.63002
#
# Poissons Ratio (x) = 0.35300 0.03152
# Poissons Ratio (y) = 0.30082 0.09250
# Poissons Ratio (z) = 0.08669 0.29855
#
# Static dielectric constant tensor:
#      x y z
#    x 2.092740 0.041070 0.065240 
#    y 0.041070 2.090320 -0.077360 
#    z 0.065240 -0.077360 1.832590 
# 
# From -- ./inp_files/295164.got.cif
#   From: 2010.05.17/outbox.cif.g08.bks.cpg/sg2_148_cif.got.tgz:295164.got - 2010.06.03 11:33:40.
