data_PCOD9033446
_publ_section_title
;
Structure prediction by ZEFSAII (Michael W. Deem and Ramdas Pophale) SiO2 
 PCOD9033446
Probable space group: P -1
;
_chemical_formula_sum "Si O2"
_cell_formula_units_Z 13
_cell_length_a 7.424807
_cell_length_b 12.361824
_cell_length_c 6.374070
_cell_angle_alpha 68.691512
_cell_angle_beta 113.989211
_cell_angle_gamma 93.883368
_cell_volume 495.758878
_symmetry_space_group_name_H-M "P -1"
_symmetry_group_IT_number 2
_symmetry_cell_setting 'triclinic'
loop_
_space_group_symop_operation_xyz
x,y,z
-x,-y,-z
loop_
_atom_site_type_symbol
_atom_site_label
_atom_site_fract_x
_atom_site_fract_y
_atom_site_fract_z
Si Si1 0.172049 0.839231 0.724349
Si Si2 0.193329 0.645542 0.557617
Si Si3 0.295170 0.458733 0.026114
Si Si4 0.208289 0.236559 0.904729
Si Si5 0.526275 0.128886 0.831488
Si Si6 0.248318 0.086768 0.394422
Si Si7 0.500000 0.500000 0.500000
O O1 0.264777 0.732321 0.707853
O O2 0.937397 0.838730 0.636280
O O3 0.216254 0.956499 0.541913
O O4 0.264100 0.842780 0.998664
O O5 0.138402 0.537214 0.752130
O O6 0.357667 0.598899 0.500134
O O7 0.004268 0.716541 0.314320
O O8 0.500000 0.500000 0.000000
O O9 0.268502 0.328041 0.041355
O O10 0.314507 0.484410 0.260088
O O11 0.223298 0.113251 0.119372
O O12 0.370297 0.222758 0.807554
O O13 0.453602 0.121078 0.564933
O O14 0.500000 0.000000 0.000000
#
# Coordination Sequence:
#
# PCOD9033446 Si02
#       7
#     2   2   2   2   2   2   1
#     4  10  22  47  70  98 146 183 216 294 342 398
#     4  11  24  44  69  98 139 179 230 283 343 401
#     4  10  24  46  67  96 136 175 232 284 343 402
#     4  12  25  44  71 102 133 184 232 283 338 417
#     4  10  22  44  68 101 140 181 224 284 341 398
#     4  10  24  45  69 106 139 178 236 273 344 414
#     4  10  24  44  68 102 122 188 224 282 346 400
#
# _framework density 26.222429000000002
#
# number of rings (size 3 to 8) (size 9 to 14) (size 15 to 20)
#    0.000    1.538    1.538    2.308    2.154    7.385 
#    5.538    0.000    0.000    0.000    0.000    0.000 
#    0.000    0.000    0.000    0.000    0.000    0.000 
#
# Total GULP energy -72522.467150 kJ/mol
# GULP energy per Si atom -5578.651319 kJ/mol
# Density = 2.616275 g / cm^3
# Si number density = 26.222429 Si / 1000 Ang^3
#
#
#
# Elastic Constant Matrix: (Units=GPa)
#
#
# Indices 1 2 3 4 5 6 
#
# 1 85.5363 24.1772 32.1952 -2.4771 8.7837 -17.9551
# 2 24.1772 92.7445 5.6227 8.1035 2.4059 -21.2812
# 3 32.1952 5.6227 123.3831 -15.9686 31.2546 3.6895
# 4 -2.4771 8.1035 -15.9686 47.1989 1.6982 4.3025
# 5 8.7837 2.4059 31.2546 1.6982 30.2956 -1.0439
# 6 -17.9551 -21.2812 3.6895 4.3025 -1.0439 38.9331
#
#
#
# Elastic Compliance Matrix: (Units=1/GPa)
#
#
# Indices 1 2 3 4 5 6 
#
# 1 0.015171 -0.002182 -0.004275 -0.000867 0.000451 0.006317
# 2 -0.002182 0.013208 -0.000899 -0.003329 0.000928 0.006691
# 3 -0.004275 -0.000899 0.013372 0.005345 -0.012945 -0.004667
# 4 -0.000867 -0.003329 0.005345 0.024266 -0.006551 -0.005584
# 5 0.000451 0.000928 -0.012945 -0.006551 0.046660 0.003917
# 6 0.006317 0.006691 -0.004667 -0.005584 0.003917 0.033420
#
#
# Mechanical properties :
#
#
# Convention : Reuss Voigt Hill
#
# Bulk Modulus (GPa) = 36.98247 47.29491 42.13869
# Shear Modulus (GPa) = 29.44272 39.26343 34.35307
#
# Velocity S-wave (km/s) = 3.35447 3.87372 3.62341
# Velocity P-wave (km/s) = 5.39789 6.17113 5.79742
#
# Compressibility (1/GPa) = 0.02703984
#
# Stress axis : x y z
#
# Youngs Moduli (GPa) = 65.91400 75.71253 74.78555
#
# Poissons Ratio (x) = 0.16522 0.31968
# Poissons Ratio (y) = 0.14384 0.06720
# Poissons Ratio (z) = 0.28176 0.06803
#
# Static dielectric constant tensor:
#      x y z
#    x 2.026580 -0.025340 -0.005040 
#    y -0.025340 1.990830 -0.041710 
#    z -0.005040 -0.041710 2.127290 
# 
# From -- ./inp_files/27379.got.cif
#   From: 2010.05.17/outbox.cif.g08.bks.cpg/sg2_14_cif.got.tgz:27379.got - 2010.06.03 11:33:40.
