data_PCOD9033159
_publ_section_title
;
Structure prediction by ZEFSAII (Michael W. Deem and Ramdas Pophale) SiO2 
 PCOD9033159
Probable space group: P -1
;
_chemical_formula_sum "Si O2"
_cell_formula_units_Z 15
_cell_length_a 14.079890
_cell_length_b 4.937699
_cell_length_c 11.482553
_cell_angle_alpha 134.887670
_cell_angle_beta 96.404501
_cell_angle_gamma 86.927552
_cell_volume 561.696372
_symmetry_space_group_name_H-M "P -1"
_symmetry_group_IT_number 2
_symmetry_cell_setting 'triclinic'
loop_
_space_group_symop_operation_xyz
x,y,z
-x,-y,-z
loop_
_atom_site_type_symbol
_atom_site_label
_atom_site_fract_x
_atom_site_fract_y
_atom_site_fract_z
Si Si1 0.764136 0.910326 0.471031
Si Si2 0.427148 0.426102 0.073447
Si Si3 0.777739 0.668283 0.916836
Si Si4 0.024311 0.668043 0.181034
Si Si5 0.500000 0.500000 0.500000
Si Si6 0.909231 0.288498 0.257494
Si Si7 0.414650 0.560504 0.750668
Si Si8 0.288874 0.274744 0.332332
O O1 0.858116 0.667712 0.405321
O O2 0.680772 0.686542 0.317981
O O3 0.724909 0.908216 0.596744
O O4 0.769442 0.329857 0.545997
O O5 0.316680 0.528536 0.094452
O O6 0.489917 0.632599 0.246324
O O7 0.500000 0.500000 0.000000
O O8 0.411670 0.965590 0.936943
O O9 0.862730 0.378190 0.815408
O O10 0.746561 0.836703 0.838468
O O11 0.826633 0.990565 0.105798
O O12 0.977246 0.408396 0.195769
O O13 0.026271 0.927117 0.705696
O O14 0.431684 0.615011 0.634188
O O15 0.402205 0.376365 0.371470
O O16 0.000000 0.500000 0.000000
#
# Coordination Sequence:
#
# PCOD9033159 Si02
#       8
#     2   2   2   2   1   2   2   2
#     4  11  25  45  71 100 144 188 235 285 362 425
#     4  11  24  41  64 102 137 178 238 292 349 409
#     4  11  23  47  69 105 141 184 241 295 351 425
#     4  10  23  42  74 108 136 181 238 297 365 414
#     4  10  22  44  66  86 146 180 240 268 344 418
#     4  11  23  47  76 104 138 185 238 301 355 425
#     4  10  23  41  61  98 131 184 229 283 347 414
#     4  11  26  43  70 103 141 191 235 288 357 420
#
# _framework density 26.704822
#
# number of rings (size 3 to 8) (size 9 to 14) (size 15 to 20)
#    0.000    1.333    2.667    2.400    3.733    9.600 
#    4.800    4.000    0.000    0.000    0.000    0.000 
#    0.000    0.000    0.000    0.000    0.000    0.000 
#
# Total GULP energy -83686.098151 kJ/mol
# GULP energy per Si atom -5579.073210 kJ/mol
# Density = 2.664404 g / cm^3
# Si number density = 26.704822 Si / 1000 Ang^3
#
#
#
# Elastic Constant Matrix: (Units=GPa)
#
#
# Indices 1 2 3 4 5 6 
#
# 1 186.2144 24.1654 16.4763 -12.5527 3.6213 -6.1347
# 2 24.1654 75.3351 -16.3072 -17.1630 9.3979 -13.9751
# 3 16.4763 -16.3072 46.7793 -6.7853 2.7283 -1.9351
# 4 -12.5527 -17.1630 -6.7853 30.1825 -8.4111 -9.4134
# 5 3.6213 9.3979 2.7283 -8.4111 53.0338 -1.7776
# 6 -6.1347 -13.9751 -1.9351 -9.4134 -1.7776 51.0004
#
#
#
# Elastic Compliance Matrix: (Units=1/GPa)
#
#
# Indices 1 2 3 4 5 6 
#
# 1 0.005976 -0.002447 -0.002894 0.000530 0.000260 0.000046
# 2 -0.002447 0.022260 0.011515 0.016733 -0.001405 0.009282
# 3 -0.002894 0.011515 0.028689 0.013507 -0.000963 0.006355
# 4 0.000530 0.016733 0.013507 0.051966 0.005046 0.014929
# 5 0.000260 -0.001405 -0.000963 0.005046 0.019978 0.001237
# 6 0.000046 0.009282 0.006355 0.014929 0.001237 0.025196
#
#
# Mechanical properties :
#
#
# Convention : Reuss Voigt Hill
#
# Bulk Modulus (GPa) = 14.43561 39.66643 27.05102
# Shear Modulus (GPa) = 30.33825 45.77632 38.05728
#
# Velocity S-wave (km/s) = 3.37420 4.14473 3.77916
# Velocity P-wave (km/s) = 4.53847 6.14744 5.40318
#
# Compressibility (1/GPa) = 0.06927312
#
# Stress axis : x y z
#
# Youngs Moduli (GPa) = 167.33896 44.92263 34.85708
#
# Poissons Ratio (x) = 0.10991 0.10088
# Poissons Ratio (y) = 0.40940 -0.40137
# Poissons Ratio (z) = 0.48428 -0.51727
#
# Static dielectric constant tensor:
#      x y z
#    x 2.297560 -0.090520 0.109180 
#    y -0.090520 2.327840 0.256580 
#    z 0.109180 0.256580 2.273090 
# 
# From -- ./inp_files/440801.got.cif
#   From: 2010.05.17/outbox.cif.g08.bks.cpg/sg2_221_cif.got.tgz:440801.got - 2010.06.03 11:33:40.
