data_PCOD9033920
_publ_section_title
;
Structure prediction by ZEFSAII (Michael W. Deem and Ramdas Pophale) SiO2 
 PCOD9033920
Probable space group: P -1
;
_chemical_formula_sum "Si O2"
_cell_formula_units_Z 14
_cell_length_a 12.357489
_cell_length_b 7.639351
_cell_length_c 13.573768
_cell_angle_alpha 63.557990
_cell_angle_beta 117.445229
_cell_angle_gamma 66.226320
_cell_volume 655.030142
_symmetry_space_group_name_H-M "P -1"
_symmetry_group_IT_number 2
_symmetry_cell_setting 'triclinic'
loop_
_space_group_symop_operation_xyz
x,y,z
-x,-y,-z
loop_
_atom_site_type_symbol
_atom_site_label
_atom_site_fract_x
_atom_site_fract_y
_atom_site_fract_z
Si Si1 0.704989 0.290750 0.179684
Si Si2 0.423678 0.360086 0.387398
Si Si3 0.808893 0.693146 0.665127
Si Si4 0.055694 0.289242 0.459981
Si Si5 0.042908 0.100879 0.297917
Si Si6 0.635986 0.711996 0.200108
Si Si7 0.562645 0.602133 0.390673
O O1 0.672000 0.467701 0.216845
O O2 0.843517 0.235165 0.175165
O O3 0.807797 0.965762 0.337368
O O4 0.500000 0.500000 0.000000
O O5 0.235376 0.462697 0.268721
O O6 0.423823 0.590415 0.311385
O O7 0.475338 0.276790 0.546153
O O8 0.601002 0.050196 0.481807
O O9 0.887074 0.593474 0.610860
O O10 0.934668 0.698941 0.776020
O O11 0.840971 0.558899 0.337366
O O12 0.937943 0.883617 0.580615
O O13 0.223922 0.753150 0.428360
O O14 0.551978 0.770060 0.257104
O O15 0.500000 0.000000 0.000000
#
# Coordination Sequence:
#
# PCOD9033920 Si02
#       7
#     2   2   2   2   2   2   2
#     4  11  19  33  55  83 110 154 186 221 281 346
#     4   9  17  29  54  91 100 144 194 227 265 342
#     4   8  16  31  55  79 106 142 190 223 275 330
#     4   9  17  36  60  74 113 150 184 223 286 339
#     4   8  15  32  54  72 110 146 178 223 277 332
#     4  11  21  37  56  84 120 146 179 237 290 328
#     4  10  17  32  56  82 115 141 184 230 284 322
#
# _framework density 21.373061
#
# number of rings (size 3 to 8) (size 9 to 14) (size 15 to 20)
#    0.857    1.714    2.857    0.857    0.000    1.143 
#    2.571    1.429    0.000    1.714   18.571    0.000 
#    0.000    0.000    0.000    0.000    0.000    0.000 
#
# Total GULP energy -77963.763306 kJ/mol
# GULP energy per Si atom -5568.840236 kJ/mol
# Density = 2.132442 g / cm^3
# Si number density = 21.373061 Si / 1000 Ang^3
#
#
#
# Elastic Constant Matrix: (Units=GPa)
#
#
# Indices 1 2 3 4 5 6 
#
# 1 138.7054 10.2820 39.5137 -1.1054 23.9128 -15.6066
# 2 10.2820 50.3311 -1.9856 -2.2612 -5.7219 4.4182
# 3 39.5137 -1.9856 80.2644 -6.1340 11.2155 -1.2113
# 4 -1.1054 -2.2612 -6.1340 5.2616 3.4769 -2.7514
# 5 23.9128 -5.7219 11.2155 3.4769 29.7961 8.1826
# 6 -15.6066 4.4182 -1.2113 -2.7514 8.1826 27.2588
#
#
#
# Elastic Compliance Matrix: (Units=1/GPa)
#
#
# Indices 1 2 3 4 5 6 
#
# 1 0.012925 -0.005160 -0.002855 0.015350 -0.016056 0.014479
# 2 -0.005160 0.023032 0.001185 -0.002606 0.011243 -0.010273
# 3 -0.002855 0.001185 0.017255 0.027801 -0.008391 0.004265
# 4 0.015350 -0.002606 0.027801 0.309512 -0.077214 0.064865
# 5 -0.016056 0.011243 -0.008391 -0.077214 0.071976 -0.040788
# 6 0.014479 -0.010273 0.004265 0.064865 -0.040788 0.065620
#
#
# Mechanical properties :
#
#
# Convention : Reuss Voigt Hill
#
# Bulk Modulus (GPa) = 25.28343 40.54678 32.91511
# Shear Modulus (GPa) = 9.48468 27.22937 18.35703
#
# Velocity S-wave (km/s) = 2.10887 3.57319 2.93386
# Velocity P-wave (km/s) = 4.21723 6.00298 5.18752
#
# Compressibility (1/GPa) = 0.03955159
#
# Stress axis : x y z
#
# Youngs Moduli (GPa) = 77.36995 43.41772 57.95324
#
# Poissons Ratio (x) = 0.22402 0.16547
# Poissons Ratio (y) = 0.39921 -0.06866
# Poissons Ratio (z) = 0.22092 -0.05144
#
# Static dielectric constant tensor:
#      x y z
#    x 1.917290 0.048950 0.019100 
#    y 0.048950 1.808420 0.007740 
#    z 0.019100 0.007740 1.734110 
# 
# From -- ./inp_files/515215.got.cif
#   From: 2010.05.17/outbox.cif.g08.bks.cpg/sg2_258_cif.got.tgz:515215.got - 2010.06.03 11:33:40.
