data_PCOD9033555
_publ_section_title
;
Structure prediction by ZEFSAII (Michael W. Deem and Ramdas Pophale) SiO2 
 PCOD9033555
Probable space group: P -1
;
_chemical_formula_sum "Si O2"
_cell_formula_units_Z 16
_cell_length_a 8.717993
_cell_length_b 11.687245
_cell_length_c 10.725416
_cell_angle_alpha 106.352471
_cell_angle_beta 113.740405
_cell_angle_gamma 44.448704
_cell_volume 700.472947
_symmetry_space_group_name_H-M "P -1"
_symmetry_group_IT_number 2
_symmetry_cell_setting 'triclinic'
loop_
_space_group_symop_operation_xyz
x,y,z
-x,-y,-z
loop_
_atom_site_type_symbol
_atom_site_label
_atom_site_fract_x
_atom_site_fract_y
_atom_site_fract_z
Si Si1 0.906119 0.236361 0.325702
Si Si2 0.644528 0.806980 0.221755
Si Si3 0.141928 0.050744 0.082957
Si Si4 0.617400 0.574189 0.199700
Si Si5 0.814700 0.421517 0.694880
Si Si6 0.808908 0.382630 0.959881
Si Si7 0.669613 0.982655 0.457976
Si Si8 0.363957 0.734657 0.536859
O O1 0.742049 0.422674 0.286213
O O2 0.754580 0.216019 0.349152
O O3 0.060402 0.123321 0.221601
O O4 0.086198 0.188664 0.473934
O O5 0.616733 0.711098 0.282334
O O6 0.915930 0.678044 0.247127
O O7 0.410645 0.896450 0.096195
O O8 0.600036 0.963990 0.297397
O O9 0.050037 0.202085 0.011527
O O10 0.000000 0.000000 0.000000
O O11 0.371454 0.639474 0.105275
O O12 0.753762 0.498377 0.090023
O O13 0.764736 0.461831 0.837224
O O14 0.636130 0.583940 0.603026
O O15 0.742632 0.320964 0.598930
O O16 0.682867 0.117276 0.498168
O O17 0.500000 0.000000 0.500000
#
# Coordination Sequence:
#
# PCOD9033555 Si02
#       8
#     2   2   2   2   2   2   2   2
#     4  11  23  46  72  98 137 185 227 284 345 407
#     4  12  26  42  67 108 139 177 236 285 341 407
#     4  11  24  41  70 102 135 186 231 279 344 407
#     4  10  23  43  71 101 132 181 240 276 335 415
#     4  11  26  44  71 103 140 184 227 289 347 405
#     4  10  22  44  68  96 136 186 231 277 342 408
#     4  12  27  44  69 105 143 181 223 289 349 411
#     4  11  26  46  69 105 140 183 229 279 355 418
#
# _framework density 22.841712999999999
#
# number of rings (size 3 to 8) (size 9 to 14) (size 15 to 20)
#    0.000    1.000    5.000    0.375    5.250    1.500 
#    0.000    0.000    0.000    0.000    0.000    0.000 
#    0.000    0.000    0.000    0.000    0.000    0.000 
#
# Total GULP energy -89159.650790 kJ/mol
# GULP energy per Si atom -5572.478174 kJ/mol
# Density = 2.278972 g / cm^3
# Si number density = 22.841713 Si / 1000 Ang^3
#
#
#
# Elastic Constant Matrix: (Units=GPa)
#
#
# Indices 1 2 3 4 5 6 
#
# 1 63.7855 37.6895 23.1056 -18.6305 18.8510 -14.0172
# 2 37.6895 74.1456 24.3676 -26.8539 13.7308 -0.7655
# 3 23.1056 24.3676 80.1736 -19.0284 4.9668 -1.5731
# 4 -18.6305 -26.8539 -19.0284 35.4879 -8.1339 10.7416
# 5 18.8510 13.7308 4.9668 -8.1339 40.8887 -10.2658
# 6 -14.0172 -0.7655 -1.5731 10.7416 -10.2658 36.0766
#
#
#
# Elastic Compliance Matrix: (Units=1/GPa)
#
#
# Indices 1 2 3 4 5 6 
#
# 1 0.027621 -0.011678 -0.003980 -0.000534 -0.006254 0.008690
# 2 -0.011678 0.025446 -0.000868 0.014879 -0.002392 -0.009146
# 3 -0.003980 -0.000868 0.015307 0.006443 0.000907 -0.002558
# 4 -0.000534 0.014879 0.006443 0.046766 0.000400 -0.013421
# 5 -0.006254 -0.002392 0.000907 0.000400 0.029583 0.005858
# 6 0.008690 -0.009146 -0.002558 -0.013421 0.005858 0.036453
#
#
# Mechanical properties :
#
#
# Convention : Reuss Voigt Hill
#
# Bulk Modulus (GPa) = 28.31114 43.15890 35.73502
# Shear Modulus (GPa) = 22.12376 31.35343 26.73859
#
# Velocity S-wave (km/s) = 3.11556 3.70893 3.42512
# Velocity P-wave (km/s) = 5.03624 6.10552 5.59647
#
# Compressibility (1/GPa) = 0.03532179
#
# Stress axis : x y z
#
# Youngs Moduli (GPa) = 36.20379 39.29943 65.33130
#
# Poissons Ratio (x) = 0.45894 0.26000
# Poissons Ratio (y) = 0.42279 0.05673
# Poissons Ratio (z) = 0.14408 0.03412
#
# Static dielectric constant tensor:
#      x y z
#    x 1.909890 -0.070810 -0.043470 
#    y -0.070810 1.897840 0.058700 
#    z -0.043470 0.058700 1.894590 
# 
# From -- ./inp_files/392693.got.cif
#   From: 2010.05.17/outbox.cif.g08.bks.cpg/sg2_197_cif.got.tgz:392693.got - 2010.06.03 11:33:40.
