data_PCOD9033062
_publ_section_title
;
Structure prediction by ZEFSAII (Michael W. Deem and Ramdas Pophale) SiO2 
 PCOD9033062
Probable space group: P -1
;
_chemical_formula_sum "Si O2"
_cell_formula_units_Z 16
_cell_length_a 22.325488
_cell_length_b 27.733194
_cell_length_c 11.509071
_cell_angle_alpha 31.417446
_cell_angle_beta 33.562244
_cell_angle_gamma 10.578298
_cell_volume 680.739281
_symmetry_space_group_name_H-M "P -1"
_symmetry_group_IT_number 2
_symmetry_cell_setting 'triclinic'
loop_
_space_group_symop_operation_xyz
x,y,z
-x,-y,-z
loop_
_atom_site_type_symbol
_atom_site_label
_atom_site_fract_x
_atom_site_fract_y
_atom_site_fract_z
Si Si1 0.454692 0.800391 0.910459
Si Si2 0.242513 0.633111 0.597294
Si Si3 0.256180 0.010552 0.158740
Si Si4 0.291597 0.575974 0.165630
Si Si5 0.181091 0.577251 0.591998
Si Si6 0.210258 0.290342 0.482704
Si Si7 0.281244 0.460000 0.222738
Si Si8 0.697215 0.814111 0.850465
O O1 0.649551 0.736649 0.758957
O O2 0.485991 0.768520 0.783698
O O3 0.631925 0.568540 0.150228
O O4 0.080672 0.101069 0.933043
O O5 0.500000 0.500000 0.500000
O O6 0.200925 0.650030 0.493389
O O7 0.908698 0.916232 0.624287
O O8 0.522464 0.734799 0.228648
O O9 0.978147 0.270181 0.986858
O O10 0.417887 0.973361 0.028599
O O11 0.234208 0.566584 0.396346
O O12 0.445681 0.389821 0.197822
O O13 0.500000 0.500000 0.000000
O O14 0.848281 0.785865 0.717680
O O15 0.000000 0.500000 0.500000
O O16 0.946693 0.432185 0.565235
O O17 0.522010 0.986604 0.658770
O O18 0.000000 0.500000 0.000000
#
# Coordination Sequence:
#
# PCOD9033062 Si02
#       8
#     2   2   2   2   2   2   2   2
#     4  10  22  44  65  94 125 166 221 264 318 385
#     4  11  26  43  67  92 124 179 219 256 318 390
#     4   9  21  43  68  93 125 167 213 256 320 387
#     4  12  27  40  62  96 129 172 212 261 327 375
#     4  11  24  43  63  95 132 162 211 271 322 382
#     4   9  17  38  67  95 127 165 215 266 326 389
#     4   9  21  42  67  92 125 168 212 264 316 386
#     4   9  18  39  66  97 132 163 210 272 332 381
#
# _framework density 23.503858999999999
#
# number of rings (size 3 to 8) (size 9 to 14) (size 15 to 20)
#    0.000    2.000    1.250    1.500    5.250    3.000 
#    6.750    0.000    0.000    0.000    0.000    0.000 
#    0.000    0.000    0.000    0.000    0.000    0.000 
#
# Total GULP energy -89391.667168 kJ/mol
# GULP energy per Si atom -5586.979198 kJ/mol
# Density = 2.345036 g / cm^3
# Si number density = 23.503859 Si / 1000 Ang^3
#
#
#
# Elastic Constant Matrix: (Units=GPa)
#
#
# Indices 1 2 3 4 5 6 
#
# 1 118.0211 13.6725 0.8391 14.6369 -15.9258 10.3706
# 2 13.6725 71.4665 17.0062 7.1428 -2.6325 7.8931
# 3 0.8391 17.0062 39.5135 -6.6498 -6.7190 -4.9096
# 4 14.6369 7.1428 -6.6498 33.7078 -3.1186 2.2282
# 5 -15.9258 -2.6325 -6.7190 -3.1186 28.4345 6.6124
# 6 10.3706 7.8931 -4.9096 2.2282 6.6124 20.4395
#
#
#
# Elastic Compliance Matrix: (Units=1/GPa)
#
#
# Indices 1 2 3 4 5 6 
#
# 1 0.010539 -0.000583 -0.000219 -0.003372 0.007078 -0.007097
# 2 -0.000583 0.017773 -0.009398 -0.004755 0.000550 -0.008485
# 3 -0.000219 -0.009398 0.032850 0.008502 0.005637 0.008880
# 4 -0.003372 -0.004755 0.008502 0.034059 0.003221 0.000834
# 5 0.007078 0.000550 0.005637 0.003221 0.044898 -0.017326
# 6 -0.007097 -0.008485 0.008880 0.000834 -0.017326 0.063450
#
#
# Mechanical properties :
#
#
# Convention : Reuss Voigt Hill
#
# Bulk Modulus (GPa) = 24.53199 32.44852 28.49025
# Shear Modulus (GPa) = 21.04778 29.68190 25.36484
#
# Velocity S-wave (km/s) = 2.99574 3.55752 3.28865
# Velocity P-wave (km/s) = 4.73562 5.54168 5.15443
#
# Compressibility (1/GPa) = 0.04076311
#
# Stress axis : x y z
#
# Youngs Moduli (GPa) = 94.88565 56.26507 30.44151
#
# Poissons Ratio (x) = 0.03278 0.00666
# Poissons Ratio (y) = 0.05528 0.28609
# Poissons Ratio (z) = 0.02076 0.52878
#
# Static dielectric constant tensor:
#      x y z
#    x 2.001240 -0.165470 0.127460 
#    y -0.165470 2.597480 -0.389190 
#    z 0.127460 -0.389190 2.094070 
# 
# From -- ./inp_files/475772.got.cif
#   From: 2010.05.17/outbox.cif.g08.bks.cpg/sg2_238_cif.got.tgz:475772.got - 2010.06.03 11:33:40.
