data_PCOD9033494
_publ_section_title
;
Structure prediction by ZEFSAII (Michael W. Deem and Ramdas Pophale) SiO2 
 PCOD9033494
Probable space group: P -1
;
_chemical_formula_sum "Si O2"
_cell_formula_units_Z 11
_cell_length_a 6.013827
_cell_length_b 8.782163
_cell_length_c 9.551928
_cell_angle_alpha 78.402586
_cell_angle_beta 66.901352
_cell_angle_gamma 82.970832
_cell_volume 454.031924
_symmetry_space_group_name_H-M "P -1"
_symmetry_group_IT_number 2
_symmetry_cell_setting 'triclinic'
loop_
_space_group_symop_operation_xyz
x,y,z
-x,-y,-z
loop_
_atom_site_type_symbol
_atom_site_label
_atom_site_fract_x
_atom_site_fract_y
_atom_site_fract_z
Si Si1 0.000000 0.000000 0.500000
Si Si2 0.651852 0.851467 0.048265
Si Si3 0.268816 0.594417 0.256393
Si Si4 0.311966 0.683060 0.528350
Si Si5 0.961060 0.615757 0.857398
Si Si6 0.810122 0.830779 0.320792
O O1 0.118149 0.035989 0.617202
O O2 0.877670 0.177452 0.495422
O O3 0.480022 0.705843 0.138306
O O4 0.747766 0.892357 0.169808
O O5 0.862330 0.782204 0.908648
O O6 0.500000 0.000000 0.000000
O O7 0.301913 0.566160 0.419526
O O8 0.234706 0.447217 0.193074
O O9 0.021504 0.698338 0.275001
O O10 0.570416 0.756445 0.453531
O O11 0.209866 0.620348 0.709144
O O12 0.000000 0.500000 0.000000
#
# Coordination Sequence:
#
# PCOD9033494 Si02
#       6
#     1   2   2   2   2   2
#     4  10  22  44  68 106 142 186 248 300 354 424
#     4  11  26  46  75 106 150 193 243 303 364 431
#     4  10  23  48  69 103 148 190 243 294 362 442
#     4  10  24  42  74 101 145 189 249 294 364 433
#     4  12  25  47  71 109 147 194 238 302 370 433
#     4  10  22  45  71 104 142 189 245 299 362 426
#
# _framework density 24.227371999999999
#
# number of rings (size 3 to 8) (size 9 to 14) (size 15 to 20)
#    0.000    1.455    1.818    1.636    7.636    2.909 
#   13.091    0.000    0.000    0.000    0.000    0.000 
#    0.000    0.000    0.000    0.000    0.000    0.000 
#
# Total GULP energy -61407.019611 kJ/mol
# GULP energy per Si atom -5582.456328 kJ/mol
# Density = 2.417223 g / cm^3
# Si number density = 24.227372 Si / 1000 Ang^3
#
#
#
# Elastic Constant Matrix: (Units=GPa)
#
#
# Indices 1 2 3 4 5 6 
#
# 1 78.7504 28.4834 83.9109 13.3246 16.3949 14.5281
# 2 28.4834 110.7117 63.9452 24.2054 29.5334 1.4952
# 3 83.9109 63.9452 187.2605 19.1942 14.6334 13.8980
# 4 13.3246 24.2054 19.1942 36.7485 14.7868 15.6626
# 5 16.3949 29.5334 14.6334 14.7868 34.7724 14.6881
# 6 14.5281 1.4952 13.8980 15.6626 14.6881 43.4658
#
#
#
# Elastic Compliance Matrix: (Units=1/GPa)
#
#
# Indices 1 2 3 4 5 6 
#
# 1 0.026857 0.002490 -0.011983 -0.000814 -0.008519 -0.002059
# 2 0.002490 0.016422 -0.005559 -0.006645 -0.012981 0.007162
# 3 -0.011983 -0.005559 0.012277 -0.000073 0.005961 -0.001717
# 4 -0.000814 -0.006645 -0.000073 0.039181 -0.005671 -0.011678
# 5 -0.008519 -0.012981 0.005961 -0.005671 0.049290 -0.013225
# 6 -0.002059 0.007162 -0.001717 -0.011678 -0.013225 0.032675
#
#
# Mechanical properties :
#
#
# Convention : Reuss Voigt Hill
#
# Bulk Modulus (GPa) = 39.29124 81.04461 60.16793
# Shear Modulus (GPa) = 23.22455 36.35623 29.79039
#
# Velocity S-wave (km/s) = 3.09950 3.87799 3.51039
# Velocity P-wave (km/s) = 5.39093 7.31957 6.42799
#
# Compressibility (1/GPa) = 0.02545096
#
# Stress axis : x y z
#
# Youngs Moduli (GPa) = 37.23444 60.89445 81.45312
#
# Poissons Ratio (x) = -0.15160 0.97603
# Poissons Ratio (y) = -0.09270 0.45282
# Poissons Ratio (z) = 0.44617 0.33853
#
# Static dielectric constant tensor:
#      x y z
#    x 1.937450 0.012010 -0.021260 
#    y 0.012010 1.881490 0.001750 
#    z -0.021260 0.001750 1.960230 
# 
# From -- ./inp_files/16955.got.cif
#   From: 2010.05.17/outbox.cif.g08.bks.cpg/sg2_9_cif.got.tgz:16955.got - 2010.06.03 11:33:40.
