data_PCOD9033915
_publ_section_title
;
Structure prediction by ZEFSAII (Michael W. Deem and Ramdas Pophale) SiO2 
 PCOD9033915
Probable space group: P -1
;
_chemical_formula_sum "Si O2"
_cell_formula_units_Z 16
_cell_length_a 10.705964
_cell_length_b 15.860417
_cell_length_c 14.081265
_cell_angle_alpha 137.389699
_cell_angle_beta 33.899803
_cell_angle_gamma 112.718186
_cell_volume 725.631091
_symmetry_space_group_name_H-M "P -1"
_symmetry_group_IT_number 2
_symmetry_cell_setting 'triclinic'
loop_
_space_group_symop_operation_xyz
x,y,z
-x,-y,-z
loop_
_atom_site_type_symbol
_atom_site_label
_atom_site_fract_x
_atom_site_fract_y
_atom_site_fract_z
Si Si1 0.427993 0.854432 0.576259
Si Si2 0.913838 0.101116 0.991415
Si Si3 0.417109 0.372106 0.854604
Si Si4 0.268593 0.973866 0.150198
Si Si5 0.488601 0.663438 0.859997
Si Si6 0.948543 0.384226 0.985435
Si Si7 0.104422 0.601628 0.757838
Si Si8 0.260086 0.693865 0.216638
O O1 0.270065 0.907030 0.819078
O O2 0.450913 0.707961 0.395518
O O3 0.750958 0.781914 0.325606
O O4 0.233962 0.984981 0.728919
O O5 0.843278 0.269840 0.179212
O O6 0.843905 0.062859 0.902647
O O7 0.648133 0.317887 0.742554
O O8 0.226448 0.556609 0.116081
O O9 0.221866 0.325347 0.974951
O O10 0.399618 0.828215 0.016349
O O11 0.009445 0.134886 0.491173
O O12 0.500000 0.000000 0.000000
O O13 0.746244 0.528633 0.524396
O O14 0.503281 0.652061 0.955098
O O15 0.243814 0.646597 0.974967
O O16 0.000000 0.500000 0.000000
O O17 0.812497 0.456394 0.233893
#
# Coordination Sequence:
#
# PCOD9033915 Si02
#       8
#     2   2   2   2   2   2   2   2
#     4  10  23  42  67 101 124 173 213 277 331 377
#     4  11  23  44  68  97 133 165 222 276 326 391
#     4  10  22  44  70  92 131 171 219 275 324 391
#     4  12  27  45  66  93 138 178 215 269 328 398
#     4  12  25  43  66  97 134 172 223 269 323 397
#     4  11  23  38  69 100 130 163 212 271 335 386
#     4  11  23  42  68  99 127 168 220 280 330 375
#     4  11  24  45  65  94 134 177 221 262 327 395
#
# _framework density 22.049769999999999
#
# number of rings (size 3 to 8) (size 9 to 14) (size 15 to 20)
#    0.000    1.000    2.500    4.500    3.500    3.500 
#    4.500    0.000    0.000    0.000    0.000    0.000 
#    0.000    0.000    0.000    0.000    0.000    0.000 
#
# Total GULP energy -89423.073420 kJ/mol
# GULP energy per Si atom -5588.942089 kJ/mol
# Density = 2.199958 g / cm^3
# Si number density = 22.049770 Si / 1000 Ang^3
#
#
#
# Elastic Constant Matrix: (Units=GPa)
#
#
# Indices 1 2 3 4 5 6 
#
# 1 27.3470 -9.5387 -10.9170 -1.8785 6.4697 -9.8474
# 2 -9.5387 77.6128 0.5437 8.3749 -2.3963 -0.5764
# 3 -10.9170 0.5437 96.1425 5.8484 4.9774 -7.4293
# 4 -1.8785 8.3749 5.8484 34.0532 0.4268 5.5915
# 5 6.4697 -2.3963 4.9774 0.4268 33.4987 -5.6032
# 6 -9.8474 -0.5764 -7.4293 5.5915 -5.6032 22.3822
#
#
#
# Elastic Compliance Matrix: (Units=1/GPa)
#
#
# Indices 1 2 3 4 5 6 
#
# 1 0.052941 0.006907 0.008574 -0.004396 -0.006641 0.025751
# 2 0.006907 0.014222 0.001323 -0.004166 0.000373 0.004978
# 3 0.008574 0.001323 0.012305 -0.003290 -0.001973 0.008218
# 4 -0.004396 -0.004166 -0.003290 0.032637 -0.001319 -0.011617
# 5 -0.006641 0.000373 -0.001973 -0.001319 0.032281 0.004844
# 6 0.025751 0.004978 0.008218 -0.011617 0.004844 0.062979
#
#
# Mechanical properties :
#
#
# Convention : Reuss Voigt Hill
#
# Bulk Modulus (GPa) = 8.84379 17.91981 13.38180
# Shear Modulus (GPa) = 23.64628 32.72111 28.18370
#
# Velocity S-wave (km/s) = 3.27831 3.85641 3.57905
# Velocity P-wave (km/s) = 4.28361 5.28903 4.81265
#
# Compressibility (1/GPa) = 0.11307371
#
# Stress axis : x y z
#
# Youngs Moduli (GPa) = 18.88903 70.31322 81.27021
#
# Poissons Ratio (x) = -0.48565 -0.69677
# Poissons Ratio (y) = -0.13047 -0.10749
# Poissons Ratio (z) = -0.16195 -0.09300
#
# Static dielectric constant tensor:
#      x y z
#    x 1.836030 -0.021280 0.002300 
#    y -0.021280 1.788220 0.005940 
#    z 0.002300 0.005940 1.831440 
# 
# From -- ./inp_files/455383.got.cif
#   From: 2010.05.17/outbox.cif.g08.bks.cpg/sg2_228_cif.got.tgz:455383.got - 2010.06.03 11:33:40.
