data_PCOD9033758
_publ_section_title
;
Structure prediction by ZEFSAII (Michael W. Deem and Ramdas Pophale) SiO2 
 PCOD9033758
Probable space group: P -1
;
_chemical_formula_sum "Si O2"
_cell_formula_units_Z 12
_cell_length_a 9.367057
_cell_length_b 9.569575
_cell_length_c 11.379402
_cell_angle_alpha 125.780644
_cell_angle_beta 69.109981
_cell_angle_gamma 143.690039
_cell_volume 475.874200
_symmetry_space_group_name_H-M "P -1"
_symmetry_group_IT_number 2
_symmetry_cell_setting 'triclinic'
loop_
_space_group_symop_operation_xyz
x,y,z
-x,-y,-z
loop_
_atom_site_type_symbol
_atom_site_label
_atom_site_fract_x
_atom_site_fract_y
_atom_site_fract_z
Si Si1 0.759891 0.911301 0.524606
Si Si2 0.368416 0.659821 0.171507
Si Si3 0.520722 0.221123 0.076642
Si Si4 0.139487 0.803190 0.601003
Si Si5 0.711127 0.654624 0.745874
Si Si6 0.032961 0.626636 0.177492
O O1 0.766347 0.043499 0.700936
O O2 0.810686 0.089005 0.491345
O O3 0.499431 0.590620 0.407943
O O4 0.000000 0.000000 0.500000
O O5 0.359142 0.491161 0.178851
O O6 0.113444 0.540757 0.194741
O O7 0.422657 0.684822 0.030150
O O8 0.596812 0.976520 0.305507
O O9 0.298273 0.149117 0.140468
O O10 0.770675 0.484936 0.205191
O O11 0.500000 0.000000 0.000000
O O12 0.971571 0.804274 0.707681
O O13 0.000000 0.500000 0.500000
O O14 0.000000 0.500000 0.000000
#
# Coordination Sequence:
#
# PCOD9033758 Si02
#       6
#     2   2   2   2   2   2
#     4  11  23  43  71 100 137 178 232 284 348 407
#     4  10  24  44  69  97 139 186 229 281 348 412
#     4  11  25  43  69 105 137 185 234 284 352 409
#     4  11  25  41  70 103 137 179 233 284 347 412
#     4  11  24  46  70 100 140 183 231 291 343 412
#     4  10  22  44  69  97 141 180 225 285 343 408
#
# _framework density 25.216750000000001
#
# number of rings (size 3 to 8) (size 9 to 14) (size 15 to 20)
#    0.000    1.333    1.667    2.500    4.667    6.667 
#    3.000    0.000    0.000    0.000    0.000    0.000 
#    0.000    0.000    0.000    0.000    0.000    0.000 
#
# Total GULP energy -67109.125879 kJ/mol
# GULP energy per Si atom -5592.427157 kJ/mol
# Density = 2.515936 g / cm^3
# Si number density = 25.216750 Si / 1000 Ang^3
#
#
#
# Elastic Constant Matrix: (Units=GPa)
#
#
# Indices 1 2 3 4 5 6 
#
# 1 136.1637 6.3954 67.9337 -10.5063 8.5786 -0.1092
# 2 6.3954 58.1632 21.8923 -16.8562 6.3228 -11.4715
# 3 67.9337 21.8923 99.7549 0.3937 -5.6489 -14.0541
# 4 -10.5063 -16.8562 0.3937 25.8727 8.3240 -2.4040
# 5 8.5786 6.3228 -5.6489 8.3240 50.2836 4.1597
# 6 -0.1092 -11.4715 -14.0541 -2.4040 4.1597 24.1315
#
#
#
# Elastic Compliance Matrix: (Units=1/GPa)
#
#
# Indices 1 2 3 4 5 6 
#
# 1 0.014354 0.007096 -0.011914 0.012685 -0.006690 -0.001084
# 2 0.007096 0.033808 -0.010997 0.030655 -0.013012 0.014996
# 3 -0.011914 -0.010997 0.021696 -0.014440 0.007866 0.004560
# 4 0.012685 0.030655 -0.014440 0.072343 -0.021027 0.017052
# 5 -0.006690 -0.013012 0.007866 -0.021027 0.027733 -0.008510
# 6 -0.001084 0.014996 0.004560 0.017052 -0.008510 0.054385
#
#
# Mechanical properties :
#
#
# Convention : Reuss Voigt Hill
#
# Bulk Modulus (GPa) = 26.15876 54.05828 40.10852
# Shear Modulus (GPa) = 18.60862 33.24826 25.92844
#
# Velocity S-wave (km/s) = 2.71946 3.63505 3.21007
# Velocity P-wave (km/s) = 4.50075 6.25317 5.44788
#
# Compressibility (1/GPa) = 0.03822811
#
# Stress axis : x y z
#
# Youngs Moduli (GPa) = 69.66563 29.57870 46.09057
#
# Poissons Ratio (x) = -0.20988 0.54913
# Poissons Ratio (y) = -0.49432 0.50685
# Poissons Ratio (z) = 0.83001 0.32527
#
# Static dielectric constant tensor:
#      x y z
#    x 1.973250 0.000850 0.005720 
#    y 0.000850 2.096590 -0.038200 
#    z 0.005720 -0.038200 2.086070 
# 
# From -- ./inp_files/188799.got.cif
#   From: 2010.05.17/outbox.cif.g08.bks.cpg/sg2_95_cif.got.tgz:188799.got - 2010.06.03 11:33:40.
