data_PCOD9033665
_publ_section_title
;
Structure prediction by ZEFSAII (Michael W. Deem and Ramdas Pophale) SiO2 
 PCOD9033665
Probable space group: P -1
;
_chemical_formula_sum "Si O2"
_cell_formula_units_Z 14
_cell_length_a 9.140701
_cell_length_b 12.330742
_cell_length_c 9.547550
_cell_angle_alpha 115.646362
_cell_angle_beta 102.980111
_cell_angle_gamma 35.114650
_cell_volume 540.355020
_symmetry_space_group_name_H-M "P -1"
_symmetry_group_IT_number 2
_symmetry_cell_setting 'triclinic'
loop_
_space_group_symop_operation_xyz
x,y,z
-x,-y,-z
loop_
_atom_site_type_symbol
_atom_site_label
_atom_site_fract_x
_atom_site_fract_y
_atom_site_fract_z
Si Si1 0.747812 0.519364 0.259461
Si Si2 0.158165 0.299497 0.014281
Si Si3 0.455452 0.303305 0.155342
Si Si4 0.755724 0.421621 0.503494
Si Si5 0.327515 0.987481 0.440715
Si Si6 0.783239 0.222832 0.990238
Si Si7 0.132612 0.054247 0.742793
O O1 0.718251 0.534042 0.427676
O O2 0.753946 0.377128 0.129633
O O3 0.023002 0.385054 0.184514
O O4 0.529269 0.757278 0.294702
O O5 0.433465 0.181458 0.032057
O O6 0.156165 0.174351 0.870569
O O7 0.000000 0.500000 0.000000
O O8 0.225394 0.521796 0.311879
O O9 0.519088 0.335102 0.048574
O O10 0.667331 0.158523 0.243869
O O11 0.500000 0.500000 0.500000
O O12 0.052150 0.177761 0.403883
O O13 0.214437 0.007624 0.574439
O O14 0.500000 0.000000 0.500000
O O15 0.859739 0.184052 0.821944
O O16 0.000000 0.000000 0.000000
#
# Coordination Sequence:
#
# PCOD9033665 Si02
#       7
#     2   2   2   2   2   2   2
#     4  11  24  48  74 104 147 194 237 302 371 428
#     4  11  24  44  66 103 141 187 247 298 360 436
#     4  11  21  43  72  99 142 189 242 304 359 433
#     4  12  26  47  73 109 149 188 247 302 368 440
#     4  12  27  47  76 111 147 194 248 304 361 441
#     4   9  21  44  72 103 138 188 242 296 364 433
#     4  10  22  44  69 103 141 185 245 298 368 424
#
# _framework density 25.908892999999999
#
# number of rings (size 3 to 8) (size 9 to 14) (size 15 to 20)
#    0.000    1.143    2.857    3.000    2.000    1.714 
#   10.286    2.143    0.000    0.000    0.000    0.000 
#    0.000    0.000    0.000    0.000    0.000    0.000 
#
# Total GULP energy -78214.888023 kJ/mol
# GULP energy per Si atom -5586.777716 kJ/mol
# Density = 2.584992 g / cm^3
# Si number density = 25.908893 Si / 1000 Ang^3
#
#
#
# Elastic Constant Matrix: (Units=GPa)
#
#
# Indices 1 2 3 4 5 6 
#
# 1 129.6631 3.0448 26.7496 -8.0365 3.3914 21.6162
# 2 3.0448 113.4452 2.5943 23.0546 7.9079 5.7648
# 3 26.7496 2.5943 100.0458 3.2429 -6.3115 18.3489
# 4 -8.0365 23.0546 3.2429 48.9240 21.1132 -0.9848
# 5 3.3914 7.9079 -6.3115 21.1132 53.6647 -6.0241
# 6 21.6162 5.7648 18.3489 -0.9848 -6.0241 32.6138
#
#
#
# Elastic Compliance Matrix: (Units=1/GPa)
#
#
# Indices 1 2 3 4 5 6 
#
# 1 0.009210 -0.000312 -0.001693 0.002703 -0.002411 -0.005460
# 2 -0.000312 0.009883 0.000341 -0.004910 0.000331 -0.001819
# 3 -0.001693 0.000341 0.011561 -0.002010 0.001623 -0.005204
# 4 0.002703 -0.004910 -0.002010 0.027970 -0.010794 -0.000942
# 5 -0.002411 0.000331 0.001623 -0.010794 0.023700 0.004678
# 6 -0.005460 -0.001819 -0.005204 -0.000942 0.004678 0.038366
#
#
# Mechanical properties :
#
#
# Convention : Reuss Voigt Hill
#
# Bulk Modulus (GPa) = 36.59575 45.32573 40.96074
# Shear Modulus (GPa) = 37.55837 47.75821 42.65829
#
# Velocity S-wave (km/s) = 3.81153 4.29804 4.06208
# Velocity P-wave (km/s) = 5.79015 6.49331 6.15179
#
# Compressibility (1/GPa) = 0.02732558
#
# Stress axis : x y z
#
# Youngs Moduli (GPa) = 108.58087 101.18728 86.49712
#
# Poissons Ratio (x) = 0.03159 0.14640
# Poissons Ratio (y) = 0.03390 -0.02948
# Poissons Ratio (z) = 0.18378 -0.03449
#
# Static dielectric constant tensor:
#      x y z
#    x 2.076290 -0.082280 -0.021850 
#    y -0.082280 2.186990 0.078160 
#    z -0.021850 0.078160 2.108970 
# 
# From -- ./inp_files/388226.got.cif
#   From: 2010.05.17/outbox.cif.g08.bks.cpg/sg2_195_cif.got.tgz:388226.got - 2010.06.03 11:33:40.
