data_PCOD9033859
_publ_section_title
;
Structure prediction by ZEFSAII (Michael W. Deem and Ramdas Pophale) SiO2 
 PCOD9033859
Probable space group: P -1
;
_chemical_formula_sum "Si O2"
_cell_formula_units_Z 14
_cell_length_a 10.811556
_cell_length_b 11.137548
_cell_length_c 8.875549
_cell_angle_alpha 56.758761
_cell_angle_beta 84.606575
_cell_angle_gamma 45.809451
_cell_volume 562.117083
_symmetry_space_group_name_H-M "P -1"
_symmetry_group_IT_number 2
_symmetry_cell_setting 'triclinic'
loop_
_space_group_symop_operation_xyz
x,y,z
-x,-y,-z
loop_
_atom_site_type_symbol
_atom_site_label
_atom_site_fract_x
_atom_site_fract_y
_atom_site_fract_z
Si Si1 0.120270 0.028546 0.403532
Si Si2 0.119935 0.370511 0.920935
Si Si3 0.773268 0.330299 0.033553
Si Si4 0.175958 0.055112 0.704365
Si Si5 0.554305 0.684749 0.066065
Si Si6 0.170729 0.513187 0.351805
Si Si7 0.566720 0.168687 0.701698
O O1 0.974997 0.209452 0.165410
O O2 0.160339 0.088053 0.504313
O O3 0.324938 0.825484 0.434835
O O4 0.000000 0.000000 0.500000
O O5 0.283210 0.096756 0.100089
O O6 0.255849 0.388550 0.872580
O O7 0.000000 0.500000 0.000000
O O8 0.961038 0.480674 0.732491
O O9 0.803638 0.135083 0.138416
O O10 0.618447 0.505900 0.062436
O O11 0.749429 0.441079 0.808764
O O12 0.379540 0.929647 0.836203
O O13 0.984378 0.279078 0.657963
O O14 0.474568 0.712788 0.218979
O O15 0.363883 0.291729 0.570856
#
# Coordination Sequence:
#
# PCOD9033859 Si02
#       7
#     2   2   2   2   2   2   2
#     4  10  22  44  70 103 146 186 237 299 354 428
#     4  12  26  50  74 103 151 188 244 303 355 432
#     4  11  22  46  69 105 151 189 239 304 358 426
#     4  11  24  43  73 104 149 189 245 301 361 426
#     4  12  24  46  72 106 146 194 242 297 360 427
#     4  12  25  46  74 111 143 193 240 298 368 424
#     4  12  26  46  75 111 143 191 246 293 367 433
#
# _framework density 24.905843000000001
#
# number of rings (size 3 to 8) (size 9 to 14) (size 15 to 20)
#    0.000    0.571    4.286    3.000    0.000    3.429 
#    2.571    6.429    0.000    0.000    0.000    0.000 
#    0.000    0.000    0.000    0.000    0.000    0.000 
#
# Total GULP energy -78374.708105 kJ/mol
# GULP energy per Si atom -5598.193436 kJ/mol
# Density = 2.484916 g / cm^3
# Si number density = 24.905843 Si / 1000 Ang^3
#
#
#
# Elastic Constant Matrix: (Units=GPa)
#
#
# Indices 1 2 3 4 5 6 
#
# 1 94.8965 59.9812 26.0009 -1.0452 17.1669 -4.5928
# 2 59.9812 203.7312 45.4992 27.1027 6.5052 -21.5690
# 3 26.0009 45.4992 106.9949 4.5791 44.5230 -8.2285
# 4 -1.0452 27.1027 4.5791 52.7665 -8.3499 0.7190
# 5 17.1669 6.5052 44.5230 -8.3499 54.1353 -14.0017
# 6 -4.5928 -21.5690 -8.2285 0.7190 -14.0017 29.0087
#
#
#
# Elastic Compliance Matrix: (Units=1/GPa)
#
#
# Indices 1 2 3 4 5 6 
#
# 1 0.014151 -0.004679 0.000119 0.001990 -0.004617 -0.003482
# 2 -0.004679 0.008070 -0.003588 -0.003279 0.004659 0.006572
# 3 0.000119 -0.003588 0.016786 -0.001920 -0.015025 -0.005092
# 4 0.001990 -0.003279 -0.001920 0.021550 0.004385 -0.001085
# 5 -0.004617 0.004659 -0.015025 0.004385 0.036549 0.016004
# 6 -0.003482 0.006572 -0.005092 -0.001085 0.016004 0.045115
#
#
# Mechanical properties :
#
#
# Convention : Reuss Voigt Hill
#
# Bulk Modulus (GPa) = 44.02939 74.28726 59.15832
# Shear Modulus (GPa) = 30.10461 45.45819 37.78140
#
# Velocity S-wave (km/s) = 3.48046 4.27687 3.89905
# Velocity P-wave (km/s) = 5.81964 7.36755 6.63886
#
# Compressibility (1/GPa) = 0.02271210
#
# Stress axis : x y z
#
# Youngs Moduli (GPa) = 70.66565 123.90898 59.57414
#
# Poissons Ratio (x) = 0.57975 -0.00709
# Poissons Ratio (y) = 0.33064 0.21374
# Poissons Ratio (z) = -0.00841 0.44455
#
# Static dielectric constant tensor:
#      x y z
#    x 2.023120 0.003840 -0.021990 
#    y 0.003840 1.941130 -0.024860 
#    z -0.021990 -0.024860 2.004220 
# 
# From -- ./inp_files/257551.got.cif
#   From: 2010.05.17/outbox.cif.g08.bks.cpg/sg2_129_cif.got.tgz:257551.got - 2010.06.03 11:33:40.
