data_PCOD9033991
_publ_section_title
;
Structure prediction by ZEFSAII (Michael W. Deem and Ramdas Pophale) SiO2 
 PCOD9033991
Probable space group: P -1
;
_chemical_formula_sum "Si O2"
_cell_formula_units_Z 16
_cell_length_a 10.306036
_cell_length_b 8.254144
_cell_length_c 11.106532
_cell_angle_alpha 80.172206
_cell_angle_beta 53.715867
_cell_angle_gamma 63.607315
_cell_volume 676.611489
_symmetry_space_group_name_H-M "P -1"
_symmetry_group_IT_number 2
_symmetry_cell_setting 'triclinic'
loop_
_space_group_symop_operation_xyz
x,y,z
-x,-y,-z
loop_
_atom_site_type_symbol
_atom_site_label
_atom_site_fract_x
_atom_site_fract_y
_atom_site_fract_z
Si Si1 0.478519 0.757234 0.767519
Si Si2 0.476390 0.104977 0.626176
Si Si3 0.192214 0.448100 0.836018
Si Si4 0.952734 0.066278 0.653277
Si Si5 0.721836 0.692783 0.955840
Si Si6 0.135657 0.520240 0.329354
Si Si7 0.333455 0.931456 0.039284
Si Si8 0.275830 0.753759 0.636715
O O1 0.662247 0.583031 0.716733
O O2 0.388109 0.746067 0.694875
O O3 0.522318 0.936118 0.713959
O O4 0.326230 0.810453 0.946755
O O5 0.277234 0.256984 0.741914
O O6 0.596507 0.218809 0.540280
O O7 0.500000 0.000000 0.500000
O O8 0.218118 0.590558 0.713745
O O9 0.307838 0.412987 0.901260
O O10 0.000000 0.500000 0.000000
O O11 0.931932 0.265614 0.665886
O O12 0.762132 0.075368 0.785974
O O13 0.000000 0.000000 0.500000
O O14 0.093915 0.928951 0.686438
O O15 0.855022 0.566821 0.797159
O O16 0.759713 0.855558 0.969646
O O17 0.542137 0.820051 0.968177
O O18 0.000000 0.500000 0.500000
#
# Coordination Sequence:
#
# PCOD9033991 Si02
#       8
#     2   2   2   2   2   2   2   2
#     4  10  23  45  76 105 139 188 238 300 364 430
#     4  10  23  46  69 103 143 189 233 296 371 434
#     4  12  26  44  72 107 148 189 249 304 365 436
#     4  12  28  44  69 100 145 186 242 297 364 428
#     4  10  23  41  71  98 136 190 229 292 361 426
#     4  11  25  45  71 104 142 188 243 294 358 440
#     4  10  22  44  70  98 141 181 237 287 361 429
#     4  11  27  44  73 107 143 192 240 302 366 428
#
# _framework density 23.647247
#
# number of rings (size 3 to 8) (size 9 to 14) (size 15 to 20)
#    0.000    1.250    1.250    2.625    5.250    7.500 
#    0.000    0.000    0.000    0.000    0.000    0.000 
#    0.000    0.000    0.000    0.000    0.000    0.000 
#
# Total GULP energy -89207.694231 kJ/mol
# GULP energy per Si atom -5575.480889 kJ/mol
# Density = 2.359342 g / cm^3
# Si number density = 23.647247 Si / 1000 Ang^3
#
#
#
# Elastic Constant Matrix: (Units=GPa)
#
#
# Indices 1 2 3 4 5 6 
#
# 1 43.5604 16.7408 8.1893 8.4251 5.2994 -11.1590
# 2 16.7408 157.8589 42.2887 1.3976 2.9177 -6.3771
# 3 8.1893 42.2887 141.5739 19.9678 3.0197 7.0931
# 4 8.4251 1.3976 19.9678 46.1947 3.0515 2.0386
# 5 5.2994 2.9177 3.0197 3.0515 32.5222 -6.3680
# 6 -11.1590 -6.3771 7.0931 2.0386 -6.3680 25.3768
#
#
#
# Elastic Compliance Matrix: (Units=1/GPa)
#
#
# Indices 1 2 3 4 5 6 
#
# 1 0.028250 -0.002212 -0.000821 -0.005170 -0.001466 0.012144
# 2 -0.002212 0.007219 -0.002255 0.001091 0.000095 0.001408
# 3 -0.000821 -0.002255 0.008417 -0.003227 -0.000772 -0.003215
# 4 -0.005170 0.001091 -0.003227 0.024235 -0.001920 -0.003526
# 5 -0.001466 0.000095 -0.000772 -0.001920 0.032793 0.007978
# 6 0.012144 0.001408 -0.003215 -0.003526 0.007978 0.048284
#
#
# Mechanical properties :
#
#
# Convention : Reuss Voigt Hill
#
# Bulk Modulus (GPa) = 30.02160 53.04786 41.53473
# Shear Modulus (GPa) = 29.26065 39.20371 34.23218
#
# Velocity S-wave (km/s) = 3.52146 4.07609 3.80889
# Velocity P-wave (km/s) = 5.40901 6.68090 6.07831
#
# Compressibility (1/GPa) = 0.03330935
#
# Stress axis : x y z
#
# Youngs Moduli (GPa) = 35.39773 138.52552 118.80393
#
# Poissons Ratio (x) = 0.30649 0.09757
# Poissons Ratio (y) = 0.07832 0.26788
# Poissons Ratio (z) = 0.02907 0.31235
#
# Static dielectric constant tensor:
#      x y z
#    x 2.040920 0.096540 -0.058580 
#    y 0.096540 1.478070 0.312940 
#    z -0.058580 0.312940 1.713780 
# 
# From -- ./inp_files/419285.got.cif
#   From: 2010.05.17/outbox.cif.g08.bks.cpg/sg2_210_cif.got.tgz:419285.got - 2010.06.03 11:33:40.
