data_PCOD9033418
_publ_section_title
;
Structure prediction by ZEFSAII (Michael W. Deem and Ramdas Pophale) SiO2 
 PCOD9033418
Probable space group: P -1
;
_chemical_formula_sum "Si O2"
_cell_formula_units_Z 14
_cell_length_a 16.120563
_cell_length_b 7.300091
_cell_length_c 9.988535
_cell_angle_alpha 68.230730
_cell_angle_beta 146.007157
_cell_angle_gamma 99.940197
_cell_volume 589.373146
_symmetry_space_group_name_H-M "P -1"
_symmetry_group_IT_number 2
_symmetry_cell_setting 'triclinic'
loop_
_space_group_symop_operation_xyz
x,y,z
-x,-y,-z
loop_
_atom_site_type_symbol
_atom_site_label
_atom_site_fract_x
_atom_site_fract_y
_atom_site_fract_z
Si Si1 0.108434 0.320874 0.774775
Si Si2 0.849225 0.121812 0.073289
Si Si3 0.363322 0.889461 0.981497
Si Si4 0.165990 0.202727 0.413369
Si Si5 0.425323 0.273232 0.095912
Si Si6 0.856836 0.919541 0.874318
Si Si7 0.365363 0.465379 0.683349
O O1 0.000000 0.500000 0.500000
O O2 0.083045 0.115306 0.726732
O O3 0.287351 0.317045 0.004638
O O4 0.079602 0.289529 0.899916
O O5 0.731793 0.207129 0.011681
O O6 0.987392 0.221449 0.200571
O O7 0.777944 0.071340 0.849256
O O8 0.259741 0.033835 0.690919
O O9 0.493079 0.714701 0.133743
O O10 0.436658 0.046792 0.119299
O O11 0.211478 0.122780 0.345843
O O12 0.216400 0.412506 0.438795
O O13 0.582375 0.329492 0.325966
O O14 0.357849 0.427488 0.841629
O O15 0.000000 0.000000 0.000000
#
# Coordination Sequence:
#
# PCOD9033418 Si02
#       7
#     2   2   2   2   2   2   2
#     4   9  18  33  58  85 112 156 192 237 293 347
#     4   8  18  33  56  84 115 147 195 248 288 343
#     4  10  19  35  59  85 112 154 204 239 284 351
#     4  10  17  32  55  87 113 152 194 243 295 342
#     4   9  19  36  52  84 119 149 195 246 286 338
#     4   8  17  33  55  85 120 152 188 244 304 343
#     4  10  21  34  58  84 119 157 197 240 287 355
#
# _framework density 23.754052000000001
#
# number of rings (size 3 to 8) (size 9 to 14) (size 15 to 20)
#    0.857    2.000    0.000    2.143    2.000    0.000 
#    0.000    1.429    0.000    7.714    0.000    0.000 
#    0.000    0.000    0.000    0.000    0.000    0.000 
#
# Total GULP energy -78082.095033 kJ/mol
# GULP energy per Si atom -5577.292502 kJ/mol
# Density = 2.369999 g / cm^3
# Si number density = 23.754052 Si / 1000 Ang^3
#
#
#
# Elastic Constant Matrix: (Units=GPa)
#
#
# Indices 1 2 3 4 5 6 
#
# 1 148.2516 38.9761 47.4188 2.2582 -19.8909 29.2211
# 2 38.9761 91.7590 47.5726 29.6776 1.7745 15.4729
# 3 47.4188 47.5726 82.4671 14.8935 -16.2894 16.4523
# 4 2.2582 29.6776 14.8935 39.1340 6.6412 6.3448
# 5 -19.8909 1.7745 -16.2894 6.6412 24.8292 4.5593
# 6 29.2211 15.4729 16.4523 6.3448 4.5593 33.7481
#
#
#
# Elastic Compliance Matrix: (Units=1/GPa)
#
#
# Indices 1 2 3 4 5 6 
#
# 1 0.011051 -0.003555 -0.001017 0.002319 0.009502 -0.009162
# 2 -0.003555 0.021019 -0.010108 -0.010709 -0.008396 0.001517
# 3 -0.001017 -0.010108 0.024407 -0.003340 0.018324 -0.008231
# 4 0.002319 -0.010709 -0.003340 0.036542 -0.009140 -0.001105
# 5 0.009502 -0.008396 0.018324 -0.009140 0.066738 -0.020609
# 6 -0.009162 0.001517 -0.008231 -0.001105 -0.020609 0.043873
#
#
# Mechanical properties :
#
#
# Convention : Reuss Voigt Hill
#
# Bulk Modulus (GPa) = 36.87920 65.60143 51.24032
# Shear Modulus (GPa) = 20.65869 32.10959 26.38414
#
# Velocity S-wave (km/s) = 2.95225 3.68061 3.33636
# Velocity P-wave (km/s) = 5.21346 6.76309 6.03819
#
# Compressibility (1/GPa) = 0.02711556
#
# Stress axis : x y z
#
# Youngs Moduli (GPa) = 90.49114 47.57634 40.97238
#
# Poissons Ratio (x) = 0.16915 0.04169
# Poissons Ratio (y) = 0.32172 0.41414
# Poissons Ratio (z) = 0.09207 0.48089
#
# Static dielectric constant tensor:
#      x y z
#    x 1.885730 -0.018840 0.051470 
#    y -0.018840 1.947690 0.037850 
#    z 0.051470 0.037850 1.848850 
# 
# From -- ./inp_files/295075.got.cif
#   From: 2010.05.17/outbox.cif.g08.bks.cpg/sg2_148_cif.got.tgz:295075.got - 2010.06.03 11:33:40.
