data_PCOD9033074
_publ_section_title
;
Structure prediction by ZEFSAII (Michael W. Deem and Ramdas Pophale) SiO2 
 PCOD9033074
Probable space group: P -1
;
_chemical_formula_sum "Si O2"
_cell_formula_units_Z 14
_cell_length_a 9.301092
_cell_length_b 10.820591
_cell_length_c 14.534804
_cell_angle_alpha 147.114604
_cell_angle_beta 54.884534
_cell_angle_gamma 116.619661
_cell_volume 647.680914
_symmetry_space_group_name_H-M "P -1"
_symmetry_group_IT_number 2
_symmetry_cell_setting 'triclinic'
loop_
_space_group_symop_operation_xyz
x,y,z
-x,-y,-z
loop_
_atom_site_type_symbol
_atom_site_label
_atom_site_fract_x
_atom_site_fract_y
_atom_site_fract_z
Si Si1 0.467424 0.987943 0.238176
Si Si2 0.724653 0.655275 0.037835
Si Si3 0.664820 0.385319 0.492338
Si Si4 0.018179 0.970308 0.863083
Si Si5 0.678709 0.914745 0.830963
Si Si6 0.169745 0.846295 0.375153
Si Si7 0.565530 0.249023 0.641618
O O1 0.563214 0.223524 0.358375
O O2 0.343104 0.957107 0.177963
O O3 0.613017 0.776683 0.069408
O O4 0.334293 0.982139 0.367838
O O5 0.578884 0.643322 0.164687
O O6 0.876369 0.830177 0.098375
O O7 0.813706 0.403929 0.832579
O O8 0.859749 0.260330 0.343353
O O9 0.679047 0.650289 0.636628
O O10 0.572180 0.366740 0.614173
O O11 0.835750 0.958224 0.869113
O O12 0.000000 0.000000 0.000000
O O13 0.500000 0.000000 0.000000
O O14 0.231079 0.782746 0.416806
O O15 0.000000 0.000000 0.500000
O O16 0.500000 0.000000 0.500000
#
# Coordination Sequence:
#
# PCOD9033074 Si02
#       7
#     2   2   2   2   2   2   2
#     4  10  22  44  65  95 135 170 225 270 331 388
#     4  10  23  45  70  94 135 180 217 274 333 398
#     4  11  24  44  71  97 133 181 220 275 331 399
#     4  11  25  46  67  97 135 179 223 271 331 396
#     4  12  27  41  67 102 132 178 223 273 329 396
#     4  11  25  39  67 101 135 171 215 279 327 399
#     4  11  20  43  73  96 130 174 224 268 340 394
#
# _framework density 21.615583000000001
#
# number of rings (size 3 to 8) (size 9 to 14) (size 15 to 20)
#    0.000    1.143    4.286    4.286    8.000    2.286 
#    0.000    1.429    0.000    0.000    0.000    0.000 
#    0.000    0.000    0.000    0.000    0.000    0.000 
#
# Total GULP energy -78063.226280 kJ/mol
# GULP energy per Si atom -5575.944734 kJ/mol
# Density = 2.156638 g / cm^3
# Si number density = 21.615583 Si / 1000 Ang^3
#
#
#
# Elastic Constant Matrix: (Units=GPa)
#
#
# Indices 1 2 3 4 5 6 
#
# 1 173.8358 37.8873 59.7172 4.0277 -13.8843 3.6363
# 2 37.8873 52.9871 25.3643 0.7336 -5.0316 -1.3171
# 3 59.7172 25.3643 128.5283 25.0689 -21.6922 -1.4460
# 4 4.0277 0.7336 25.0689 31.9123 -7.8843 9.4641
# 5 -13.8843 -5.0316 -21.6922 -7.8843 32.5834 -11.3874
# 6 3.6363 -1.3171 -1.4460 9.4641 -11.3874 34.0479
#
#
#
# Elastic Compliance Matrix: (Units=1/GPa)
#
#
# Indices 1 2 3 4 5 6 
#
# 1 0.007742 -0.004044 -0.003145 0.002182 0.000573 -0.001532
# 2 -0.004044 0.023270 -0.003037 0.002294 0.000681 0.000793
# 3 -0.003145 -0.003037 0.012878 -0.009738 0.006365 0.005601
# 4 0.002182 0.002294 -0.009738 0.042448 0.000854 -0.012071
# 5 0.000573 0.000681 0.006365 0.000854 0.040180 0.013436
# 6 -0.001532 0.000793 0.005601 -0.012071 0.013436 0.037652
#
#
# Mechanical properties :
#
#
# Convention : Reuss Voigt Hill
#
# Bulk Modulus (GPa) = 42.66631 66.80988 54.73810
# Shear Modulus (GPa) = 25.98298 35.20088 30.59193
#
# Velocity S-wave (km/s) = 3.47082 4.03984 3.76609
# Velocity P-wave (km/s) = 5.98696 7.26194 6.65505
#
# Compressibility (1/GPa) = 0.02343770
#
# Stress axis : x y z
#
# Youngs Moduli (GPa) = 129.17291 42.97311 77.65438
#
# Poissons Ratio (x) = 0.17377 0.24422
# Poissons Ratio (y) = 0.52235 0.23584
# Poissons Ratio (z) = 0.40625 0.13051
#
# Static dielectric constant tensor:
#      x y z
#    x 2.763530 -0.828040 0.917840 
#    y -0.828040 2.510910 -0.780610 
#    z 0.917840 -0.780610 2.625030 
# 
# From -- ./inp_files/188826.got.cif
#   From: 2010.05.17/outbox.cif.g08.bks.cpg/sg2_95_cif.got.tgz:188826.got - 2010.06.03 11:33:40.
