data_PCOD9033287
_publ_section_title
;
Structure prediction by ZEFSAII (Michael W. Deem and Ramdas Pophale) SiO2 
 PCOD9033287
Probable space group: P -1
;
_chemical_formula_sum "Si O2"
_cell_formula_units_Z 16
_cell_length_a 29.956275
_cell_length_b 5.485564
_cell_length_c 24.332717
_cell_angle_alpha 79.144150
_cell_angle_beta 169.420839
_cell_angle_gamma 99.946222
_cell_volume 719.256240
_symmetry_space_group_name_H-M "P -1"
_symmetry_group_IT_number 2
_symmetry_cell_setting 'triclinic'
loop_
_space_group_symop_operation_xyz
x,y,z
-x,-y,-z
loop_
_atom_site_type_symbol
_atom_site_label
_atom_site_fract_x
_atom_site_fract_y
_atom_site_fract_z
Si Si1 0.846791 0.018089 0.258672
Si Si2 0.659424 0.540447 0.746685
Si Si3 0.931795 0.042287 0.069231
Si Si4 0.066866 0.111188 0.749339
Si Si5 0.562338 0.487227 0.849242
Si Si6 0.083249 0.216479 0.129169
Si Si7 0.571302 0.312145 0.752426
Si Si8 0.319811 0.794071 0.628695
O O1 0.997766 0.916586 0.392097
O O2 0.762635 0.297422 0.127375
O O3 0.000000 0.000000 0.500000
O O4 0.590736 0.886265 0.962003
O O5 0.500000 0.500000 0.500000
O O6 0.570173 0.555032 0.701868
O O7 0.804062 0.789559 0.908345
O O8 0.791017 0.264043 0.922932
O O9 0.167600 0.966566 0.393884
O O10 0.975706 0.174536 0.060015
O O11 0.849701 0.215576 0.522098
O O12 0.294180 0.284155 0.010865
O O13 0.183093 0.849888 0.925916
O O14 0.455560 0.380036 0.669281
O O15 0.371119 0.549194 0.663734
O O16 0.372821 0.165037 0.486899
O O17 0.000000 0.500000 0.000000
O O18 0.000000 0.000000 0.000000
#
# Coordination Sequence:
#
# PCOD9033287 Si02
#       8
#     2   2   2   2   2   2   2   2
#     4  10  24  45  69 104 146 181 230 289 360 438
#     4  12  26  44  68  98 141 184 239 304 365 419
#     4  12  25  44  67  99 136 183 244 293 356 436
#     4  10  22  44  67 104 135 182 235 288 356 429
#     4  10  23  42  70  97 134 183 233 289 360 429
#     4  12  27  43  64  95 137 187 241 302 372 430
#     4  11  24  43  67  93 137 181 239 297 357 433
#     4  11  24  42  72 100 139 183 242 292 361 429
#
# _framework density 22.245200000000001
#
# number of rings (size 3 to 8) (size 9 to 14) (size 15 to 20)
#    0.000    1.000    1.250    5.625    7.000    4.500 
#    0.000    1.250    0.000    0.000    0.000    0.000 
#    0.000    0.000    0.000    0.000    0.000    0.000 
#
# Total GULP energy -89197.526870 kJ/mol
# GULP energy per Si atom -5574.845429 kJ/mol
# Density = 2.219457 g / cm^3
# Si number density = 22.245200 Si / 1000 Ang^3
#
#
#
# Elastic Constant Matrix: (Units=GPa)
#
#
# Indices 1 2 3 4 5 6 
#
# 1 174.5314 36.5700 52.7838 -2.9959 1.1928 7.5558
# 2 36.5700 81.1598 29.5925 7.2194 -8.5745 -1.8603
# 3 52.7838 29.5925 85.1879 7.1810 -17.4508 -1.9945
# 4 -2.9959 7.2194 7.1810 24.2911 0.1998 9.6663
# 5 1.1928 -8.5745 -17.4508 0.1998 51.7468 -10.5183
# 6 7.5558 -1.8603 -1.9945 9.6663 -10.5183 32.3659
#
#
#
# Elastic Compliance Matrix: (Units=1/GPa)
#
#
# Indices 1 2 3 4 5 6 
#
# 1 0.008332 -0.002733 -0.005551 0.005619 -0.003615 -0.005297
# 2 -0.002733 0.015348 -0.002538 -0.005724 0.002567 0.003908
# 3 -0.005551 -0.002538 0.018448 -0.008301 0.007420 0.007177
# 4 0.005619 -0.005724 -0.008301 0.054503 -0.008388 -0.021156
# 5 -0.003615 0.002567 0.007420 -0.008388 0.024811 0.012017
# 6 -0.005297 0.003908 0.007177 -0.021156 0.012017 0.043024
#
#
# Mechanical properties :
#
#
# Convention : Reuss Voigt Hill
#
# Bulk Modulus (GPa) = 48.82281 64.30796 56.56539
# Shear Modulus (GPa) = 25.91490 36.47628 31.19559
#
# Velocity S-wave (km/s) = 3.41686 4.05376 3.74886
# Velocity P-wave (km/s) = 6.12877 7.13317 6.64996
#
# Compressibility (1/GPa) = 0.02048223
#
# Stress axis : x y z
#
# Youngs Moduli (GPa) = 120.02347 65.15323 54.20690
#
# Poissons Ratio (x) = 0.17808 0.30092
# Poissons Ratio (y) = 0.32806 0.13759
# Poissons Ratio (z) = 0.66628 0.16538
#
# Static dielectric constant tensor:
#      x y z
#    x 2.123230 -0.196100 0.250090 
#    y -0.196100 1.995470 -0.043080 
#    z 0.250090 -0.043080 1.949000 
# 
# From -- ./inp_files/47293.got.cif
#   From: 2010.05.17/outbox.cif.g08.bks.cpg/sg2_24_cif.got.tgz:47293.got - 2010.06.03 11:33:40.
