data_PCOD9033669
_publ_section_title
;
Structure prediction by ZEFSAII (Michael W. Deem and Ramdas Pophale) SiO2 
 PCOD9033669
Probable space group: P -1
;
_chemical_formula_sum "Si O2"
_cell_formula_units_Z 16
_cell_length_a 5.020001
_cell_length_b 11.641468
_cell_length_c 20.360790
_cell_angle_alpha 30.438200
_cell_angle_beta 85.170253
_cell_angle_gamma 89.351968
_cell_volume 596.225028
_symmetry_space_group_name_H-M "P -1"
_symmetry_group_IT_number 2
_symmetry_cell_setting 'triclinic'
loop_
_space_group_symop_operation_xyz
x,y,z
-x,-y,-z
loop_
_atom_site_type_symbol
_atom_site_label
_atom_site_fract_x
_atom_site_fract_y
_atom_site_fract_z
Si Si1 0.260175 0.652692 0.442441
Si Si2 0.501823 0.997754 0.834295
Si Si3 0.292436 0.787222 0.817199
Si Si4 0.605178 0.771984 0.634187
Si Si5 0.433712 0.381766 0.748642
Si Si6 0.102863 0.755633 0.113502
Si Si7 0.223192 0.408395 0.913141
Si Si8 0.849083 0.975992 0.652634
O O1 0.500000 0.500000 0.500000
O O2 0.289650 0.866401 0.287178
O O3 0.227383 0.767876 0.457718
O O4 0.000000 0.500000 0.500000
O O5 0.414799 0.210231 0.772240
O O6 0.288251 0.863563 0.854867
O O7 0.638529 0.817471 0.963427
O O8 0.187137 0.534444 0.920083
O O9 0.604177 0.821130 0.770899
O O10 0.126909 0.948299 0.696773
O O11 0.612628 0.625497 0.638550
O O12 0.405588 0.595487 0.770942
O O13 0.500000 0.000000 0.500000
O O14 0.842595 0.871530 0.630716
O O15 0.124634 0.399555 0.763561
O O16 0.603129 0.244524 0.864455
O O17 0.049123 0.663794 0.086473
O O18 0.000000 0.000000 0.000000
#
# Coordination Sequence:
#
# PCOD9033669 Si02
#       8
#     2   2   2   2   2   2   2   2
#     4  11  25  46  70 102 141 186 231 287 355 418
#     4  11  24  44  75 108 141 186 237 293 360 419
#     4  10  22  44  69 104 139 182 230 289 355 413
#     4  10  24  46  72 104 143 191 238 288 358 416
#     4  11  25  43  69 106 140 185 236 292 350 421
#     4  11  22  42  67 102 145 183 231 290 353 410
#     4  10  22  45  72 104 145 184 239 296 344 426
#     4  10  22  46  70  98 140 183 238 283 342 427
#
# _framework density 26.835508000000001
#
# number of rings (size 3 to 8) (size 9 to 14) (size 15 to 20)
#    0.000    1.500    1.250    3.000    3.500    3.000 
#    2.250   10.000    0.000    0.000    0.000    0.000 
#    0.000    0.000    0.000    0.000    0.000    0.000 
#
# Total GULP energy -89415.899828 kJ/mol
# GULP energy per Si atom -5588.493739 kJ/mol
# Density = 2.677443 g / cm^3
# Si number density = 26.835508 Si / 1000 Ang^3
#
#
#
# Elastic Constant Matrix: (Units=GPa)
#
#
# Indices 1 2 3 4 5 6 
#
# 1 98.3788 20.8462 24.1840 9.1091 6.9222 9.5990
# 2 20.8462 236.1333 24.4568 -28.6442 -7.0425 14.5366
# 3 24.1840 24.4568 120.2791 -11.2639 10.2428 -4.1653
# 4 9.1091 -28.6442 -11.2639 60.3440 -2.6232 6.8025
# 5 6.9222 -7.0425 10.2428 -2.6232 34.1666 -5.7468
# 6 9.5990 14.5366 -4.1653 6.8025 -5.7468 39.2226
#
#
#
# Elastic Compliance Matrix: (Units=1/GPa)
#
#
# Indices 1 2 3 4 5 6 
#
# 1 0.011588 -0.001002 -0.002233 -0.002453 -0.002518 -0.002646
# 2 -0.001002 0.004869 -0.000722 0.002598 0.001304 -0.001896
# 3 -0.002233 -0.000722 0.009276 0.001494 -0.002157 0.001224
# 4 -0.002453 0.002598 0.001494 0.018886 0.001486 -0.003262
# 5 -0.002518 0.001304 -0.002157 0.001486 0.031525 0.004265
# 6 -0.002646 -0.001896 0.001224 -0.003262 0.004265 0.028166
#
#
# Mechanical properties :
#
#
# Convention : Reuss Voigt Hill
#
# Bulk Modulus (GPa) = 56.11838 65.97391 61.04615
# Shear Modulus (GPa) = 42.31405 52.43358 47.37382
#
# Velocity S-wave (km/s) = 3.97519 4.42508 4.20615
# Velocity P-wave (km/s) = 6.48282 7.12365 6.81077
#
# Compressibility (1/GPa) = 0.01781947
#
# Stress axis : x y z
#
# Youngs Moduli (GPa) = 86.29296 205.38941 107.80741
#
# Poissons Ratio (x) = 0.20570 0.24076
# Poissons Ratio (y) = 0.08642 0.07784
# Poissons Ratio (z) = 0.19272 0.14829
#
# Static dielectric constant tensor:
#      x y z
#    x 2.057980 -0.068380 -0.047210 
#    y -0.068380 2.255060 0.048200 
#    z -0.047210 0.048200 2.128730 
# 
# From -- ./inp_files/583216.got.cif
#   From: 2010.05.17/outbox.cif.g08.bks.cpg/sg2_292_cif.got.tgz:583216.got - 2010.06.03 11:33:40.
