data_PCOD9033511
_publ_section_title
;
Structure prediction by ZEFSAII (Michael W. Deem and Ramdas Pophale) SiO2 
 PCOD9033511
Probable space group: P -1
;
_chemical_formula_sum "Si O2"
_cell_formula_units_Z 14
_cell_length_a 8.769993
_cell_length_b 19.046879
_cell_length_c 8.736070
_cell_angle_alpha 132.501379
_cell_angle_beta 88.641903
_cell_angle_gamma 51.826411
_cell_volume 548.383528
_symmetry_space_group_name_H-M "P -1"
_symmetry_group_IT_number 2
_symmetry_cell_setting 'triclinic'
loop_
_space_group_symop_operation_xyz
x,y,z
-x,-y,-z
loop_
_atom_site_type_symbol
_atom_site_label
_atom_site_fract_x
_atom_site_fract_y
_atom_site_fract_z
Si Si1 0.079038 0.734619 0.441250
Si Si2 0.625520 0.637882 0.812852
Si Si3 0.063387 0.713130 0.744499
Si Si4 0.590894 0.837987 0.593604
Si Si5 0.197732 0.728027 0.094938
Si Si6 0.716639 0.110813 0.081688
Si Si7 0.508915 0.111803 0.663308
O O1 0.876943 0.749275 0.479781
O O2 0.215719 0.668530 0.514338
O O3 0.229611 0.657400 0.154953
O O4 0.846531 0.947226 0.756620
O O5 0.898354 0.420665 0.461376
O O6 0.427527 0.691885 0.027234
O O7 0.417998 0.746791 0.828369
O O8 0.668780 0.725382 0.976764
O O9 0.193616 0.676143 0.852186
O O10 0.719621 0.933047 0.063533
O O11 0.610252 0.790082 0.352104
O O12 0.534442 0.787582 0.644011
O O13 0.857191 0.948558 0.429168
O O14 0.000000 0.000000 0.000000
O O15 0.500000 0.000000 0.500000
#
# Coordination Sequence:
#
# PCOD9033511 Si02
#       7
#     2   2   2   2   2   2   2
#     4  11  22  45  70  92 132 186 222 267 335 403
#     4  12  24  42  66 105 135 167 224 286 336 388
#     4  10  24  42  66 102 138 174 220 279 342 389
#     4  10  22  44  68  91 130 182 224 268 331 407
#     4  11  23  42  71  94 137 177 223 270 337 407
#     4  11  22  38  66  98 129 170 226 278 323 399
#     4  11  21  41  68  98 127 174 228 273 327 398
#
# _framework density 25.529577
#
# number of rings (size 3 to 8) (size 9 to 14) (size 15 to 20)
#    0.000    1.143    2.857    5.143    2.000    1.714 
#    2.571   12.143    0.000    0.000    0.000    0.000 
#    0.000    0.000    0.000    0.000    0.000    0.000 
#
# Total GULP energy -78227.655643 kJ/mol
# GULP energy per Si atom -5587.689689 kJ/mol
# Density = 2.547147 g / cm^3
# Si number density = 25.529577 Si / 1000 Ang^3
#
#
#
# Elastic Constant Matrix: (Units=GPa)
#
#
# Indices 1 2 3 4 5 6 
#
# 1 108.2849 36.3097 32.4395 -28.9840 -6.5125 17.0752
# 2 36.3097 174.2768 52.3027 -39.6169 -0.1041 -7.7318
# 3 32.4395 52.3027 61.6653 -33.5972 12.1284 16.5348
# 4 -28.9840 -39.6169 -33.5972 57.5230 11.9075 1.1503
# 5 -6.5125 -0.1041 12.1284 11.9075 43.7945 -7.4211
# 6 17.0752 -7.7318 16.5348 1.1503 -7.4211 40.9471
#
#
#
# Elastic Compliance Matrix: (Units=1/GPa)
#
#
# Indices 1 2 3 4 5 6 
#
# 1 0.012058 -0.001175 -0.002036 0.004064 0.000495 -0.004452
# 2 -0.001175 0.009301 -0.011432 -0.002031 0.004888 0.007805
# 3 -0.002036 -0.011432 0.059832 0.033179 -0.031358 -0.032085
# 4 0.004064 -0.002031 0.033179 0.042752 -0.023769 -0.020985
# 5 0.000495 0.004888 -0.031358 -0.023769 0.041728 0.021610
# 6 -0.004452 0.007805 -0.032085 -0.020985 0.021610 0.045215
#
#
# Mechanical properties :
#
#
# Convention : Reuss Voigt Hill
#
# Bulk Modulus (GPa) = 19.26564 65.14788 42.20676
# Shear Modulus (GPa) = 19.41940 43.33125 31.37533
#
# Velocity S-wave (km/s) = 2.76100 4.12429 3.50948
# Velocity P-wave (km/s) = 4.21034 6.94649 5.74372
#
# Compressibility (1/GPa) = 0.05190589
#
# Stress axis : x y z
#
# Youngs Moduli (GPa) = 82.92911 107.51424 16.71341
#
# Poissons Ratio (x) = 0.12628 0.03404
# Poissons Ratio (y) = 0.09740 0.19107
# Poissons Ratio (z) = 0.16888 1.22910
#
# Static dielectric constant tensor:
#      x y z
#    x 2.042840 -0.027700 -0.004830 
#    y -0.027700 2.028460 -0.022250 
#    z -0.004830 -0.022250 2.068740 
# 
# From -- ./inp_files/218581.got.cif
#   From: 2010.05.17/outbox.cif.g08.bks.cpg/sg2_110_cif.got.tgz:218581.got - 2010.06.03 11:33:40.
