data_PCOD9033283
_publ_section_title
;
Structure prediction by ZEFSAII (Michael W. Deem and Ramdas Pophale) SiO2 
 PCOD9033283
Probable space group: P -1
;
_chemical_formula_sum "Si O2"
_cell_formula_units_Z 14
_cell_length_a 10.481582
_cell_length_b 8.232199
_cell_length_c 9.265387
_cell_angle_alpha 92.200874
_cell_angle_beta 87.091808
_cell_angle_gamma 43.891903
_cell_volume 550.309911
_symmetry_space_group_name_H-M "P -1"
_symmetry_group_IT_number 2
_symmetry_cell_setting 'triclinic'
loop_
_space_group_symop_operation_xyz
x,y,z
-x,-y,-z
loop_
_atom_site_type_symbol
_atom_site_label
_atom_site_fract_x
_atom_site_fract_y
_atom_site_fract_z
Si Si1 0.165733 0.004304 0.604428
Si Si2 0.165726 0.220185 0.879847
Si Si3 0.229130 0.602618 0.470596
Si Si4 0.731356 0.690200 0.888189
Si Si5 0.797163 0.122293 0.977558
Si Si6 0.449341 0.475217 0.196190
Si Si7 0.309693 0.165679 0.429257
O O1 0.231747 0.048755 0.738841
O O2 0.223711 0.069699 0.471718
O O3 0.942887 0.212599 0.621403
O O4 0.212185 0.770142 0.585539
O O5 0.956674 0.463735 0.865030
O O6 0.172847 0.095865 0.013488
O O7 0.299243 0.231502 0.938996
O O8 0.416223 0.464757 0.365070
O O9 0.215590 0.422991 0.501687
O O10 0.625880 0.617572 0.879459
O O11 0.681908 0.822099 0.743659
O O12 0.649131 0.324607 0.111589
O O13 0.696894 0.255000 0.838735
O O14 0.000000 0.000000 0.000000
O O15 0.500000 0.000000 0.500000
#
# Coordination Sequence:
#
# PCOD9033283 Si02
#       7
#     2   2   2   2   2   2   2
#     4  11  23  45  74 104 145 200 254 312 361 456
#     4  11  23  43  72 105 144 189 250 309 375 449
#     4  10  23  46  73 103 146 198 254 308 376 436
#     4  10  23  46  69 102 147 193 246 312 377 440
#     4  11  22  41  70 104 144 191 244 299 384 450
#     4  10  22  44  67 103 148 186 249 314 360 464
#     4  11  25  46  71 104 148 198 256 310 380 458
#
# _framework density 25.44021
#
# number of rings (size 3 to 8) (size 9 to 14) (size 15 to 20)
#    0.000    1.429    4.286    0.429    6.000    1.143 
#    2.571    0.000    0.000    0.000    0.000    0.000 
#    0.000    0.000    0.000    0.000    0.000    0.000 
#
# Total GULP energy -78104.747763 kJ/mol
# GULP energy per Si atom -5578.910554 kJ/mol
# Density = 2.538231 g / cm^3
# Si number density = 25.440210 Si / 1000 Ang^3
#
#
#
# Elastic Constant Matrix: (Units=GPa)
#
#
# Indices 1 2 3 4 5 6 
#
# 1 78.3798 24.7947 37.5432 5.8542 6.8440 -12.7882
# 2 24.7947 91.7143 30.8941 -3.1357 12.9364 -3.2998
# 3 37.5432 30.8941 120.4854 4.2639 37.3060 8.6806
# 4 5.8542 -3.1357 4.2639 41.7410 11.5573 7.8726
# 5 6.8440 12.9364 37.3060 11.5573 51.5695 1.1460
# 6 -12.7882 -3.2998 8.6806 7.8726 1.1460 50.5234
#
#
#
# Elastic Compliance Matrix: (Units=1/GPa)
#
#
# Indices 1 2 3 4 5 6 
#
# 1 0.017632 -0.003165 -0.006095 -0.004215 0.003677 0.005877
# 2 -0.003165 0.012697 -0.001732 0.002117 -0.001987 0.000041
# 3 -0.006095 -0.001732 0.013690 0.002658 -0.009162 -0.004214
# 4 -0.004215 0.002117 0.002658 0.027685 -0.007977 -0.005518
# 5 0.003677 -0.001987 -0.009162 -0.007977 0.027751 0.002989
# 6 0.005877 0.000041 -0.004214 -0.005518 0.002989 0.022799
#
#
# Mechanical properties :
#
#
# Convention : Reuss Voigt Hill
#
# Bulk Modulus (GPa) = 45.38528 53.00485 49.19506
# Shear Modulus (GPa) = 32.98552 41.92328 37.45440
#
# Velocity S-wave (km/s) = 3.60473 4.06385 3.84116
# Velocity P-wave (km/s) = 5.93330 6.54982 6.24917
#
# Compressibility (1/GPa) = 0.02203358
#
# Stress axis : x y z
#
# Youngs Moduli (GPa) = 56.71608 78.76110 73.04867
#
# Poissons Ratio (x) = 0.24926 0.44526
# Poissons Ratio (y) = 0.17949 0.12652
# Poissons Ratio (z) = 0.34571 0.13641
#
# Static dielectric constant tensor:
#      x y z
#    x 2.965260 0.434910 0.652630 
#    y 0.434910 2.340040 0.339890 
#    z 0.652630 0.339890 2.565200 
# 
# From -- ./inp_files/244598.got.cif
#   From: 2010.05.17/outbox.cif.g08.bks.cpg/sg2_123_cif.got.tgz:244598.got - 2010.06.03 11:33:40.
