data_PCOD9033924
_publ_section_title
;
Structure prediction by ZEFSAII (Michael W. Deem and Ramdas Pophale) SiO2 
 PCOD9033924
Probable space group: P -1
;
_chemical_formula_sum "Si O2"
_cell_formula_units_Z 16
_cell_length_a 6.166933
_cell_length_b 21.693697
_cell_length_c 8.700088
_cell_angle_alpha 129.147353
_cell_angle_beta 75.996123
_cell_angle_gamma 132.327807
_cell_volume 632.384010
_symmetry_space_group_name_H-M "P -1"
_symmetry_group_IT_number 2
_symmetry_cell_setting 'triclinic'
loop_
_space_group_symop_operation_xyz
x,y,z
-x,-y,-z
loop_
_atom_site_type_symbol
_atom_site_label
_atom_site_fract_x
_atom_site_fract_y
_atom_site_fract_z
Si Si1 0.877785 0.700249 0.754640
Si Si2 0.590828 0.899530 0.466715
Si Si3 0.141971 0.290541 0.660406
Si Si4 0.924573 0.846212 0.769354
Si Si5 0.363335 0.266194 0.873451
Si Si6 0.776592 0.511688 0.619207
Si Si7 0.051617 0.436627 0.994465
Si Si8 0.864004 0.964767 0.195275
O O1 0.943398 0.633858 0.724454
O O2 0.558301 0.592959 0.558609
O O3 0.068406 0.802922 0.763852
O O4 0.824610 0.749707 0.976803
O O5 0.227371 0.820488 0.433798
O O6 0.708863 0.836592 0.347299
O O7 0.658858 0.938055 0.336928
O O8 0.810576 0.984545 0.700601
O O9 0.280888 0.255578 0.474184
O O10 0.312105 0.319985 0.838748
O O11 0.126781 0.381285 0.784657
O O12 0.104744 0.953556 0.799215
O O13 0.762688 0.864659 0.949934
O O14 0.716151 0.341399 0.978140
O O15 0.000000 0.500000 0.500000
O O16 0.742258 0.503388 0.796276
O O17 0.000000 0.500000 0.000000
#
# Coordination Sequence:
#
# PCOD9033924 Si02
#       8
#     2   2   2   2   2   2   2   2
#     4  11  24  42  68  93 137 178 217 276 332 403
#     4  10  22  44  70  94 131 181 218 272 333 408
#     4  11  25  42  67  97 135 178 224 270 338 401
#     4  11  24  42  66 103 135 173 220 287 334 382
#     4  11  21  45  64  95 133 179 219 265 337 402
#     4  11  24  43  65  98 128 177 228 268 334 399
#     4  11  26  41  67 100 132 173 224 282 330 395
#     4  10  22  44  70  97 137 173 223 283 335 391
#
# _framework density 25.301081
#
# number of rings (size 3 to 8) (size 9 to 14) (size 15 to 20)
#    0.000    1.250    5.000    0.000    3.500    1.500 
#    0.000    1.250    0.000    0.000    0.000    0.000 
#    0.000    0.000    0.000    0.000    0.000    0.000 
#
# Total GULP energy -89205.789099 kJ/mol
# GULP energy per Si atom -5575.361819 kJ/mol
# Density = 2.524350 g / cm^3
# Si number density = 25.301081 Si / 1000 Ang^3
#
#
#
# Elastic Constant Matrix: (Units=GPa)
#
#
# Indices 1 2 3 4 5 6 
#
# 1 78.7285 42.3717 36.3815 8.0170 -7.8577 -10.9539
# 2 42.3717 123.6932 26.0528 -5.8045 -19.8832 -45.5426
# 3 36.3815 26.0528 132.3131 2.0786 -13.7195 -12.9191
# 4 8.0170 -5.8045 2.0786 38.6322 -12.1200 -4.9042
# 5 -7.8577 -19.8832 -13.7195 -12.1200 39.7455 13.5924
# 6 -10.9539 -45.5426 -12.9191 -4.9042 13.5924 54.9859
#
#
#
# Elastic Compliance Matrix: (Units=1/GPa)
#
#
# Indices 1 2 3 4 5 6 
#
# 1 0.018420 -0.007269 -0.004077 -0.005751 -0.002019 -0.003323
# 2 -0.007269 0.015634 0.000388 0.006743 0.004811 0.011005
# 3 -0.004077 0.000388 0.008950 0.001351 0.002509 0.001112
# 4 -0.005751 0.006743 0.001351 0.032028 0.010777 0.004949
# 5 -0.002019 0.004811 0.002509 0.010777 0.032295 -0.002850
# 6 -0.003323 0.011005 0.001112 0.004949 -0.002850 0.028046
#
#
# Mechanical properties :
#
#
# Convention : Reuss Voigt Hill
#
# Bulk Modulus (GPa) = 47.42122 60.48299 53.95211
# Shear Modulus (GPa) = 30.42858 42.00130 36.21494
#
# Velocity S-wave (km/s) = 3.47170 4.07880 3.78744
# Velocity P-wave (km/s) = 5.90370 6.79260 6.36369
#
# Compressibility (1/GPa) = 0.02108760
#
# Stress axis : x y z
#
# Youngs Moduli (GPa) = 54.28935 63.96167 111.73125
#
# Poissons Ratio (x) = 0.46493 0.45553
# Poissons Ratio (y) = 0.39463 -0.04331
# Poissons Ratio (z) = 0.22134 -0.02479
#
# Static dielectric constant tensor:
#      x y z
#    x 2.003930 0.011580 0.061020 
#    y 0.011580 2.196430 0.038770 
#    z 0.061020 0.038770 2.023260 
# 
# From -- ./inp_files/141600.got.cif
#   From: 2010.05.17/outbox.cif.g08.bks.cpg/sg2_71_cif.got.tgz:141600.got - 2010.06.03 11:33:40.
