data_PCOD9033086
_publ_section_title
;
Structure prediction by ZEFSAII (Michael W. Deem and Ramdas Pophale) SiO2 
 PCOD9033086
Probable space group: P -1
;
_chemical_formula_sum "Si O2"
_cell_formula_units_Z 16
_cell_length_a 6.093428
_cell_length_b 21.428992
_cell_length_c 18.173196
_cell_angle_alpha 162.002041
_cell_angle_beta 72.913856
_cell_angle_gamma 109.725501
_cell_volume 687.164898
_symmetry_space_group_name_H-M "P -1"
_symmetry_group_IT_number 2
_symmetry_cell_setting 'triclinic'
loop_
_space_group_symop_operation_xyz
x,y,z
-x,-y,-z
loop_
_atom_site_type_symbol
_atom_site_label
_atom_site_fract_x
_atom_site_fract_y
_atom_site_fract_z
Si Si1 0.178825 0.443255 0.307080
Si Si2 0.977299 0.231003 0.410731
Si Si3 0.934996 0.596776 0.252920
Si Si4 0.749887 0.904253 0.507406
Si Si5 0.784285 0.747158 0.174526
Si Si6 0.494222 0.254321 0.951862
Si Si7 0.555421 0.778589 0.728127
Si Si8 0.154934 0.134810 0.073978
O O1 0.041525 0.559047 0.393799
O O2 0.346167 0.619206 0.534322
O O3 0.039608 0.282779 0.199213
O O4 0.332020 0.315668 0.100251
O O5 0.953382 0.254072 0.525210
O O6 0.232329 0.193532 0.320513
O O7 0.788990 0.043917 0.184925
O O8 0.820937 0.725756 0.349555
O O9 0.728210 0.430191 0.123538
O O10 0.120851 0.463497 0.057089
O O11 0.665051 0.811757 0.332346
O O12 0.569579 0.034029 0.704433
O O13 0.988045 0.073711 0.661380
O O14 0.628361 0.733734 0.101988
O O15 0.648427 0.724253 0.738230
O O16 0.500000 0.000000 0.000000
O O17 0.000000 0.000000 0.000000
#
# Coordination Sequence:
#
# PCOD9033086 Si02
#       8
#     2   2   2   2   2   2   2   2
#     4  12  24  44  70  92 135 176 211 281 339 384
#     4  11  24  43  64  95 131 168 220 272 329 403
#     4  11  23  41  66  99 135 174 226 273 326 394
#     4  10  24  41  67  98 135 177 220 278 323 393
#     4  10  22  44  65  96 138 177 223 268 336 392
#     4  11  24  40  66 100 132 174 226 269 335 397
#     4  11  23  45  66  95 128 165 216 272 332 401
#     4  10  25  44  66  97 126 171 221 267 330 401
#
# _framework density 23.284075999999999
#
# number of rings (size 3 to 8) (size 9 to 14) (size 15 to 20)
#    0.000    1.250    3.750    1.125    1.750    5.500 
#    4.500    0.000    0.000    0.000    0.000    0.000 
#    0.000    0.000    0.000    0.000    0.000    0.000 
#
# Total GULP energy -89467.165345 kJ/mol
# GULP energy per Si atom -5591.697834 kJ/mol
# Density = 2.323108 g / cm^3
# Si number density = 23.284076 Si / 1000 Ang^3
#
#
#
# Elastic Constant Matrix: (Units=GPa)
#
#
# Indices 1 2 3 4 5 6 
#
# 1 49.8323 10.7038 18.9269 -2.8750 3.3871 -6.7323
# 2 10.7038 73.1267 37.5540 3.4001 2.5030 -9.8938
# 3 18.9269 37.5540 113.3402 -16.9152 -6.3711 6.4153
# 4 -2.8750 3.4001 -16.9152 41.6274 -14.3421 -6.1820
# 5 3.3871 2.5030 -6.3711 -14.3421 47.0428 -6.3416
# 6 -6.7323 -9.8938 6.4153 -6.1820 -6.3416 30.0376
#
#
#
# Elastic Compliance Matrix: (Units=1/GPa)
#
#
# Indices 1 2 3 4 5 6 
#
# 1 0.022520 -0.000512 -0.003916 0.000393 -0.001259 0.005530
# 2 -0.000512 0.018569 -0.007210 -0.004418 -0.002450 0.006115
# 3 -0.003916 -0.007210 0.013275 0.006475 0.003908 -0.003930
# 4 0.000393 -0.004418 0.006475 0.032007 0.011692 0.006306
# 5 -0.001259 -0.002450 0.003908 0.011692 0.026388 0.006053
# 6 0.005530 0.006115 -0.003930 0.006306 0.006053 0.039960
#
#
# Mechanical properties :
#
#
# Convention : Reuss Voigt Hill
#
# Bulk Modulus (GPa) = 32.16820 41.18539 36.67679
# Shear Modulus (GPa) = 26.82997 35.01585 30.92291
#
# Velocity S-wave (km/s) = 3.39822 3.88216 3.64822
# Velocity P-wave (km/s) = 5.40765 6.14992 5.79069
#
# Compressibility (1/GPa) = 0.03108660
#
# Stress axis : x y z
#
# Youngs Moduli (GPa) = 44.40479 53.85194 75.33215
#
# Poissons Ratio (x) = 0.02758 0.29500
# Poissons Ratio (y) = 0.02275 0.54318
# Poissons Ratio (z) = 0.17389 0.38830
#
# Static dielectric constant tensor:
#      x y z
#    x 1.928590 0.000480 0.011930 
#    y 0.000480 1.859970 0.007980 
#    z 0.011930 0.007980 1.893350 
# 
# From -- ./inp_files/551019.got.cif
#   From: 2010.05.17/outbox.cif.g08.bks.cpg/sg2_276_cif.got.tgz:551019.got - 2010.06.03 11:33:40.
