data_PCOD9033462
_publ_section_title
;
Structure prediction by ZEFSAII (Michael W. Deem and Ramdas Pophale) SiO2 
 PCOD9033462
Probable space group: P -1
;
_chemical_formula_sum "Si O2"
_cell_formula_units_Z 14
_cell_length_a 5.731116
_cell_length_b 9.248448
_cell_length_c 12.753776
_cell_angle_alpha 118.133610
_cell_angle_beta 80.371533
_cell_angle_gamma 92.070610
_cell_volume 587.022961
_symmetry_space_group_name_H-M "P -1"
_symmetry_group_IT_number 2
_symmetry_cell_setting 'triclinic'
loop_
_space_group_symop_operation_xyz
x,y,z
-x,-y,-z
loop_
_atom_site_type_symbol
_atom_site_label
_atom_site_fract_x
_atom_site_fract_y
_atom_site_fract_z
Si Si1 0.669443 0.816391 0.184312
Si Si2 0.124064 0.799229 0.227858
Si Si3 0.756428 0.910021 0.975641
Si Si4 0.700351 0.446674 0.048854
Si Si5 0.281173 0.622532 0.593301
Si Si6 0.884966 0.383467 0.615967
Si Si7 0.538325 0.681111 0.782812
O O1 0.390485 0.866707 0.235401
O O2 0.716709 0.629007 0.159209
O O3 0.886930 0.907179 0.252114
O O4 0.717928 0.820319 0.057819
O O5 0.083217 0.727129 0.321974
O O6 0.143286 0.665425 0.082835
O O7 0.759544 0.784473 0.835827
O O8 0.500000 0.000000 0.000000
O O9 0.000000 0.000000 0.000000
O O10 0.639089 0.332259 0.110727
O O11 0.500000 0.500000 0.000000
O O12 0.500000 0.500000 0.500000
O O13 0.162752 0.695549 0.521366
O O14 0.393793 0.738864 0.711272
O O15 0.097570 0.504506 0.622083
O O16 0.653407 0.500181 0.696947
#
# Coordination Sequence:
#
# PCOD9033462 Si02
#       7
#     2   2   2   2   2   2   2
#     4  11  21  37  54  86 117 154 195 248 302 358
#     4  11  20  32  58  88 121 151 185 245 310 370
#     4  12  27  42  58  85 126 174 214 241 290 363
#     4  10  17  32  55  90 119 149 189 240 324 363
#     4   9  21  34  55  86 129 161 198 241 309 384
#     4  10  19  35  58  93 126 158 197 245 317 381
#     4  11  20  38  60  86 130 162 199 252 302 362
#
# _framework density 23.849153999999999
#
# number of rings (size 3 to 8) (size 9 to 14) (size 15 to 20)
#    0.000    1.429    5.714    2.143    4.000    0.000 
#    0.000    0.000    0.000    0.000    0.000    6.000 
#    0.000    0.000    0.000    0.000    0.000    0.000 
#
# Total GULP energy -77939.973129 kJ/mol
# GULP energy per Si atom -5567.140938 kJ/mol
# Density = 2.379487 g / cm^3
# Si number density = 23.849154 Si / 1000 Ang^3
#
#
#
# Elastic Constant Matrix: (Units=GPa)
#
#
# Indices 1 2 3 4 5 6 
#
# 1 176.4411 31.7018 57.1425 -17.4004 25.1977 10.9040
# 2 31.7018 57.7916 37.5590 -13.1035 10.6713 10.4923
# 3 57.1425 37.5590 124.3157 -33.4078 35.6278 16.1133
# 4 -17.4004 -13.1035 -33.4078 24.3026 0.0505 -3.8338
# 5 25.1977 10.6713 35.6278 0.0505 54.0341 -6.4298
# 6 10.9040 10.4923 16.1133 -3.8338 -6.4298 30.6890
#
#
#
# Elastic Compliance Matrix: (Units=1/GPa)
#
#
# Indices 1 2 3 4 5 6 
#
# 1 0.007029 -0.001894 -0.001314 0.001994 -0.002203 -0.001373
# 2 -0.001894 0.023130 -0.003247 0.005827 -0.002175 -0.005258
# 3 -0.001314 -0.003247 0.022074 0.026140 -0.014490 -0.009784
# 4 0.001994 0.005827 0.026140 0.079996 -0.020672 -0.010763
# 5 -0.002203 -0.002175 -0.014490 -0.020672 0.031092 0.013066
# 6 -0.001373 -0.005258 -0.009784 -0.010763 0.013066 0.041400
#
#
# Mechanical properties :
#
#
# Convention : Reuss Voigt Hill
#
# Bulk Modulus (GPa) = 25.42953 67.92836 46.67895
# Shear Modulus (GPa) = 21.66949 37.28148 29.47548
#
# Velocity S-wave (km/s) = 3.01758 3.95805 3.51937
# Velocity P-wave (km/s) = 4.77775 7.03083 6.01080
#
# Compressibility (1/GPa) = 0.03932435
#
# Stress axis : x y z
#
# Youngs Moduli (GPa) = 142.25777 43.23369 45.30148
#
# Poissons Ratio (x) = 0.08189 0.05952
# Poissons Ratio (y) = 0.26946 0.14708
# Poissons Ratio (z) = 0.18691 0.14037
#
# Static dielectric constant tensor:
#      x y z
#    x 2.011730 0.098580 0.026980 
#    y 0.098580 2.020190 0.150490 
#    z 0.026980 0.150490 2.064880 
# 
# From -- ./inp_files/362284.got.cif
#   From: 2010.05.17/outbox.cif.g08.bks.cpg/sg2_182_cif.got.tgz:362284.got - 2010.06.03 11:33:40.
