data_PCOD9033704
_publ_section_title
;
Structure prediction by ZEFSAII (Michael W. Deem and Ramdas Pophale) SiO2 
 PCOD9033704
Probable space group: P -1
;
_chemical_formula_sum "Si O2"
_cell_formula_units_Z 16
_cell_length_a 15.288693
_cell_length_b 9.459365
_cell_length_c 8.628740
_cell_angle_alpha 46.070864
_cell_angle_beta 50.171610
_cell_angle_gamma 54.231889
_cell_volume 667.670920
_symmetry_space_group_name_H-M "P -1"
_symmetry_group_IT_number 2
_symmetry_cell_setting 'triclinic'
loop_
_space_group_symop_operation_xyz
x,y,z
-x,-y,-z
loop_
_atom_site_type_symbol
_atom_site_label
_atom_site_fract_x
_atom_site_fract_y
_atom_site_fract_z
Si Si1 0.755376 0.015919 0.522276
Si Si2 0.962083 0.733160 0.304144
Si Si3 0.808250 0.611136 0.337388
Si Si4 0.193412 0.749673 0.169482
Si Si5 0.639720 0.407885 0.187584
Si Si6 0.464741 0.169600 0.071987
Si Si7 0.730383 0.928629 0.953476
Si Si8 0.546343 0.760382 0.636705
O O1 0.853433 0.874083 0.412548
O O2 0.636105 0.942166 0.692914
O O3 0.720145 0.250960 0.334878
O O4 0.790192 0.973993 0.693214
O O5 0.913998 0.700342 0.213905
O O6 0.000000 0.500000 0.500000
O O7 0.074112 0.816949 0.153893
O O8 0.829089 0.383181 0.555001
O O9 0.683930 0.708046 0.488798
O O10 0.778304 0.697104 0.132829
O O11 0.240964 0.930904 0.047843
O O12 0.284271 0.622807 0.035577
O O13 0.522459 0.335703 0.337607
O O14 0.594083 0.640412 0.114959
O O15 0.484347 0.286470 0.118270
O O16 0.589787 0.015301 0.014381
O O17 0.500000 0.000000 0.500000
#
# Coordination Sequence:
#
# PCOD9033704 Si02
#       8
#     2   2   2   2   2   2   2   2
#     4  12  26  43  60  93 131 167 202 249 316 373
#     4  10  22  44  69  90 117 158 216 267 304 355
#     4  11  21  40  65  92 121 159 210 262 302 356
#     4  11  23  40  64  94 117 159 215 264 304 354
#     4  12  23  38  68  94 124 162 211 259 298 361
#     4  12  22  39  63  95 128 163 208 251 305 365
#     4  12  26  39  62  93 134 168 196 247 317 381
#     4  12  17  34  65  95 121 155 203 265 303 351
#
# _framework density 23.963899999999999
#
# number of rings (size 3 to 8) (size 9 to 14) (size 15 to 20)
#    0.000    0.500    6.250    3.000    0.000    4.000 
#    0.000    2.500    0.000    0.000    0.000    0.000 
#    0.000    0.000    0.000    0.000    0.000    0.000 
#
# Total GULP energy -89409.065235 kJ/mol
# GULP energy per Si atom -5588.066577 kJ/mol
# Density = 2.390936 g / cm^3
# Si number density = 23.963900 Si / 1000 Ang^3
#
#
#
# Elastic Constant Matrix: (Units=GPa)
#
#
# Indices 1 2 3 4 5 6 
#
# 1 92.9284 29.5482 20.3140 -2.7141 -5.6779 -22.7168
# 2 29.5482 72.9318 24.7470 -26.4143 -0.0528 -13.6715
# 3 20.3140 24.7470 94.7561 -32.2026 22.6324 -5.7635
# 4 -2.7141 -26.4143 -32.2026 38.6945 -11.1060 7.8989
# 5 -5.6779 -0.0528 22.6324 -11.1060 48.0683 -2.4228
# 6 -22.7168 -13.6715 -5.7635 7.8989 -2.4228 30.8722
#
#
#
# Elastic Compliance Matrix: (Units=1/GPa)
#
#
# Indices 1 2 3 4 5 6 
#
# 1 0.016253 -0.005948 -0.004753 -0.008277 0.002782 0.010774
# 2 -0.005948 0.021859 0.000112 0.015067 0.002835 0.001692
# 3 -0.004753 0.000112 0.017165 0.013196 -0.005800 -0.004074
# 4 -0.008277 0.015067 0.013196 0.049524 0.003798 -0.009328
# 5 0.002782 0.002835 -0.005800 0.003798 0.024905 0.003202
# 6 0.010774 0.001692 -0.004074 -0.009328 0.003202 0.042946
#
#
# Mechanical properties :
#
#
# Convention : Reuss Voigt Hill
#
# Bulk Modulus (GPa) = 29.32553 45.53717 37.43135
# Shear Modulus (GPa) = 24.36684 35.92747 30.14715
#
# Velocity S-wave (km/s) = 3.19221 3.87619 3.55071
# Velocity P-wave (km/s) = 5.08438 6.25115 5.69771
#
# Compressibility (1/GPa) = 0.03409998
#
# Stress axis : x y z
#
# Youngs Moduli (GPa) = 61.52556 45.74747 58.25835
#
# Poissons Ratio (x) = 0.27212 0.27690
# Poissons Ratio (y) = 0.36597 -0.00655
# Poissons Ratio (z) = 0.29243 -0.00515
#
# Static dielectric constant tensor:
#      x y z
#    x 1.968380 0.001310 0.070050 
#    y 0.001310 1.913190 -0.065370 
#    z 0.070050 -0.065370 2.011120 
# 
# From -- ./inp_files/306145.got.cif
#   From: 2010.05.17/outbox.cif.g08.bks.cpg/sg2_154_cif.got.tgz:306145.got - 2010.06.03 11:33:40.
