data_PCOD9033353
_publ_section_title
;
Structure prediction by ZEFSAII (Michael W. Deem and Ramdas Pophale) SiO2 
 PCOD9033353
Probable space group: P -1
;
_chemical_formula_sum "Si O2"
_cell_formula_units_Z 14
_cell_length_a 11.898692
_cell_length_b 12.961862
_cell_length_c 13.335057
_cell_angle_alpha 149.545848
_cell_angle_beta 31.671922
_cell_angle_gamma 139.062892
_cell_volume 545.488012
_symmetry_space_group_name_H-M "P -1"
_symmetry_group_IT_number 2
_symmetry_cell_setting 'triclinic'
loop_
_space_group_symop_operation_xyz
x,y,z
-x,-y,-z
loop_
_atom_site_type_symbol
_atom_site_label
_atom_site_fract_x
_atom_site_fract_y
_atom_site_fract_z
Si Si1 0.234118 0.027006 0.899721
Si Si2 0.332424 0.443438 0.869538
Si Si3 0.046040 0.351346 0.428052
Si Si4 0.921680 0.170987 0.953469
Si Si5 0.440281 0.721527 0.275308
Si Si6 0.722990 0.534600 0.304174
Si Si7 0.014443 0.755505 0.417879
O O1 0.229191 0.227425 0.140552
O O2 0.226492 0.870869 0.869465
O O3 0.409872 0.097860 0.741161
O O4 0.000000 0.000000 0.000000
O O5 0.533168 0.341972 0.681172
O O6 0.322674 0.434149 0.750564
O O7 0.144134 0.280471 0.916343
O O8 0.248098 0.666841 0.148269
O O9 0.804991 0.237555 0.524162
O O10 0.000000 0.500000 0.500000
O O11 0.095532 0.402833 0.547808
O O12 0.973950 0.970766 0.681125
O O13 0.835485 0.329437 0.073071
O O14 0.500000 0.500000 0.000000
O O15 0.500000 0.500000 0.500000
O O16 0.876679 0.717280 0.389927
#
# Coordination Sequence:
#
# PCOD9033353 Si02
#       7
#     2   2   2   2   2   2   2
#     4  11  23  42  66 103 144 175 228 289 351 414
#     4  11  23  44  71  98 135 185 237 279 347 423
#     4  11  23  39  69 101 136 186 227 281 348 418
#     4  10  23  45  70  99 138 181 225 295 348 410
#     4  12  23  42  71 104 139 187 229 282 353 422
#     4  11  27  44  68 101 133 183 234 289 347 421
#     4  10  22  44  67  96 133 179 230 280 354 402
#
# _framework density 25.665092000000001
#
# number of rings (size 3 to 8) (size 9 to 14) (size 15 to 20)
#    0.000    1.143    4.286    1.714    4.000    3.429 
#    5.143    0.000    0.000    0.000    0.000    0.000 
#    0.000    0.000    0.000    0.000    0.000    0.000 
#
# Total GULP energy -78086.115893 kJ/mol
# GULP energy per Si atom -5577.579707 kJ/mol
# Density = 2.560668 g / cm^3
# Si number density = 25.665092 Si / 1000 Ang^3
#
#
#
# Elastic Constant Matrix: (Units=GPa)
#
#
# Indices 1 2 3 4 5 6 
#
# 1 102.4286 6.2078 7.6434 -8.7340 6.4189 -26.5434
# 2 6.2078 93.9106 4.1879 -15.3527 4.8930 1.2444
# 3 7.6434 4.1879 84.8478 -1.6816 11.6451 11.7422
# 4 -8.7340 -15.3527 -1.6816 60.0331 -7.2508 6.6003
# 5 6.4189 4.8930 11.6451 -7.2508 40.7890 -17.8545
# 6 -26.5434 1.2444 11.7422 6.6003 -17.8545 39.1743
#
#
#
# Elastic Compliance Matrix: (Units=1/GPa)
#
#
# Indices 1 2 3 4 5 6 
#
# 1 0.012845 -0.000947 -0.003260 0.000778 0.004191 0.011489
# 2 -0.000947 0.011284 0.000147 0.002794 -0.001765 -0.002319
# 3 -0.003260 0.000147 0.014632 0.000122 -0.008192 -0.010354
# 4 0.000778 0.002794 0.000122 0.017913 0.001932 -0.001736
# 5 0.004191 -0.001765 -0.008192 0.001932 0.036166 0.021509
# 6 0.011489 -0.002319 -0.010354 -0.001736 0.021509 0.046585
#
#
# Mechanical properties :
#
#
# Convention : Reuss Voigt Hill
#
# Bulk Modulus (GPa) = 32.63685 35.25169 33.94427
# Shear Modulus (GPa) = 31.69417 45.54246 38.61831
#
# Velocity S-wave (km/s) = 3.51795 4.21704 3.88326
# Velocity P-wave (km/s) = 5.40789 6.12179 5.77588
#
# Compressibility (1/GPa) = 0.03064022
#
# Stress axis : x y z
#
# Youngs Moduli (GPa) = 77.85346 88.62167 68.34377
#
# Poissons Ratio (x) = 0.08393 0.22281
# Poissons Ratio (y) = 0.07373 -0.01005
# Poissons Ratio (z) = 0.25381 -0.01303
#
# Static dielectric constant tensor:
#      x y z
#    x 1.793790 0.449360 -0.208480 
#    y 0.449360 1.628150 0.391000 
#    z -0.208480 0.391000 1.875190 
# 
# From -- ./inp_files/426794.got.cif
#   From: 2010.05.17/outbox.cif.g08.bks.cpg/sg2_214_cif.got.tgz:426794.got - 2010.06.03 11:33:40.
