data_PCOD9033647
_publ_section_title
;
Structure prediction by ZEFSAII (Michael W. Deem and Ramdas Pophale) SiO2 
 PCOD9033647
Probable space group: P -1
;
_chemical_formula_sum "Si O2"
_cell_formula_units_Z 16
_cell_length_a 15.092436
_cell_length_b 23.118176
_cell_length_c 17.733910
_cell_angle_alpha 20.362403
_cell_angle_beta 149.509556
_cell_angle_gamma 160.563542
_cell_volume 702.936219
_symmetry_space_group_name_H-M "P -1"
_symmetry_group_IT_number 2
_symmetry_cell_setting 'triclinic'
loop_
_space_group_symop_operation_xyz
x,y,z
-x,-y,-z
loop_
_atom_site_type_symbol
_atom_site_label
_atom_site_fract_x
_atom_site_fract_y
_atom_site_fract_z
Si Si1 0.896429 0.521072 0.471911
Si Si2 0.511667 0.965450 0.687484
Si Si3 0.729641 0.887372 0.727537
Si Si4 0.279348 0.768350 0.911751
Si Si5 0.234469 0.824990 0.069165
Si Si6 0.101883 0.386545 0.054545
Si Si7 0.435782 0.395388 0.208203
Si Si8 0.674421 0.783511 0.254355
O O1 0.781894 0.304211 0.712457
O O2 0.669554 0.478684 0.326233
O O3 0.000000 0.500000 0.500000
O O4 0.163498 0.800832 0.362742
O O5 0.434543 0.967462 0.713877
O O6 0.355754 0.677749 0.915260
O O7 0.374910 0.000224 0.489395
O O8 0.664466 0.773202 0.734262
O O9 0.563164 0.655415 0.947484
O O10 0.047558 0.088500 0.731839
O O11 0.470817 0.754463 0.093688
O O12 0.000000 0.500000 0.000000
O O13 0.157437 0.787158 0.868048
O O14 0.992548 0.604745 0.104720
O O15 0.500000 0.000000 0.000000
O O16 0.224555 0.009519 0.862297
O O17 0.199494 0.275071 0.239672
O O18 0.500000 0.500000 0.500000
#
# Coordination Sequence:
#
# PCOD9033647 Si02
#       8
#     2   2   2   2   2   2   2   2
#     4  12  25  46  75 101 141 191 235 288 353 425
#     4  11  24  45  75 102 141 192 235 285 358 425
#     4  11  23  41  70 102 135 181 238 283 344 423
#     4  10  22  44  69 101 143 185 229 283 354 422
#     4  12  26  46  69 103 142 183 233 290 359 413
#     4  11  24  45  68 103 147 183 234 297 349 416
#     4  11  24  43  68 106 138 178 234 290 347 415
#     4  12  24  44  70 102 132 185 236 286 341 429
#
# _framework density 22.761668
#
# number of rings (size 3 to 8) (size 9 to 14) (size 15 to 20)
#    0.000    0.750    3.750    4.500    0.000    2.500 
#    6.750    1.250    0.000    0.000    0.000    0.000 
#    0.000    0.000    0.000    0.000    0.000    0.000 
#
# Total GULP energy -89401.953387 kJ/mol
# GULP energy per Si atom -5587.622087 kJ/mol
# Density = 2.270986 g / cm^3
# Si number density = 22.761668 Si / 1000 Ang^3
#
#
#
# Elastic Constant Matrix: (Units=GPa)
#
#
# Indices 1 2 3 4 5 6 
#
# 1 92.6778 33.6694 34.1737 14.2717 -17.1413 4.6367
# 2 33.6694 157.2128 27.4658 14.1032 -7.4012 14.5410
# 3 34.1737 27.4658 89.0267 6.9166 -21.3331 13.5933
# 4 14.2717 14.1032 6.9166 50.0056 1.5280 9.7165
# 5 -17.1413 -7.4012 -21.3331 1.5280 20.7297 -4.5763
# 6 4.6367 14.5410 13.5933 9.7165 -4.5763 31.2774
#
#
#
# Elastic Compliance Matrix: (Units=1/GPa)
#
#
# Indices 1 2 3 4 5 6 
#
# 1 0.014861 -0.002118 -0.002878 -0.004055 0.009461 0.002676
# 2 -0.002118 0.007280 -0.001211 -0.000782 -0.000878 -0.002429
# 3 -0.002878 -0.001211 0.016606 -0.000763 0.013446 -0.004023
# 4 -0.004055 -0.000782 -0.000763 0.023074 -0.007662 -0.006993
# 5 0.009461 -0.000878 0.013446 -0.007662 0.071476 0.006000
# 6 0.002676 -0.002429 -0.004023 -0.006993 0.006000 0.037503
#
#
# Mechanical properties :
#
#
# Convention : Reuss Voigt Hill
#
# Bulk Modulus (GPa) = 37.97595 58.83726 48.40660
# Shear Modulus (GPa) = 26.04263 36.64309 31.34286
#
# Velocity S-wave (km/s) = 3.38619 4.01666 3.71482
# Velocity P-wave (km/s) = 5.65763 6.88598 6.30181
#
# Compressibility (1/GPa) = 0.02633245
#
# Stress axis : x y z
#
# Youngs Moduli (GPa) = 67.28993 137.36942 60.21750
#
# Poissons Ratio (x) = 0.29100 0.17328
# Poissons Ratio (y) = 0.14254 0.07295
# Poissons Ratio (z) = 0.19363 0.16641
#
# Static dielectric constant tensor:
#      x y z
#    x 1.884330 -0.034450 0.024860 
#    y -0.034450 1.894150 0.018590 
#    z 0.024860 0.018590 1.805090 
# 
# From -- ./inp_files/574405.got.cif
#   From: 2010.05.17/outbox.cif.g08.bks.cpg/sg2_288_cif.got.tgz:574405.got - 2010.06.03 11:33:40.
