data_PCOD9033990
_publ_section_title
;
Structure prediction by ZEFSAII (Michael W. Deem and Ramdas Pophale) SiO2 
 PCOD9033990
Probable space group: P -1
;
_chemical_formula_sum "Si O2"
_cell_formula_units_Z 13
_cell_length_a 9.634774
_cell_length_b 11.533979
_cell_length_c 7.026063
_cell_angle_alpha 125.923008
_cell_angle_beta 111.747220
_cell_angle_gamma 50.501132
_cell_volume 487.891169
_symmetry_space_group_name_H-M "P -1"
_symmetry_group_IT_number 2
_symmetry_cell_setting 'triclinic'
loop_
_space_group_symop_operation_xyz
x,y,z
-x,-y,-z
loop_
_atom_site_type_symbol
_atom_site_label
_atom_site_fract_x
_atom_site_fract_y
_atom_site_fract_z
Si Si1 0.160820 0.247052 0.821794
Si Si2 0.921193 0.242428 0.021464
Si Si3 0.916476 0.428339 0.527486
Si Si4 0.723290 0.074316 0.693359
Si Si5 0.500000 0.500000 0.000000
Si Si6 0.495309 0.355470 0.545733
Si Si7 0.525034 0.138587 0.037791
O O1 0.066414 0.236352 0.952122
O O2 0.009501 0.385999 0.736344
O O3 0.246868 0.069969 0.573806
O O4 0.326408 0.261623 0.965096
O O5 0.889049 0.094661 0.810682
O O6 0.958206 0.257272 0.274967
O O7 0.720669 0.412622 0.050001
O O8 0.705432 0.566095 0.544235
O O9 0.000000 0.500000 0.500000
O O10 0.559895 0.263658 0.702844
O O11 0.657720 0.059966 0.851227
O O12 0.485551 0.492633 0.231709
O O13 0.599963 0.212324 0.301804
O O14 0.500000 0.000000 0.000000
#
# Coordination Sequence:
#
# PCOD9033990 Si02
#       7
#     2   2   2   2   1   2   2
#     4  12  26  43  73 106 146 187 242 293 359 421
#     4  10  24  45  71 105 142 186 239 296 360 419
#     4  11  25  42  68 102 145 181 237 299 352 416
#     4  11  25  46  72 103 146 189 240 294 354 429
#     4   8  20  44  70  96 140 184 222 284 354 416
#     4  10  22  44  70  98 141 181 237 284 351 422
#     4  12  26  43  74 105 140 194 240 289 359 425
#
# _framework density 26.645285000000001
#
# number of rings (size 3 to 8) (size 9 to 14) (size 15 to 20)
#    0.000    1.231    1.538    2.769    4.308    9.231 
#    0.000    7.692    0.000    0.000    0.000    0.000 
#    0.000    0.000    0.000    0.000    0.000    0.000 
#
# Total GULP energy -72593.837536 kJ/mol
# GULP energy per Si atom -5584.141349 kJ/mol
# Density = 2.658464 g / cm^3
# Si number density = 26.645285 Si / 1000 Ang^3
#
#
#
# Elastic Constant Matrix: (Units=GPa)
#
#
# Indices 1 2 3 4 5 6 
#
# 1 97.0237 11.6498 30.5835 5.2330 -8.0344 -4.8933
# 2 11.6498 82.1037 2.3187 -15.5811 -5.0776 0.0181
# 3 30.5835 2.3187 208.9325 11.5120 14.9509 4.6294
# 4 5.2330 -15.5811 11.5120 43.7141 -2.7696 -1.0642
# 5 -8.0344 -5.0776 14.9509 -2.7696 51.7273 -5.1278
# 6 -4.8933 0.0181 4.6294 -1.0642 -5.1278 43.4642
#
#
#
# Elastic Compliance Matrix: (Units=1/GPa)
#
#
# Indices 1 2 3 4 5 6 
#
# 1 0.011409 -0.001681 -0.001775 -0.001316 0.002219 0.001704
# 2 -0.001681 0.013500 -0.000295 0.005185 0.001440 0.000133
# 3 -0.001775 -0.000295 0.005296 -0.001440 -0.002015 -0.001037
# 4 -0.001316 0.005185 -0.001440 0.025420 0.002169 0.000882
# 5 0.002219 0.001440 -0.002015 0.002169 0.020811 0.002972
# 6 0.001704 0.000133 -0.001037 0.000882 0.002972 0.023682
#
#
# Mechanical properties :
#
#
# Convention : Reuss Voigt Hill
#
# Bulk Modulus (GPa) = 44.05295 53.01824 48.53560
# Shear Modulus (GPa) = 43.40693 50.68164 47.04428
#
# Velocity S-wave (km/s) = 4.04055 4.36602 4.20643
# Velocity P-wave (km/s) = 6.19169 6.73478 6.46894
#
# Compressibility (1/GPa) = 0.02269995
#
# Stress axis : x y z
#
# Youngs Moduli (GPa) = 87.65096 74.07559 188.82354
#
# Poissons Ratio (x) = 0.12456 0.33524
# Poissons Ratio (y) = 0.14738 0.05578
# Poissons Ratio (z) = 0.15562 0.02188
#
# Static dielectric constant tensor:
#      x y z
#    x 1.372190 -0.894660 -0.627500 
#    y -0.894660 0.207270 -1.483570 
#    z -0.627500 -1.483570 0.956250 
# 
# From -- ./inp_files/28756.got.cif
#   From: 2010.05.17/outbox.cif.g08.bks.cpg/sg2_15_cif.got.tgz:28756.got - 2010.06.03 11:33:40.
