data_PCOD9033547
_publ_section_title
;
Structure prediction by ZEFSAII (Michael W. Deem and Ramdas Pophale) SiO2 
 PCOD9033547
Probable space group: P -1
;
_chemical_formula_sum "Si O2"
_cell_formula_units_Z 16
_cell_length_a 23.471027
_cell_length_b 13.426065
_cell_length_c 9.052570
_cell_angle_alpha 52.802036
_cell_angle_beta 32.537836
_cell_angle_gamma 30.143118
_cell_volume 683.795574
_symmetry_space_group_name_H-M "P -1"
_symmetry_group_IT_number 2
_symmetry_cell_setting 'triclinic'
loop_
_space_group_symop_operation_xyz
x,y,z
-x,-y,-z
loop_
_atom_site_type_symbol
_atom_site_label
_atom_site_fract_x
_atom_site_fract_y
_atom_site_fract_z
Si Si1 0.544317 0.055701 0.726989
Si Si2 0.373766 0.662640 0.269340
Si Si3 0.851641 0.255715 0.076122
Si Si4 0.144994 0.188491 0.539844
Si Si5 0.258696 0.669642 0.085722
Si Si6 0.133796 0.028922 0.226814
Si Si7 0.786846 0.678330 0.957966
Si Si8 0.207588 0.245809 0.810176
O O1 0.688942 0.009114 0.531809
O O2 0.656126 0.874412 0.517717
O O3 0.500000 0.000000 0.000000
O O4 0.346138 0.285395 0.878543
O O5 0.289645 0.631471 0.578399
O O6 0.212398 0.901302 0.327307
O O7 0.500000 0.500000 0.000000
O O8 0.529567 0.575586 0.110230
O O9 0.759283 0.330874 0.049562
O O10 0.992457 0.233998 0.798154
O O11 0.000000 0.000000 0.000000
O O12 0.224703 0.177268 0.229810
O O13 0.008616 0.426634 0.698882
O O14 0.208947 0.859100 0.087458
O O15 0.093754 0.754006 0.454817
O O16 0.197179 0.107305 0.988280
O O17 0.722052 0.752282 0.200055
O O18 0.000000 0.500000 0.000000
#
# Coordination Sequence:
#
# PCOD9033547 Si02
#       8
#     2   2   2   2   2   2   2   2
#     4  10  23  45  67  94 130 174 219 279 332 388
#     4  10  23  45  66  98 137 174 227 278 334 398
#     4  12  24  41  70 101 137 180 223 273 337 403
#     4  10  23  44  67  96 135 174 220 279 335 392
#     4  10  22  44  69 100 137 178 226 276 332 399
#     4  10  23  44  68  98 138 178 217 284 339 393
#     4  10  22  44  68  96 134 171 226 278 332 393
#     4  12  24  43  71 101 135 177 226 275 340 410
#
# _framework density 23.398804999999999
#
# number of rings (size 3 to 8) (size 9 to 14) (size 15 to 20)
#    0.000    1.500    2.500    1.500    1.750    2.000 
#    6.750    0.000    0.000    0.000    0.000    0.000 
#    0.000    0.000    0.000    0.000    0.000    0.000 
#
# Total GULP energy -89365.707048 kJ/mol
# GULP energy per Si atom -5585.356691 kJ/mol
# Density = 2.334555 g / cm^3
# Si number density = 23.398805 Si / 1000 Ang^3
#
#
#
# Elastic Constant Matrix: (Units=GPa)
#
#
# Indices 1 2 3 4 5 6 
#
# 1 146.4991 35.0572 51.3368 -11.0591 -0.8638 -40.8930
# 2 35.0572 30.8671 27.2478 -6.5529 -15.5750 -15.2966
# 3 51.3368 27.2478 110.0630 -0.9208 10.2013 -18.8790
# 4 -11.0591 -6.5529 -0.9208 27.5427 -10.9393 -4.2209
# 5 -0.8638 -15.5750 10.2013 -10.9393 47.2935 11.0772
# 6 -40.8930 -15.2966 -18.8790 -4.2209 11.0772 32.8951
#
#
#
# Elastic Compliance Matrix: (Units=1/GPa)
#
#
# Indices 1 2 3 4 5 6 
#
# 1 0.013608 -0.009406 -0.001102 0.003303 -0.005142 0.014066
# 2 -0.009406 0.096482 -0.021073 0.036927 0.041951 0.011690
# 3 -0.001102 -0.021073 0.016148 -0.009900 -0.013017 0.001212
# 4 0.003303 0.036927 -0.009900 0.058015 0.024296 0.014858
# 5 -0.005142 0.041951 -0.013017 0.024296 0.044773 -0.006314
# 6 0.014066 0.011690 0.001212 0.014858 -0.006314 0.058050
#
#
# Mechanical properties :
#
#
# Convention : Reuss Voigt Hill
#
# Bulk Modulus (GPa) = 15.85344 57.19033 36.52188
# Shear Modulus (GPa) = 13.46758 33.13207 23.29983
#
# Velocity S-wave (km/s) = 2.40170 3.76702 3.15901
# Velocity P-wave (km/s) = 3.80538 6.58902 5.38034
#
# Compressibility (1/GPa) = 0.06307780
#
# Stress axis : x y z
#
# Youngs Moduli (GPa) = 73.48538 10.36465 61.92693
#
# Poissons Ratio (x) = 0.09749 0.06823
# Poissons Ratio (y) = 0.69117 1.30497
# Poissons Ratio (z) = 0.08097 0.21841
#
# Static dielectric constant tensor:
#      x y z
#    x 1.944490 -0.012830 -0.028870 
#    y -0.012830 1.894570 0.021230 
#    z -0.028870 0.021230 1.905780 
# 
# From -- ./inp_files/354499.got.cif
#   From: 2010.05.17/outbox.cif.g08.bks.cpg/sg2_178_cif.got.tgz:354499.got - 2010.06.03 11:33:40.
