data_PCOD9033372
_publ_section_title
;
Structure prediction by ZEFSAII (Michael W. Deem and Ramdas Pophale) SiO2 
 PCOD9033372
Probable space group: P -1
;
_chemical_formula_sum "Si O2"
_cell_formula_units_Z 14
_cell_length_a 8.801476
_cell_length_b 27.433739
_cell_length_c 30.029504
_cell_angle_alpha 9.203373
_cell_angle_beta 31.609313
_cell_angle_gamma 33.630160
_cell_volume 605.016363
_symmetry_space_group_name_H-M "P -1"
_symmetry_group_IT_number 2
_symmetry_cell_setting 'triclinic'
loop_
_space_group_symop_operation_xyz
x,y,z
-x,-y,-z
loop_
_atom_site_type_symbol
_atom_site_label
_atom_site_fract_x
_atom_site_fract_y
_atom_site_fract_z
Si Si1 0.733615 0.289396 0.778046
Si Si2 0.648163 0.268422 0.046979
Si Si3 0.375092 0.800281 0.405272
Si Si4 0.277102 0.376324 0.129566
Si Si5 0.078921 0.075740 0.309048
Si Si6 0.011484 0.745220 0.465319
Si Si7 0.035936 0.791404 0.109272
O O1 0.444048 0.451769 0.696866
O O2 0.825390 0.310942 0.787072
O O3 0.000000 0.500000 0.500000
O O4 0.766799 0.971468 0.031056
O O5 0.472953 0.316712 0.092283
O O6 0.395944 0.166086 0.167578
O O7 0.854529 0.003300 0.245891
O O8 0.811961 0.569214 0.712337
O O9 0.279419 0.889941 0.298512
O O10 0.132694 0.854708 0.453386
O O11 0.681469 0.981895 0.181128
O O12 0.100980 0.086603 0.458690
O O13 0.500000 0.500000 0.000000
O O14 0.066272 0.631369 0.937524
O O15 0.056116 0.475581 0.661882
#
# Coordination Sequence:
#
# PCOD9033372 Si02
#       7
#     2   2   2   2   2   2   2
#     4   9  21  42  69  96 133 175 219 275 335 405
#     4  12  25  46  64 101 136 178 231 273 334 400
#     4  11  24  41  68  99 133 176 227 274 338 393
#     4  12  25  43  66  99 136 176 228 277 332 396
#     4  12  24  42  70  95 134 184 219 278 335 391
#     4  12  26  42  71 100 137 178 225 280 326 400
#     4  10  22  44  67  97 135 176 220 276 339 398
#
# _framework density 23.139868
#
# number of rings (size 3 to 8) (size 9 to 14) (size 15 to 20)
#    0.000    0.857    1.429    5.571    6.000    0.571 
#    0.000    6.429    0.000    0.000    0.000    0.000 
#    0.000    0.000    0.000    0.000    0.000    0.000 
#
# Total GULP energy -78238.827710 kJ/mol
# GULP energy per Si atom -5588.487694 kJ/mol
# Density = 2.308720 g / cm^3
# Si number density = 23.139868 Si / 1000 Ang^3
#
#
#
# Elastic Constant Matrix: (Units=GPa)
#
#
# Indices 1 2 3 4 5 6 
#
# 1 95.6101 -4.5818 25.0297 -47.2619 -14.2529 35.6424
# 2 -4.5818 -49.0894 -16.4193 -54.8263 -37.0620 102.4417
# 3 25.0297 -16.4193 61.3264 -1.8347 10.8380 5.6095
# 4 -47.2619 -54.8263 -1.8347 29.6894 -13.4696 35.1670
# 5 -14.2529 -37.0620 10.8380 -13.4696 38.6071 16.5759
# 6 35.6424 102.4417 5.6095 35.1670 16.5759 -4.3510
#
#
#
# Elastic Compliance Matrix: (Units=1/GPa)
#
#
# Indices 1 2 3 4 5 6 
#
# 1 0.017676 -0.009518 -0.010141 0.010042 0.003244 0.001152
# 2 -0.009518 0.007623 0.005772 -0.010593 -0.004373 0.006662
# 3 -0.010141 0.005772 0.023040 -0.006946 -0.006990 -0.000241
# 4 0.010042 -0.010593 -0.006946 0.022331 0.000530 0.006403
# 5 0.003244 -0.004373 -0.006990 0.000530 0.022717 0.005431
# 6 0.001152 0.006662 -0.000241 0.006403 0.005431 0.008597
#
#
# Mechanical properties :
#
#
# Convention : Reuss Voigt Hill
#
# Bulk Modulus (GPa) = 48.62587 12.87823 30.75205
# Shear Modulus (GPa) = 36.60012 19.71034 28.15523
#
# Velocity S-wave (km/s) = 3.98136 2.92171 3.49197
# Velocity P-wave (km/s) = 6.49573 4.11817 5.43847
#
# Compressibility (1/GPa) = 0.02056518
#
# Stress axis : x y z
#
# Youngs Moduli (GPa) = 56.57540 131.19036 43.40283
#
# Poissons Ratio (x) = 1.24863 0.44013
# Poissons Ratio (y) = 0.53847 -0.25051
# Poissons Ratio (z) = 0.57371 -0.75721
#
# Static dielectric constant tensor:
#      x y z
#    x 24.896920 30.364870 38.153850 
#    y 30.364870 41.982470 50.417200 
#    z 38.153850 50.417200 65.340610 
# 
# From -- ./inp_files/35640.got.cif
#   From: 2010.05.17/outbox.cif.g08.bks.cpg/sg2_18_cif.got.tgz:35640.got - 2010.06.03 11:33:40.
