data_PCOD9033646
_publ_section_title
;
Structure prediction by ZEFSAII (Michael W. Deem and Ramdas Pophale) SiO2 
 PCOD9033646
Probable space group: P -1
;
_chemical_formula_sum "Si O2"
_cell_formula_units_Z 14
_cell_length_a 8.224106
_cell_length_b 5.743066
_cell_length_c 12.129387
_cell_angle_alpha 104.754341
_cell_angle_beta 95.677719
_cell_angle_gamma 94.507490
_cell_volume 548.066471
_symmetry_space_group_name_H-M "P -1"
_symmetry_group_IT_number 2
_symmetry_cell_setting 'triclinic'
loop_
_space_group_symop_operation_xyz
x,y,z
-x,-y,-z
loop_
_atom_site_type_symbol
_atom_site_label
_atom_site_fract_x
_atom_site_fract_y
_atom_site_fract_z
Si Si1 0.149858 0.834838 0.356344
Si Si2 0.671943 0.400949 0.033254
Si Si3 0.681754 0.950650 0.817655
Si Si4 0.192378 0.138539 0.615913
Si Si5 0.844706 0.818221 0.006730
Si Si6 0.480205 0.708068 0.433304
Si Si7 0.688760 0.139768 0.220041
O O1 0.192919 0.961676 0.258459
O O2 0.294763 0.668265 0.370187
O O3 0.961278 0.725986 0.339663
O O4 0.162832 0.039407 0.477810
O O5 0.840141 0.558830 0.030289
O O6 0.684921 0.353554 0.157597
O O7 0.500000 0.500000 0.000000
O O8 0.668610 0.159553 0.932062
O O9 0.498947 0.895215 0.753769
O O10 0.745407 0.753407 0.878321
O O11 0.368118 0.296213 0.640659
O O12 0.205517 0.908707 0.670714
O O13 0.746099 0.942331 0.112720
O O14 0.000000 0.000000 0.000000
O O15 0.500000 0.500000 0.500000
O O16 0.500000 0.000000 0.500000
#
# Coordination Sequence:
#
# PCOD9033646 Si02
#       7
#     2   2   2   2   2   2   2
#     4  10  22  44  69 101 141 186 236 294 363 430
#     4  11  21  41  67  98 132 185 226 285 363 426
#     4  11  21  39  67  96 134 178 234 283 350 436
#     4  10  22  44  70  99 144 187 236 298 360 431
#     4  11  23  41  65  95 135 171 227 294 349 418
#     4  10  22  44  72  99 136 187 242 294 357 429
#     4  11  21  39  68  97 133 180 235 283 349 433
#
# _framework density 25.544345
#
# number of rings (size 3 to 8) (size 9 to 14) (size 15 to 20)
#    0.000    1.429    4.286    1.714    0.000    2.857 
#   15.429    0.000    3.143    0.000    0.000    0.000 
#    0.000    0.000    0.000    0.000    0.000    0.000 
#
# Total GULP energy -78126.813697 kJ/mol
# GULP energy per Si atom -5580.486693 kJ/mol
# Density = 2.548621 g / cm^3
# Si number density = 25.544345 Si / 1000 Ang^3
#
#
#
# Elastic Constant Matrix: (Units=GPa)
#
#
# Indices 1 2 3 4 5 6 
#
# 1 193.4215 25.8967 13.5163 -20.2512 -22.7538 12.9574
# 2 25.8967 92.1393 32.6436 -29.7748 -3.0238 12.4144
# 3 13.5163 32.6436 134.6807 -21.5322 -15.5327 -7.4735
# 4 -20.2512 -29.7748 -21.5322 46.8047 6.8221 -1.6861
# 5 -22.7538 -3.0238 -15.5327 6.8221 33.7273 -10.2471
# 6 12.9574 12.4144 -7.4735 -1.6861 -10.2471 22.0041
#
#
#
# Elastic Compliance Matrix: (Units=1/GPa)
#
#
# Indices 1 2 3 4 5 6 
#
# 1 0.005916 -0.000978 0.000201 0.001502 0.003328 -0.001199
# 2 -0.000978 0.016999 -0.004066 0.009039 -0.006738 -0.012841
# 3 0.000201 -0.004066 0.009869 0.001379 0.006696 0.008752
# 4 0.001502 0.009039 0.001379 0.028942 -0.005122 -0.005683
# 5 0.003328 -0.006738 0.006696 -0.005122 0.042564 0.023545
# 6 -0.001199 -0.012841 0.008752 -0.005683 0.023545 0.066899
#
#
# Mechanical properties :
#
#
# Convention : Reuss Voigt Hill
#
# Bulk Modulus (GPa) = 43.29690 62.70607 53.00148
# Shear Modulus (GPa) = 26.51482 43.71958 35.11720
#
# Velocity S-wave (km/s) = 3.22528 4.14154 3.71179
# Velocity P-wave (km/s) = 5.55486 6.88992 6.25809
#
# Compressibility (1/GPa) = 0.02309634
#
# Stress axis : x y z
#
# Youngs Moduli (GPa) = 169.03353 58.82799 101.32903
#
# Poissons Ratio (x) = 0.05752 -0.02033
# Poissons Ratio (y) = 0.16527 0.41205
# Poissons Ratio (z) = -0.03391 0.23922
#
# Static dielectric constant tensor:
#      x y z
#    x 2.208300 -0.062240 0.097230 
#    y -0.062240 2.142200 0.005360 
#    z 0.097230 0.005360 2.016530 
# 
# From -- ./inp_files/373175.got.cif
#   From: 2010.05.17/outbox.cif.g08.bks.cpg/sg2_187_cif.got.tgz:373175.got - 2010.06.03 11:33:40.
