data_PCOD9033490
_publ_section_title
;
Structure prediction by ZEFSAII (Michael W. Deem and Ramdas Pophale) SiO2 
 PCOD9033490
Probable space group: P -1
;
_chemical_formula_sum "Si O2"
_cell_formula_units_Z 16
_cell_length_a 5.192560
_cell_length_b 17.905790
_cell_length_c 9.630005
_cell_angle_alpha 44.491228
_cell_angle_beta 100.966067
_cell_angle_gamma 103.236522
_cell_volume 610.329203
_symmetry_space_group_name_H-M "P -1"
_symmetry_group_IT_number 2
_symmetry_cell_setting 'triclinic'
loop_
_space_group_symop_operation_xyz
x,y,z
-x,-y,-z
loop_
_atom_site_type_symbol
_atom_site_label
_atom_site_fract_x
_atom_site_fract_y
_atom_site_fract_z
Si Si1 0.323434 0.522399 0.167798
Si Si2 0.570867 0.185152 0.032820
Si Si3 0.800880 0.250206 0.555299
Si Si4 0.833475 0.627874 0.913858
Si Si5 0.607003 0.661606 0.409496
Si Si6 0.855251 0.005177 0.334676
Si Si7 0.794354 0.022525 0.835433
Si Si8 0.486258 0.190376 0.346286
O O1 0.602049 0.575216 0.064672
O O2 0.345174 0.461139 0.396146
O O3 0.109199 0.605039 0.037299
O O4 0.211810 0.433379 0.157167
O O5 0.526248 0.186685 0.191265
O O6 0.840300 0.128787 0.124541
O O7 0.382516 0.088441 0.068206
O O8 0.503236 0.290909 0.806320
O O9 0.623236 0.323541 0.523009
O O10 0.685047 0.127491 0.744272
O O11 0.720067 0.255132 0.377778
O O12 0.106230 0.273994 0.600849
O O13 0.767470 0.748452 0.734050
O O14 0.578238 0.930606 0.439735
O O15 0.017746 0.947597 0.317038
O O16 0.000000 0.000000 0.500000
O O17 0.000000 0.000000 0.000000
#
# Coordination Sequence:
#
# PCOD9033490 Si02
#       8
#     2   2   2   2   2   2   2   2
#     4  10  22  44  68 106 132 176 230 301 345 408
#     4  12  27  44  65 103 145 187 228 288 353 418
#     4  12  25  41  71 103 137 185 237 284 338 419
#     4  10  23  41  72 101 135 174 237 290 347 411
#     4  12  26  46  72 106 142 183 233 294 356 413
#     4  12  25  45  68  98 145 191 232 289 340 418
#     4  12  24  41  64  98 141 184 237 282 338 409
#     4  12  25  45  68 106 135 189 237 287 351 419
#
# _framework density 26.21536
#
# number of rings (size 3 to 8) (size 9 to 14) (size 15 to 20)
#    0.000    0.500    5.000    3.375    3.500    2.000 
#    0.000    1.250    0.000    0.000    0.000    0.000 
#    0.000    0.000    0.000    0.000    0.000    0.000 
#
# Total GULP energy -89556.170892 kJ/mol
# GULP energy per Si atom -5597.260681 kJ/mol
# Density = 2.615569 g / cm^3
# Si number density = 26.215360 Si / 1000 Ang^3
#
#
#
# Elastic Constant Matrix: (Units=GPa)
#
#
# Indices 1 2 3 4 5 6 
#
# 1 105.4895 12.6216 30.4535 4.2970 19.1310 -5.4933
# 2 12.6216 46.9281 11.0668 -4.4945 4.0505 -5.7704
# 3 30.4535 11.0668 153.1504 -6.1591 17.2355 -8.2066
# 4 4.2970 -4.4945 -6.1591 50.7371 -5.9613 9.8339
# 5 19.1310 4.0505 17.2355 -5.9613 43.8708 -8.5427
# 6 -5.4933 -5.7704 -8.2066 9.8339 -8.5427 41.9753
#
#
#
# Elastic Compliance Matrix: (Units=1/GPa)
#
#
# Indices 1 2 3 4 5 6 
#
# 1 0.011085 -0.002373 -0.001620 -0.001914 -0.004159 0.000410
# 2 -0.002373 0.022610 -0.000975 0.001654 -0.000013 0.002217
# 3 -0.001620 -0.000975 0.007182 0.000601 -0.001838 0.000543
# 4 -0.001914 0.001654 0.000601 0.021230 0.002478 -0.004375
# 5 -0.004159 -0.000013 -0.001838 0.002478 0.026426 0.003892
# 6 0.000410 0.002217 0.000543 -0.004375 0.003892 0.026105
#
#
# Mechanical properties :
#
#
# Convention : Reuss Voigt Hill
#
# Bulk Modulus (GPa) = 32.32027 45.98353 39.15190
# Shear Modulus (GPa) = 37.06813 44.07839 40.57326
#
# Velocity S-wave (km/s) = 3.76438 4.10493 3.93834
# Velocity P-wave (km/s) = 5.59013 6.32819 5.97058
#
# Compressibility (1/GPa) = 0.03094034
#
# Stress axis : x y z
#
# Youngs Moduli (GPa) = 90.21517 44.22898 139.23354
#
# Poissons Ratio (x) = 0.10497 0.22551
# Poissons Ratio (y) = 0.21411 0.13577
# Poissons Ratio (z) = 0.14612 0.04313
#
# Static dielectric constant tensor:
#      x y z
#    x 2.080170 0.073450 0.052620 
#    y 0.073450 2.042280 0.010720 
#    z 0.052620 0.010720 2.114500 
# 
# From -- ./inp_files/90121.got.cif
#   From: 2010.05.17/outbox.cif.g08.bks.cpg/sg2_46_cif.got.tgz:90121.got - 2010.06.03 11:33:40.
