data_PCOD9033739
_publ_section_title
;
Structure prediction by ZEFSAII (Michael W. Deem and Ramdas Pophale) SiO2 
 PCOD9033739
Probable space group: P -1
;
_chemical_formula_sum "Si O2"
_cell_formula_units_Z 14
_cell_length_a 19.934822
_cell_length_b 8.540110
_cell_length_c 14.372344
_cell_angle_alpha 43.515006
_cell_angle_beta 21.748549
_cell_angle_gamma 48.130080
_cell_volume 624.076660
_symmetry_space_group_name_H-M "P -1"
_symmetry_group_IT_number 2
_symmetry_cell_setting 'triclinic'
loop_
_space_group_symop_operation_xyz
x,y,z
-x,-y,-z
loop_
_atom_site_type_symbol
_atom_site_label
_atom_site_fract_x
_atom_site_fract_y
_atom_site_fract_z
Si Si1 0.730718 0.408083 0.438963
Si Si2 0.892445 0.630959 0.305561
Si Si3 0.779980 0.265626 0.898784
Si Si4 0.576176 0.909390 0.038296
Si Si5 0.452843 0.249930 0.207988
Si Si6 0.953539 0.842358 0.946766
Si Si7 0.919234 0.673517 0.662394
O O1 0.763890 0.459912 0.482835
O O2 0.528031 0.333999 0.709036
O O3 0.862985 0.208189 0.322490
O O4 0.810574 0.638207 0.189103
O O5 0.758933 0.758684 0.491644
O O6 0.031209 0.483370 0.247060
O O7 0.977697 0.791002 0.046999
O O8 0.812105 0.514028 0.794203
O O9 0.896441 0.254150 0.658541
O O10 0.866453 0.079941 0.934388
O O11 0.572694 0.218373 0.159829
O O12 0.514365 0.070538 0.130538
O O13 0.789254 0.873338 0.772690
O O14 0.500000 0.000000 0.000000
O O15 0.500000 0.500000 0.000000
#
# Coordination Sequence:
#
# PCOD9033739 Si02
#       7
#     2   2   2   2   2   2   2
#     4   9  21  45  68  94 141 168 224 266 340 385
#     4  10  22  44  69  96 134 174 223 271 326 396
#     4  11  24  43  69  97 137 172 227 272 333 392
#     4  12  26  42  69 100 136 176 219 279 333 391
#     4  12  25  43  67 100 136 171 223 276 333 389
#     4   9  22  42  73  94 136 180 215 274 333 395
#     4  11  25  42  71 102 131 173 228 275 328 394
#
# _framework density 22.433140999999999
#
# number of rings (size 3 to 8) (size 9 to 14) (size 15 to 20)
#    0.857    0.571    1.429    3.429    6.000    1.714 
#    0.000    1.429    0.000    0.000    0.000    0.000 
#    0.000    0.000    0.000    0.000    0.000    0.000 
#
# Total GULP energy -78289.992385 kJ/mol
# GULP energy per Si atom -5592.142313 kJ/mol
# Density = 2.238208 g / cm^3
# Si number density = 22.433141 Si / 1000 Ang^3
#
#
#
# Elastic Constant Matrix: (Units=GPa)
#
#
# Indices 1 2 3 4 5 6 
#
# 1 83.6416 21.5680 8.5065 14.3976 9.3122 -8.3839
# 2 21.5680 77.5004 19.5195 26.7146 7.9045 2.9698
# 3 8.5065 19.5195 64.0733 16.9089 4.9254 -1.2956
# 4 14.3976 26.7146 16.9089 44.3944 5.2494 0.6227
# 5 9.3122 7.9045 4.9254 5.2494 30.6321 -2.3287
# 6 -8.3839 2.9698 -1.2956 0.6227 -2.3287 47.5787
#
#
#
# Elastic Compliance Matrix: (Units=1/GPa)
#
#
# Indices 1 2 3 4 5 6 
#
# 1 0.013654 -0.002745 -0.000062 -0.002453 -0.002824 0.002470
# 2 -0.002745 0.017476 -0.002634 -0.008370 -0.001941 -0.001632
# 3 -0.000062 -0.002634 0.017863 -0.005058 -0.001258 0.000645
# 4 -0.002453 -0.008370 -0.005058 0.030474 -0.001543 -0.000522
# 5 -0.002824 -0.001941 -0.001258 -0.001543 0.034571 0.001301
# 6 0.002470 -0.001632 0.000645 -0.000522 0.001301 0.021643
#
#
# Mechanical properties :
#
#
# Convention : Reuss Voigt Hill
#
# Bulk Modulus (GPa) = 26.23975 36.04480 31.14228
# Shear Modulus (GPa) = 31.39367 36.22913 33.81140
#
# Velocity S-wave (km/s) = 3.74496 4.02304 3.88649
# Velocity P-wave (km/s) = 5.51560 6.13860 5.83542
#
# Compressibility (1/GPa) = 0.03811011
#
# Stress axis : x y z
#
# Youngs Moduli (GPa) = 73.23722 57.21971 55.98306
#
# Poissons Ratio (x) = 0.15708 0.00347
# Poissons Ratio (y) = 0.20105 0.14748
# Poissons Ratio (z) = 0.00454 0.15074
#
# Static dielectric constant tensor:
#      x y z
#    x 1.818200 0.038010 -0.011260 
#    y 0.038010 1.835450 -0.028810 
#    z -0.011260 -0.028810 1.849300 
# 
# From -- ./inp_files/540399.got.cif
#   From: 2010.05.17/outbox.cif.g08.bks.cpg/sg2_271_cif.got.tgz:540399.got - 2010.06.03 11:33:40.
