data_PCOD9033107
_publ_section_title
;
Structure prediction by ZEFSAII (Michael W. Deem and Ramdas Pophale) SiO2 
 PCOD9033107
Probable space group: P -1
;
_chemical_formula_sum "Si O2"
_cell_formula_units_Z 14
_cell_length_a 8.107212
_cell_length_b 11.053808
_cell_length_c 10.553919
_cell_angle_alpha 110.606208
_cell_angle_beta 101.865567
_cell_angle_gamma 42.644293
_cell_volume 597.612023
_symmetry_space_group_name_H-M "P -1"
_symmetry_group_IT_number 2
_symmetry_cell_setting 'triclinic'
loop_
_space_group_symop_operation_xyz
x,y,z
-x,-y,-z
loop_
_atom_site_type_symbol
_atom_site_label
_atom_site_fract_x
_atom_site_fract_y
_atom_site_fract_z
Si Si1 0.358136 0.752264 0.440194
Si Si2 0.310132 0.695732 0.118848
Si Si3 0.635412 0.734172 0.121510
Si Si4 0.310372 0.124542 0.268771
Si Si5 0.907571 0.852069 0.497648
Si Si6 0.818599 0.529529 0.578037
Si Si7 0.950353 0.698667 0.955366
O O1 0.342521 0.704672 0.277408
O O2 0.136423 0.821554 0.514194
O O3 0.612800 0.574563 0.478440
O O4 0.319249 0.930065 0.495269
O O5 0.381609 0.794088 0.104304
O O6 0.500000 0.500000 0.000000
O O7 0.063115 0.751128 0.078405
O O8 0.833314 0.522919 0.130645
O O9 0.563045 0.907561 0.241746
O O10 0.754282 0.719030 0.005253
O O11 0.321050 0.273387 0.308021
O O12 0.157222 0.162997 0.379204
O O13 0.169412 0.167687 0.134287
O O14 0.025583 0.656845 0.382632
O O15 0.000000 0.500000 0.500000
#
# Coordination Sequence:
#
# PCOD9033107 Si02
#       7
#     2   2   2   2   2   2   2
#     4  11  23  47  64  98 140 170 237 268 338 418
#     4  10  23  42  69  97 126 183 219 277 335 385
#     4  10  22  44  65  99 134 181 221 274 341 397
#     4  11  23  43  65 102 132 169 229 270 344 401
#     4  10  24  42  69  98 131 186 214 283 341 392
#     4  10  25  40  65  98 130 178 217 280 337 394
#     4  10  24  43  68  98 136 175 225 279 336 405
#
# _framework density 23.426573000000001
#
# number of rings (size 3 to 8) (size 9 to 14) (size 15 to 20)
#    0.000    1.714    1.429    0.857    8.000    9.714 
#    5.143    0.000    0.000    0.000    0.000    0.000 
#    0.000    0.000    0.000    0.000    0.000    0.000 
#
# Total GULP energy -77994.311209 kJ/mol
# GULP energy per Si atom -5571.022229 kJ/mol
# Density = 2.337325 g / cm^3
# Si number density = 23.426573 Si / 1000 Ang^3
#
#
#
# Elastic Constant Matrix: (Units=GPa)
#
#
# Indices 1 2 3 4 5 6 
#
# 1 67.1748 32.7281 17.1344 -15.4027 -11.3014 9.6634
# 2 32.7281 151.7506 42.1865 16.0923 9.7179 16.5179
# 3 17.1344 42.1865 84.3313 5.5946 18.5119 -2.4860
# 4 -15.4027 16.0923 5.5946 29.7769 4.2729 7.4536
# 5 -11.3014 9.7179 18.5119 4.2729 37.6641 5.9238
# 6 9.6634 16.5179 -2.4860 7.4536 5.9238 34.3887
#
#
#
# Elastic Compliance Matrix: (Units=1/GPa)
#
#
# Indices 1 2 3 4 5 6 
#
# 1 0.028239 -0.005638 -0.007549 0.020283 0.013297 -0.012460
# 2 -0.005638 0.009605 -0.002855 -0.006963 -0.001753 -0.001425
# 3 -0.007549 -0.002855 0.017847 -0.006157 -0.010858 0.007988
# 4 0.020283 -0.006963 -0.006157 0.051756 0.007443 -0.015301
# 5 0.013297 -0.001753 -0.010858 0.007443 0.037329 -0.011723
# 6 -0.012460 -0.001425 0.007988 -0.015301 -0.011723 0.039178
#
#
# Mechanical properties :
#
#
# Convention : Reuss Voigt Hill
#
# Bulk Modulus (GPa) = 42.35815 54.15053 48.25434
# Shear Modulus (GPa) = 22.33063 34.44645 28.38854
#
# Velocity S-wave (km/s) = 3.09077 3.83874 3.48488
# Velocity P-wave (km/s) = 5.55497 6.54317 6.06922
#
# Compressibility (1/GPa) = 0.02360821
#
# Stress axis : x y z
#
# Youngs Moduli (GPa) = 35.41171 104.11301 56.03086
#
# Poissons Ratio (x) = 0.58698 0.42298
# Poissons Ratio (y) = 0.19965 0.15995
# Poissons Ratio (z) = 0.26733 0.29720
#
# Static dielectric constant tensor:
#      x y z
#    x 1.900650 -0.011640 0.074510 
#    y -0.011640 1.947220 0.090500 
#    z 0.074510 0.090500 1.972110 
# 
# From -- ./inp_files/391074.got.cif
#   From: 2010.05.17/outbox.cif.g08.bks.cpg/sg2_196_cif.got.tgz:391074.got - 2010.06.03 11:33:40.
