data_PCOD9033445
_publ_section_title
;
Structure prediction by ZEFSAII (Michael W. Deem and Ramdas Pophale) SiO2 
 PCOD9033445
Probable space group: P -1
;
_chemical_formula_sum "Si O2"
_cell_formula_units_Z 12
_cell_length_a 9.858337
_cell_length_b 11.248440
_cell_length_c 9.155894
_cell_angle_alpha 39.970632
_cell_angle_beta 137.474148
_cell_angle_gamma 127.678034
_cell_volume 438.327784
_symmetry_space_group_name_H-M "P -1"
_symmetry_group_IT_number 2
_symmetry_cell_setting 'triclinic'
loop_
_space_group_symop_operation_xyz
x,y,z
-x,-y,-z
loop_
_atom_site_type_symbol
_atom_site_label
_atom_site_fract_x
_atom_site_fract_y
_atom_site_fract_z
Si Si1 0.558368 0.630992 0.121968
Si Si2 0.431939 0.780316 0.164340
Si Si3 0.798956 0.331576 0.628188
Si Si4 0.262418 0.879624 0.515647
Si Si5 0.786595 0.696713 0.846081
Si Si6 0.013930 0.786127 0.671789
O O1 0.573648 0.682451 0.257900
O O2 0.758736 0.532740 0.342042
O O3 0.384161 0.466103 0.099695
O O4 0.470350 0.804547 0.809228
O O5 0.379067 0.722577 0.341961
O O6 0.218464 0.738091 0.953776
O O7 0.500000 0.000000 0.000000
O O8 0.776764 0.181778 0.622790
O O9 0.006518 0.328931 0.881590
O O10 0.071990 0.784119 0.550644
O O11 0.266674 0.098080 0.346943
O O12 0.834251 0.685814 0.719900
O O13 0.000000 0.000000 0.500000
#
# Coordination Sequence:
#
# PCOD9033445 Si02
#       6
#     2   2   2   2   2   2
#     4  11  25  45  69  99 136 177 226 277 334 398
#     4  10  23  43  65  99 129 174 230 272 329 405
#     4  11  24  44  69 103 136 176 223 281 335 395
#     4  10  22  44  68 101 140 175 222 273 343 395
#     4  10  23  46  69  97 137 180 227 271 329 403
#     4   8  18  38  66  93 124 177 215 268 324 389
#
# _framework density 27.376773
#
# number of rings (size 3 to 8) (size 9 to 14) (size 15 to 20)
#    0.000    2.000    0.000    1.500    7.000    7.333 
#   15.000    0.000    0.000    0.000    0.000    0.000 
#    0.000    0.000    0.000    0.000    0.000    0.000 
#
# Total GULP energy -67257.425768 kJ/mol
# GULP energy per Si atom -5604.785481 kJ/mol
# Density = 2.731446 g / cm^3
# Si number density = 27.376773 Si / 1000 Ang^3
#
#
#
# Elastic Constant Matrix: (Units=GPa)
#
#
# Indices 1 2 3 4 5 6 
#
# 1 131.1393 43.9208 33.5715 1.4299 -29.3271 -10.8191
# 2 43.9208 166.4811 63.1388 -16.4429 6.5867 -25.6590
# 3 33.5715 63.1388 134.9786 -6.0908 20.6066 -7.9117
# 4 1.4299 -16.4429 -6.0908 55.7813 -22.1208 0.0923
# 5 -29.3271 6.5867 20.6066 -22.1208 46.9839 4.7359
# 6 -10.8191 -25.6590 -7.9117 0.0923 4.7359 37.8490
#
#
#
# Elastic Compliance Matrix: (Units=1/GPa)
#
#
# Indices 1 2 3 4 5 6 
#
# 1 0.011347 -0.001828 -0.003389 0.002827 0.010154 0.000018
# 2 -0.001828 0.008629 -0.003138 0.002047 -0.000487 0.004727
# 3 -0.003389 -0.003138 0.010779 -0.002712 -0.007692 0.000126
# 4 0.002827 0.002047 -0.002712 0.023640 0.013813 -0.000157
# 5 0.010154 -0.000487 -0.007692 0.013813 0.037952 -0.003818
# 6 0.000018 0.004727 0.000126 -0.000157 -0.003818 0.030135
#
#
# Mechanical properties :
#
#
# Convention : Reuss Voigt Hill
#
# Bulk Modulus (GPa) = 71.19811 79.31793 75.25802
# Shear Modulus (GPa) = 34.75294 47.58737 41.17016
#
# Velocity S-wave (km/s) = 3.56677 4.17374 3.88214
# Velocity P-wave (km/s) = 6.55940 7.22928 6.90247
#
# Compressibility (1/GPa) = 0.01404532
#
# Stress axis : x y z
#
# Youngs Moduli (GPa) = 88.13148 115.88736 92.77696
#
# Poissons Ratio (x) = 0.21184 0.31438
# Poissons Ratio (y) = 0.16111 0.29112
# Poissons Ratio (z) = 0.29864 0.36364
#
# Static dielectric constant tensor:
#      x y z
#    x 2.116160 0.076490 -0.262390 
#    y 0.076490 1.991730 0.169590 
#    z -0.262390 0.169590 1.727690 
# 
# From -- ./inp_files/261847.got.cif
#   From: 2010.05.17/outbox.cif.g08.bks.cpg/sg2_131_cif.got.tgz:261847.got - 2010.06.03 11:33:40.
