data_PCOD9033265
_publ_section_title
;
Structure prediction by ZEFSAII (Michael W. Deem and Ramdas Pophale) SiO2 
 PCOD9033265
Probable space group: P -1
;
_chemical_formula_sum "Si O2"
_cell_formula_units_Z 15
_cell_length_a 8.118698
_cell_length_b 18.626557
_cell_length_c 5.268200
_cell_angle_alpha 82.674286
_cell_angle_beta 78.004320
_cell_angle_gamma 129.180682
_cell_volume 567.783140
_symmetry_space_group_name_H-M "P -1"
_symmetry_group_IT_number 2
_symmetry_cell_setting 'triclinic'
loop_
_space_group_symop_operation_xyz
x,y,z
-x,-y,-z
loop_
_atom_site_type_symbol
_atom_site_label
_atom_site_fract_x
_atom_site_fract_y
_atom_site_fract_z
Si Si1 0.881550 0.732897 0.196336
Si Si2 0.385840 0.195368 0.184459
Si Si3 0.500000 0.000000 0.500000
Si Si4 0.267776 0.797334 0.694742
Si Si5 0.397086 0.361700 0.188141
Si Si6 0.043070 0.932112 0.909849
Si Si7 0.161750 0.502118 0.761357
Si Si8 0.223088 0.663430 0.384302
O O1 0.786977 0.677299 0.516600
O O2 0.707959 0.664588 0.047339
O O3 0.923685 0.831858 0.151384
O O4 0.119494 0.770506 0.002243
O O5 0.479683 0.154204 0.321728
O O6 0.454912 0.292824 0.232688
O O7 0.117145 0.115166 0.267447
O O8 0.540691 0.240717 0.859203
O O9 0.303705 0.884596 0.512392
O O10 0.300510 0.981850 0.750523
O O11 0.173061 0.702476 0.613379
O O12 0.631199 0.469152 0.149832
O O13 0.000000 0.000000 0.000000
O O14 0.252807 0.588391 0.492189
O O15 0.992561 0.401426 0.706946
O O16 0.000000 0.500000 0.000000
#
# Coordination Sequence:
#
# PCOD9033265 Si02
#       8
#     2   2   1   2   2   2   2   2
#     4  10  26  44  68  98 149 189 234 298 365 429
#     4  11  23  40  74  97 138 188 239 291 359 434
#     4  10  24  44  66 102 142 180 246 302 364 426
#     4  11  24  46  67 101 140 190 238 299 363 431
#     4  11  22  44  67 104 136 191 235 293 359 429
#     4  10  22  44  67 101 138 184 244 298 367 431
#     4  11  21  37  69 107 135 180 242 300 353 430
#     4  11  22  39  69 103 141 181 244 298 355 429
#
# _framework density 26.41854
#
# number of rings (size 3 to 8) (size 9 to 14) (size 15 to 20)
#    0.000    1.333    2.667    2.400    5.600    0.533 
#    7.200    3.333    0.000    0.000    0.000    0.000 
#    0.000    0.000    0.000    0.000    0.000    0.000 
#
# Total GULP energy -83696.595738 kJ/mol
# GULP energy per Si atom -5579.773049 kJ/mol
# Density = 2.635841 g / cm^3
# Si number density = 26.418540 Si / 1000 Ang^3
#
#
#
# Elastic Constant Matrix: (Units=GPa)
#
#
# Indices 1 2 3 4 5 6 
#
# 1 73.9027 11.4262 13.8478 -3.8615 -17.8425 7.8680
# 2 11.4262 110.5090 22.1766 5.6347 -4.2490 -12.3749
# 3 13.8478 22.1766 101.4797 7.7122 -22.7129 -3.4682
# 4 -3.8615 5.6347 7.7122 34.8730 -5.2722 -9.5371
# 5 -17.8425 -4.2490 -22.7129 -5.2722 43.4740 0.7103
# 6 7.8680 -12.3749 -3.4682 -9.5371 0.7103 42.4573
#
#
#
# Elastic Compliance Matrix: (Units=1/GPa)
#
#
# Indices 1 2 3 4 5 6 
#
# 1 0.015903 -0.001733 -0.000651 0.002298 0.006347 -0.003096
# 2 -0.001733 0.009955 -0.001990 -0.000700 -0.000911 0.002918
# 3 -0.000651 -0.001990 0.011720 -0.001495 0.005479 0.000071
# 4 0.002298 -0.000700 -0.001495 0.031676 0.003832 0.006299
# 5 0.006347 -0.000911 0.005479 0.003832 0.028855 -0.000616
# 6 -0.003096 0.002918 0.000071 0.006299 -0.000616 0.026408
#
#
# Mechanical properties :
#
#
# Convention : Reuss Voigt Hill
#
# Bulk Modulus (GPa) = 34.68679 42.31028 38.49853
# Shear Modulus (GPa) = 34.99517 40.05690 37.52604
#
# Velocity S-wave (km/s) = 3.64352 3.89812 3.77297
# Velocity P-wave (km/s) = 5.55504 6.02583 5.79522
#
# Compressibility (1/GPa) = 0.02882942
#
# Stress axis : x y z
#
# Youngs Moduli (GPa) = 62.88015 100.45156 85.32266
#
# Poissons Ratio (x) = 0.17413 0.05557
# Poissons Ratio (y) = 0.10900 0.16978
# Poissons Ratio (z) = 0.04095 0.19988
#
# Static dielectric constant tensor:
#      x y z
#    x 2.163400 0.002320 0.049830 
#    y 0.002320 2.068140 -0.025830 
#    z 0.049830 -0.025830 2.103250 
# 
# From -- ./inp_files/44132.got.cif
#   From: 2010.05.17/outbox.cif.g08.bks.cpg/sg2_23_cif.got.tgz:44132.got - 2010.06.03 11:33:40.
