data_PCOD9033323
_publ_section_title
;
Structure prediction by ZEFSAII (Michael W. Deem and Ramdas Pophale) SiO2 
 PCOD9033323
Probable space group: P -1
;
_chemical_formula_sum "Si O2"
_cell_formula_units_Z 15
_cell_length_a 17.656242
_cell_length_b 12.423536
_cell_length_c 20.932661
_cell_angle_alpha 149.091711
_cell_angle_beta 18.258807
_cell_angle_gamma 150.915796
_cell_volume 687.305626
_symmetry_space_group_name_H-M "P -1"
_symmetry_group_IT_number 2
_symmetry_cell_setting 'triclinic'
loop_
_space_group_symop_operation_xyz
x,y,z
-x,-y,-z
loop_
_atom_site_type_symbol
_atom_site_label
_atom_site_fract_x
_atom_site_fract_y
_atom_site_fract_z
Si Si1 0.740074 0.781058 0.525822
Si Si2 0.655831 0.075201 0.848126
Si Si3 0.000000 0.500000 0.500000
Si Si4 0.759749 0.558328 0.960779
Si Si5 0.635959 0.320093 0.426748
Si Si6 0.810896 0.785008 0.899770
Si Si7 0.655590 0.832943 0.295687
Si Si8 0.354939 0.930214 0.360934
O O1 0.632410 0.511871 0.478133
O O2 0.040514 0.853455 0.341686
O O3 0.597791 0.876237 0.741994
O O4 0.728679 0.906696 0.534072
O O5 0.631117 0.296405 0.948644
O O6 0.500000 0.000000 0.000000
O O7 0.901604 0.662175 0.708599
O O8 0.876535 0.289107 0.541878
O O9 0.736100 0.627105 0.942403
O O10 0.067460 0.636650 0.769831
O O11 0.642218 0.697216 0.172398
O O12 0.480798 0.332054 0.621071
O O13 0.499047 0.076291 0.381216
O O14 0.567923 0.856330 0.116891
O O15 0.051302 0.010940 0.842619
O O16 0.500000 0.000000 0.500000
#
# Coordination Sequence:
#
# PCOD9033323 Si02
#       8
#     2   2   1   2   2   2   2   2
#     4  10  24  43  67  96 129 176 216 268 328 388
#     4  10  22  44  67  94 128 167 223 270 322 390
#     4  12  28  44  64  92 132 180 220 266 334 394
#     4  11  23  40  70  98 128 172 220 274 325 382
#     4  11  22  43  68  97 133 170 220 272 322 390
#     4  12  25  43  65  97 134 173 216 276 326 390
#     4  12  22  40  68 101 130 169 223 271 326 385
#     4  12  25  45  64  97 138 171 220 268 335 395
#
# _framework density 21.824352999999999
#
# number of rings (size 3 to 8) (size 9 to 14) (size 15 to 20)
#    0.000    0.800    4.000    3.600    0.000    2.133 
#    0.000    0.667    0.000    0.000    0.000    0.000 
#    0.000    0.000    0.000    0.000    0.000    0.000 
#
# Total GULP energy -83712.710106 kJ/mol
# GULP energy per Si atom -5580.847340 kJ/mol
# Density = 2.177468 g / cm^3
# Si number density = 21.824353 Si / 1000 Ang^3
#
#
#
# Elastic Constant Matrix: (Units=GPa)
#
#
# Indices 1 2 3 4 5 6 
#
# 1 47.6235 2.7145 25.6005 6.2324 2.2661 -17.6437
# 2 2.7145 71.7993 17.0331 7.5614 -9.7583 -27.0879
# 3 25.6005 17.0331 97.2466 17.6958 27.2590 -9.3748
# 4 6.2324 7.5614 17.6958 30.4441 -6.2222 9.3128
# 5 2.2661 -9.7583 27.2590 -6.2222 43.6053 10.6704
# 6 -17.6437 -27.0879 -9.3748 9.3128 10.6704 36.1410
#
#
#
# Elastic Compliance Matrix: (Units=1/GPa)
#
#
# Indices 1 2 3 4 5 6 
#
# 1 0.039865 0.015345 -0.001289 -0.026039 -0.011517 0.040738
# 2 0.015345 0.028893 0.001151 -0.024200 -0.007799 0.037984
# 3 -0.001289 0.001151 0.022371 -0.022996 -0.021416 0.018285
# 4 -0.026039 -0.024200 -0.022996 0.087581 0.040249 -0.071266
# 5 -0.011517 -0.007799 -0.021416 0.040249 0.051329 -0.042549
# 6 0.040738 0.037984 0.018285 -0.071266 -0.042549 0.111696
#
#
# Mechanical properties :
#
#
# Convention : Reuss Voigt Hill
#
# Bulk Modulus (GPa) = 8.22745 34.15173 21.18959
# Shear Modulus (GPa) = 14.21119 33.45950 23.83535
#
# Velocity S-wave (km/s) = 2.55456 3.91976 3.30835
# Velocity P-wave (km/s) = 3.53257 6.01402 4.93191
#
# Compressibility (1/GPa) = 0.12154440
#
# Stress axis : x y z
#
# Youngs Moduli (GPa) = 25.08489 34.60988 44.70061
#
# Poissons Ratio (x) = -0.53109 0.05760
# Poissons Ratio (y) = -0.38493 -0.05146
# Poissons Ratio (z) = 0.03232 -0.03984
#
# Static dielectric constant tensor:
#      x y z
#    x 1.806130 0.020140 -0.018040 
#    y 0.020140 1.782920 -0.012120 
#    z -0.018040 -0.012120 1.778190 
# 
# From -- ./inp_files/65538.got.cif
#   From: 2010.05.17/outbox.cif.g08.bks.cpg/sg2_33_cif.got.tgz:65538.got - 2010.06.03 11:33:40.
