data_PCOD9033872
_publ_section_title
;
Structure prediction by ZEFSAII (Michael W. Deem and Ramdas Pophale) SiO2 
 PCOD9033872
Probable space group: P -1
;
_chemical_formula_sum "Si O2"
_cell_formula_units_Z 15
_cell_length_a 17.384022
_cell_length_b 9.175674
_cell_length_c 7.842855
_cell_angle_alpha 112.964385
_cell_angle_beta 35.000678
_cell_angle_gamma 123.336834
_cell_volume 594.773139
_symmetry_space_group_name_H-M "P -1"
_symmetry_group_IT_number 2
_symmetry_cell_setting 'triclinic'
loop_
_space_group_symop_operation_xyz
x,y,z
-x,-y,-z
loop_
_atom_site_type_symbol
_atom_site_label
_atom_site_fract_x
_atom_site_fract_y
_atom_site_fract_z
Si Si1 0.693321 0.458737 0.749847
Si Si2 0.500000 0.500000 0.500000
Si Si3 0.362347 0.921017 0.839704
Si Si4 0.140925 0.012489 0.647902
Si Si5 0.170001 0.136077 0.300992
Si Si6 0.047992 0.628725 0.631793
Si Si7 0.257835 0.531803 0.727693
Si Si8 0.459648 0.172924 0.288192
O O1 0.757193 0.659725 0.796210
O O2 0.673737 0.447819 0.576841
O O3 0.816083 0.390294 0.535715
O O4 0.548088 0.331012 0.063409
O O5 0.341064 0.453467 0.666242
O O6 0.459494 0.291696 0.502524
O O7 0.271232 0.719154 0.857832
O O8 0.438415 0.923546 0.887743
O O9 0.500000 0.000000 0.500000
O O10 0.271861 0.035569 0.038326
O O11 0.094620 0.822139 0.563300
O O12 0.173466 0.154330 0.507504
O O13 0.290715 0.053411 0.496739
O O14 0.000000 0.000000 0.000000
O O15 0.000000 0.000000 0.500000
O O16 0.000000 0.500000 0.500000
O O17 0.918133 0.588128 0.986893
#
# Coordination Sequence:
#
# PCOD9033872 Si02
#       8
#     2   1   2   2   2   2   2   2
#     4  12  27  46  79 110 152 198 254 322 376 460
#     4  10  22  44  70 104 146 194 238 304 368 456
#     4  11  28  49  77 110 153 201 248 316 385 459
#     4  12  28  48  78 111 151 200 255 319 380 456
#     4  12  28  48  75 113 155 196 258 309 382 451
#     4  12  25  49  76 106 152 205 252 314 387 458
#     4  11  25  47  74 111 150 197 255 306 390 451
#     4  11  27  48  75 108 153 196 256 306 395 448
#
# _framework density 25.219698999999999
#
# number of rings (size 3 to 8) (size 9 to 14) (size 15 to 20)
#    0.000    0.533    0.000    7.600    9.333    2.133 
#    0.000    1.333    0.000    0.000    0.000    0.000 
#    0.000    0.000    0.000    0.000    0.000    0.000 
#
# Total GULP energy -83802.472231 kJ/mol
# GULP energy per Si atom -5586.831482 kJ/mol
# Density = 2.516230 g / cm^3
# Si number density = 25.219699 Si / 1000 Ang^3
#
#
#
# Elastic Constant Matrix: (Units=GPa)
#
#
# Indices 1 2 3 4 5 6 
#
# 1 76.4831 25.2822 35.3936 1.7616 -16.5005 -12.0251
# 2 25.2822 126.7655 61.9794 9.2997 -6.1293 -7.1032
# 3 35.3936 61.9794 161.7746 2.2651 -25.8115 -19.2423
# 4 1.7616 9.2997 2.2651 39.2729 -10.0901 -5.0003
# 5 -16.5005 -6.1293 -25.8115 -10.0901 42.8477 -4.1888
# 6 -12.0251 -7.1032 -19.2423 -5.0003 -4.1888 42.3069
#
#
#
# Elastic Compliance Matrix: (Units=1/GPa)
#
#
# Indices 1 2 3 4 5 6 
#
# 1 0.016395 -0.002271 -0.001214 0.002045 0.006187 0.004581
# 2 -0.002271 0.010307 -0.003989 -0.002955 -0.002630 -0.001339
# 3 -0.001214 -0.003989 0.009305 0.002398 0.005528 0.004048
# 4 0.002045 -0.002955 0.002398 0.028992 0.009175 0.005511
# 5 0.006187 -0.002630 0.005528 0.009175 0.031622 0.008047
# 6 0.004581 -0.001339 0.004048 0.005511 0.008047 0.028003
#
#
# Mechanical properties :
#
#
# Convention : Reuss Voigt Hill
#
# Bulk Modulus (GPa) = 47.48426 67.81484 57.64955
# Shear Modulus (GPa) = 34.10843 41.04337 37.57590
#
# Velocity S-wave (km/s) = 3.68156 4.03852 3.86416
# Velocity P-wave (km/s) = 6.07791 6.97812 6.54351
#
# Compressibility (1/GPa) = 0.02105961
#
# Stress axis : x y z
#
# Youngs Moduli (GPa) = 60.99440 97.02564 107.46503
#
# Poissons Ratio (x) = 0.22031 0.13041
# Poissons Ratio (y) = 0.13850 0.42872
# Poissons Ratio (z) = 0.07402 0.38708
#
# Static dielectric constant tensor:
#      x y z
#    x 2.138520 0.094960 0.009150 
#    y 0.094960 2.058360 0.094000 
#    z 0.009150 0.094000 1.406480 
# 
# From -- ./inp_files/329244.got.cif
#   From: 2010.05.17/outbox.cif.g08.bks.cpg/sg2_165_cif.got.tgz:329244.got - 2010.06.03 11:33:40.
