data_PCOD9033630
_publ_section_title
;
Structure prediction by ZEFSAII (Michael W. Deem and Ramdas Pophale) SiO2 
 PCOD9033630
Probable space group: P -1
;
_chemical_formula_sum "Si O2"
_cell_formula_units_Z 12
_cell_length_a 5.251839
_cell_length_b 15.628787
_cell_length_c 9.097069
_cell_angle_alpha 48.660400
_cell_angle_beta 60.302126
_cell_angle_gamma 85.897492
_cell_volume 447.992472
_symmetry_space_group_name_H-M "P -1"
_symmetry_group_IT_number 2
_symmetry_cell_setting 'triclinic'
loop_
_space_group_symop_operation_xyz
x,y,z
-x,-y,-z
loop_
_atom_site_type_symbol
_atom_site_label
_atom_site_fract_x
_atom_site_fract_y
_atom_site_fract_z
Si Si1 0.645233 0.045589 0.563963
Si Si2 0.345978 0.084340 0.859012
Si Si3 0.237680 0.276905 0.138829
Si Si4 0.257824 0.489404 0.717400
Si Si5 0.625165 0.210842 0.897684
Si Si6 0.798719 0.632635 0.626682
O O1 0.533140 0.135246 0.596485
O O2 0.018789 0.129703 0.359202
O O3 0.500000 0.000000 0.500000
O O4 0.482620 0.918487 0.842248
O O5 0.384226 0.187307 0.854024
O O6 0.500000 0.000000 0.000000
O O7 0.000000 0.000000 0.000000
O O8 0.257664 0.320142 0.251523
O O9 0.093821 0.351165 0.988077
O O10 0.567809 0.298471 0.935975
O O11 0.500000 0.500000 0.500000
O O12 0.478743 0.562107 0.708722
O O13 0.004439 0.548280 0.685331
O O14 0.965822 0.258873 0.668562
#
# Coordination Sequence:
#
# PCOD9033630 Si02
#       6
#     2   2   2   2   2   2
#     4  11  25  43  73 116 154 198 252 307 377 458
#     4  10  22  44  69 100 150 195 240 297 360 441
#     4  12  26  48  76 112 152 202 251 316 374 451
#     4  12  28  52  82 109 152 199 256 315 379 441
#     4  11  25  48  74 112 154 200 248 310 382 449
#     4  12  28  52  78 114 148 201 255 315 374 450
#
# _framework density 26.786162999999998
#
# number of rings (size 3 to 8) (size 9 to 14) (size 15 to 20)
#    0.000    0.667    3.333    3.000    2.333    5.333 
#    0.000    0.000    0.000    0.000    0.000    0.000 
#    0.000    0.000    0.000    0.000    0.000    0.000 
#
# Total GULP energy -67168.545345 kJ/mol
# GULP energy per Si atom -5597.378779 kJ/mol
# Density = 2.672520 g / cm^3
# Si number density = 26.786163 Si / 1000 Ang^3
#
#
#
# Elastic Constant Matrix: (Units=GPa)
#
#
# Indices 1 2 3 4 5 6 
#
# 1 112.6750 45.3082 20.0535 2.8324 8.0032 23.3405
# 2 45.3082 186.5793 47.3018 51.3627 8.1763 26.0308
# 3 20.0535 47.3018 146.9630 18.3285 19.1212 0.7375
# 4 2.8324 51.3627 18.3285 72.0059 -3.2448 4.7580
# 5 8.0032 8.1763 19.1212 -3.2448 47.0357 -1.6858
# 6 23.3405 26.0308 0.7375 4.7580 -1.6858 44.1023
#
#
#
# Elastic Compliance Matrix: (Units=1/GPa)
#
#
# Indices 1 2 3 4 5 6 
#
# 1 0.010911 -0.002172 -0.000806 0.001581 -0.001211 -0.004696
# 2 -0.002172 0.008187 -0.001560 -0.005191 -0.000890 -0.003131
# 3 -0.000806 -0.001560 0.007914 -0.001079 -0.002840 0.001223
# 4 0.001581 -0.005191 -0.001079 0.017881 0.002320 0.000405
# 5 -0.001211 -0.000890 -0.002840 0.002320 0.023002 0.001842
# 6 -0.004696 -0.003131 0.001223 0.000405 0.001842 0.027014
#
#
# Mechanical properties :
#
#
# Convention : Reuss Voigt Hill
#
# Bulk Modulus (GPa) = 55.75222 74.61606 65.18414
# Shear Modulus (GPa) = 45.46946 54.86570 50.16758
#
# Velocity S-wave (km/s) = 4.12454 4.53071 4.33239
# Velocity P-wave (km/s) = 6.59859 7.43548 7.02950
#
# Compressibility (1/GPa) = 0.01793651
#
# Stress axis : x y z
#
# Youngs Moduli (GPa) = 91.65078 122.13844 126.35274
#
# Poissons Ratio (x) = 0.26534 0.10181
# Poissons Ratio (y) = 0.19911 0.19710
# Poissons Ratio (z) = 0.07385 0.19053
#
# Static dielectric constant tensor:
#      x y z
#    x 2.175500 -0.309080 -0.034770 
#    y -0.309080 2.480470 -0.001750 
#    z -0.034770 -0.001750 2.162260 
# 
# From -- ./inp_files/65320.got.cif
#   From: 2010.05.17/outbox.cif.g08.bks.cpg/sg2_33_cif.got.tgz:65320.got - 2010.06.03 11:33:40.
