data_PCOD9033532
_publ_section_title
;
Structure prediction by ZEFSAII (Michael W. Deem and Ramdas Pophale) SiO2 
 PCOD9033532
Probable space group: P -1
;
_chemical_formula_sum "Si O2"
_cell_formula_units_Z 13
_cell_length_a 8.620778
_cell_length_b 7.960220
_cell_length_c 14.318830
_cell_angle_alpha 124.741074
_cell_angle_beta 97.299419
_cell_angle_gamma 47.592311
_cell_volume 539.940164
_symmetry_space_group_name_H-M "P -1"
_symmetry_group_IT_number 2
_symmetry_cell_setting 'triclinic'
loop_
_space_group_symop_operation_xyz
x,y,z
-x,-y,-z
loop_
_atom_site_type_symbol
_atom_site_label
_atom_site_fract_x
_atom_site_fract_y
_atom_site_fract_z
Si Si1 0.794457 0.041590 0.375592
Si Si2 0.860061 0.301104 0.146929
Si Si3 0.370905 0.409486 0.957013
Si Si4 0.169264 0.042672 0.859316
Si Si5 0.283361 0.423685 0.498377
Si Si6 0.021617 0.494241 0.342370
Si Si7 0.500000 0.000000 0.000000
O O1 0.548305 0.237395 0.468163
O O2 0.845211 0.233457 0.423418
O O3 0.777766 0.963427 0.245782
O O4 0.975399 0.742691 0.357235
O O5 0.019232 0.313595 0.211472
O O6 0.754020 0.263303 0.208133
O O7 0.676381 0.583373 0.153777
O O8 0.000000 0.000000 0.000000
O O9 0.109362 0.671693 0.062830
O O10 0.505945 0.130457 0.946565
O O11 0.500000 0.500000 0.000000
O O12 0.299251 0.051562 0.948357
O O13 0.179569 0.389403 0.563999
O O14 0.237629 0.331690 0.373590
#
# Coordination Sequence:
#
# PCOD9033532 Si02
#       7
#     2   2   2   2   2   2   1
#     4  11  23  44  67 104 135 171 230 291 339 408
#     4  10  22  44  68  94 141 179 224 280 337 410
#     4  11  24  45  66  96 135 185 227 282 338 410
#     4  11  24  43  67  99 138 180 228 286 342 408
#     4  10  24  43  71  98 134 178 228 284 347 401
#     4  11  22  45  70  97 133 183 226 280 345 410
#     4  12  24  42  70  96 134 182 236 274 346 410
#
# _framework density 24.076741999999999
#
# number of rings (size 3 to 8) (size 9 to 14) (size 15 to 20)
#    0.000    1.231    3.077    2.308    0.000    4.923 
#    5.538    1.538    0.000    0.000    0.000    0.000 
#    0.000    0.000    0.000    0.000    0.000    0.000 
#
# Total GULP energy -72390.839573 kJ/mol
# GULP energy per Si atom -5568.526121 kJ/mol
# Density = 2.402194 g / cm^3
# Si number density = 24.076742 Si / 1000 Ang^3
#
#
#
# Elastic Constant Matrix: (Units=GPa)
#
#
# Indices 1 2 3 4 5 6 
#
# 1 116.9019 38.9617 17.2506 -6.9053 9.7434 4.8178
# 2 38.9617 113.7255 47.9944 -40.7088 -9.9092 22.6539
# 3 17.2506 47.9944 79.1777 -30.7433 11.6019 -13.0436
# 4 -6.9053 -40.7088 -30.7433 32.2547 -1.8131 -6.7269
# 5 9.7434 -9.9092 11.6019 -1.8131 45.2735 -16.1878
# 6 4.8178 22.6539 -13.0436 -6.7269 -16.1878 44.7028
#
#
#
# Elastic Compliance Matrix: (Units=1/GPa)
#
#
# Indices 1 2 3 4 5 6 
#
# 1 0.010523 -0.005546 -0.000795 -0.005889 -0.003803 -0.000819
# 2 -0.005546 0.022804 -0.007334 0.019262 0.005960 -0.008042
# 3 -0.000795 -0.007334 0.027485 0.019481 -0.002782 0.013746
# 4 -0.005889 0.019262 0.019481 0.075220 0.007260 0.010506
# 5 -0.003803 0.005960 -0.002782 0.007260 0.028008 0.007813
# 6 -0.000819 -0.008042 0.013746 0.010506 0.007813 0.034955
#
#
# Mechanical properties :
#
#
# Convention : Reuss Voigt Hill
#
# Bulk Modulus (GPa) = 29.88479 57.57984 43.73232
# Shear Modulus (GPa) = 21.05278 38.15275 29.60277
#
# Velocity S-wave (km/s) = 2.96024 3.98506 3.51025
# Velocity P-wave (km/s) = 4.91155 6.71873 5.88492
#
# Compressibility (1/GPa) = 0.03346184
#
# Stress axis : x y z
#
# Youngs Moduli (GPa) = 95.03236 43.85175 36.38357
#
# Poissons Ratio (x) = 0.24319 0.02894
# Poissons Ratio (y) = 0.52701 0.26683
# Poissons Ratio (z) = 0.07559 0.32161
#
# Static dielectric constant tensor:
#      x y z
#    x 1.930550 0.036540 -0.021640 
#    y 0.036540 1.968230 0.057360 
#    z -0.021640 0.057360 1.983580 
# 
# From -- ./inp_files/491440.got.cif
#   From: 2010.05.17/outbox.cif.g08.bks.cpg/sg2_246_cif.got.tgz:491440.got - 2010.06.03 11:33:40.
