data_PCOD9033779
_publ_section_title
;
Structure prediction by ZEFSAII (Michael W. Deem and Ramdas Pophale) SiO2 
 PCOD9033779
Probable space group: P -1
;
_chemical_formula_sum "Si O2"
_cell_formula_units_Z 16
_cell_length_a 14.863176
_cell_length_b 12.009596
_cell_length_c 11.227617
_cell_angle_alpha 96.795472
_cell_angle_beta 96.828164
_cell_angle_gamma 19.490182
_cell_volume 663.810472
_symmetry_space_group_name_H-M "P -1"
_symmetry_group_IT_number 2
_symmetry_cell_setting 'triclinic'
loop_
_space_group_symop_operation_xyz
x,y,z
-x,-y,-z
loop_
_atom_site_type_symbol
_atom_site_label
_atom_site_fract_x
_atom_site_fract_y
_atom_site_fract_z
Si Si1 0.012429 0.074125 0.115908
Si Si2 0.786386 0.543447 0.023764
Si Si3 0.661035 0.324084 0.649033
Si Si4 0.221149 0.435693 0.251692
Si Si5 0.211851 0.195770 0.154922
Si Si6 0.444516 0.347437 0.694440
Si Si7 0.547849 0.073966 0.479284
Si Si8 0.798379 0.003373 0.442846
O O1 0.749842 0.399067 0.195652
O O2 0.226388 0.792157 0.215139
O O3 0.010264 0.193369 0.060253
O O4 0.000000 0.000000 0.000000
O O5 0.748857 0.567613 0.881092
O O6 0.946688 0.468974 0.075065
O O7 0.491334 0.882620 0.082489
O O8 0.475587 0.430126 0.647620
O O9 0.857504 0.040236 0.544764
O O10 0.493533 0.622830 0.611478
O O11 0.157861 0.377269 0.231130
O O12 0.479797 0.149809 0.338758
O O13 0.996520 0.763868 0.332106
O O14 0.289458 0.015695 0.247317
O O15 0.361954 0.351631 0.584699
O O16 0.783973 0.896593 0.490486
O O17 0.500000 0.000000 0.500000
#
# Coordination Sequence:
#
# PCOD9033779 Si02
#       8
#     2   2   2   2   2   2   2   2
#     4  11  25  40  68 101 136 192 237 296 352 437
#     4  11  27  45  71 106 148 194 238 295 370 424
#     4  10  22  48  65  97 143 181 243 293 367 425
#     4  12  26  42  70 104 142 180 243 298 357 445
#     4  11  24  47  71 104 147 195 237 299 364 434
#     4  10  22  44  69  98 141 184 239 300 360 425
#     4  11  24  44  68 104 134 181 236 297 367 428
#     4  10  26  41  72 100 134 189 230 307 360 429
#
# _framework density 24.103266000000001
#
# number of rings (size 3 to 8) (size 9 to 14) (size 15 to 20)
#    0.000    1.250    2.500    1.500    7.000    2.000 
#    0.000    3.750    0.000    0.000    0.000    0.000 
#    0.000    0.000    0.000    0.000    0.000    0.000 
#
# Total GULP energy -89179.847999 kJ/mol
# GULP energy per Si atom -5573.740500 kJ/mol
# Density = 2.404841 g / cm^3
# Si number density = 24.103266 Si / 1000 Ang^3
#
#
#
# Elastic Constant Matrix: (Units=GPa)
#
#
# Indices 1 2 3 4 5 6 
#
# 1 84.2073 1.5804 27.2681 2.0584 8.9344 8.4529
# 2 1.5804 83.9948 64.6560 5.3103 6.9188 8.2323
# 3 27.2681 64.6560 224.5971 0.2871 26.5640 8.2099
# 4 2.0584 5.3103 0.2871 42.3496 13.7046 4.7367
# 5 8.9344 6.9188 26.5640 13.7046 47.0888 -0.8252
# 6 8.4529 8.2323 8.2099 4.7367 -0.8252 30.6312
#
#
#
# Elastic Compliance Matrix: (Units=1/GPa)
#
#
# Indices 1 2 3 4 5 6 
#
# 1 0.012940 0.001529 -0.001659 0.000199 -0.001866 -0.003618
# 2 0.001529 0.015876 -0.004700 -0.001849 0.000512 -0.003129
# 3 -0.001659 -0.004700 0.006381 0.001662 -0.003084 -0.000330
# 4 0.000199 -0.001849 0.001662 0.027127 -0.008676 -0.004432
# 5 -0.001866 0.000512 -0.003084 -0.008676 0.025837 0.003242
# 6 -0.003618 -0.003129 -0.000330 -0.004432 0.003242 0.035347
#
#
# Mechanical properties :
#
#
# Convention : Reuss Voigt Hill
#
# Bulk Modulus (GPa) = 39.15615 64.42314 51.78964
# Shear Modulus (GPa) = 35.29083 43.96690 39.62886
#
# Velocity S-wave (km/s) = 3.83057 4.27559 4.05918
# Velocity P-wave (km/s) = 5.98705 7.15264 6.59564
#
# Compressibility (1/GPa) = 0.02553877
#
# Stress axis : x y z
#
# Youngs Moduli (GPa) = 77.27906 62.98900 156.70597
#
# Poissons Ratio (x) = -0.09631 0.25990
# Poissons Ratio (y) = -0.11815 0.73646
# Poissons Ratio (z) = 0.12817 0.29603
#
# Static dielectric constant tensor:
#      x y z
#    x 2.007920 -0.028360 -0.032870 
#    y -0.028360 1.968280 -0.061150 
#    z -0.032870 -0.061150 1.949160 
# 
# From -- ./inp_files/371401.got.cif
#   From: 2010.05.17/outbox.cif.g08.bks.cpg/sg2_186_cif.got.tgz:371401.got - 2010.06.03 11:33:40.
