data_PCOD9033285
_publ_section_title
;
Structure prediction by ZEFSAII (Michael W. Deem and Ramdas Pophale) SiO2 
 PCOD9033285
Probable space group: P -1
;
_chemical_formula_sum "Si O2"
_cell_formula_units_Z 14
_cell_length_a 13.720742
_cell_length_b 8.249218
_cell_length_c 5.221299
_cell_angle_alpha 65.274021
_cell_angle_beta 82.456080
_cell_angle_gamma 82.173429
_cell_volume 529.975855
_symmetry_space_group_name_H-M "P -1"
_symmetry_group_IT_number 2
_symmetry_cell_setting 'triclinic'
loop_
_space_group_symop_operation_xyz
x,y,z
-x,-y,-z
loop_
_atom_site_type_symbol
_atom_site_label
_atom_site_fract_x
_atom_site_fract_y
_atom_site_fract_z
Si Si1 0.909134 0.880193 0.650177
Si Si2 0.022559 0.304499 0.739783
Si Si3 0.666911 0.492743 0.475198
Si Si4 0.191786 0.837174 0.157101
Si Si5 0.581717 0.917967 0.801717
Si Si6 0.527831 0.309312 0.328606
Si Si7 0.292843 0.135549 0.703485
O O1 0.903222 0.787833 0.439135
O O2 0.824852 0.019741 0.700530
O O3 0.000000 0.000000 0.500000
O O4 0.935818 0.734794 0.963462
O O5 0.916817 0.219691 0.832096
O O6 0.000000 0.500000 0.500000
O O7 0.732908 0.329894 0.688316
O O8 0.622104 0.419356 0.275235
O O9 0.568495 0.570080 0.612563
O O10 0.734453 0.658811 0.330847
O O11 0.233927 0.959941 0.846910
O O12 0.500865 0.774228 0.878314
O O13 0.662475 0.853964 0.601152
O O14 0.549420 0.122558 0.599650
O O15 0.625714 0.913553 0.069526
#
# Coordination Sequence:
#
# PCOD9033285 Si02
#       7
#     2   2   2   2   2   2   2
#     4  10  23  47  74 101 142 184 222 285 352 419
#     4  11  25  48  77 107 138 185 232 282 352 427
#     4  10  22  44  67 104 132 188 230 289 331 411
#     4  11  24  46  72 102 145 175 232 280 351 406
#     4  10  22  44  68  92 135 191 226 286 344 398
#     4   9  20  43  66  95 140 180 240 276 342 401
#     4  11  25  44  66 100 137 178 233 286 346 394
#
# _framework density 26.416302000000002
#
# number of rings (size 3 to 8) (size 9 to 14) (size 15 to 20)
#    0.000    1.714    1.429    2.143    2.000    9.143 
#    7.714    0.000    0.000    0.000    0.000    0.000 
#    0.000    0.000    0.000    0.000    0.000    0.000 
#
# Total GULP energy -78307.929342 kJ/mol
# GULP energy per Si atom -5593.423524 kJ/mol
# Density = 2.635618 g / cm^3
# Si number density = 26.416302 Si / 1000 Ang^3
#
#
#
# Elastic Constant Matrix: (Units=GPa)
#
#
# Indices 1 2 3 4 5 6 
#
# 1 82.9601 35.4500 19.0069 -14.8470 -2.0277 33.3191
# 2 35.4500 91.4640 29.5478 -38.0817 7.1641 1.9501
# 3 19.0069 29.5478 118.3197 -25.1415 8.8831 16.8164
# 4 -14.8470 -38.0817 -25.1415 66.6326 -4.6681 9.6643
# 5 -2.0277 7.1641 8.8831 -4.6681 52.2268 -8.5665
# 6 33.3191 1.9501 16.8164 9.6643 -8.5665 56.5274
#
#
#
# Elastic Compliance Matrix: (Units=1/GPa)
#
#
# Indices 1 2 3 4 5 6 
#
# 1 0.020190 -0.006636 0.000788 0.002788 -0.000227 -0.012417
# 2 -0.006636 0.017154 -0.001964 0.007135 -0.001229 0.002498
# 3 0.000788 -0.001964 0.010301 0.003438 -0.001855 -0.004330
# 4 0.002788 0.007135 0.003438 0.021942 -0.000602 -0.006755
# 5 -0.000227 -0.001229 -0.001855 -0.000602 0.020207 0.003894
# 6 -0.012417 0.002498 -0.004330 -0.006755 0.003894 0.027957
#
#
# Mechanical properties :
#
#
# Convention : Reuss Voigt Hill
#
# Bulk Modulus (GPa) = 31.23071 51.19481 41.21276
# Shear Modulus (GPa) = 34.71065 48.99330 41.85197
#
# Velocity S-wave (km/s) = 3.62883 4.31125 3.98467
# Velocity P-wave (km/s) = 5.42273 6.64865 6.06674
#
# Compressibility (1/GPa) = 0.03201977
#
# Stress axis : x y z
#
# Youngs Moduli (GPa) = 49.53002 58.29573 97.08025
#
# Poissons Ratio (x) = 0.38687 -0.07654
# Poissons Ratio (y) = 0.32870 0.19070
# Poissons Ratio (z) = -0.03905 0.11451
#
# Static dielectric constant tensor:
#      x y z
#    x 2.244770 -0.024140 -0.012600 
#    y -0.024140 2.057900 0.010820 
#    z -0.012600 0.010820 2.086780 
# 
# From -- ./inp_files/87041.got.cif
#   From: 2010.05.17/outbox.cif.g08.bks.cpg/sg2_44_cif.got.tgz:87041.got - 2010.06.03 11:33:40.
