data_PCOD9033935
_publ_section_title
;
Structure prediction by ZEFSAII (Michael W. Deem and Ramdas Pophale) SiO2 
 PCOD9033935
Probable space group: P -1
;
_chemical_formula_sum "Si O2"
_cell_formula_units_Z 14
_cell_length_a 8.632751
_cell_length_b 5.528110
_cell_length_c 11.731975
_cell_angle_alpha 90.541473
_cell_angle_beta 78.831743
_cell_angle_gamma 96.266639
_cell_volume 545.958582
_symmetry_space_group_name_H-M "P -1"
_symmetry_group_IT_number 2
_symmetry_cell_setting 'triclinic'
loop_
_space_group_symop_operation_xyz
x,y,z
-x,-y,-z
loop_
_atom_site_type_symbol
_atom_site_label
_atom_site_fract_x
_atom_site_fract_y
_atom_site_fract_z
Si Si1 0.239445 0.430432 0.488131
Si Si2 0.952990 0.256575 0.648808
Si Si3 0.575327 0.288219 0.345252
Si Si4 0.091160 0.567381 0.102385
Si Si5 0.547512 0.562608 0.125894
Si Si6 0.377163 0.934845 0.252558
Si Si7 0.731747 0.894540 0.947465
O O1 0.134277 0.548185 0.409894
O O2 0.405361 0.364169 0.414424
O O3 0.294194 0.630710 0.579414
O O4 0.117832 0.221440 0.563952
O O5 0.991522 0.358752 0.770063
O O6 0.803412 0.048854 0.682126
O O7 0.617324 0.411715 0.216620
O O8 0.514942 0.007807 0.323869
O O9 0.164118 0.313004 0.111470
O O10 0.195294 0.825202 0.057267
O O11 0.000000 0.500000 0.000000
O O12 0.396394 0.666199 0.205368
O O13 0.500000 0.500000 0.000000
O O14 0.672331 0.797837 0.078376
O O15 0.397668 0.097297 0.135767
#
# Coordination Sequence:
#
# PCOD9033935 Si02
#       7
#     2   2   2   2   2   2   2
#     4  10  23  46  66  97 138 189 233 306 340 429
#     4  10  22  44  70  94 144 183 235 286 375 412
#     4  11  24  42  71  99 139 174 251 292 349 418
#     4  11  25  45  70 107 143 188 238 298 359 447
#     4  12  23  41  69 105 143 182 231 299 368 430
#     4  11  23  41  71 105 135 186 233 294 360 439
#     4  11  24  40  69 104 149 179 232 291 369 424
#
# _framework density 25.642969000000001
#
# number of rings (size 3 to 8) (size 9 to 14) (size 15 to 20)
#    0.000    1.143    2.857    3.429    4.000    1.143 
#    0.000    1.429    0.000    0.000    0.000    0.000 
#    0.000    0.000    0.000    0.000    0.000    0.000 
#
# Total GULP energy -78071.735545 kJ/mol
# GULP energy per Si atom -5576.552539 kJ/mol
# Density = 2.558460 g / cm^3
# Si number density = 25.642969 Si / 1000 Ang^3
#
#
#
# Elastic Constant Matrix: (Units=GPa)
#
#
# Indices 1 2 3 4 5 6 
#
# 1 29.4496 6.4308 29.6758 -0.9583 -3.7904 17.8930
# 2 6.4308 67.8728 23.0757 11.3196 7.3562 12.7660
# 3 29.6758 23.0757 139.8738 -0.5261 -5.1306 22.1841
# 4 -0.9583 11.3196 -0.5261 38.8138 16.5926 2.4335
# 5 -3.7904 7.3562 -5.1306 16.5926 48.2090 2.9485
# 6 17.8930 12.7660 22.1841 2.4335 2.9485 38.7775
#
#
#
# Elastic Compliance Matrix: (Units=1/GPa)
#
#
# Indices 1 2 3 4 5 6 
#
# 1 0.056052 0.001102 -0.008455 0.000370 0.004542 -0.021758
# 2 0.001102 0.017104 -0.002410 -0.004273 -0.001039 -0.004414
# 3 -0.008455 -0.002410 0.009493 0.000407 0.000623 -0.000809
# 4 0.000370 -0.004273 0.000407 0.031332 -0.010047 -0.000199
# 5 0.004542 -0.001039 0.000623 -0.010047 0.024990 -0.003380
# 6 -0.021758 -0.004414 -0.000809 -0.000199 -0.003380 0.038014
#
#
# Mechanical properties :
#
#
# Convention : Reuss Voigt Hill
#
# Bulk Modulus (GPa) = 15.84180 39.50677 27.67428
# Shear Modulus (GPa) = 22.98306 37.02766 30.00536
#
# Velocity S-wave (km/s) = 2.99703 3.80408 3.42441
# Velocity P-wave (km/s) = 4.26233 5.89361 5.14306
#
# Compressibility (1/GPa) = 0.06312416
#
# Stress axis : x y z
#
# Youngs Moduli (GPa) = 17.84050 58.46715 105.33653
#
# Poissons Ratio (x) = -0.06444 0.89062
# Poissons Ratio (y) = -0.01966 0.25383
# Poissons Ratio (z) = 0.15084 0.14089
#
# Static dielectric constant tensor:
#      x y z
#    x 2.158290 0.043620 -0.078200 
#    y 0.043620 2.194510 0.006970 
#    z -0.078200 0.006970 2.092920 
# 
# From -- ./inp_files/373047.got.cif
#   From: 2010.05.17/outbox.cif.g08.bks.cpg/sg2_187_cif.got.tgz:373047.got - 2010.06.03 11:33:40.
