data_PCOD9033611
_publ_section_title
;
Structure prediction by ZEFSAII (Michael W. Deem and Ramdas Pophale) SiO2 
 PCOD9033611
Probable space group: P -1
;
_chemical_formula_sum "Si O2"
_cell_formula_units_Z 16
_cell_length_a 9.113873
_cell_length_b 7.345678
_cell_length_c 16.994210
_cell_angle_alpha 109.512434
_cell_angle_beta 141.176312
_cell_angle_gamma 70.940601
_cell_volume 668.054870
_symmetry_space_group_name_H-M "P -1"
_symmetry_group_IT_number 2
_symmetry_cell_setting 'triclinic'
loop_
_space_group_symop_operation_xyz
x,y,z
-x,-y,-z
loop_
_atom_site_type_symbol
_atom_site_label
_atom_site_fract_x
_atom_site_fract_y
_atom_site_fract_z
Si Si1 0.664196 0.849274 0.766790
Si Si2 0.666668 0.047031 0.504061
Si Si3 0.496021 0.477130 0.731314
Si Si4 0.098488 0.837514 0.842238
Si Si5 0.105726 0.752312 0.666498
Si Si6 0.192883 0.422485 0.004688
Si Si7 0.856865 0.254423 0.739903
Si Si8 0.449838 0.009905 0.104405
O O1 0.484837 0.897539 0.627665
O O2 0.593542 0.658016 0.752285
O O3 0.927970 0.813144 0.840193
O O4 0.632759 0.013973 0.844262
O O5 0.784489 0.230850 0.616157
O O6 0.500000 0.000000 0.500000
O O7 0.866241 0.865251 0.549469
O O8 0.225814 0.566217 0.642371
O O9 0.627310 0.306396 0.708144
O O10 0.593614 0.463218 0.860290
O O11 0.080768 0.698475 0.740315
O O12 0.975672 0.041976 0.784535
O O13 0.363837 0.849145 0.986783
O O14 0.292024 0.918078 0.772659
O O15 0.051548 0.399533 0.862001
O O16 0.292337 0.201696 0.034301
O O17 0.000000 0.500000 0.000000
#
# Coordination Sequence:
#
# PCOD9033611 Si02
#       8
#     2   2   2   2   2   2   2   2
#     4  10  19  32  51  75 107 133 166 214 253 293
#     4  11  20  34  52  73 103 138 175 206 251 305
#     4   9  19  33  52  81 102 127 172 216 253 289
#     4  10  17  32  56  77 103 135 167 205 255 308
#     4   9  18  32  52  75 103 132 168 214 252 294
#     4   7  12  26  46  71  98 120 155 202 244 291
#     4   9  17  31  53  75  99 138 174 199 243 313
#     4   9  18  28  49  83  99 125 174 215 250 289
#
# _framework density 23.950127999999999
#
# number of rings (size 3 to 8) (size 9 to 14) (size 15 to 20)
#    0.000    3.000    2.500    0.750    0.000    3.500 
#    0.000    0.625    0.000    6.000    0.000   83.125 
#    0.000    0.000    0.000    0.000    0.000    0.000 
#
# Total GULP energy -89091.438867 kJ/mol
# GULP energy per Si atom -5568.214929 kJ/mol
# Density = 2.389562 g / cm^3
# Si number density = 23.950128 Si / 1000 Ang^3
#
#
#
# Elastic Constant Matrix: (Units=GPa)
#
#
# Indices 1 2 3 4 5 6 
#
# 1 69.6269 14.2359 17.7929 -4.9280 1.0352 -17.2326
# 2 14.2359 73.8158 24.6542 -9.2813 -2.4943 -22.4152
# 3 17.7929 24.6542 132.2596 -8.2427 0.1962 -3.1716
# 4 -4.9280 -9.2813 -8.2427 20.4588 -15.6159 7.0785
# 5 1.0352 -2.4943 0.1962 -15.6159 36.8599 -8.1229
# 6 -17.2326 -22.4152 -3.1716 7.0785 -8.1229 35.4179
#
#
#
# Elastic Compliance Matrix: (Units=1/GPa)
#
#
# Indices 1 2 3 4 5 6 
#
# 1 0.017015 0.000308 -0.002002 0.002369 0.002402 0.008372
# 2 0.000308 0.019673 -0.002809 0.009916 0.008240 0.012257
# 3 -0.002002 -0.002809 0.008474 0.002893 0.000506 -0.002455
# 4 0.002369 0.009916 0.002893 0.082291 0.035306 -0.000662
# 5 0.002402 0.008240 0.000506 0.035306 0.044696 0.009623
# 6 0.008372 0.012257 -0.002455 -0.000662 0.009623 0.042185
#
#
# Mechanical properties :
#
#
# Convention : Reuss Voigt Hill
#
# Bulk Modulus (GPa) = 27.65648 43.22982 35.44315
# Shear Modulus (GPa) = 21.24123 33.14860 27.19491
#
# Velocity S-wave (km/s) = 2.98131 3.72434 3.37335
# Velocity P-wave (km/s) = 4.83979 6.04842 5.47754
#
# Compressibility (1/GPa) = 0.03615789
#
# Stress axis : x y z
#
# Youngs Moduli (GPa) = 58.77258 50.83043 118.00119
#
# Poissons Ratio (x) = -0.01568 0.23620
# Poissons Ratio (y) = -0.01813 0.33147
# Poissons Ratio (z) = 0.11764 0.14279
#
# Static dielectric constant tensor:
#      x y z
#    x 1.969930 -0.017050 0.017900 
#    y -0.017050 2.048180 0.103360 
#    z 0.017900 0.103360 2.025390 
# 
# From -- ./inp_files/558563.got.cif
#   From: 2010.05.17/outbox.cif.g08.bks.cpg/sg2_280_cif.got.tgz:558563.got - 2010.06.03 11:33:40.
