data_PCOD9033178
_publ_section_title
;
Structure prediction by ZEFSAII (Michael W. Deem and Ramdas Pophale) SiO2 
 PCOD9033178
Probable space group: P -1
;
_chemical_formula_sum "Si O2"
_cell_formula_units_Z 14
_cell_length_a 11.963724
_cell_length_b 6.770779
_cell_length_c 11.082669
_cell_angle_alpha 96.148440
_cell_angle_beta 55.261550
_cell_angle_gamma 118.263378
_cell_volume 633.140398
_symmetry_space_group_name_H-M "P -1"
_symmetry_group_IT_number 2
_symmetry_cell_setting 'triclinic'
loop_
_space_group_symop_operation_xyz
x,y,z
-x,-y,-z
loop_
_atom_site_type_symbol
_atom_site_label
_atom_site_fract_x
_atom_site_fract_y
_atom_site_fract_z
Si Si1 0.320532 0.091230 0.379039
Si Si2 0.504641 0.841582 0.326033
Si Si3 0.050120 0.699276 0.383581
Si Si4 0.859460 0.470385 0.909634
Si Si5 0.744696 0.601709 0.414412
Si Si6 0.564144 0.529590 0.097545
Si Si7 0.804034 0.303433 0.195516
O O1 0.291103 0.195621 0.525743
O O2 0.447236 0.303359 0.233598
O O3 0.387761 0.924040 0.353998
O O4 0.158781 0.942963 0.395794
O O5 0.407273 0.629385 0.460540
O O6 0.563833 0.741925 0.176485
O O7 0.650921 0.066371 0.306545
O O8 0.149407 0.663137 0.215256
O O9 0.000000 0.500000 0.500000
O O10 0.892721 0.663274 0.414360
O O11 0.042165 0.664043 0.828852
O O12 0.735709 0.556505 0.989762
O O13 0.824872 0.314520 0.039843
O O14 0.784743 0.522198 0.259322
O O15 0.500000 0.500000 0.000000
#
# Coordination Sequence:
#
# PCOD9033178 Si02
#       7
#     2   2   2   2   2   2   2
#     4  11  23  41  68  94 135 169 212 279 324 380
#     4  11  22  41  67  96 127 174 217 268 326 381
#     4  11  22  41  68  94 130 169 218 269 329 385
#     4  10  23  43  66  93 133 172 214 273 321 387
#     4  10  23  42  64  98 128 174 221 264 323 392
#     4  11  25  41  66 101 130 169 223 263 333 391
#     4  10  22  44  66  93 133 174 221 261 323 388
#
# _framework density 22.111999000000001
#
# number of rings (size 3 to 8) (size 9 to 14) (size 15 to 20)
#    0.000    1.429    2.857    1.714    4.000    2.286 
#    2.571    0.000    0.000    0.000    0.000    0.000 
#    0.000    0.000    0.000    0.000    0.000    0.000 
#
# Total GULP energy -78325.968816 kJ/mol
# GULP energy per Si atom -5594.712058 kJ/mol
# Density = 2.206167 g / cm^3
# Si number density = 22.111999 Si / 1000 Ang^3
#
#
#
# Elastic Constant Matrix: (Units=GPa)
#
#
# Indices 1 2 3 4 5 6 
#
# 1 85.8791 28.7763 25.7384 10.1823 -14.9041 14.5438
# 2 28.7763 93.8851 40.9703 30.1518 -6.2263 20.4792
# 3 25.7384 40.9703 104.1497 31.0397 -1.3797 8.8129
# 4 10.1823 30.1518 31.0397 34.8823 1.5136 -7.7230
# 5 -14.9041 -6.2263 -1.3797 1.5136 40.9359 -4.4615
# 6 14.5438 20.4792 8.8129 -7.7230 -4.4615 34.8137
#
#
#
# Elastic Compliance Matrix: (Units=1/GPa)
#
#
# Indices 1 2 3 4 5 6 
#
# 1 0.014597 -0.001517 -0.001762 -0.002634 0.004604 -0.004754
# 2 -0.001517 0.022331 -0.000200 -0.022574 0.001794 -0.017229
# 3 -0.001762 -0.000200 0.014695 -0.013691 -0.000318 -0.005944
# 4 -0.002634 -0.022574 -0.013691 0.068505 -0.003839 0.032550
# 5 0.004604 0.001794 -0.000318 -0.003839 0.026470 -0.000358
# 6 -0.004754 -0.017229 -0.005944 0.032550 -0.000358 0.049525
#
#
# Mechanical properties :
#
#
# Convention : Reuss Voigt Hill
#
# Bulk Modulus (GPa) = 22.38954 52.76486 37.57720
# Shear Modulus (GPa) = 22.93901 34.68832 28.81366
#
# Velocity S-wave (km/s) = 3.22436 3.96505 3.61373
# Velocity P-wave (km/s) = 4.89995 6.69899 5.86882
#
# Compressibility (1/GPa) = 0.04466372
#
# Stress axis : x y z
#
# Youngs Moduli (GPa) = 68.50686 44.78155 68.05106
#
# Poissons Ratio (x) = 0.06792 0.11994
# Poissons Ratio (y) = 0.10391 0.01362
# Poissons Ratio (z) = 0.12074 0.00896
#
# Static dielectric constant tensor:
#      x y z
#    x 1.803420 -0.000840 -0.018190 
#    y -0.000840 1.795660 0.019250 
#    z -0.018190 0.019250 1.829460 
# 
# From -- ./inp_files/69676.got.cif
#   From: 2010.05.17/outbox.cif.g08.bks.cpg/sg2_35_cif.got.tgz:69676.got - 2010.06.03 11:33:40.
