data_PCOD9033224
_publ_section_title
;
Structure prediction by ZEFSAII (Michael W. Deem and Ramdas Pophale) SiO2 
 PCOD9033224
Probable space group: P -1
;
_chemical_formula_sum "Si O2"
_cell_formula_units_Z 14
_cell_length_a 12.023344
_cell_length_b 5.326908
_cell_length_c 17.835639
_cell_angle_alpha 79.580160
_cell_angle_beta 152.476500
_cell_angle_gamma 100.620865
_cell_volume 518.457039
_symmetry_space_group_name_H-M "P -1"
_symmetry_group_IT_number 2
_symmetry_cell_setting 'triclinic'
loop_
_space_group_symop_operation_xyz
x,y,z
-x,-y,-z
loop_
_atom_site_type_symbol
_atom_site_label
_atom_site_fract_x
_atom_site_fract_y
_atom_site_fract_z
Si Si1 0.149983 0.470746 0.014673
Si Si2 0.521670 0.779346 0.463216
Si Si3 0.325018 0.216420 0.682567
Si Si4 0.614505 0.141242 0.131537
Si Si5 0.422501 0.087275 0.264009
Si Si6 0.790571 0.478589 0.530901
Si Si7 0.145959 0.425914 0.850612
O O1 0.407396 0.640013 0.158338
O O2 0.221264 0.180161 0.084206
O O3 0.050858 0.516936 0.869293
O O4 0.000000 0.500000 0.000000
O O5 0.500000 0.500000 0.500000
O O6 0.746707 0.720574 0.546205
O O7 0.500000 0.000000 0.500000
O O8 0.340994 0.866024 0.284952
O O9 0.152830 0.404896 0.524804
O O10 0.270410 0.066845 0.734942
O O11 0.367396 0.993155 0.660836
O O12 0.777404 0.364731 0.178562
O O13 0.383824 0.277117 0.020820
O O14 0.500000 0.000000 0.000000
O O15 0.539313 0.317818 0.371655
O O16 0.941969 0.289686 0.683443
#
# Coordination Sequence:
#
# PCOD9033224 Si02
#       7
#     2   2   2   2   2   2   2
#     4  11  24  43  69 105 145 186 245 298 369 443
#     4  11  22  41  65  98 142 197 241 293 359 430
#     4  10  22  45  69  97 140 191 231 299 367 433
#     4  11  23  46  72  97 143 187 242 305 369 434
#     4  10  22  44  66  97 148 190 235 293 370 440
#     4  10  24  41  68 105 142 183 242 302 365 437
#     4  11  25  43  71 108 135 187 248 302 366 438
#
# _framework density 27.003205999999999
#
# number of rings (size 3 to 8) (size 9 to 14) (size 15 to 20)
#    0.000    1.429    4.286    0.000    2.000    3.429 
#    2.571    1.429    0.000    0.000    0.000    0.000 
#    0.000    0.000    0.000    0.000    0.000    0.000 
#
# Total GULP energy -78001.754041 kJ/mol
# GULP energy per Si atom -5571.553860 kJ/mol
# Density = 2.694175 g / cm^3
# Si number density = 27.003206 Si / 1000 Ang^3
#
#
#
# Elastic Constant Matrix: (Units=GPa)
#
#
# Indices 1 2 3 4 5 6 
#
# 1 164.2412 46.4872 50.6309 -11.1980 -47.1325 16.0420
# 2 46.4872 101.7814 19.5929 -8.0303 -22.7734 10.6622
# 3 50.6309 19.5929 118.3392 -17.2207 -37.1350 24.2394
# 4 -11.1980 -8.0303 -17.2207 38.8039 16.1926 -18.3876
# 5 -47.1325 -22.7734 -37.1350 16.1926 57.3916 -14.6067
# 6 16.0420 10.6622 24.2394 -18.3876 -14.6067 54.5077
#
#
#
# Elastic Compliance Matrix: (Units=1/GPa)
#
#
# Indices 1 2 3 4 5 6 
#
# 1 0.008848 -0.002563 -0.001798 -0.001122 0.005339 -0.000251
# 2 -0.002563 0.011595 0.000107 0.000375 0.002248 -0.000833
# 3 -0.001798 0.000107 0.011519 0.001180 0.004951 -0.002889
# 4 -0.001122 0.000375 0.001180 0.033306 -0.007099 0.009065
# 5 0.005339 0.002248 0.004951 -0.007099 0.028145 0.000935
# 6 -0.000251 -0.000833 -0.002889 0.009065 0.000935 0.023176
#
#
# Mechanical properties :
#
#
# Convention : Reuss Voigt Hill
#
# Bulk Modulus (GPa) = 42.63456 68.64265 55.63861
# Shear Modulus (GPa) = 37.61813 47.98402 42.80108
#
# Velocity S-wave (km/s) = 3.73647 4.21999 3.98557
# Velocity P-wave (km/s) = 5.86839 7.01568 6.46752
#
# Compressibility (1/GPa) = 0.02345515
#
# Stress axis : x y z
#
# Youngs Moduli (GPa) = 113.01438 86.24677 86.81349
#
# Poissons Ratio (x) = 0.22104 0.15608
# Poissons Ratio (y) = 0.28965 -0.00932
# Poissons Ratio (z) = 0.20318 -0.00926
#
# Static dielectric constant tensor:
#      x y z
#    x 2.099800 -0.102840 -0.108410 
#    y -0.102840 2.213550 -0.124590 
#    z -0.108410 -0.124590 2.069260 
# 
# From -- ./inp_files/564449.got.cif
#   From: 2010.05.17/outbox.cif.g08.bks.cpg/sg2_283_cif.got.tgz:564449.got - 2010.06.03 11:33:40.
