data_PCOD9033373
_publ_section_title
;
Structure prediction by ZEFSAII (Michael W. Deem and Ramdas Pophale) SiO2 
 PCOD9033373
Probable space group: P -1
;
_chemical_formula_sum "Si O2"
_cell_formula_units_Z 14
_cell_length_a 15.294056
_cell_length_b 7.944173
_cell_length_c 9.536439
_cell_angle_alpha 65.559231
_cell_angle_beta 66.129139
_cell_angle_gamma 34.701878
_cell_volume 595.853498
_symmetry_space_group_name_H-M "P -1"
_symmetry_group_IT_number 2
_symmetry_cell_setting 'triclinic'
loop_
_space_group_symop_operation_xyz
x,y,z
-x,-y,-z
loop_
_atom_site_type_symbol
_atom_site_label
_atom_site_fract_x
_atom_site_fract_y
_atom_site_fract_z
Si Si1 0.619862 0.486885 0.791461
Si Si2 0.293279 0.986972 0.732527
Si Si3 0.175783 0.210498 0.430775
Si Si4 0.883569 0.988269 0.971954
Si Si5 0.220634 0.439179 0.825023
Si Si6 0.276989 0.395948 0.111606
Si Si7 0.174708 0.790847 0.498298
O O1 0.740554 0.162582 0.897352
O O2 0.596471 0.680885 0.856793
O O3 0.712484 0.440835 0.620091
O O4 0.460543 0.651816 0.780705
O O5 0.281403 0.054397 0.554875
O O6 0.265204 0.209728 0.769036
O O7 0.161108 0.044336 0.844670
O O8 0.226963 0.288889 0.261575
O O9 0.000000 0.500000 0.500000
O O10 0.186691 0.992023 0.432064
O O11 0.864696 0.238152 0.914017
O O12 0.042721 0.683825 0.906743
O O13 0.223155 0.622405 0.669700
O O14 0.311605 0.314172 0.954834
O O15 0.000000 0.000000 0.500000
#
# Coordination Sequence:
#
# PCOD9033373 Si02
#       7
#     2   2   2   2   2   2   2
#     4  10  25  45  69  94 146 176 226 275 340 393
#     4  12  26  43  70 102 136 182 223 279 337 398
#     4  12  25  42  69 101 135 174 231 278 334 402
#     4  10  22  44  67  97 136 176 226 275 332 394
#     4  12  23  40  73 101 133 176 230 278 334 396
#     4  10  24  41  67 102 137 175 227 278 333 393
#     4  12  24  46  71  98 133 179 224 279 337 403
#
# _framework density 23.495709000000002
#
# number of rings (size 3 to 8) (size 9 to 14) (size 15 to 20)
#    0.857    0.000    1.429    6.429    2.000    3.429 
#    0.000    0.000    0.000    0.000    0.000    0.000 
#    0.000    0.000    0.000    0.000    0.000    0.000 
#
# Total GULP energy -78348.420984 kJ/mol
# GULP energy per Si atom -5596.315785 kJ/mol
# Density = 2.344223 g / cm^3
# Si number density = 23.495709 Si / 1000 Ang^3
#
#
#
# Elastic Constant Matrix: (Units=GPa)
#
#
# Indices 1 2 3 4 5 6 
#
# 1 69.9425 6.3029 22.1056 -12.7734 21.0935 16.1550
# 2 6.3029 49.9059 -2.6228 2.0589 17.9350 -0.9836
# 3 22.1056 -2.6228 149.1287 -15.8513 14.5423 10.8438
# 4 -12.7734 2.0589 -15.8513 29.5085 9.7459 -5.3850
# 5 21.0935 17.9350 14.5423 9.7459 43.3550 -1.8471
# 6 16.1550 -0.9836 10.8438 -5.3850 -1.8471 37.9385
#
#
#
# Elastic Compliance Matrix: (Units=1/GPa)
#
#
# Indices 1 2 3 4 5 6 
#
# 1 0.023281 0.001953 0.000190 0.013610 -0.015631 -0.008746
# 2 0.001953 0.024216 0.001859 0.004165 -0.012560 -0.000755
# 3 0.000190 0.001859 0.007886 0.005458 -0.004808 -0.001746
# 4 0.013610 0.004165 0.005458 0.049217 -0.021294 -0.001298
# 5 -0.015631 -0.012560 -0.004808 -0.021294 0.042553 0.006754
# 6 -0.008746 -0.000755 -0.001746 -0.001298 0.006754 0.030707
#
#
# Mechanical properties :
#
#
# Convention : Reuss Voigt Hill
#
# Bulk Modulus (GPa) = 15.77611 35.61651 25.69631
# Shear Modulus (GPa) = 26.18007 38.37317 32.27662
#
# Velocity S-wave (km/s) = 3.34166 4.04567 3.71040
# Velocity P-wave (km/s) = 4.64951 6.08399 5.41446
#
# Compressibility (1/GPa) = 0.06338698
#
# Stress axis : x y z
#
# Youngs Moduli (GPa) = 42.95339 41.29566 126.80528
#
# Poissons Ratio (x) = -0.08066 -0.02412
# Poissons Ratio (y) = -0.08389 -0.23570
# Poissons Ratio (z) = -0.00817 -0.07676
#
# Static dielectric constant tensor:
#      x y z
#    x 1.920810 -0.007400 0.040900 
#    y -0.007400 1.923290 -0.005370 
#    z 0.040900 -0.005370 1.902900 
# 
# From -- ./inp_files/325912.got.cif
#   From: 2010.05.17/outbox.cif.g08.bks.cpg/sg2_163_cif.got.tgz:325912.got - 2010.06.03 11:33:40.
