data_PCOD9033592
_publ_section_title
;
Structure prediction by ZEFSAII (Michael W. Deem and Ramdas Pophale) SiO2 
 PCOD9033592
Probable space group: P -1
;
_chemical_formula_sum "Si O2"
_cell_formula_units_Z 14
_cell_length_a 14.627399
_cell_length_b 6.866405
_cell_length_c 7.566484
_cell_angle_alpha 117.918905
_cell_angle_beta 56.324996
_cell_angle_gamma 99.630548
_cell_volume 554.404965
_symmetry_space_group_name_H-M "P -1"
_symmetry_group_IT_number 2
_symmetry_cell_setting 'triclinic'
loop_
_space_group_symop_operation_xyz
x,y,z
-x,-y,-z
loop_
_atom_site_type_symbol
_atom_site_label
_atom_site_fract_x
_atom_site_fract_y
_atom_site_fract_z
Si Si1 0.658426 0.917394 0.522083
Si Si2 0.542963 0.708471 0.139285
Si Si3 0.845473 0.111740 0.271445
Si Si4 0.623396 0.018231 0.964615
Si Si5 0.313446 0.520623 0.822769
Si Si6 0.899709 0.385903 0.655084
Si Si7 0.023652 0.749614 0.118440
O O1 0.682780 0.652446 0.415435
O O2 0.544325 0.069914 0.661798
O O3 0.738587 0.989310 0.318727
O O4 0.695443 0.015071 0.710138
O O5 0.585304 0.619359 0.241054
O O6 0.500000 0.500000 0.000000
O O7 0.642377 0.796627 0.962306
O O8 0.842544 0.297713 0.505035
O O9 0.870072 0.207524 0.094108
O O10 0.934535 0.922542 0.185339
O O11 0.646247 0.238633 0.134318
O O12 0.500000 0.000000 0.000000
O O13 0.203524 0.517873 0.062172
O O14 0.963577 0.232308 0.676852
O O15 0.000000 0.500000 0.500000
O O16 0.000000 0.500000 0.000000
#
# Coordination Sequence:
#
# PCOD9033592 Si02
#       7
#     2   2   2   2   2   2   2
#     4  11  24  45  70 105 143 187 236 301 359 433
#     4  11  22  46  72 102 142 186 235 293 362 436
#     4  11  24  47  71 101 149 185 245 308 361 432
#     4  10  22  44  68  98 137 184 237 288 359 423
#     4  12  25  46  68 105 144 184 243 291 362 436
#     4  12  25  47  73 107 146 195 242 302 367 431
#     4  11  24  44  70 104 138 191 248 298 364 436
#
# _framework density 25.252296999999999
#
# number of rings (size 3 to 8) (size 9 to 14) (size 15 to 20)
#    0.000    0.857    5.714    1.714    2.000    4.571 
#   10.286    0.000    0.000    0.000    0.000    0.000 
#    0.000    0.000    0.000    0.000    0.000    0.000 
#
# Total GULP energy -77945.870928 kJ/mol
# GULP energy per Si atom -5567.562209 kJ/mol
# Density = 2.519482 g / cm^3
# Si number density = 25.252297 Si / 1000 Ang^3
#
#
#
# Elastic Constant Matrix: (Units=GPa)
#
#
# Indices 1 2 3 4 5 6 
#
# 1 51.0513 22.4675 17.6887 -1.7295 6.1845 -1.5957
# 2 22.4675 159.8955 50.7932 -10.0299 7.5073 6.4305
# 3 17.6887 50.7932 66.2438 6.9863 2.3556 4.1316
# 4 -1.7295 -10.0299 6.9863 53.8937 -7.1947 8.5368
# 5 6.1845 7.5073 2.3556 -7.1947 32.3593 -8.7619
# 6 -1.5957 6.4305 4.1316 8.5368 -8.7619 40.5368
#
#
#
# Elastic Compliance Matrix: (Units=1/GPa)
#
#
# Indices 1 2 3 4 5 6 
#
# 1 0.022339 -0.001447 -0.004844 0.000516 -0.003252 0.000791
# 2 -0.001447 0.008793 -0.006483 0.002525 -0.001156 -0.001573
# 3 -0.004844 -0.006483 0.021839 -0.004134 -0.000233 -0.000568
# 4 0.000516 0.002525 -0.004134 0.020577 0.003218 -0.003597
# 5 -0.003252 -0.001156 -0.000233 0.003218 0.034375 0.006831
# 6 0.000791 -0.001573 -0.000568 -0.003597 0.006831 0.027241
#
#
# Mechanical properties :
#
#
# Convention : Reuss Voigt Hill
#
# Bulk Modulus (GPa) = 36.46330 51.00992 43.73661
# Shear Modulus (GPa) = 29.43725 37.77405 33.60565
#
# Velocity S-wave (km/s) = 3.41798 3.87184 3.65196
# Velocity P-wave (km/s) = 5.48158 6.34288 5.92789
#
# Compressibility (1/GPa) = 0.02742484
#
# Stress axis : x y z
#
# Youngs Moduli (GPa) = 44.76377 113.73207 45.78876
#
# Poissons Ratio (x) = 0.16458 0.22179
# Poissons Ratio (y) = 0.06478 0.29683
# Poissons Ratio (z) = 0.21682 0.73727
#
# Static dielectric constant tensor:
#      x y z
#    x 1.730560 -0.533430 -0.751390 
#    y -0.533430 1.237150 -0.830000 
#    z -0.751390 -0.830000 1.527500 
# 
# From -- ./inp_files/321991.got.cif
#   From: 2010.05.17/outbox.cif.g08.bks.cpg/sg2_161_cif.got.tgz:321991.got - 2010.06.03 11:33:40.
