data_PCOD9033661
_publ_section_title
;
Structure prediction by ZEFSAII (Michael W. Deem and Ramdas Pophale) SiO2 
 PCOD9033661
Probable space group: P -1
;
_chemical_formula_sum "Si O2"
_cell_formula_units_Z 14
_cell_length_a 12.739481
_cell_length_b 8.826568
_cell_length_c 24.969921
_cell_angle_alpha 29.822261
_cell_angle_beta 27.229149
_cell_angle_gamma 36.552998
_cell_volume 632.592892
_symmetry_space_group_name_H-M "P -1"
_symmetry_group_IT_number 2
_symmetry_cell_setting 'triclinic'
loop_
_space_group_symop_operation_xyz
x,y,z
-x,-y,-z
loop_
_atom_site_type_symbol
_atom_site_label
_atom_site_fract_x
_atom_site_fract_y
_atom_site_fract_z
Si Si1 0.312198 0.654049 0.579816
Si Si2 0.835286 0.793406 0.461560
Si Si3 0.870671 0.826889 0.657344
Si Si4 0.190809 0.194887 0.124729
Si Si5 0.909839 0.677619 0.040151
Si Si6 0.299534 0.793969 0.090375
Si Si7 0.486653 0.599577 0.325055
O O1 0.500000 0.500000 0.500000
O O2 0.368048 0.462248 0.667553
O O3 0.062382 0.679005 0.657964
O O4 0.322290 0.010099 0.482751
O O5 0.675325 0.664670 0.529338
O O6 0.000000 0.500000 0.500000
O O7 0.999692 0.028855 0.292273
O O8 0.753071 0.548650 0.772273
O O9 0.681228 0.080621 0.692169
O O10 0.000000 0.000000 0.500000
O O11 0.089680 0.539574 0.046203
O O12 0.244936 0.990242 0.109182
O O13 0.429811 0.198898 0.046077
O O14 0.663777 0.592318 0.197850
O O15 0.000000 0.500000 0.000000
O O16 0.858332 0.032845 0.938028
#
# Coordination Sequence:
#
# PCOD9033661 Si02
#       7
#     2   2   2   2   2   2   2
#     4  12  27  44  71 111 151 190 238 302 383 433
#     4  12  24  44  77 107 147 189 248 303 362 441
#     4  12  26  48  70 108 148 189 244 309 374 440
#     4  10  22  44  69 103 137 190 242 293 362 438
#     4  10  23  44  68 101 139 186 246 295 358 432
#     4  10  24  43  70  99 143 186 239 300 363 430
#     4  12  25  46  74 107 146 196 248 303 366 438
#
# _framework density 22.131138
#
# number of rings (size 3 to 8) (size 9 to 14) (size 15 to 20)
#    0.000    0.857    4.286    2.143    0.000    2.857 
#    0.000    1.429    0.000    0.000    0.000    0.000 
#    0.000    0.000    0.000    0.000    0.000    0.000 
#
# Total GULP energy -78254.683846 kJ/mol
# GULP energy per Si atom -5589.620275 kJ/mol
# Density = 2.208077 g / cm^3
# Si number density = 22.131138 Si / 1000 Ang^3
#
#
#
# Elastic Constant Matrix: (Units=GPa)
#
#
# Indices 1 2 3 4 5 6 
#
# 1 89.5032 48.3406 37.8391 1.0087 3.9019 -21.5166
# 2 48.3406 173.0843 52.9987 6.8750 1.7426 -20.6503
# 3 37.8391 52.9987 113.7690 -1.4736 9.5456 2.1734
# 4 1.0087 6.8750 -1.4736 40.8920 7.0355 2.6899
# 5 3.9019 1.7426 9.5456 7.0355 29.4271 -2.7587
# 6 -21.5166 -20.6503 2.1734 2.6899 -2.7587 31.0306
#
#
#
# Elastic Compliance Matrix: (Units=1/GPa)
#
#
# Indices 1 2 3 4 5 6 
#
# 1 0.016941 -0.001816 -0.005085 -0.001166 0.000827 0.011069
# 2 -0.001816 0.007917 -0.003346 -0.002012 0.001767 0.004575
# 3 -0.005085 -0.003346 0.012583 0.002384 -0.004458 -0.007237
# 4 -0.001166 -0.002012 0.002384 0.026515 -0.007333 -0.005265
# 5 0.000827 0.001767 -0.004458 -0.007333 0.037533 0.006034
# 6 0.011069 0.004575 -0.007237 -0.005265 0.006034 0.044446
#
#
# Mechanical properties :
#
#
# Convention : Reuss Voigt Hill
#
# Bulk Modulus (GPa) = 59.00325 72.74593 65.87459
# Shear Modulus (GPa) = 29.05648 36.08183 32.56916
#
# Velocity S-wave (km/s) = 3.62736 4.04216 3.84036
# Velocity P-wave (km/s) = 6.65299 7.39778 7.03525
#
# Compressibility (1/GPa) = 0.01694822
#
# Stress axis : x y z
#
# Youngs Moduli (GPa) = 59.02701 126.30617 79.47400
#
# Poissons Ratio (x) = 0.22937 0.40410
# Poissons Ratio (y) = 0.10719 0.26592
# Poissons Ratio (z) = 0.30013 0.42262
#
# Static dielectric constant tensor:
#      x y z
#    x 1.827270 -0.002790 0.028670 
#    y -0.002790 1.835180 0.022530 
#    z 0.028670 0.022530 1.791420 
# 
# From -- ./inp_files/609977.got.cif
#   From: 2010.05.17/outbox.cif.g08.bks.cpg/sg2_305_cif.got.tgz:609977.got - 2010.06.03 11:33:40.
