data_PCOD9033858
_publ_section_title
;
Structure prediction by ZEFSAII (Michael W. Deem and Ramdas Pophale) SiO2 
 PCOD9033858
Probable space group: P -1
;
_chemical_formula_sum "Si O2"
_cell_formula_units_Z 14
_cell_length_a 9.216819
_cell_length_b 8.890474
_cell_length_c 11.846871
_cell_angle_alpha 37.943696
_cell_angle_beta 106.534713
_cell_angle_gamma 109.440635
_cell_volume 562.463248
_symmetry_space_group_name_H-M "P -1"
_symmetry_group_IT_number 2
_symmetry_cell_setting 'triclinic'
loop_
_space_group_symop_operation_xyz
x,y,z
-x,-y,-z
loop_
_atom_site_type_symbol
_atom_site_label
_atom_site_fract_x
_atom_site_fract_y
_atom_site_fract_z
Si Si1 0.660290 0.977897 0.423213
Si Si2 0.089816 0.037411 0.116437
Si Si3 0.749487 0.416080 0.618297
Si Si4 0.848582 0.175930 0.151600
Si Si5 0.119350 0.363528 0.262790
Si Si6 0.542189 0.549161 0.320019
Si Si7 0.626594 0.530375 0.108265
O O1 0.706948 0.018054 0.278333
O O2 0.645100 0.246970 0.303662
O O3 0.787789 0.861288 0.589204
O O4 0.518776 0.749522 0.526319
O O5 0.961399 0.047466 0.176440
O O6 0.185604 0.816630 0.276369
O O7 0.214720 0.292982 0.996498
O O8 0.000000 0.000000 0.000000
O O9 0.872945 0.560380 0.649322
O O10 0.698436 0.571275 0.411999
O O11 0.593433 0.355850 0.696760
O O12 0.954846 0.287772 0.214889
O O13 0.804683 0.395923 0.935559
O O14 0.572278 0.645141 0.143525
O O15 0.500000 0.500000 0.000000
#
# Coordination Sequence:
#
# PCOD9033858 Si02
#       7
#     2   2   2   2   2   2   2
#     4  11  25  44  75 108 142 198 246 306 369 438
#     4  12  27  45  72 113 150 192 246 310 379 443
#     4  10  23  47  70 102 151 191 242 308 372 439
#     4  11  24  44  74 106 151 192 244 303 373 448
#     4  10  22  44  70 103 143 191 244 294 364 445
#     4  10  25  48  72 104 149 197 255 304 367 449
#     4  12  28  46  77 110 148 203 254 308 373 445
#
# _framework density 24.890515000000001
#
# number of rings (size 3 to 8) (size 9 to 14) (size 15 to 20)
#    0.000    1.143    1.429    3.429   10.000    4.000 
#    0.000    3.571    0.000    0.000    0.000    0.000 
#    0.000    0.000    0.000    0.000    0.000    0.000 
#
# Total GULP energy -78389.003856 kJ/mol
# GULP energy per Si atom -5599.214561 kJ/mol
# Density = 2.483386 g / cm^3
# Si number density = 24.890515 Si / 1000 Ang^3
#
#
#
# Elastic Constant Matrix: (Units=GPa)
#
#
# Indices 1 2 3 4 5 6 
#
# 1 86.3511 34.1101 43.6448 2.7530 -16.2445 -26.7630
# 2 34.1101 67.0734 23.4248 13.7669 -10.8106 -11.9665
# 3 43.6448 23.4248 102.7461 9.3278 13.4206 -11.6686
# 4 2.7530 13.7669 9.3278 54.2091 -6.5647 4.3156
# 5 -16.2445 -10.8106 13.4206 -6.5647 48.3296 -3.8445
# 6 -26.7630 -11.9665 -11.6686 4.3156 -3.8445 61.4146
#
#
#
# Elastic Compliance Matrix: (Units=1/GPa)
#
#
# Indices 1 2 3 4 5 6 
#
# 1 0.022363 -0.005967 -0.008774 0.002460 0.009536 0.007340
# 2 -0.005967 0.020131 -0.001833 -0.004301 0.002536 0.001435
# 3 -0.008774 -0.001833 0.014959 -0.002497 -0.007985 -0.001663
# 4 0.002460 -0.004301 -0.002497 0.020349 0.003205 -0.001470
# 5 0.009536 0.002536 -0.007985 0.003205 0.027485 0.004628
# 6 0.007340 0.001435 -0.001663 -0.001470 0.004628 0.019838
#
#
# Mechanical properties :
#
#
# Convention : Reuss Voigt Hill
#
# Bulk Modulus (GPa) = 41.14453 50.94777 46.04615
# Shear Modulus (GPa) = 30.05271 43.12338 36.58805
#
# Velocity S-wave (km/s) = 3.47853 4.16687 3.83816
# Velocity P-wave (km/s) = 5.71836 6.60785 6.17913
#
# Compressibility (1/GPa) = 0.02430457
#
# Stress axis : x y z
#
# Youngs Moduli (GPa) = 44.71710 49.67418 66.85082
#
# Poissons Ratio (x) = 0.29638 0.58658
# Poissons Ratio (y) = 0.26681 0.12254
# Poissons Ratio (z) = 0.39237 0.09105
#
# Static dielectric constant tensor:
#      x y z
#    x 1.980780 0.007010 -0.031080 
#    y 0.007010 2.044570 -0.023060 
#    z -0.031080 -0.023060 1.974740 
# 
# From -- ./inp_files/411500.got.cif
#   From: 2010.05.17/outbox.cif.g08.bks.cpg/sg2_206_cif.got.tgz:411500.got - 2010.06.03 11:33:40.
