data_PCOD9033521
_publ_section_title
;
Structure prediction by ZEFSAII (Michael W. Deem and Ramdas Pophale) SiO2 
 PCOD9033521
Probable space group: P -1
;
_chemical_formula_sum "Si O2"
_cell_formula_units_Z 15
_cell_length_a 9.556584
_cell_length_b 6.633727
_cell_length_c 14.359891
_cell_angle_alpha 90.883384
_cell_angle_beta 66.200737
_cell_angle_gamma 122.560613
_cell_volume 677.570280
_symmetry_space_group_name_H-M "P -1"
_symmetry_group_IT_number 2
_symmetry_cell_setting 'triclinic'
loop_
_space_group_symop_operation_xyz
x,y,z
-x,-y,-z
loop_
_atom_site_type_symbol
_atom_site_label
_atom_site_fract_x
_atom_site_fract_y
_atom_site_fract_z
Si Si1 0.813832 0.314024 0.409060
Si Si2 0.416697 0.781172 0.172870
Si Si3 0.058932 0.089121 0.089722
Si Si4 0.095988 0.839496 0.239290
Si Si5 0.861090 0.732531 0.643802
Si Si6 0.580201 0.460138 0.570518
Si Si7 0.302534 0.995590 0.741547
Si Si8 0.500000 0.500000 0.000000
O O1 0.679750 0.324546 0.516883
O O2 0.699615 0.141429 0.350753
O O3 0.952188 0.586102 0.329510
O O4 0.943386 0.238525 0.418502
O O5 0.293343 0.876330 0.176021
O O6 0.277505 0.529966 0.268237
O O7 0.494498 0.701079 0.069708
O O8 0.578135 0.980691 0.201481
O O9 0.269205 0.329765 0.048765
O O10 0.911136 0.132712 0.173300
O O11 0.033940 0.866835 0.155299
O O12 0.000000 0.000000 0.000000
O O13 0.115739 0.055617 0.297047
O O14 0.747956 0.702996 0.580517
O O15 0.500000 0.500000 0.500000
O O16 0.403899 0.280462 0.683406
#
# Coordination Sequence:
#
# PCOD9033521 Si02
#       8
#     2   2   2   2   2   2   2   1
#     4  11  23  44  68 100 139 186 232 281 352 415
#     4  10  23  42  70 101 135 185 231 287 352 408
#     4  12  24  45  73 102 139 182 229 292 352 414
#     4  11  23  45  72 100 139 183 236 283 348 425
#     4  10  22  44  68  92 142 180 226 293 343 408
#     4  11  25  41  69 105 134 185 236 283 353 417
#     4  11  23  47  67  99 148 178 227 301 343 411
#     4  12  22  46  72 100 140 176 234 290 354 410
#
# _framework density 22.137927999999999
#
# number of rings (size 3 to 8) (size 9 to 14) (size 15 to 20)
#    0.000    1.067    4.000    2.400    1.867    1.067 
#    4.800    1.333    0.000    0.000    0.000    0.000 
#    0.000    0.000    0.000    0.000    0.000    0.000 
#
# Total GULP energy -83641.980424 kJ/mol
# GULP energy per Si atom -5576.132028 kJ/mol
# Density = 2.208754 g / cm^3
# Si number density = 22.137928 Si / 1000 Ang^3
#
#
#
# Elastic Constant Matrix: (Units=GPa)
#
#
# Indices 1 2 3 4 5 6 
#
# 1 125.4949 39.9461 47.2602 0.3956 -3.2041 11.8404
# 2 39.9461 67.3140 15.9382 2.3868 5.1055 23.7365
# 3 47.2602 15.9382 68.8673 5.0304 -3.0943 13.0971
# 4 0.3956 2.3868 5.0304 19.1234 6.9589 0.1198
# 5 -3.2041 5.1055 -3.0943 6.9589 43.6598 -1.2066
# 6 11.8404 23.7365 13.0971 0.1198 -1.2066 35.7748
#
#
#
# Elastic Compliance Matrix: (Units=1/GPa)
#
#
# Indices 1 2 3 4 5 6 
#
# 1 0.012958 -0.007150 -0.008019 0.002372 0.000935 0.003415
# 2 -0.007150 0.024014 0.002106 -0.002133 -0.003243 -0.014440
# 3 -0.008019 0.002106 0.021285 -0.006195 0.001483 -0.006465
# 4 0.002372 -0.002133 -0.006195 0.057437 -0.009104 0.002399
# 5 0.000935 -0.003243 0.001483 -0.009104 0.024968 0.002172
# 6 0.003415 -0.014440 -0.006465 0.002399 0.002172 0.038835
#
#
# Mechanical properties :
#
#
# Convention : Reuss Voigt Hill
#
# Bulk Modulus (GPa) = 31.12342 51.99616 41.55979
# Shear Modulus (GPa) = 23.11244 30.28037 26.69641
#
# Velocity S-wave (km/s) = 3.23464 3.70240 3.47639
# Velocity P-wave (km/s) = 5.29527 6.46648 5.90996
#
# Compressibility (1/GPa) = 0.03213014
#
# Stress axis : x y z
#
# Youngs Moduli (GPa) = 77.16984 41.64267 46.98226
#
# Poissons Ratio (x) = 0.29776 0.37673
# Poissons Ratio (y) = 0.55180 -0.09893
# Poissons Ratio (z) = 0.61879 -0.08768
#
# Static dielectric constant tensor:
#      x y z
#    x 1.825030 0.021570 0.018550 
#    y 0.021570 1.814430 -0.024880 
#    z 0.018550 -0.024880 1.831060 
# 
# From -- ./inp_files/122587.got.cif
#   From: 2010.05.17/outbox.cif.g08.bks.cpg/sg2_62_cif.got.tgz:122587.got - 2010.06.03 11:33:40.
