data_PCOD9033208
_publ_section_title
;
Structure prediction by ZEFSAII (Michael W. Deem and Ramdas Pophale) SiO2 
 PCOD9033208
Probable space group: P -1
;
_chemical_formula_sum "Si O2"
_cell_formula_units_Z 16
_cell_length_a 15.463251
_cell_length_b 8.982645
_cell_length_c 9.572208
_cell_angle_alpha 95.376735
_cell_angle_beta 35.728317
_cell_angle_gamma 97.261068
_cell_volume 770.085858
_symmetry_space_group_name_H-M "P -1"
_symmetry_group_IT_number 2
_symmetry_cell_setting 'triclinic'
loop_
_space_group_symop_operation_xyz
x,y,z
-x,-y,-z
loop_
_atom_site_type_symbol
_atom_site_label
_atom_site_fract_x
_atom_site_fract_y
_atom_site_fract_z
Si Si1 0.835869 0.716107 0.582321
Si Si2 0.445056 0.327431 0.570067
Si Si3 0.358243 0.905498 0.840503
Si Si4 0.143168 0.753739 0.326761
Si Si5 0.457417 0.205453 0.855114
Si Si6 0.895534 0.014471 0.352176
Si Si7 0.342016 0.572265 0.227179
Si Si8 0.216505 0.082169 0.799375
O O1 0.773621 0.560956 0.575720
O O2 0.977008 0.693534 0.494043
O O3 0.883893 0.852327 0.428061
O O4 0.694188 0.763195 0.861489
O O5 0.500000 0.500000 0.500000
O O6 0.554212 0.233393 0.328632
O O7 0.452139 0.284154 0.719178
O O8 0.283523 0.255506 0.724755
O O9 0.450588 0.027800 0.825898
O O10 0.318742 0.991332 0.758946
O O11 0.213937 0.848307 0.112380
O O12 0.135449 0.864825 0.478651
O O13 0.256669 0.630543 0.209053
O O14 0.604131 0.280243 0.743317
O O15 0.793919 0.990595 0.345884
O O16 0.057115 0.063778 0.080800
O O17 0.500000 0.500000 0.000000
#
# Coordination Sequence:
#
# PCOD9033208 Si02
#       8
#     2   2   2   2   2   2   2   2
#     4  11  22  44  69 100 140 171 222 281 339 395
#     4  11  26  41  67  91 137 179 220 273 340 396
#     4  11  23  42  69  95 133 175 226 267 338 405
#     4  12  23  41  73 100 131 181 224 274 341 395
#     4  10  22  44  66  96 137 176 223 277 328 405
#     4  11  23  41  74  99 132 173 226 279 327 403
#     4  10  26  41  62  99 141 172 222 277 331 394
#     4  10  23  45  65 101 134 174 220 272 334 401
#
# _framework density 20.776904999999999
#
# number of rings (size 3 to 8) (size 9 to 14) (size 15 to 20)
#    0.000    1.250    2.500    3.750    8.750    1.500 
#    2.250    0.000    0.000    3.750    0.000    0.000 
#    0.000    0.000    0.000    0.000    0.000    0.000 
#
# Total GULP energy -89319.874148 kJ/mol
# GULP energy per Si atom -5582.492134 kJ/mol
# Density = 2.072962 g / cm^3
# Si number density = 20.776905 Si / 1000 Ang^3
#
#
#
# Elastic Constant Matrix: (Units=GPa)
#
#
# Indices 1 2 3 4 5 6 
#
# 1 109.7972 45.9166 50.2158 -4.2677 -24.1459 19.6847
# 2 45.9166 134.9944 49.5190 -20.8481 -22.4054 21.2205
# 3 50.2158 49.5190 111.4881 -16.0093 -4.9709 17.8076
# 4 -4.2677 -20.8481 -16.0093 29.3704 9.3777 -7.8598
# 5 -24.1459 -22.4054 -4.9709 9.3777 30.2959 -6.9282
# 6 19.6847 21.2205 17.8076 -7.8598 -6.9282 33.0012
#
#
#
# Elastic Compliance Matrix: (Units=1/GPa)
#
#
# Indices 1 2 3 4 5 6 
#
# 1 0.015569 -0.001558 -0.006136 -0.006974 0.011440 -0.004233
# 2 -0.001558 0.010727 -0.002924 0.003673 0.004486 -0.002574
# 3 -0.006136 -0.002924 0.013946 0.006405 -0.007198 -0.001971
# 4 -0.006974 0.003673 0.006405 0.045380 -0.014439 0.006119
# 5 0.011440 0.004486 -0.007198 -0.014439 0.048964 0.001016
# 6 -0.004233 -0.002574 -0.001971 0.006119 0.001016 0.037216
#
#
# Mechanical properties :
#
#
# Convention : Reuss Voigt Hill
#
# Bulk Modulus (GPa) = 52.61521 71.95361 62.28441
# Shear Modulus (GPa) = 25.07870 32.57540 28.82705
#
# Velocity S-wave (km/s) = 3.47803 3.96392 3.72890
# Velocity P-wave (km/s) = 6.44265 7.46036 6.97011
#
# Compressibility (1/GPa) = 0.01900591
#
# Stress axis : x y z
#
# Youngs Moduli (GPa) = 64.22981 93.22646 71.70694
#
# Poissons Ratio (x) = 0.14521 0.43998
# Poissons Ratio (y) = 0.10004 0.20969
# Poissons Ratio (z) = 0.39410 0.27262
#
# Static dielectric constant tensor:
#      x y z
#    x 1.764300 0.005510 -0.022930 
#    y 0.005510 1.778230 0.014310 
#    z -0.022930 0.014310 1.737690 
# 
# From -- ./inp_files/298487.got.cif
#   From: 2010.05.17/outbox.cif.g08.bks.cpg/sg2_150_cif.got.tgz:298487.got - 2010.06.03 11:33:40.
