data_PCOD9033938
_publ_section_title
;
Structure prediction by ZEFSAII (Michael W. Deem and Ramdas Pophale) SiO2 
 PCOD9033938
Probable space group: P -1
;
_chemical_formula_sum "Si O2"
_cell_formula_units_Z 16
_cell_length_a 7.251068
_cell_length_b 17.803048
_cell_length_c 7.808314
_cell_angle_alpha 53.326150
_cell_angle_beta 58.943814
_cell_angle_gamma 58.299004
_cell_volume 656.996392
_symmetry_space_group_name_H-M "P -1"
_symmetry_group_IT_number 2
_symmetry_cell_setting 'triclinic'
loop_
_space_group_symop_operation_xyz
x,y,z
-x,-y,-z
loop_
_atom_site_type_symbol
_atom_site_label
_atom_site_fract_x
_atom_site_fract_y
_atom_site_fract_z
Si Si1 0.771878 0.931093 0.667105
Si Si2 0.318186 0.931799 0.794823
Si Si3 0.622742 0.605507 0.625232
Si Si4 0.834069 0.609356 0.886611
Si Si5 0.958366 0.692838 0.230184
Si Si6 0.422228 0.575084 0.280009
Si Si7 0.882961 0.263895 0.279285
Si Si8 0.855394 0.903700 0.056060
O O1 0.706067 0.024302 0.445571
O O2 0.780889 0.949622 0.840135
O O3 0.011145 0.854037 0.600203
O O4 0.578665 0.879352 0.789886
O O5 0.248935 0.022520 0.840828
O O6 0.128283 0.879004 0.973741
O O7 0.742492 0.612529 0.735423
O O8 0.802368 0.623136 0.380026
O O9 0.588127 0.499671 0.766464
O O10 0.379689 0.688530 0.617058
O O11 0.971547 0.684567 0.748316
O O12 0.607270 0.628051 0.082807
O O13 0.000000 0.500000 0.000000
O O14 0.168518 0.646572 0.318253
O O15 0.807612 0.800127 0.222799
O O16 0.067744 0.709995 0.975125
O O17 0.500000 0.500000 0.500000
#
# Coordination Sequence:
#
# PCOD9033938 Si02
#       8
#     2   2   2   2   2   2   2   2
#     4  10  23  42  69 100 131 175 225 270 345 408
#     4  10  22  44  70  95 136 172 219 279 342 410
#     4  12  25  45  66  96 139 175 224 276 329 395
#     4  12  23  41  69  94 133 176 223 274 330 391
#     4  11  25  45  66  99 136 174 226 276 329 400
#     4  12  24  42  68  96 135 182 222 275 331 393
#     4  11  25  45  66 102 131 178 224 277 334 396
#     4  10  23  44  66 101 134 173 220 281 338 401
#
# _framework density 24.353255999999998
#
# number of rings (size 3 to 8) (size 9 to 14) (size 15 to 20)
#    0.000    1.000    2.500    3.750    3.500    0.000 
#   15.750    0.000    0.000    0.000    0.000    0.000 
#    0.000    0.000    0.000    0.000    0.000    0.000 
#
# Total GULP energy -89604.218954 kJ/mol
# GULP energy per Si atom -5600.263685 kJ/mol
# Density = 2.429783 g / cm^3
# Si number density = 24.353256 Si / 1000 Ang^3
#
#
#
# Elastic Constant Matrix: (Units=GPa)
#
#
# Indices 1 2 3 4 5 6 
#
# 1 140.3260 23.4958 28.4070 4.9838 4.8447 -3.5094
# 2 23.4958 61.8934 8.8615 5.3353 7.7803 -9.8222
# 3 28.4070 8.8615 50.7779 8.6617 -3.1805 -1.0621
# 4 4.9838 5.3353 8.6617 17.8214 -2.8537 -6.1276
# 5 4.8447 7.7803 -3.1805 -2.8537 42.9992 14.6607
# 6 -3.5094 -9.8222 -1.0621 -6.1276 14.6607 42.6545
#
#
#
# Elastic Compliance Matrix: (Units=1/GPa)
#
#
# Indices 1 2 3 4 5 6 
#
# 1 0.008459 -0.002431 -0.004447 0.000518 -0.000953 0.000427
# 2 -0.002431 0.019161 -0.001661 -0.003201 -0.005430 0.005577
# 3 -0.004447 -0.001661 0.024395 -0.010569 0.002798 -0.002621
# 4 0.000518 -0.003201 -0.010569 0.065001 0.001354 0.007915
# 5 -0.000953 -0.005430 0.002798 0.001354 0.028325 -0.010800
# 6 0.000427 0.005577 -0.002621 0.007915 -0.010800 0.029548
#
#
# Mechanical properties :
#
#
# Convention : Reuss Voigt Hill
#
# Bulk Modulus (GPa) = 28.62413 41.61399 35.11906
# Shear Modulus (GPa) = 24.55643 33.51054 29.03349
#
# Velocity S-wave (km/s) = 3.17889 3.71350 3.45654
# Velocity P-wave (km/s) = 5.02524 5.95915 5.51201
#
# Compressibility (1/GPa) = 0.03493557
#
# Stress axis : x y z
#
# Youngs Moduli (GPa) = 118.21998 52.18858 40.99272
#
# Poissons Ratio (x) = 0.12689 0.18229
# Poissons Ratio (y) = 0.28744 0.06810
# Poissons Ratio (z) = 0.52572 0.08669
#
# Static dielectric constant tensor:
#      x y z
#    x 1.955610 0.018270 0.005230 
#    y 0.018270 1.922540 0.030630 
#    z 0.005230 0.030630 2.001880 
# 
# From -- ./inp_files/141092.got.cif
#   From: 2010.05.17/outbox.cif.g08.bks.cpg/sg2_71_cif.got.tgz:141092.got - 2010.06.03 11:33:40.
