data_PCOD9033012
_publ_section_title
;
Structure prediction by ZEFSAII (Michael W. Deem and Ramdas Pophale) SiO2 
 PCOD9033012
Probable space group: P -1
;
_chemical_formula_sum "Si O2"
_cell_formula_units_Z 16
_cell_length_a 6.503513
_cell_length_b 10.957557
_cell_length_c 14.961124
_cell_angle_alpha 127.501033
_cell_angle_beta 86.384505
_cell_angle_gamma 68.541460
_cell_volume 725.854625
_symmetry_space_group_name_H-M "P -1"
_symmetry_group_IT_number 2
_symmetry_cell_setting 'triclinic'
loop_
_space_group_symop_operation_xyz
x,y,z
-x,-y,-z
loop_
_atom_site_type_symbol
_atom_site_label
_atom_site_fract_x
_atom_site_fract_y
_atom_site_fract_z
Si Si1 0.238691 0.001899 0.481997
Si Si2 0.590193 0.317825 0.029346
Si Si3 0.611568 0.930777 0.316338
Si Si4 0.019386 0.617782 0.425728
Si Si5 0.594804 0.960144 0.823266
Si Si6 0.895793 0.382588 0.908889
Si Si7 0.531325 0.308074 0.223834
Si Si8 0.872803 0.342743 0.363118
O O1 0.364790 0.956687 0.554274
O O2 0.140214 0.207736 0.549557
O O3 0.423649 0.882514 0.345646
O O4 0.000000 0.000000 0.500000
O O5 0.338473 0.494099 0.089203
O O6 0.647661 0.314523 0.130568
O O7 0.797319 0.308358 0.956598
O O8 0.551498 0.151798 0.936932
O O9 0.878864 0.772572 0.218763
O O10 0.498308 0.027068 0.269849
O O11 0.256140 0.468291 0.302980
O O12 0.109282 0.670996 0.536472
O O13 0.872722 0.523422 0.418794
O O14 0.470056 0.876006 0.847864
O O15 0.877864 0.820689 0.753171
O O16 0.000000 0.500000 0.000000
O O17 0.660892 0.333708 0.316808
#
# Coordination Sequence:
#
# PCOD9033012 Si02
#       8
#     2   2   2   2   2   2   2   2
#     4  11  26  42  73 101 136 172 223 285 336 407
#     4  11  26  45  67 105 134 179 233 280 333 396
#     4  11  25  44  66 103 132 178 224 274 341 404
#     4  10  22  44  64  99 133 169 224 276 333 408
#     4  11  24  43  69  97 138 176 227 280 334 409
#     4  11  25  45  73  94 138 185 221 278 338 402
#     4  11  25  42  71  98 134 179 227 278 337 398
#     4  10  23  42  67  93 134 179 216 277 340 395
#
# _framework density 22.042981999999999
#
# number of rings (size 3 to 8) (size 9 to 14) (size 15 to 20)
#    0.000    1.250    2.500    1.500    5.250    6.500 
#    0.000    0.000    0.000    0.000    0.000    0.000 
#    0.000    0.000    0.000    0.000    0.000    0.000 
#
# Total GULP energy -89460.015390 kJ/mol
# GULP energy per Si atom -5591.250962 kJ/mol
# Density = 2.199281 g / cm^3
# Si number density = 22.042982 Si / 1000 Ang^3
#
#
#
# Elastic Constant Matrix: (Units=GPa)
#
#
# Indices 1 2 3 4 5 6 
#
# 1 115.0677 38.6130 34.4771 4.2218 -17.1573 3.6299
# 2 38.6130 47.9609 30.1368 2.3157 -4.5394 2.9633
# 3 34.4771 30.1368 54.2806 -10.3138 -19.5734 9.1526
# 4 4.2218 2.3157 -10.3138 32.8002 -4.6496 -4.0420
# 5 -17.1573 -4.5394 -19.5734 -4.6496 42.8257 -2.3581
# 6 3.6299 2.9633 9.1526 -4.0420 -2.3581 28.0904
#
#
#
# Elastic Compliance Matrix: (Units=1/GPa)
#
#
# Indices 1 2 3 4 5 6 
#
# 1 0.012749 -0.008083 -0.002953 -0.001590 0.002738 0.000169
# 2 -0.008083 0.042337 -0.024885 -0.011098 -0.011211 0.002148
# 3 -0.002953 -0.024885 0.045540 0.018140 0.018540 -0.007665
# 4 -0.001590 -0.011098 0.018140 0.038957 0.010816 0.001979
# 5 0.002738 -0.011211 0.018540 0.010816 0.032858 -0.000897
# 6 0.000169 0.002148 -0.007665 0.001979 -0.000897 0.038058
#
#
# Mechanical properties :
#
#
# Convention : Reuss Voigt Hill
#
# Bulk Modulus (GPa) = 34.74328 47.08478 40.91403
# Shear Modulus (GPa) = 17.12712 28.34876 22.73794
#
# Velocity S-wave (km/s) = 2.79047 3.59007 3.21522
# Velocity P-wave (km/s) = 5.11646 6.21221 5.69077
#
# Compressibility (1/GPa) = 0.02878254
#
# Stress axis : x y z
#
# Youngs Moduli (GPa) = 78.43728 23.62024 21.95883
#
# Poissons Ratio (x) = 0.19092 0.06486
# Poissons Ratio (y) = 0.63400 0.54645
# Poissons Ratio (z) = 0.23166 0.58779
#
# Static dielectric constant tensor:
#      x y z
#    x 1.833180 0.022680 -0.016570 
#    y 0.022680 1.784220 0.000300 
#    z -0.016570 0.000300 1.822620 
# 
# From -- ./inp_files/109706.got.cif
#   From: 2010.05.17/outbox.cif.g08.bks.cpg/sg2_55_cif.got.tgz:109706.got - 2010.06.03 11:33:40.
