data_PCOD9033137
_publ_section_title
;
Structure prediction by ZEFSAII (Michael W. Deem and Ramdas Pophale) SiO2 
 PCOD9033137
Probable space group: P -1
;
_chemical_formula_sum "Si O2"
_cell_formula_units_Z 14
_cell_length_a 7.508511
_cell_length_b 16.418712
_cell_length_c 10.447507
_cell_angle_alpha 35.707863
_cell_angle_beta 134.443967
_cell_angle_gamma 120.703271
_cell_volume 531.463350
_symmetry_space_group_name_H-M "P -1"
_symmetry_group_IT_number 2
_symmetry_cell_setting 'triclinic'
loop_
_space_group_symop_operation_xyz
x,y,z
-x,-y,-z
loop_
_atom_site_type_symbol
_atom_site_label
_atom_site_fract_x
_atom_site_fract_y
_atom_site_fract_z
Si Si1 0.878618 0.890706 0.821725
Si Si2 0.250052 0.692359 0.550023
Si Si3 0.435732 0.936898 0.741145
Si Si4 0.804889 0.887359 0.214213
Si Si5 0.479829 0.340965 0.531649
Si Si6 0.800013 0.619205 0.028615
Si Si7 0.259047 0.648926 0.068694
O O1 0.667444 0.940536 0.756409
O O2 0.895926 0.723552 0.046323
O O3 0.770969 0.936546 0.568100
O O4 0.103688 0.979731 0.841867
O O5 0.348229 0.715125 0.428872
O O6 0.504351 0.668872 0.793629
O O7 0.036171 0.813505 0.336635
O O8 0.148191 0.542409 0.697704
O O9 0.562579 0.939546 0.938924
O O10 0.318585 0.791370 0.851031
O O11 0.730735 0.761096 0.424345
O O12 0.378729 0.505339 0.244193
O O13 0.613594 0.344840 0.733419
O O14 0.969398 0.636117 0.967588
#
# Coordination Sequence:
#
# PCOD9033137 Si02
#       7
#     2   2   2   2   2   2   2
#     4  11  24  45  69 100 143 189 225 280 357 408
#     4  11  24  44  73 103 135 178 236 289 345 411
#     4  10  23  43  69  98 137 186 231 281 340 412
#     4  11  24  47  72 104 139 182 234 287 340 419
#     4  10  23  43  70 103 137 178 228 291 351 402
#     4  11  25  43  67 107 137 178 235 286 346 417
#     4  10  22  44  66 102 141 174 233 291 342 413
#
# _framework density 26.342364
#
# number of rings (size 3 to 8) (size 9 to 14) (size 15 to 20)
#    0.000    1.429    1.429    3.000    4.000    2.857 
#    2.571    1.429    0.000    0.000    0.000    0.000 
#    0.000    0.000    0.000    0.000    0.000    0.000 
#
# Total GULP energy -78528.161537 kJ/mol
# GULP energy per Si atom -5609.154396 kJ/mol
# Density = 2.628241 g / cm^3
# Si number density = 26.342364 Si / 1000 Ang^3
#
#
#
# Elastic Constant Matrix: (Units=GPa)
#
#
# Indices 1 2 3 4 5 6 
#
# 1 137.0711 38.5142 22.3159 -8.8558 2.5886 15.5952
# 2 38.5142 162.9132 45.6968 -39.6906 3.5142 21.4906
# 3 22.3159 45.6968 72.3935 -25.5938 -0.8278 3.4135
# 4 -8.8558 -39.6906 -25.5938 36.7944 5.1169 -12.0843
# 5 2.5886 3.5142 -0.8278 5.1169 34.1567 -9.3967
# 6 15.5952 21.4906 3.4135 -12.0843 -9.3967 36.9280
#
#
#
# Elastic Compliance Matrix: (Units=1/GPa)
#
#
# Indices 1 2 3 4 5 6 
#
# 1 0.008332 -0.001328 -0.002285 -0.001996 -0.001213 -0.003497
# 2 -0.001328 0.009514 -0.002893 0.007332 -0.002884 -0.003043
# 3 -0.002285 -0.002893 0.020369 0.012013 0.000491 0.004822
# 4 -0.001996 0.007332 0.012013 0.046759 -0.004682 0.009575
# 5 -0.001213 -0.002884 0.000491 -0.004682 0.032847 0.008971
# 6 -0.003497 -0.003043 0.004822 0.009575 0.008971 0.035298
#
#
# Mechanical properties :
#
#
# Convention : Reuss Voigt Hill
#
# Bulk Modulus (GPa) = 39.67754 65.04795 52.36274
# Shear Modulus (GPa) = 28.64799 39.29921 33.97360
#
# Velocity S-wave (km/s) = 3.30134 3.86665 3.59513
# Velocity P-wave (km/s) = 5.44305 6.68443 6.09542
#
# Compressibility (1/GPa) = 0.02520318
#
# Stress axis : x y z
#
# Youngs Moduli (GPa) = 120.01378 105.11272 49.09311
#
# Poissons Ratio (x) = 0.13956 0.11218
# Poissons Ratio (y) = 0.15934 0.14204
# Poissons Ratio (z) = 0.27424 0.30413
#
# Static dielectric constant tensor:
#      x y z
#    x 2.023480 0.000250 0.032220 
#    y 0.000250 2.035960 0.054090 
#    z 0.032220 0.054090 2.094030 
# 
# From -- ./inp_files/402768.got.cif
#   From: 2010.05.17/outbox.cif.g08.bks.cpg/sg2_202_cif.got.tgz:402768.got - 2010.06.03 11:33:40.
