data_PCOD9033206
_publ_section_title
;
Structure prediction by ZEFSAII (Michael W. Deem and Ramdas Pophale) SiO2 
 PCOD9033206
Probable space group: P -1
;
_chemical_formula_sum "Si O2"
_cell_formula_units_Z 16
_cell_length_a 12.604585
_cell_length_b 11.072965
_cell_length_c 14.392957
_cell_angle_alpha 53.508109
_cell_angle_beta 27.514301
_cell_angle_gamma 61.760901
_cell_volume 738.056667
_symmetry_space_group_name_H-M "P -1"
_symmetry_group_IT_number 2
_symmetry_cell_setting 'triclinic'
loop_
_space_group_symop_operation_xyz
x,y,z
-x,-y,-z
loop_
_atom_site_type_symbol
_atom_site_label
_atom_site_fract_x
_atom_site_fract_y
_atom_site_fract_z
Si Si1 0.160338 0.716059 0.856308
Si Si2 0.510435 0.425199 0.926199
Si Si3 0.741233 0.009577 0.756900
Si Si4 0.477795 0.874572 0.853978
Si Si5 0.013952 0.260109 0.338546
Si Si6 0.380379 0.269209 0.382563
Si Si7 0.997700 0.026055 0.879046
Si Si8 0.750646 0.449306 0.328111
O O1 0.380323 0.730094 0.747223
O O2 0.224653 0.643122 0.743303
O O3 0.084506 0.881047 0.830750
O O4 0.942670 0.598958 0.115455
O O5 0.643670 0.554353 0.697921
O O6 0.500000 0.500000 0.000000
O O7 0.602463 0.267747 0.948871
O O8 0.243590 0.380213 0.122034
O O9 0.664920 0.980220 0.721700
O O10 0.878501 0.872136 0.740937
O O11 0.903935 0.170856 0.555887
O O12 0.500000 0.000000 0.000000
O O13 0.584880 0.811602 0.706568
O O14 0.260685 0.955107 0.959138
O O15 0.817183 0.339510 0.407315
O O16 0.171934 0.174687 0.644472
O O17 0.000000 0.000000 0.000000
O O18 0.500000 0.500000 0.500000
#
# Coordination Sequence:
#
# PCOD9033206 Si02
#       8
#     2   2   2   2   2   2   2   2
#     4  11  26  45  66 101 139 176 237 284 353 419
#     4   9  20  44  70  92 132 178 228 286 343 406
#     4  10  24  40  68 101 137 175 226 286 353 414
#     4  10  24  42  66 104 133 183 232 280 353 422
#     4  10  22  44  66  96 136 173 228 286 340 414
#     4  11  23  45  70  95 141 184 229 295 346 414
#     4  12  27  41  71 105 139 183 233 289 357 422
#     4  11  27  44  72  98 135 190 230 289 350 418
#
# _framework density 21.678552
#
# number of rings (size 3 to 8) (size 9 to 14) (size 15 to 20)
#    0.000    1.500    2.500    0.375    7.000    4.500 
#    0.000    0.000    0.000    0.000    0.000    0.000 
#    0.000    0.000    0.000    0.000    0.000    0.000 
#
# Total GULP energy -89394.579118 kJ/mol
# GULP energy per Si atom -5587.161195 kJ/mol
# Density = 2.162921 g / cm^3
# Si number density = 21.678552 Si / 1000 Ang^3
#
#
#
# Elastic Constant Matrix: (Units=GPa)
#
#
# Indices 1 2 3 4 5 6 
#
# 1 80.6801 20.0592 19.4377 -2.6041 -13.8806 -17.7245
# 2 20.0592 82.8308 35.7874 -7.8488 -1.2658 -32.0123
# 3 19.4377 35.7874 109.2994 -11.6736 12.3203 -1.2686
# 4 -2.6041 -7.8488 -11.6736 37.6464 -7.4525 -7.7791
# 5 -13.8806 -1.2658 12.3203 -7.4525 25.0126 -1.3657
# 6 -17.7245 -32.0123 -1.2686 -7.7791 -1.3657 41.0092
#
#
#
# Elastic Compliance Matrix: (Units=1/GPa)
#
#
# Indices 1 2 3 4 5 6 
#
# 1 0.018282 0.003207 -0.005269 0.005770 0.015269 0.011845
# 2 0.003207 0.025014 -0.008753 0.009725 0.011503 0.022869
# 3 -0.005269 -0.008753 0.013900 -0.002079 -0.011349 -0.009452
# 4 0.005770 0.009725 -0.002079 0.035092 0.016114 0.017214
# 5 0.015269 0.011503 -0.011349 0.016114 0.060535 0.020300
# 6 0.011845 0.022869 -0.009452 0.017214 0.020300 0.051005
#
#
# Mechanical properties :
#
#
# Convention : Reuss Voigt Hill
#
# Bulk Modulus (GPa) = 28.11698 47.04209 37.57953
# Shear Modulus (GPa) = 21.06934 33.90204 27.48569
#
# Velocity S-wave (km/s) = 3.12091 3.95885 3.56459
# Velocity P-wave (km/s) = 5.09754 6.53020 5.85783
#
# Compressibility (1/GPa) = 0.03556570
#
# Stress axis : x y z
#
# Youngs Moduli (GPa) = 54.69862 39.97811 71.94470
#
# Poissons Ratio (x) = -0.12820 0.37905
# Poissons Ratio (y) = -0.17541 0.62972
# Poissons Ratio (z) = 0.28819 0.34992
#
# Static dielectric constant tensor:
#      x y z
#    x 1.788210 0.003540 0.021640 
#    y 0.003540 1.819990 -0.061370 
#    z 0.021640 -0.061370 1.828550 
# 
# From -- ./inp_files/518735.got.cif
#   From: 2010.05.17/outbox.cif.g08.bks.cpg/sg2_260_cif.got.tgz:518735.got - 2010.06.03 11:33:40.
