data_PCOD9033080
_publ_section_title
;
Structure prediction by ZEFSAII (Michael W. Deem and Ramdas Pophale) SiO2 
 PCOD9033080
Probable space group: P -1
;
_chemical_formula_sum "Si O2"
_cell_formula_units_Z 10
_cell_length_a 8.469889
_cell_length_b 11.303796
_cell_length_c 7.366141
_cell_angle_alpha 128.108068
_cell_angle_beta 133.617164
_cell_angle_gamma 73.897421
_cell_volume 387.878592
_symmetry_space_group_name_H-M "P -1"
_symmetry_group_IT_number 2
_symmetry_cell_setting 'triclinic'
loop_
_space_group_symop_operation_xyz
x,y,z
-x,-y,-z
loop_
_atom_site_type_symbol
_atom_site_label
_atom_site_fract_x
_atom_site_fract_y
_atom_site_fract_z
Si Si1 0.608309 0.837797 0.273856
Si Si2 0.649044 0.940392 0.816744
Si Si3 0.026280 0.738601 0.518115
Si Si4 0.271318 0.555130 0.879987
Si Si5 0.381711 0.628455 0.448043
O O1 0.678249 0.892983 0.587073
O O2 0.361721 0.714947 0.989013
O O3 0.792280 0.759473 0.263730
O O4 0.566669 0.985530 0.278291
O O5 0.584666 0.784056 0.731037
O O6 0.853164 0.082809 0.170137
O O7 0.189918 0.667540 0.457991
O O8 0.921237 0.605445 0.461258
O O9 0.263074 0.595401 0.124495
O O10 0.500000 0.500000 0.000000
O O11 0.500000 0.500000 0.500000
#
# Coordination Sequence:
#
# PCOD9033080 Si02
#       5
#     2   2   2   2   2
#     4   9  21  43  68  94 134 161 221 265 314 385
#     4  10  22  44  65  96 129 172 213 269 313 383
#     4  11  22  40  70  95 126 174 214 261 329 369
#     4   9  21  43  64  93 128 167 213 263 314 381
#     4  11  25  44  62  97 137 167 213 268 321 385
#
# _framework density 25.781265000000001
#
# number of rings (size 3 to 8) (size 9 to 14) (size 15 to 20)
#    0.000    2.000    0.000    1.800    5.600    1.600 
#   21.600    0.000    0.000    0.000    0.000    0.000 
#    0.000    0.000    0.000    0.000    0.000    0.000 
#
# Total GULP energy -55874.729201 kJ/mol
# GULP energy per Si atom -5587.472920 kJ/mol
# Density = 2.572259 g / cm^3
# Si number density = 25.781265 Si / 1000 Ang^3
#
#
#
# Elastic Constant Matrix: (Units=GPa)
#
#
# Indices 1 2 3 4 5 6 
#
# 1 105.3980 26.2450 50.3530 3.4663 8.5172 -19.9220
# 2 26.2450 197.6390 28.7000 38.4423 20.6666 8.8385
# 3 50.3530 28.7000 150.7769 48.0379 29.5882 6.8582
# 4 3.4663 38.4423 48.0379 37.5046 8.7897 6.6687
# 5 8.5172 20.6666 29.5882 8.7897 43.7788 2.4528
# 6 -19.9220 8.8385 6.8582 6.6687 2.4528 36.5265
#
#
#
# Elastic Compliance Matrix: (Units=1/GPa)
#
#
# Indices 1 2 3 4 5 6 
#
# 1 0.016046 -0.003780 -0.009368 0.012311 0.002016 0.009042
# 2 -0.003780 0.007701 0.004354 -0.011927 -0.003317 -0.002342
# 3 -0.009368 0.004354 0.018481 -0.024687 -0.007508 -0.004622
# 4 0.012311 -0.011927 -0.024687 0.067644 0.006257 0.001466
# 5 0.002016 -0.003317 -0.007508 0.006257 0.027817 0.000302
# 6 0.009042 -0.002342 -0.004622 0.001466 0.000302 0.033456
#
#
# Mechanical properties :
#
#
# Convention : Reuss Voigt Hill
#
# Bulk Modulus (GPa) = 40.58599 73.82332 57.20466
# Shear Modulus (GPa) = 25.38754 46.79638 36.09196
#
# Velocity S-wave (km/s) = 3.14144 4.26506 3.74562
# Velocity P-wave (km/s) = 5.37911 7.27674 6.39866
#
# Compressibility (1/GPa) = 0.02463905
#
# Stress axis : x y z
#
# Youngs Moduli (GPa) = 62.32019 129.85498 54.10949
#
# Poissons Ratio (x) = 0.49087 0.50691
# Poissons Ratio (y) = 0.23558 -0.23559
# Poissons Ratio (z) = 0.58384 -0.56538
#
# Static dielectric constant tensor:
#      x y z
#    x 2.055820 0.058110 -0.049050 
#    y 0.058110 2.112530 -0.103110 
#    z -0.049050 -0.103110 2.201260 
# 
# From -- ./inp_files/20764.got.cif
#   From: 2010.05.17/outbox.cif.g08.bks.cpg/sg2_11_cif.got.tgz:20764.got - 2010.06.03 11:33:40.
