data_PCOD9033211
_publ_section_title
;
Structure prediction by ZEFSAII (Michael W. Deem and Ramdas Pophale) SiO2 
 PCOD9033211
Probable space group: P -1
;
_chemical_formula_sum "Si O2"
_cell_formula_units_Z 13
_cell_length_a 8.970194
_cell_length_b 17.490039
_cell_length_c 15.871528
_cell_angle_alpha 159.625613
_cell_angle_beta 138.418447
_cell_angle_gamma 41.314955
_cell_volume 561.800914
_symmetry_space_group_name_H-M "P -1"
_symmetry_group_IT_number 2
_symmetry_cell_setting 'triclinic'
loop_
_space_group_symop_operation_xyz
x,y,z
-x,-y,-z
loop_
_atom_site_type_symbol
_atom_site_label
_atom_site_fract_x
_atom_site_fract_y
_atom_site_fract_z
Si Si1 0.161471 0.179397 0.343630
Si Si2 0.000000 0.000000 0.500000
Si Si3 0.740097 0.935275 0.915787
Si Si4 0.425790 0.838485 0.233250
Si Si5 0.290872 0.263495 0.014644
Si Si6 0.261843 0.524965 0.117122
Si Si7 0.994195 0.382140 0.161006
O O1 0.233246 0.205260 0.305025
O O2 0.126412 0.400345 0.613252
O O3 0.341585 0.983900 0.264666
O O4 0.922908 0.095886 0.154772
O O5 0.771574 0.211211 0.635233
O O6 0.140815 0.109976 0.745205
O O7 0.819855 0.771274 0.857688
O O8 0.491571 0.097313 0.977348
O O9 0.500000 0.000000 0.500000
O O10 0.626125 0.630536 0.073164
O O11 0.205840 0.749556 0.080308
O O12 0.385162 0.413793 0.139635
O O13 0.125652 0.424382 0.176187
O O14 0.000000 0.500000 0.000000
#
# Coordination Sequence:
#
# PCOD9033211 Si02
#       7
#     2   1   2   2   2   2   2
#     4  10  23  43  67  99 136 178 230 281 339 407
#     4  10  26  42  70 100 136 172 236 266 342 414
#     4  10  22  44  66  96 140 179 227 281 340 399
#     4  11  26  44  69 100 141 177 226 286 346 407
#     4  11  24  43  69 100 138 179 224 282 340 398
#     4  10  24  44  66  96 133 183 220 275 338 408
#     4  11  26  40  70 105 132 180 232 281 337 406
#
# _framework density 23.139869000000001
#
# number of rings (size 3 to 8) (size 9 to 14) (size 15 to 20)
#    0.000    1.538    1.538    0.923   10.769    3.692 
#    0.000    0.000    0.000    0.000    0.000    0.000 
#    0.000    0.000    0.000    0.000    0.000    0.000 
#
# Total GULP energy -72456.687289 kJ/mol
# GULP energy per Si atom -5573.591330 kJ/mol
# Density = 2.308720 g / cm^3
# Si number density = 23.139869 Si / 1000 Ang^3
#
#
#
# Elastic Constant Matrix: (Units=GPa)
#
#
# Indices 1 2 3 4 5 6 
#
# 1 77.9432 22.5943 37.1614 2.6121 -29.6504 -2.1007
# 2 22.5943 116.0119 34.4803 10.8959 -11.4534 -18.4838
# 3 37.1614 34.4803 124.4063 3.9892 -34.8790 -8.2933
# 4 2.6121 10.8959 3.9892 37.7624 -10.9471 -7.8721
# 5 -29.6504 -11.4534 -34.8790 -10.9471 32.8521 4.2615
# 6 -2.1007 -18.4838 -8.2933 -7.8721 4.2615 20.7900
#
#
#
# Elastic Compliance Matrix: (Units=1/GPa)
#
#
# Indices 1 2 3 4 5 6 
#
# 1 0.021018 -0.002958 -0.000348 0.004458 0.019436 -0.002941
# 2 -0.002958 0.011159 -0.002452 -0.001873 -0.003119 0.008574
# 3 -0.000348 -0.002452 0.012459 0.003488 0.013039 0.001403
# 4 0.004458 -0.001873 0.003488 0.033185 0.016928 0.009272
# 5 0.019436 -0.003119 0.013039 0.016928 0.066751 -0.002881
# 6 -0.002941 0.008574 0.001403 0.009272 -0.002881 0.060087
#
#
# Mechanical properties :
#
#
# Convention : Reuss Voigt Hill
#
# Bulk Modulus (GPa) = 30.19456 56.31482 43.25469
# Shear Modulus (GPa) = 22.00545 33.22260 27.61403
#
# Velocity S-wave (km/s) = 3.08713 3.79321 3.45824
# Velocity P-wave (km/s) = 5.07782 6.60107 5.88891
#
# Compressibility (1/GPa) = 0.03311855
#
# Stress axis : x y z
#
# Youngs Moduli (GPa) = 47.57736 89.61561 80.26280
#
# Poissons Ratio (x) = 0.26512 0.02797
# Poissons Ratio (y) = 0.14076 0.19680
# Poissons Ratio (z) = 0.01658 0.21973
#
# Static dielectric constant tensor:
#      x y z
#    x 1.827250 0.053800 -0.047170 
#    y 0.053800 1.903750 0.055480 
#    z -0.047170 0.055480 1.703100 
# 
# From -- ./inp_files/28769.got.cif
#   From: 2010.05.17/outbox.cif.g08.bks.cpg/sg2_15_cif.got.tgz:28769.got - 2010.06.03 11:33:40.
