data_PCOD9033628
_publ_section_title
;
Structure prediction by ZEFSAII (Michael W. Deem and Ramdas Pophale) SiO2 
 PCOD9033628
Probable space group: P -1
;
_chemical_formula_sum "Si O2"
_cell_formula_units_Z 14
_cell_length_a 7.533004
_cell_length_b 10.801622
_cell_length_c 11.151884
_cell_angle_alpha 37.431955
_cell_angle_beta 86.372691
_cell_angle_gamma 79.148302
_cell_volume 535.998898
_symmetry_space_group_name_H-M "P -1"
_symmetry_group_IT_number 2
_symmetry_cell_setting 'triclinic'
loop_
_space_group_symop_operation_xyz
x,y,z
-x,-y,-z
loop_
_atom_site_type_symbol
_atom_site_label
_atom_site_fract_x
_atom_site_fract_y
_atom_site_fract_z
Si Si1 0.062805 0.523677 0.616757
Si Si2 0.439177 0.938650 0.824914
Si Si3 0.816986 0.041629 0.553599
Si Si4 0.679476 0.229340 0.654360
Si Si5 0.868177 0.190029 0.923513
Si Si6 0.732368 0.765434 0.588225
Si Si7 0.452632 0.521617 0.845000
O O1 0.007778 0.335233 0.834747
O O2 0.918432 0.710688 0.545411
O O3 0.000000 0.500000 0.500000
O O4 0.265721 0.565257 0.565838
O O5 0.501027 0.131774 0.739312
O O6 0.400607 0.035612 0.620209
O O7 0.246005 0.895343 0.906416
O O8 0.569720 0.709167 0.011865
O O9 0.800012 0.061585 0.683164
O O10 0.700512 0.267865 0.336489
O O11 0.753215 0.835797 0.668266
O O12 0.000000 0.000000 0.500000
O O13 0.728430 0.263598 0.762396
O O14 0.000000 0.000000 0.000000
O O15 0.632108 0.574204 0.733694
O O16 0.500000 0.500000 0.000000
#
# Coordination Sequence:
#
# PCOD9033628 Si02
#       7
#     2   2   2   2   2   2   2
#     4  10  22  44  69 100 145 194 237 301 377 426
#     4  12  24  45  77 111 146 193 250 307 368 446
#     4  12  25  45  73 108 152 196 243 312 372 441
#     4  11  24  45  70 106 149 188 245 310 367 433
#     4  11  25  46  73 107 149 195 252 305 367 452
#     4  12  23  47  75 104 153 195 242 308 379 438
#     4  12  25  45  73 108 148 198 248 296 375 448
#
# _framework density 26.119457000000001
#
# number of rings (size 3 to 8) (size 9 to 14) (size 15 to 20)
#    0.000    0.571    5.714    3.429    0.000    1.143 
#    0.000    8.571    0.000    0.000    0.000    0.000 
#    0.000    0.000    0.000    0.000    0.000    0.000 
#
# Total GULP energy -78018.665696 kJ/mol
# GULP energy per Si atom -5572.761835 kJ/mol
# Density = 2.606001 g / cm^3
# Si number density = 26.119457 Si / 1000 Ang^3
#
#
#
# Elastic Constant Matrix: (Units=GPa)
#
#
# Indices 1 2 3 4 5 6 
#
# 1 50.2204 -10.0627 47.5962 -24.8511 -33.8206 0.6004
# 2 -10.0627 114.3594 17.9615 -5.5121 -3.5640 5.9020
# 3 47.5962 17.9615 135.8354 -11.5309 -42.0723 4.5048
# 4 -24.8511 -5.5121 -11.5309 50.2661 8.0925 -8.1341
# 5 -33.8206 -3.5640 -42.0723 8.0925 48.6919 -11.7471
# 6 0.6004 5.9020 4.5048 -8.1341 -11.7471 43.6488
#
#
#
# Elastic Compliance Matrix: (Units=1/GPa)
#
#
# Indices 1 2 3 4 5 6 
#
# 1 0.082294 0.011652 -0.014410 0.034333 0.043959 0.017008
# 2 0.011652 0.010676 -0.003431 0.005486 0.005287 0.001195
# 3 -0.014410 -0.003431 0.012932 -0.004963 0.001447 -0.001208
# 4 0.034333 0.005486 -0.004963 0.035336 0.016584 0.010346
# 5 0.043959 0.005287 0.001447 0.016584 0.053838 0.016111
# 6 0.017008 0.001195 -0.001208 0.010346 0.016111 0.028903
#
#
# Mechanical properties :
#
#
# Convention : Reuss Voigt Hill
#
# Bulk Modulus (GPa) = 10.69261 45.71169 28.20215
# Shear Modulus (GPa) = 18.68931 44.84935 31.76933
#
# Velocity S-wave (km/s) = 2.67785 4.14827 3.49135
# Velocity P-wave (km/s) = 3.69645 6.36264 5.20322
#
# Compressibility (1/GPa) = 0.09352251
#
# Stress axis : x y z
#
# Youngs Moduli (GPa) = 12.15151 93.66829 77.32897
#
# Poissons Ratio (x) = -1.09138 1.11435
# Poissons Ratio (y) = -0.14158 0.26530
# Poissons Ratio (z) = 0.17511 0.32136
#
# Static dielectric constant tensor:
#      x y z
#    x 2.258830 0.077430 -0.030780 
#    y 0.077430 2.168230 -0.093510 
#    z -0.030780 -0.093510 2.020980 
# 
# From -- ./inp_files/391789.got.cif
#   From: 2010.05.17/outbox.cif.g08.bks.cpg/sg2_196_cif.got.tgz:391789.got - 2010.06.03 11:33:40.
