data_PCOD9033505
_publ_section_title
;
Structure prediction by ZEFSAII (Michael W. Deem and Ramdas Pophale) SiO2 
 PCOD9033505
Probable space group: P -1
;
_chemical_formula_sum "Si O2"
_cell_formula_units_Z 14
_cell_length_a 8.948730
_cell_length_b 12.455729
_cell_length_c 9.989872
_cell_angle_alpha 108.709762
_cell_angle_beta 55.260008
_cell_angle_gamma 121.471949
_cell_volume 779.982657
_symmetry_space_group_name_H-M "P -1"
_symmetry_group_IT_number 2
_symmetry_cell_setting 'triclinic'
loop_
_space_group_symop_operation_xyz
x,y,z
-x,-y,-z
loop_
_atom_site_type_symbol
_atom_site_label
_atom_site_fract_x
_atom_site_fract_y
_atom_site_fract_z
Si Si1 0.964104 0.123452 0.046027
Si Si2 0.697112 0.751049 0.290437
Si Si3 0.804659 0.866555 0.568681
Si Si4 0.058672 0.272242 0.333193
Si Si5 0.642412 0.219853 0.668658
Si Si6 0.499092 0.980572 0.834221
Si Si7 0.599878 0.461711 0.809187
O O1 0.731280 0.085152 0.122411
O O2 0.034243 0.207640 0.175886
O O3 0.102283 0.195561 0.879397
O O4 0.000000 0.000000 0.000000
O O5 0.753981 0.782676 0.427155
O O6 0.555481 0.818357 0.340598
O O7 0.561654 0.607439 0.254931
O O8 0.849615 0.794267 0.638036
O O9 0.619506 0.899263 0.707820
O O10 0.000000 0.000000 0.500000
O O11 0.210459 0.418199 0.295422
O O12 0.840824 0.248817 0.492663
O O13 0.659549 0.349787 0.776722
O O14 0.604640 0.112463 0.753101
O O15 0.500000 0.000000 0.000000
O O16 0.500000 0.500000 0.000000
#
# Coordination Sequence:
#
# PCOD9033505 Si02
#       7
#     2   2   2   2   2   2   2
#     4  12  22  38  66  94 127 171 215 256 329 384
#     4  10  23  42  63  94 127 171 214 262 317 381
#     4  12  25  40  65  99 135 164 206 272 331 374
#     4  12  23  41  70  92 129 172 214 267 315 385
#     4  10  23  41  66  93 126 166 221 258 319 377
#     4  12  25  40  64  98 137 163 211 267 331 387
#     4  10  22  44  68  90 125 173 226 258 314 378
#
# _framework density 17.949117000000001
#
# number of rings (size 3 to 8) (size 9 to 14) (size 15 to 20)
#    0.857    0.000    4.286    3.857    2.000    1.714 
#    0.000    0.000    0.000    2.571    0.000    0.000 
#    0.000    0.000    0.000    0.000    0.000    0.000 
#
# Total GULP energy -78164.935486 kJ/mol
# GULP energy per Si atom -5583.209678 kJ/mol
# Density = 1.790826 g / cm^3
# Si number density = 17.949117 Si / 1000 Ang^3
#
#
#
# Elastic Constant Matrix: (Units=GPa)
#
#
# Indices 1 2 3 4 5 6 
#
# 1 95.6161 27.8428 54.8616 4.4816 -8.6074 3.8452
# 2 27.8428 81.9961 43.1359 -0.9121 -0.6874 15.1686
# 3 54.8616 43.1359 135.3796 4.7050 -4.1468 11.3974
# 4 4.4816 -0.9121 4.7050 36.3642 6.3313 -0.8008
# 5 -8.6074 -0.6874 -4.1468 6.3313 46.0050 3.0627
# 6 3.8452 15.1686 11.3974 -0.8008 3.0627 33.1627
#
#
#
# Elastic Compliance Matrix: (Units=1/GPa)
#
#
# Indices 1 2 3 4 5 6 
#
# 1 0.014250 -0.002391 -0.004962 -0.001562 0.002339 0.000893
# 2 -0.002391 0.016024 -0.003703 0.001104 -0.000313 -0.005724
# 3 -0.004962 -0.003703 0.010740 -0.000940 0.000211 -0.001464
# 4 -0.001562 0.001104 -0.000940 0.028627 -0.004373 0.001094
# 5 0.002339 -0.000313 0.000211 -0.004373 0.022952 -0.002426
# 6 0.000893 -0.005724 -0.001464 0.001094 -0.002426 0.033423
#
#
# Mechanical properties :
#
#
# Convention : Reuss Voigt Hill
#
# Bulk Modulus (GPa) = 52.90591 62.74140 57.82366
# Shear Modulus (GPa) = 32.37768 35.58313 33.98040
#
# Velocity S-wave (km/s) = 4.25179 4.45730 4.35576
# Velocity P-wave (km/s) = 7.32415 7.84353 7.58829
#
# Compressibility (1/GPa) = 0.01890148
#
# Stress axis : x y z
#
# Youngs Moduli (GPa) = 70.17741 62.40565 93.11308
#
# Poissons Ratio (x) = 0.14923 0.46202
# Poissons Ratio (y) = 0.16782 0.34478
# Poissons Ratio (z) = 0.34821 0.23107
#
# Static dielectric constant tensor:
#      x y z
#    x 1.607690 0.010770 -0.008930 
#    y 0.010770 1.605970 0.005780 
#    z -0.008930 0.005780 1.588920 
# 
# From -- ./inp_files/170273.got.cif
#   From: 2010.05.17/outbox.cif.g08.bks.cpg/sg2_86_cif.got.tgz:170273.got - 2010.06.03 11:33:40.
