data_PCOD9033216
_publ_section_title
;
Structure prediction by ZEFSAII (Michael W. Deem and Ramdas Pophale) SiO2 
 PCOD9033216
Probable space group: P -1
;
_chemical_formula_sum "Si O2"
_cell_formula_units_Z 16
_cell_length_a 11.706893
_cell_length_b 14.719843
_cell_length_c 9.569389
_cell_angle_alpha 76.995575
_cell_angle_beta 67.972023
_cell_angle_gamma 28.500007
_cell_volume 708.729712
_symmetry_space_group_name_H-M "P -1"
_symmetry_group_IT_number 2
_symmetry_cell_setting 'triclinic'
loop_
_space_group_symop_operation_xyz
x,y,z
-x,-y,-z
loop_
_atom_site_type_symbol
_atom_site_label
_atom_site_fract_x
_atom_site_fract_y
_atom_site_fract_z
Si Si1 0.607150 0.793256 0.997405
Si Si2 0.395221 0.160513 0.573336
Si Si3 0.494307 0.821853 0.743868
Si Si4 0.903215 0.245628 0.885776
Si Si5 0.672770 0.293683 0.472548
Si Si6 0.724361 0.065802 0.661959
Si Si7 0.548614 0.356656 0.186764
Si Si8 0.973844 0.647306 0.074939
O O1 0.548289 0.849922 0.843035
O O2 0.807249 0.573082 0.985598
O O3 0.365660 0.915666 0.154543
O O4 0.753785 0.779902 0.011931
O O5 0.332429 0.270755 0.436326
O O6 0.608454 0.070499 0.601340
O O7 0.161977 0.291130 0.737877
O O8 0.500000 0.000000 0.500000
O O9 0.530886 0.691335 0.815100
O O10 0.190779 0.035740 0.771978
O O11 0.697459 0.412178 0.804327
O O12 0.922552 0.318107 0.962033
O O13 0.781104 0.241180 0.026545
O O14 0.500000 0.500000 0.500000
O O15 0.612403 0.243668 0.614366
O O16 0.632602 0.291063 0.330694
O O17 0.969206 0.125754 0.419564
#
# Coordination Sequence:
#
# PCOD9033216 Si02
#       8
#     2   2   2   2   2   2   2   2
#     4  10  23  44  69  98 135 179 224 279 339 396
#     4  11  23  44  69 100 140 181 225 286 339 400
#     4  12  23  43  71  99 132 179 222 279 345 400
#     4  11  24  41  69  95 139 169 226 283 329 402
#     4  11  25  41  70 102 132 184 228 273 349 406
#     4  10  24  47  68  98 147 172 226 289 332 410
#     4  11  25  43  63 104 130 177 225 281 336 401
#     4  10  22  44  66  97 134 181 223 276 336 397
#
# _framework density 22.575602
#
# number of rings (size 3 to 8) (size 9 to 14) (size 15 to 20)
#    0.000    1.250    3.750    1.125    3.500    1.000 
#    2.250    0.000    0.000    0.000    0.000    0.000 
#    0.000    0.000    0.000    0.000    0.000    0.000 
#
# Total GULP energy -89527.433431 kJ/mol
# GULP energy per Si atom -5595.464589 kJ/mol
# Density = 2.252422 g / cm^3
# Si number density = 22.575602 Si / 1000 Ang^3
#
#
#
# Elastic Constant Matrix: (Units=GPa)
#
#
# Indices 1 2 3 4 5 6 
#
# 1 106.4044 1.9342 25.0336 -5.3373 1.6458 0.1286
# 2 1.9342 64.0866 -2.3464 1.8871 -4.9267 -0.2629
# 3 25.0336 -2.3464 89.5666 -12.0229 1.6299 -11.6425
# 4 -5.3373 1.8871 -12.0229 29.3521 2.3726 4.6507
# 5 1.6458 -4.9267 1.6299 2.3726 24.9230 2.4069
# 6 0.1286 -0.2629 -11.6425 4.6507 2.4069 32.1524
#
#
#
# Elastic Compliance Matrix: (Units=1/GPa)
#
#
# Indices 1 2 3 4 5 6 
#
# 1 0.010137 -0.000486 -0.002864 0.000933 -0.000553 -0.001175
# 2 -0.000486 0.015920 0.000350 -0.001263 0.003257 0.000198
# 3 -0.002864 0.000350 0.013127 0.004274 -0.001418 0.004256
# 4 0.000933 -0.001263 0.004274 0.036934 -0.003766 -0.003527
# 5 -0.000553 0.003257 -0.001418 -0.003766 0.041550 -0.003050
# 6 -0.001175 0.000198 0.004256 -0.003527 -0.003050 0.033388
#
#
# Mechanical properties :
#
#
# Convention : Reuss Voigt Hill
#
# Bulk Modulus (GPa) = 30.13395 34.36671 32.25033
# Shear Modulus (GPa) = 29.74129 32.98125 31.36127
#
# Velocity S-wave (km/s) = 3.63355 3.82635 3.73120
# Velocity P-wave (km/s) = 5.56602 5.89723 5.73401
#
# Compressibility (1/GPa) = 0.03318516
#
# Stress axis : x y z
#
# Youngs Moduli (GPa) = 98.64463 62.81497 76.17815
#
# Poissons Ratio (x) = 0.03050 0.21814
# Poissons Ratio (y) = 0.04790 -0.02663
# Poissons Ratio (z) = 0.28248 -0.02196
#
# Static dielectric constant tensor:
#      x y z
#    x 1.826070 0.013900 0.016600 
#    y 0.013900 1.873490 -0.028080 
#    z 0.016600 -0.028080 1.831870 
# 
# From -- ./inp_files/272867.got.cif
#   From: 2010.05.17/outbox.cif.g08.bks.cpg/sg2_137_cif.got.tgz:272867.got - 2010.06.03 11:33:40.
