data_PCOD9033024
_publ_section_title
;
Structure prediction by ZEFSAII (Michael W. Deem and Ramdas Pophale) SiO2 
 PCOD9033024
Probable space group: P -1
;
_chemical_formula_sum "Si O2"
_cell_formula_units_Z 16
_cell_length_a 6.560603
_cell_length_b 11.239722
_cell_length_c 10.670084
_cell_angle_alpha 85.120551
_cell_angle_beta 125.043374
_cell_angle_gamma 91.471573
_cell_volume 641.577897
_symmetry_space_group_name_H-M "P -1"
_symmetry_group_IT_number 2
_symmetry_cell_setting 'triclinic'
loop_
_space_group_symop_operation_xyz
x,y,z
-x,-y,-z
loop_
_atom_site_type_symbol
_atom_site_label
_atom_site_fract_x
_atom_site_fract_y
_atom_site_fract_z
Si Si1 0.528209 0.776741 0.938647
Si Si2 0.909367 0.706394 0.431577
Si Si3 0.257891 0.529708 0.493136
Si Si4 0.997286 0.886426 0.101164
Si Si5 0.524525 0.864425 0.401510
Si Si6 0.877247 0.318372 0.031462
Si Si7 0.632008 0.131932 0.391029
Si Si8 0.364283 0.440700 0.161944
O O1 0.502296 0.839909 0.789212
O O2 0.605637 0.640105 0.943979
O O3 0.733264 0.855336 0.074554
O O4 0.265135 0.763134 0.913490
O O5 0.875992 0.594322 0.522335
O O6 0.643361 0.775039 0.348126
O O7 0.052603 0.633198 0.375317
O O8 0.106259 0.804712 0.527162
O O9 0.500000 0.500000 0.500000
O O10 0.390970 0.569608 0.666294
O O11 0.232456 0.892975 0.273498
O O12 0.045087 0.770318 0.043507
O O13 0.000000 0.000000 0.000000
O O14 0.529750 0.819853 0.551087
O O15 0.656736 0.990297 0.428972
O O16 0.693470 0.422927 0.905483
O O17 0.123246 0.388477 0.152112
#
# Coordination Sequence:
#
# PCOD9033024 Si02
#       8
#     2   2   2   2   2   2   2   2
#     4  11  23  44  74 100 133 183 236 279 351 410
#     4  11  24  41  64 102 138 179 229 276 347 420
#     4  11  24  40  67 102 141 179 221 288 349 415
#     4  11  24  46  67 101 139 185 234 283 344 406
#     4  11  25  46  70  99 145 180 234 291 346 410
#     4  10  24  41  71  98 132 181 225 292 335 423
#     4  11  24  45  70 103 134 189 230 291 346 408
#     4  10  22  44  65 100 135 172 229 279 355 405
#
# _framework density 24.938514999999999
#
# number of rings (size 3 to 8) (size 9 to 14) (size 15 to 20)
#    0.000    1.250    2.500    2.250    1.750    3.500 
#    2.250    2.500    0.000    0.000    0.000    0.000 
#    0.000    0.000    0.000    0.000    0.000    0.000 
#
# Total GULP energy -89423.653779 kJ/mol
# GULP energy per Si atom -5588.978361 kJ/mol
# Density = 2.488175 g / cm^3
# Si number density = 24.938515 Si / 1000 Ang^3
#
#
#
# Elastic Constant Matrix: (Units=GPa)
#
#
# Indices 1 2 3 4 5 6 
#
# 1 137.0455 26.2456 31.9918 6.3363 13.2832 23.4813
# 2 26.2456 93.2024 18.5862 4.5933 3.2811 22.3041
# 3 31.9918 18.5862 66.3739 -0.0897 11.2558 18.5934
# 4 6.3363 4.5933 -0.0897 32.0034 7.3641 12.1059
# 5 13.2832 3.2811 11.2558 7.3641 27.5928 7.8041
# 6 23.4813 22.3041 18.5934 12.1059 7.8041 50.5753
#
#
#
# Elastic Compliance Matrix: (Units=1/GPa)
#
#
# Indices 1 2 3 4 5 6 
#
# 1 0.008810 -0.001321 -0.002932 -0.000284 -0.002242 -0.002016
# 2 -0.001321 0.012477 -0.001836 -0.000156 0.001175 -0.004358
# 3 -0.002932 -0.001836 0.019429 0.004186 -0.005984 -0.005050
# 4 -0.000284 -0.000156 0.004186 0.036688 -0.008868 -0.008751
# 5 -0.002242 0.001175 -0.005984 -0.008868 0.042472 -0.001708
# 6 -0.002016 -0.004358 -0.005050 -0.008751 -0.001708 0.026845
#
#
# Mechanical properties :
#
#
# Convention : Reuss Voigt Hill
#
# Bulk Modulus (GPa) = 35.04083 50.02989 42.53536
# Shear Modulus (GPa) = 29.68927 36.68752 33.18839
#
# Velocity S-wave (km/s) = 3.45410 3.83968 3.65198
# Velocity P-wave (km/s) = 5.47624 6.30574 5.90557
#
# Compressibility (1/GPa) = 0.02853814
#
# Stress axis : x y z
#
# Youngs Moduli (GPa) = 113.50588 80.14979 51.47018
#
# Poissons Ratio (x) = 0.10587 0.15091
# Poissons Ratio (y) = 0.14992 0.09449
# Poissons Ratio (z) = 0.33280 0.14714
#
# Static dielectric constant tensor:
#      x y z
#    x 2.087400 -0.041380 0.008390 
#    y -0.041380 1.950280 -0.008390 
#    z 0.008390 -0.008390 2.002300 
# 
# From -- ./inp_files/364648.got.cif
#   From: 2010.05.17/outbox.cif.g08.bks.cpg/sg2_183_cif.got.tgz:364648.got - 2010.06.03 11:33:40.
