data_PCOD9033349
_publ_section_title
;
Structure prediction by ZEFSAII (Michael W. Deem and Ramdas Pophale) SiO2 
 PCOD9033349
Probable space group: P -1
;
_chemical_formula_sum "Si O2"
_cell_formula_units_Z 16
_cell_length_a 9.373447
_cell_length_b 17.086266
_cell_length_c 11.251554
_cell_angle_alpha 44.022638
_cell_angle_beta 86.454296
_cell_angle_gamma 52.370934
_cell_volume 722.281400
_symmetry_space_group_name_H-M "P -1"
_symmetry_group_IT_number 2
_symmetry_cell_setting 'triclinic'
loop_
_space_group_symop_operation_xyz
x,y,z
-x,-y,-z
loop_
_atom_site_type_symbol
_atom_site_label
_atom_site_fract_x
_atom_site_fract_y
_atom_site_fract_z
Si Si1 0.819545 0.513583 0.950036
Si Si2 0.204875 0.706124 0.284430
Si Si3 0.298428 0.124174 0.270029
Si Si4 0.872368 0.471686 0.428742
Si Si5 0.028976 0.014860 0.783572
Si Si6 0.379643 0.193059 0.754955
Si Si7 0.547813 0.729035 0.961129
Si Si8 0.413884 0.827586 0.442960
O O1 0.614380 0.637874 0.927811
O O2 0.665078 0.628893 0.711642
O O3 0.000000 0.500000 0.000000
O O4 0.026170 0.287484 0.162126
O O5 0.500000 0.500000 0.500000
O O6 0.107690 0.640951 0.353518
O O7 0.130857 0.837556 0.039571
O O8 0.082475 0.834511 0.271208
O O9 0.335846 0.219712 0.097537
O O10 0.500000 0.000000 0.500000
O O11 0.346205 0.989198 0.330309
O O12 0.743831 0.660859 0.290210
O O13 0.150708 0.315326 0.545321
O O14 0.697901 0.556444 0.235447
O O15 0.262787 0.915833 0.810154
O O16 0.805950 0.120637 0.594398
O O17 0.555060 0.165417 0.706230
O O18 0.500000 0.000000 0.000000
#
# Coordination Sequence:
#
# PCOD9033349 Si02
#       8
#     2   2   2   2   2   2   2   2
#     4  10  22  44  67  96 132 172 227 281 343 405
#     4  11  23  45  66  94 145 187 230 268 351 407
#     4  11  23  43  72  97 127 179 226 286 347 404
#     4  11  24  40  68 100 133 181 228 286 338 416
#     4  11  27  42  68 103 138 189 228 284 339 416
#     4  11  24  40  66 105 136 172 231 290 344 401
#     4  11  23  44  69  99 134 176 235 272 345 418
#     4  12  24  43  68  97 141 174 224 288 346 397
#
# _framework density 22.152031999999998
#
# number of rings (size 3 to 8) (size 9 to 14) (size 15 to 20)
#    0.000    1.000    3.750    3.750    5.250    4.500 
#    0.000    0.625    0.000    0.000    0.000    0.000 
#    0.000    0.000    0.000    0.000    0.000    0.000 
#
# Total GULP energy -89391.754097 kJ/mol
# GULP energy per Si atom -5586.984631 kJ/mol
# Density = 2.210161 g / cm^3
# Si number density = 22.152032 Si / 1000 Ang^3
#
#
#
# Elastic Constant Matrix: (Units=GPa)
#
#
# Indices 1 2 3 4 5 6 
#
# 1 60.7849 16.9693 12.6306 -8.6143 10.9510 -9.7349
# 2 16.9693 94.6870 37.5734 -16.7097 8.5696 -17.6699
# 3 12.6306 37.5734 103.2466 -16.0712 9.2543 6.4301
# 4 -8.6143 -16.7097 -16.0712 35.1553 0.6247 4.9586
# 5 10.9510 8.5696 9.2543 0.6247 36.6872 -10.2639
# 6 -9.7349 -17.6699 6.4301 4.9586 -10.2639 28.2481
#
#
#
# Elastic Compliance Matrix: (Units=1/GPa)
#
#
# Indices 1 2 3 4 5 6 
#
# 1 0.018840 -0.001223 -0.001307 0.002930 -0.003914 0.004088
# 2 -0.001223 0.015425 -0.005756 0.002912 0.001079 0.010418
# 3 -0.001307 -0.005756 0.013658 0.004621 -0.004474 -0.009597
# 4 0.002930 0.002912 0.004621 0.033581 -0.004946 -0.005913
# 5 -0.003914 0.001079 -0.004474 -0.004946 0.033090 0.013236
# 6 0.004088 0.010418 -0.009597 -0.005913 0.013236 0.051358
#
#
# Mechanical properties :
#
#
# Convention : Reuss Voigt Hill
#
# Bulk Modulus (GPa) = 31.89835 43.67391 37.78613
# Shear Modulus (GPa) = 25.91010 32.78779 29.34895
#
# Velocity S-wave (km/s) = 3.42372 3.85141 3.64385
# Velocity P-wave (km/s) = 5.48272 6.28778 5.89900
#
# Compressibility (1/GPa) = 0.03134958
#
# Stress axis : x y z
#
# Youngs Moduli (GPa) = 53.07903 64.83048 73.21631
#
# Poissons Ratio (x) = 0.07931 0.09571
# Poissons Ratio (y) = 0.06493 0.42144
# Poissons Ratio (z) = 0.06939 0.37317
#
# Static dielectric constant tensor:
#      x y z
#    x 1.894890 -0.045870 -0.002400 
#    y -0.045870 1.882340 0.034210 
#    z -0.002400 0.034210 1.856340 
# 
# From -- ./inp_files/402840.got.cif
#   From: 2010.05.17/outbox.cif.g08.bks.cpg/sg2_202_cif.got.tgz:402840.got - 2010.06.03 11:33:40.
