data_PCOD9033068
_publ_section_title
;
Structure prediction by ZEFSAII (Michael W. Deem and Ramdas Pophale) SiO2 
 PCOD9033068
Probable space group: P -1
;
_chemical_formula_sum "Si O2"
_cell_formula_units_Z 14
_cell_length_a 8.019757
_cell_length_b 19.225794
_cell_length_c 5.249058
_cell_angle_alpha 74.591616
_cell_angle_beta 119.804105
_cell_angle_gamma 119.665803
_cell_volume 610.023455
_symmetry_space_group_name_H-M "P -1"
_symmetry_group_IT_number 2
_symmetry_cell_setting 'triclinic'
loop_
_space_group_symop_operation_xyz
x,y,z
-x,-y,-z
loop_
_atom_site_type_symbol
_atom_site_label
_atom_site_fract_x
_atom_site_fract_y
_atom_site_fract_z
Si Si1 0.759997 0.237794 0.898276
Si Si2 0.621565 0.490556 0.356023
Si Si3 0.934255 0.071366 0.879116
Si Si4 0.012823 0.645764 0.655617
Si Si5 0.868114 0.757165 0.181230
Si Si6 0.436700 0.683455 0.620888
Si Si7 0.297713 0.926317 0.796587
O O1 0.556350 0.247885 0.632830
O O2 0.911748 0.225204 0.817631
O O3 0.695138 0.160513 0.106119
O O4 0.909914 0.328247 0.024195
O O5 0.500000 0.500000 0.500000
O O6 0.859791 0.559734 0.512813
O O7 0.616550 0.403606 0.443168
O O8 0.500000 0.500000 0.000000
O O9 0.750257 0.055129 0.543710
O O10 0.113659 0.155861 0.830283
O O11 0.881522 0.081484 0.123148
O O12 0.000000 0.000000 0.000000
O O13 0.881934 0.699244 0.463997
O O14 0.240343 0.673652 0.663776
O O15 0.657823 0.710956 0.906327
O O16 0.500000 0.000000 0.000000
#
# Coordination Sequence:
#
# PCOD9033068 Si02
#       7
#     2   2   2   2   2   2   2
#     4  10  24  42  67  97 133 178 223 280 332 397
#     4  12  27  46  71  98 138 180 218 278 341 394
#     4  11  24  43  67 100 133 179 221 273 335 400
#     4  11  23  44  69  96 136 172 228 277 330 400
#     4  10  22  44  65  94 139 173 224 278 334 394
#     4  11  25  42  70 101 127 182 226 273 337 401
#     4  11  24  44  67  97 139 173 221 280 333 390
#
# _framework density 22.949936000000001
#
# number of rings (size 3 to 8) (size 9 to 14) (size 15 to 20)
#    0.000    1.143    2.857    2.143    6.000    2.857 
#    0.000    0.000    0.000    0.000    0.000    0.000 
#    0.000    0.000    0.000    0.000    0.000    0.000 
#
# Total GULP energy -78103.758004 kJ/mol
# GULP energy per Si atom -5578.839857 kJ/mol
# Density = 2.289770 g / cm^3
# Si number density = 22.949936 Si / 1000 Ang^3
#
#
#
# Elastic Constant Matrix: (Units=GPa)
#
#
# Indices 1 2 3 4 5 6 
#
# 1 39.2500 16.6923 16.5900 -18.1733 -0.8295 -16.0783
# 2 16.6923 127.8369 11.4938 1.8174 13.0932 -16.3825
# 3 16.5900 11.4938 83.8568 -8.8957 -0.4557 -5.4182
# 4 -18.1733 1.8174 -8.8957 44.8434 -6.6722 11.5054
# 5 -0.8295 13.0932 -0.4557 -6.6722 28.3550 4.9549
# 6 -16.0783 -16.3825 -5.4182 11.5054 4.9549 32.5669
#
#
#
# Elastic Compliance Matrix: (Units=1/GPa)
#
#
# Indices 1 2 3 4 5 6 
#
# 1 0.040307 -0.003835 -0.005283 0.012950 0.003827 0.011935
# 2 -0.003835 0.009855 -0.000750 -0.004527 -0.006712 0.005560
# 3 -0.005283 -0.000750 0.013095 0.000938 0.000844 -0.001266
# 4 0.012950 -0.004527 0.000938 0.031872 0.011512 -0.008740
# 5 0.003827 -0.006712 0.000844 0.011512 0.043298 -0.012001
# 6 0.011935 0.005560 -0.001266 -0.008740 -0.012001 0.044098
#
#
# Mechanical properties :
#
#
# Convention : Reuss Voigt Hill
#
# Bulk Modulus (GPa) = 22.97652 37.83288 30.40470
# Shear Modulus (GPa) = 23.06615 34.89756 28.98186
#
# Velocity S-wave (km/s) = 3.17371 3.90371 3.55749
# Velocity P-wave (km/s) = 4.84389 6.06954 5.49102
#
# Compressibility (1/GPa) = 0.04352269
#
# Stress axis : x y z
#
# Youngs Moduli (GPa) = 24.80947 101.47217 76.36358
#
# Poissons Ratio (x) = 0.38912 0.40343
# Poissons Ratio (y) = 0.09514 0.05724
# Poissons Ratio (z) = 0.13107 0.07606
#
# Static dielectric constant tensor:
#      x y z
#    x 1.697630 0.005230 -0.142500 
#    y 0.005230 2.058470 -0.014190 
#    z -0.142500 -0.014190 1.854810 
# 
# From -- ./inp_files/6261.got.cif
#   From: 2010.05.17/outbox.cif.g08.bks.cpg/sg2_4_cif.got.tgz:6261.got - 2010.06.03 11:33:40.
