data_PCOD9033101
_publ_section_title
;
Structure prediction by ZEFSAII (Michael W. Deem and Ramdas Pophale) SiO2 
 PCOD9033101
Probable space group: P -1
;
_chemical_formula_sum "Si O2"
_cell_formula_units_Z 12
_cell_length_a 4.959983
_cell_length_b 10.595677
_cell_length_c 10.273637
_cell_angle_alpha 79.208467
_cell_angle_beta 89.097710
_cell_angle_gamma 70.089166
_cell_volume 497.997716
_symmetry_space_group_name_H-M "P -1"
_symmetry_group_IT_number 2
_symmetry_cell_setting 'triclinic'
loop_
_space_group_symop_operation_xyz
x,y,z
-x,-y,-z
loop_
_atom_site_type_symbol
_atom_site_label
_atom_site_fract_x
_atom_site_fract_y
_atom_site_fract_z
Si Si1 0.574331 0.205149 0.803040
Si Si2 0.569550 0.340154 0.514223
Si Si3 0.757614 0.641654 0.004235
Si Si4 0.156345 0.804326 0.928073
Si Si5 0.628182 0.017373 0.290169
Si Si6 0.155951 0.194070 0.445806
O O1 0.681366 0.265488 0.665829
O O2 0.464645 0.085818 0.779805
O O3 0.205551 0.069869 0.571120
O O4 0.792165 0.156077 0.931473
O O5 0.500000 0.500000 0.500000
O O6 0.819390 0.273494 0.419999
O O7 0.703430 0.701172 0.513280
O O8 0.449839 0.671359 0.932756
O O9 0.881927 0.759489 0.938496
O O10 0.681671 0.670390 0.151793
O O11 0.000000 0.500000 0.000000
O O12 0.182280 0.913843 0.804678
O O13 0.653689 0.872048 0.666542
#
# Coordination Sequence:
#
# PCOD9033101 Si02
#       6
#     2   2   2   2   2   2
#     4   9  24  39  66  93 130 165 207 271 314 375
#     4  11  24  45  66  93 128 172 220 257 320 379
#     4  10  23  41  59  94 129 168 212 257 318 377
#     4  10  23  39  66  93 124 172 204 266 324 373
#     4  10  22  44  65  98 135 162 221 256 330 383
#     4  10  25  42  66  97 127 173 208 276 306 379
#
# _framework density 24.096495000000001
#
# number of rings (size 3 to 8) (size 9 to 14) (size 15 to 20)
#    1.000    1.000    0.000    1.500    4.667   13.333 
#    0.000    0.000    0.000    0.000    0.000    0.000 
#    0.000    0.000    0.000    0.000    0.000    0.000 
#
# Total GULP energy -67170.352010 kJ/mol
# GULP energy per Si atom -5597.529334 kJ/mol
# Density = 2.404165 g / cm^3
# Si number density = 24.096495 Si / 1000 Ang^3
#
#
#
# Elastic Constant Matrix: (Units=GPa)
#
#
# Indices 1 2 3 4 5 6 
#
# 1 86.9437 9.2838 12.3568 3.9179 -15.1387 -13.3799
# 2 9.2838 108.2262 22.0671 9.6502 -13.5020 -20.7340
# 3 12.3568 22.0671 64.3337 11.9506 -14.7468 15.7116
# 4 3.9179 9.6502 11.9506 22.2572 3.6170 -4.3983
# 5 -15.1387 -13.5020 -14.7468 3.6170 32.1836 3.1419
# 6 -13.3799 -20.7340 15.7116 -4.3983 3.1419 45.1588
#
#
#
# Elastic Compliance Matrix: (Units=1/GPa)
#
#
# Indices 1 2 3 4 5 6 
#
# 1 0.013508 0.001126 -0.002784 -0.001227 0.005200 0.005006
# 2 0.001126 0.012105 -0.005269 -0.001589 0.002651 0.007386
# 3 -0.002784 -0.005269 0.027766 -0.017246 0.012650 -0.015464
# 4 -0.001227 -0.001589 -0.017246 0.060234 -0.017083 0.011962
# 5 0.005200 0.002651 0.012650 -0.017083 0.042961 -0.006296
# 6 0.005006 0.007386 -0.015464 0.011962 -0.006296 0.034002
#
#
# Mechanical properties :
#
#
# Convention : Reuss Voigt Hill
#
# Bulk Modulus (GPa) = 25.29979 38.54653 31.92316
# Shear Modulus (GPa) = 22.97741 34.30632 28.64186
#
# Velocity S-wave (km/s) = 3.09132 3.77730 3.45139
# Velocity P-wave (km/s) = 4.82326 5.92076 5.39997
#
# Compressibility (1/GPa) = 0.03952601
#
# Stress axis : x y z
#
# Youngs Moduli (GPa) = 74.02856 82.60993 36.01524
#
# Poissons Ratio (x) = -0.09303 0.10025
# Poissons Ratio (y) = -0.08337 0.18978
# Poissons Ratio (z) = 0.20606 0.43530
#
# Static dielectric constant tensor:
#      x y z
#    x 1.898300 -0.036510 0.045480 
#    y -0.036510 1.902380 0.006760 
#    z 0.045480 0.006760 1.919240 
# 
# From -- ./inp_files/84643.got.cif
#   From: 2010.05.17/outbox.cif.g08.bks.cpg/sg2_43_cif.got.tgz:84643.got - 2010.06.03 11:33:40.
