data_PCOD9033309
_publ_section_title
;
Structure prediction by ZEFSAII (Michael W. Deem and Ramdas Pophale) SiO2 
 PCOD9033309
Probable space group: P -1
;
_chemical_formula_sum "Si O2"
_cell_formula_units_Z 14
_cell_length_a 8.923413
_cell_length_b 8.882831
_cell_length_c 11.279746
_cell_angle_alpha 111.571414
_cell_angle_beta 106.717127
_cell_angle_gamma 125.239465
_cell_volume 511.369918
_symmetry_space_group_name_H-M "P -1"
_symmetry_group_IT_number 2
_symmetry_cell_setting 'triclinic'
loop_
_space_group_symop_operation_xyz
x,y,z
-x,-y,-z
loop_
_atom_site_type_symbol
_atom_site_label
_atom_site_fract_x
_atom_site_fract_y
_atom_site_fract_z
Si Si1 0.744165 0.295315 0.951091
Si Si2 0.840666 0.157108 0.139782
Si Si3 0.584951 0.389832 0.523341
Si Si4 0.210917 0.588572 0.648883
Si Si5 0.119034 0.281419 0.745767
Si Si6 0.878048 0.841181 0.046792
Si Si7 0.552950 0.743388 0.287354
O O1 0.524033 0.154488 0.768579
O O2 0.787060 0.165224 0.996355
O O3 0.751006 0.458984 0.086351
O O4 0.000000 0.500000 0.000000
O O5 0.711824 0.199141 0.192396
O O6 0.130216 0.389250 0.304123
O O7 0.751323 0.908400 0.077438
O O8 0.500000 0.500000 0.500000
O O9 0.593102 0.312521 0.374053
O O10 0.434365 0.215337 0.556110
O O11 0.084605 0.346492 0.629761
O O12 0.000000 0.500000 0.500000
O O13 0.987618 0.114442 0.790566
O O14 0.239515 0.208915 0.704951
O O15 0.679857 0.556541 0.876766
O O16 0.000000 0.000000 0.000000
#
# Coordination Sequence:
#
# PCOD9033309 Si02
#       7
#     2   2   2   2   2   2   2
#     4  10  17  32  55  84 113 143 193 238 278 345
#     4  10  20  36  57  90 112 145 193 248 291 325
#     4  11  19  35  62  81 113 154 199 231 274 349
#     4   9  20  36  58  86 111 155 200 235 273 342
#     4  10  21  37  58  87 116 151 197 234 286 352
#     4  11  20  36  60  89 120 145 187 250 297 344
#     4  11  21  37  61  89 114 151 198 232 295 346
#
# _framework density 27.37744
#
# number of rings (size 3 to 8) (size 9 to 14) (size 15 to 20)
#    0.000    1.714    4.286    2.571    0.000    0.000 
#    0.000    9.286    0.000    0.857    0.000    0.000 
#    0.000    0.000    0.000    0.000    0.000    0.000 
#
# Total GULP energy -78093.448704 kJ/mol
# GULP energy per Si atom -5578.103479 kJ/mol
# Density = 2.731513 g / cm^3
# Si number density = 27.377440 Si / 1000 Ang^3
#
#
#
# Elastic Constant Matrix: (Units=GPa)
#
#
# Indices 1 2 3 4 5 6 
#
# 1 148.3507 33.6162 48.5978 -28.6222 -16.8929 -6.9911
# 2 33.6162 144.6616 61.0878 -69.0336 4.9093 -22.6068
# 3 48.5978 61.0878 144.8032 -50.2004 1.7291 -6.2869
# 4 -28.6222 -69.0336 -50.2004 69.4665 -7.7775 3.0286
# 5 -16.8929 4.9093 1.7291 -7.7775 48.6869 -15.3084
# 6 -6.9911 -22.6068 -6.2869 3.0286 -15.3084 53.4450
#
#
#
# Elastic Compliance Matrix: (Units=1/GPa)
#
#
# Indices 1 2 3 4 5 6 
#
# 1 0.008389 0.000392 -0.001978 0.002779 0.004022 0.002025
# 2 0.000392 0.015043 -0.001311 0.014215 0.002914 0.006289
# 3 -0.001978 -0.001311 0.009856 0.004993 -0.000095 0.000036
# 4 0.002779 0.014215 0.004993 0.033747 0.006959 0.007045
# 5 0.004022 0.002914 -0.000095 0.006959 0.025476 0.008650
# 6 0.002025 0.006289 0.000036 0.007045 0.008650 0.023719
#
#
# Mechanical properties :
#
#
# Convention : Reuss Voigt Hill
#
# Bulk Modulus (GPa) = 36.37132 80.49101 58.43117
# Shear Modulus (GPa) = 38.11287 53.95391 46.03339
#
# Velocity S-wave (km/s) = 3.73517 4.44412 4.10498
# Velocity P-wave (km/s) = 5.64942 7.46980 6.62246
#
# Compressibility (1/GPa) = 0.02749419
#
# Stress axis : x y z
#
# Youngs Moduli (GPa) = 119.19719 66.47717 101.45763
#
# Poissons Ratio (x) = -0.02603 0.20064
# Poissons Ratio (y) = -0.04668 0.13303
# Poissons Ratio (z) = 0.23572 0.08717
#
# Static dielectric constant tensor:
#      x y z
#    x 2.215870 0.089960 -0.034240 
#    y 0.089960 2.282870 0.049690 
#    z -0.034240 0.049690 2.276070 
# 
# From -- ./inp_files/178234.got.cif
#   From: 2010.05.17/outbox.cif.g08.bks.cpg/sg2_90_cif.got.tgz:178234.got - 2010.06.03 11:33:40.
