data_PCOD9033318
_publ_section_title
;
Structure prediction by ZEFSAII (Michael W. Deem and Ramdas Pophale) SiO2 
 PCOD9033318
Probable space group: P -1
;
_chemical_formula_sum "Si O2"
_cell_formula_units_Z 15
_cell_length_a 10.707875
_cell_length_b 16.023275
_cell_length_c 8.096364
_cell_angle_alpha 120.492239
_cell_angle_beta 141.800961
_cell_angle_gamma 46.478284
_cell_volume 621.130769
_symmetry_space_group_name_H-M "P -1"
_symmetry_group_IT_number 2
_symmetry_cell_setting 'triclinic'
loop_
_space_group_symop_operation_xyz
x,y,z
-x,-y,-z
loop_
_atom_site_type_symbol
_atom_site_label
_atom_site_fract_x
_atom_site_fract_y
_atom_site_fract_z
Si Si1 0.946696 0.747491 0.109861
Si Si2 0.500200 0.280164 0.768963
Si Si3 0.419822 0.882051 0.817120
Si Si4 0.569994 0.063669 0.767807
Si Si5 0.000000 0.500000 0.500000
Si Si6 0.094235 0.904046 0.238255
Si Si7 0.675074 0.301808 0.303768
Si Si8 0.841584 0.502392 0.988322
O O1 0.992197 0.837449 0.161649
O O2 0.082024 0.715397 0.394133
O O3 0.667704 0.801149 0.898567
O O4 0.076033 0.628837 0.024203
O O5 0.431826 0.196146 0.701199
O O6 0.263776 0.398799 0.588296
O O7 0.686162 0.196285 0.739143
O O8 0.647622 0.304557 0.081582
O O9 0.208455 0.951223 0.533048
O O10 0.346690 0.801557 0.752581
O O11 0.469381 0.941762 0.081520
O O12 0.500000 0.000000 0.500000
O O13 0.859381 0.004327 0.001051
O O14 0.113839 0.450417 0.750787
O O15 0.443251 0.415995 0.253903
O O16 0.000000 0.500000 0.000000
#
# Coordination Sequence:
#
# PCOD9033318 Si02
#       8
#     2   2   2   2   1   2   2   2
#     4  11  23  40  70  99 136 177 241 278 350 425
#     4  10  23  47  68 101 145 175 231 293 353 410
#     4  10  22  44  67  93 137 175 227 290 340 409
#     4  11  26  44  72 101 136 190 231 283 353 416
#     4  10  24  42  76 100 136 186 232 284 364 410
#     4  11  25  44  69 102 140 183 229 289 346 418
#     4   9  21  41  64 100 129 183 227 285 346 415
#     4  11  21  41  67  98 139 187 227 292 352 416
#
# _framework density 24.149504
#
# number of rings (size 3 to 8) (size 9 to 14) (size 15 to 20)
#    0.000    1.600    1.333    2.000    7.467    0.533 
#    4.800    1.333    0.000    0.000    0.000    0.000 
#    0.000    0.000    0.000    0.000    0.000    0.000 
#
# Total GULP energy -83637.670637 kJ/mol
# GULP energy per Si atom -5575.844709 kJ/mol
# Density = 2.409454 g / cm^3
# Si number density = 24.149504 Si / 1000 Ang^3
#
#
#
# Elastic Constant Matrix: (Units=GPa)
#
#
# Indices 1 2 3 4 5 6 
#
# 1 50.9471 7.7726 19.4480 3.2117 -5.0965 -24.2921
# 2 7.7726 96.9530 24.3395 -17.7880 10.8860 -23.2753
# 3 19.4480 24.3395 134.1142 -13.3839 -4.7635 -8.4567
# 4 3.2117 -17.7880 -13.3839 40.6223 -9.7020 0.8796
# 5 -5.0965 10.8860 -4.7635 -9.7020 21.4307 2.6805
# 6 -24.2921 -23.2753 -8.4567 0.8796 2.6805 36.2445
#
#
#
# Elastic Compliance Matrix: (Units=1/GPa)
#
#
# Indices 1 2 3 4 5 6 
#
# 1 0.031542 0.003221 -0.003982 -0.002639 0.001000 0.022269
# 2 0.003221 0.014884 -0.002338 0.003529 -0.007170 0.011616
# 3 -0.003982 -0.002338 0.008757 0.003170 0.003934 -0.002495
# 4 -0.002639 0.003529 0.003170 0.030302 0.012051 -0.000390
# 5 0.001000 -0.007170 0.003934 0.012051 0.057821 -0.007585
# 6 0.022269 0.011616 -0.002495 -0.000390 -0.007585 0.049964
#
#
# Mechanical properties :
#
#
# Convention : Reuss Voigt Hill
#
# Bulk Modulus (GPa) = 20.41510 42.79273 31.60391
# Shear Modulus (GPa) = 23.17003 35.02311 29.09657
#
# Velocity S-wave (km/s) = 3.10085 3.81236 3.47486
# Velocity P-wave (km/s) = 4.61436 6.09403 5.40507
#
# Compressibility (1/GPa) = 0.04898336
#
# Stress axis : x y z
#
# Youngs Moduli (GPa) = 31.70426 67.18555 114.19616
#
# Poissons Ratio (x) = -0.21639 0.45473
# Poissons Ratio (y) = -0.10211 0.26703
# Poissons Ratio (z) = 0.12625 0.15710
#
# Static dielectric constant tensor:
#      x y z
#    x 1.922830 -0.009730 0.034370 
#    y -0.009730 1.956280 0.043500 
#    z 0.034370 0.043500 1.567050 
# 
# From -- ./inp_files/45395.got.cif
#   From: 2010.05.17/outbox.cif.g08.bks.cpg/sg2_23_cif.got.tgz:45395.got - 2010.06.03 11:33:40.
