data_PCOD9033675
_publ_section_title
;
Structure prediction by ZEFSAII (Michael W. Deem and Ramdas Pophale) SiO2 
 PCOD9033675
Probable space group: P -1
;
_chemical_formula_sum "Si O2"
_cell_formula_units_Z 16
_cell_length_a 17.985484
_cell_length_b 15.397940
_cell_length_c 8.953985
_cell_angle_alpha 133.970900
_cell_angle_beta 140.931263
_cell_angle_gamma 32.533194
_cell_volume 834.683642
_symmetry_space_group_name_H-M "P -1"
_symmetry_group_IT_number 2
_symmetry_cell_setting 'triclinic'
loop_
_space_group_symop_operation_xyz
x,y,z
-x,-y,-z
loop_
_atom_site_type_symbol
_atom_site_label
_atom_site_fract_x
_atom_site_fract_y
_atom_site_fract_z
Si Si1 0.308381 0.053491 0.118955
Si Si2 0.500747 0.865475 0.905504
Si Si3 0.098340 0.986426 0.776189
Si Si4 0.817748 0.241410 0.820586
Si Si5 0.540147 0.307066 0.611400
Si Si6 0.407356 0.238948 0.582714
Si Si7 0.696671 0.576994 0.067115
Si Si8 0.635164 0.340038 0.337960
O O1 0.316742 0.192559 0.301005
O O2 0.438403 0.923003 0.288283
O O3 0.371922 0.959374 0.948955
O O4 0.148535 0.090820 0.949686
O O5 0.454707 0.805486 0.632440
O O6 0.663819 0.703073 0.042487
O O7 0.500000 0.000000 0.000000
O O8 0.257900 0.797808 0.785764
O O9 0.000000 0.000000 0.500000
O O10 0.987823 0.064115 0.842340
O O11 0.710841 0.256852 0.803685
O O12 0.823374 0.383243 0.012883
O O13 0.720360 0.284268 0.565046
O O14 0.477053 0.293668 0.649662
O O15 0.411517 0.493457 0.580833
O O16 0.296232 0.367027 0.693035
O O17 0.529373 0.618585 0.853204
#
# Coordination Sequence:
#
# PCOD9033675 Si02
#       8
#     2   2   2   2   2   2   2   2
#     4  10  20  37  53  82 111 145 181 220 274 321
#     4  11  17  29  56  81 105 132 181 234 259 304
#     4  10  19  35  58  80 106 149 181 218 273 328
#     4  10  19  32  57  81 107 143 179 232 267 317
#     4  11  19  32  55  87 106 136 186 230 273 303
#     4  10  21  33  56  80 114 143 176 226 273 327
#     4  10  18  35  53  81 109 141 183 226 271 311
#     4  10  17  32  56  78 110 135 184 233 265 313
#
# _framework density 19.168939999999999
#
# number of rings (size 3 to 8) (size 9 to 14) (size 15 to 20)
#    0.000    1.750    6.250    1.500    0.000    2.000 
#    0.000    1.250    0.000    8.250    0.000    0.000 
#    0.000    0.000    0.000    0.000    0.000    0.000 
#
# Total GULP energy -89164.862836 kJ/mol
# GULP energy per Si atom -5572.803927 kJ/mol
# Density = 1.912531 g / cm^3
# Si number density = 19.168940 Si / 1000 Ang^3
#
#
#
# Elastic Constant Matrix: (Units=GPa)
#
#
# Indices 1 2 3 4 5 6 
#
# 1 62.5383 23.7828 2.7955 4.1841 13.7746 11.7485
# 2 23.7828 70.9277 14.3024 24.8650 8.7928 -0.7299
# 3 2.7955 14.3024 55.6993 17.1646 5.7563 2.8445
# 4 4.1841 24.8650 17.1646 25.1192 1.2458 6.3321
# 5 13.7746 8.7928 5.7563 1.2458 24.3895 5.7213
# 6 11.7485 -0.7299 2.8445 6.3321 5.7213 28.7442
#
#
#
# Elastic Compliance Matrix: (Units=1/GPa)
#
#
# Indices 1 2 3 4 5 6 
#
# 1 0.022667 -0.009945 -0.000100 0.009030 -0.007298 -0.010044
# 2 -0.009945 0.029079 0.002978 -0.032085 -0.006972 0.012964
# 3 -0.000100 0.002978 0.023754 -0.019698 -0.006411 0.003381
# 4 0.009030 -0.032085 -0.019698 0.089127 0.012345 -0.024647
# 5 -0.007298 -0.006972 -0.006411 0.012345 0.050718 -0.009374
# 6 -0.010044 0.012964 0.003381 -0.024647 -0.009374 0.046185
#
#
# Mechanical properties :
#
#
# Convention : Reuss Voigt Hill
#
# Bulk Modulus (GPa) = 16.29538 30.10296 23.19917
# Shear Modulus (GPa) = 16.88525 25.53623 21.21074
#
# Velocity S-wave (km/s) = 2.97116 3.65385 3.33004
# Velocity P-wave (km/s) = 4.50441 5.79128 5.18790
#
# Compressibility (1/GPa) = 0.06136708
#
# Stress axis : x y z
#
# Youngs Moduli (GPa) = 44.11776 34.38956 42.09870
#
# Poissons Ratio (x) = 0.34199 0.00420
# Poissons Ratio (y) = 0.43873 -0.12539
# Poissons Ratio (z) = 0.00440 -0.10243
#
# Static dielectric constant tensor:
#      x y z
#    x 1.705890 0.005300 0.007860 
#    y 0.005300 1.709160 0.013460 
#    z 0.007860 0.013460 1.690410 
# 
# From -- ./inp_files/255090.got.cif
#   From: 2010.05.17/outbox.cif.g08.bks.cpg/sg2_128_cif.got.tgz:255090.got - 2010.06.03 11:33:40.
