data_PCOD9033917
_publ_section_title
;
Structure prediction by ZEFSAII (Michael W. Deem and Ramdas Pophale) SiO2 
 PCOD9033917
Probable space group: P -1
;
_chemical_formula_sum "Si O2"
_cell_formula_units_Z 13
_cell_length_a 9.910937
_cell_length_b 16.547887
_cell_length_c 15.210527
_cell_angle_alpha 161.940644
_cell_angle_beta 43.849438
_cell_angle_gamma 137.416240
_cell_volume 520.622944
_symmetry_space_group_name_H-M "P -1"
_symmetry_group_IT_number 2
_symmetry_cell_setting 'triclinic'
loop_
_space_group_symop_operation_xyz
x,y,z
-x,-y,-z
loop_
_atom_site_type_symbol
_atom_site_label
_atom_site_fract_x
_atom_site_fract_y
_atom_site_fract_z
Si Si1 0.745074 0.741809 0.439183
Si Si2 0.700295 0.637178 0.854622
Si Si3 0.500433 0.822977 0.983885
Si Si4 0.000000 0.500000 0.500000
Si Si5 0.349213 0.359691 0.827697
Si Si6 0.862150 0.182859 0.566405
Si Si7 0.930710 0.923358 0.820043
O O1 0.710622 0.684058 0.292248
O O2 0.977967 0.796110 0.408767
O O3 0.652168 0.990624 0.762489
O O4 0.629000 0.481854 0.278957
O O5 0.578670 0.526532 0.882836
O O6 0.744979 0.409877 0.535394
O O7 0.589096 0.820141 0.039571
O O8 0.939734 0.778480 0.901281
O O9 0.694635 0.896826 0.906808
O O10 0.021598 0.287255 0.351388
O O11 0.314911 0.075569 0.596586
O O12 0.215332 0.548797 0.124280
O O13 0.976164 0.127566 0.368527
#
# Coordination Sequence:
#
# PCOD9033917 Si02
#       7
#     2   2   2   1   2   2   2
#     4  11  23  45  73  98 135 181 233 281 333 403
#     4  10  24  41  71 100 131 180 231 281 334 412
#     4  10  23  41  73 102 127 179 232 284 340 397
#     4  10  22  44  70  92 132 178 226 278 338 396
#     4  11  25  44  70 100 138 186 228 272 337 409
#     4  12  27  45  67 103 144 182 224 280 339 407
#     4  11  27  41  70 103 141 177 224 288 346 407
#
# _framework density 24.970086999999999
#
# number of rings (size 3 to 8) (size 9 to 14) (size 15 to 20)
#    0.000    1.231    0.000    5.538   17.231    2.462 
#    0.000    0.000    0.000    0.000    0.000    0.000 
#    0.000    0.000    0.000    0.000    0.000    0.000 
#
# Total GULP energy -72656.890786 kJ/mol
# GULP energy per Si atom -5588.991599 kJ/mol
# Density = 2.491325 g / cm^3
# Si number density = 24.970087 Si / 1000 Ang^3
#
#
#
# Elastic Constant Matrix: (Units=GPa)
#
#
# Indices 1 2 3 4 5 6 
#
# 1 60.1575 7.5074 13.0243 0.4432 -15.9773 3.1015
# 2 7.5074 95.7551 24.7787 -3.1986 8.0372 9.3897
# 3 13.0243 24.7787 119.4062 11.4988 -27.8416 2.8089
# 4 0.4432 -3.1986 11.4988 41.4901 -0.7171 8.6892
# 5 -15.9773 8.0372 -27.8416 -0.7171 31.1463 -6.9995
# 6 3.1015 9.3897 2.8089 8.6892 -6.9995 35.3558
#
#
#
# Elastic Compliance Matrix: (Units=1/GPa)
#
#
# Indices 1 2 3 4 5 6 
#
# 1 0.020032 -0.003267 0.001558 -0.001051 0.012891 0.001797
# 2 -0.003267 0.013741 -0.005330 0.003647 -0.011266 -0.006066
# 3 0.001558 -0.005330 0.013101 -0.004707 0.014747 0.004315
# 4 -0.001051 0.003647 -0.004707 0.027383 -0.006994 -0.008617
# 5 0.012891 -0.011266 0.014747 -0.006994 0.057759 0.013843
# 6 0.001797 -0.006066 0.004315 -0.008617 0.013843 0.034253
#
#
# Mechanical properties :
#
#
# Convention : Reuss Voigt Hill
#
# Bulk Modulus (GPa) = 30.49233 40.65996 35.57615
# Shear Modulus (GPa) = 26.13963 36.93233 31.53598
#
# Velocity S-wave (km/s) = 3.23900 3.85003 3.55766
# Velocity P-wave (km/s) = 5.12115 6.00687 5.58161
#
# Compressibility (1/GPa) = 0.03279513
#
# Stress axis : x y z
#
# Youngs Moduli (GPa) = 49.91917 72.77457 76.32797
#
# Poissons Ratio (x) = 0.23775 -0.11889
# Poissons Ratio (y) = 0.16309 0.40686
# Poissons Ratio (z) = -0.07776 0.38792
#
# Static dielectric constant tensor:
#      x y z
#    x 2.151870 -0.099760 0.504570 
#    y -0.099760 2.169570 -0.451350 
#    z 0.504570 -0.451350 3.167450 
# 
# From -- ./inp_files/92172.got.cif
#   From: 2010.05.17/outbox.cif.g08.bks.cpg/sg2_47_cif.got.tgz:92172.got - 2010.06.03 11:33:40.
