data_PCOD9033078
_publ_section_title
;
Structure prediction by ZEFSAII (Michael W. Deem and Ramdas Pophale) SiO2 
 PCOD9033078
Probable space group: P -1
;
_chemical_formula_sum "Si O2"
_cell_formula_units_Z 16
_cell_length_a 8.829835
_cell_length_b 8.492675
_cell_length_c 12.596634
_cell_angle_alpha 124.903146
_cell_angle_beta 94.586092
_cell_angle_gamma 53.485812
_cell_volume 571.935549
_symmetry_space_group_name_H-M "P -1"
_symmetry_group_IT_number 2
_symmetry_cell_setting 'triclinic'
loop_
_space_group_symop_operation_xyz
x,y,z
-x,-y,-z
loop_
_atom_site_type_symbol
_atom_site_label
_atom_site_fract_x
_atom_site_fract_y
_atom_site_fract_z
Si Si1 0.459605 0.764812 0.799267
Si Si2 0.726534 0.727655 0.645732
Si Si3 0.254382 0.612666 0.948492
Si Si4 0.145418 0.637862 0.182520
Si Si5 0.045822 0.156186 0.413320
Si Si6 0.790863 0.850819 0.378183
Si Si7 0.411549 0.376019 0.660150
Si Si8 0.833878 0.889204 0.908793
O O1 0.515106 0.830478 0.720608
O O2 0.670025 0.545716 0.793055
O O3 0.358561 0.640989 0.724862
O O4 0.315145 0.013687 0.962300
O O5 0.766948 0.868125 0.623793
O O6 0.842097 0.450301 0.490463
O O7 0.831191 0.728149 0.758250
O O8 0.438744 0.399320 0.798233
O O9 0.234534 0.528361 0.027521
O O10 0.253069 0.844286 0.049040
O O11 0.052633 0.746548 0.917205
O O12 0.933847 0.706558 0.226715
O O13 0.067609 0.924458 0.287390
O O14 0.053578 0.165973 0.543559
O O15 0.723109 0.702057 0.362322
O O16 0.590210 0.154397 0.504620
#
# Coordination Sequence:
#
# PCOD9033078 Si02
#       8
#     2   2   2   2   2   2   2   2
#     4  11  23  42  69 100 132 173 224 285 328 397
#     4  11  22  40  64  99 131 178 223 270 338 403
#     4  10  23  42  68  96 137 182 219 276 338 406
#     4  12  23  43  73 105 131 174 233 280 335 395
#     4  11  22  39  68  97 134 176 222 275 336 403
#     4  11  22  42  66  97 138 178 220 281 338 399
#     4  10  23  42  65  93 139 177 220 274 343 390
#     4  10  22  44  65  95 141 178 218 273 346 398
#
# _framework density 27.975178
#
# number of rings (size 3 to 8) (size 9 to 14) (size 15 to 20)
#    0.000    1.250    3.750    2.250    0.000    3.500 
#    4.500    0.625    0.000    0.000    0.000    0.000 
#    0.000    0.000    0.000    0.000    0.000    0.000 
#
# Total GULP energy -89465.076998 kJ/mol
# GULP energy per Si atom -5591.567312 kJ/mol
# Density = 2.791151 g / cm^3
# Si number density = 27.975178 Si / 1000 Ang^3
#
#
#
# Elastic Constant Matrix: (Units=GPa)
#
#
# Indices 1 2 3 4 5 6 
#
# 1 108.2272 29.6994 38.1349 -0.4487 -5.5221 25.7703
# 2 29.6994 47.4372 34.5379 -4.9346 -7.6471 4.8989
# 3 38.1349 34.5379 140.9407 -9.0568 -11.2156 4.6413
# 4 -0.4487 -4.9346 -9.0568 49.7267 7.2558 -11.2237
# 5 -5.5221 -7.6471 -11.2156 7.2558 68.1799 -1.7821
# 6 25.7703 4.8989 4.6413 -11.2237 -1.7821 45.5437
#
#
#
# Elastic Compliance Matrix: (Units=1/GPa)
#
#
# Indices 1 2 3 4 5 6 
#
# 1 0.013454 -0.006481 -0.001965 -0.002554 0.000119 -0.007340
# 2 -0.006481 0.029245 -0.005199 0.002009 0.001728 0.001614
# 3 -0.001965 -0.005199 0.008996 0.001258 0.000632 0.001089
# 4 -0.002554 0.002009 0.001258 0.022273 -0.001975 0.006512
# 5 0.000119 0.001728 0.000632 -0.001975 0.015179 -0.000211
# 6 -0.007340 0.001614 0.001089 0.006512 -0.000211 0.027422
#
#
# Mechanical properties :
#
#
# Convention : Reuss Voigt Hill
#
# Bulk Modulus (GPa) = 40.97676 55.70549 48.34113
# Shear Modulus (GPa) = 32.89577 45.63891 39.26734
#
# Velocity S-wave (km/s) = 3.43285 4.04345 3.75060
# Velocity P-wave (km/s) = 5.51289 6.46181 6.00612
#
# Compressibility (1/GPa) = 0.02440408
#
# Stress axis : x y z
#
# Youngs Moduli (GPa) = 74.32756 34.19438 111.15692
#
# Poissons Ratio (x) = 0.22161 0.21842
# Poissons Ratio (y) = 0.48171 0.57795
# Poissons Ratio (z) = 0.14605 0.17779
#
# Static dielectric constant tensor:
#      x y z
#    x 2.219900 -0.049250 -0.033260 
#    y -0.049250 2.262830 -0.010970 
#    z -0.033260 -0.010970 2.151850 
# 
# From -- ./inp_files/470131.got.cif
#   From: 2010.05.17/outbox.cif.g08.bks.cpg/sg2_236_cif.got.tgz:470131.got - 2010.06.03 11:33:40.
