data_PCOD9033864
_publ_section_title
;
Structure prediction by ZEFSAII (Michael W. Deem and Ramdas Pophale) SiO2 
 PCOD9033864
Probable space group: P -1
;
_chemical_formula_sum "Si O2"
_cell_formula_units_Z 14
_cell_length_a 5.142786
_cell_length_b 22.930161
_cell_length_c 14.897316
_cell_angle_alpha 159.083085
_cell_angle_beta 120.687143
_cell_angle_gamma 60.066312
_cell_volume 537.939838
_symmetry_space_group_name_H-M "P -1"
_symmetry_group_IT_number 2
_symmetry_cell_setting 'triclinic'
loop_
_space_group_symop_operation_xyz
x,y,z
-x,-y,-z
loop_
_atom_site_type_symbol
_atom_site_label
_atom_site_fract_x
_atom_site_fract_y
_atom_site_fract_z
Si Si1 0.000000 0.000000 0.500000
Si Si2 0.357175 0.603692 0.725127
Si Si3 0.935226 0.332731 0.053180
Si Si4 0.145510 0.356294 0.622080
Si Si5 0.354958 0.738594 0.730873
Si Si6 0.756960 0.875928 0.448689
Si Si7 0.000000 0.500000 0.000000
Si Si8 0.446831 0.943466 0.682539
O O1 0.255877 0.093230 0.616459
O O2 0.847885 0.178664 0.760343
O O3 0.172506 0.680617 0.884379
O O4 0.229348 0.664681 0.694838
O O5 0.389596 0.406291 0.454836
O O6 0.703776 0.653514 0.862321
O O7 0.784051 0.497887 0.221549
O O8 0.436352 0.233397 0.513755
O O9 0.887153 0.258401 0.387476
O O10 0.036994 0.440232 0.815737
O O11 0.453255 0.914387 0.030600
O O12 0.088442 0.954735 0.628301
O O13 0.829258 0.681400 0.199140
O O14 0.575051 0.948086 0.609606
#
# Coordination Sequence:
#
# PCOD9033864 Si02
#       8
#     1   2   2   2   2   2   1   2
#     4  12  24  46  70 108 132 190 234 298 334 432
#     4  10  24  42  68 100 142 174 229 291 359 406
#     4  11  24  43  67 103 137 182 232 290 347 418
#     4  10  23  43  70  98 141 187 234 280 353 418
#     4  10  22  44  70 104 137 185 227 294 347 423
#     4  11  26  44  74  99 144 183 237 289 353 404
#     4  10  22  50  62 104 132 196 220 294 328 432
#     4  11  25  45  69 104 138 187 230 295 344 421
#
# _framework density 26.025217000000001
#
# number of rings (size 3 to 8) (size 9 to 14) (size 15 to 20)
#    0.000    1.429    1.429    2.143    0.000   16.571 
#    2.571    4.286    0.000    0.000    0.000    0.000 
#    0.000    0.000    0.000    0.000    0.000    0.000 
#
# Total GULP energy -77974.971270 kJ/mol
# GULP energy per Si atom -5569.640805 kJ/mol
# Density = 2.596598 g / cm^3
# Si number density = 26.025217 Si / 1000 Ang^3
#
#
#
# Elastic Constant Matrix: (Units=GPa)
#
#
# Indices 1 2 3 4 5 6 
#
# 1 113.4408 -12.3530 11.8785 -2.5799 -13.4477 17.3616
# 2 -12.3530 92.5089 4.1817 -7.0341 0.5533 20.3079
# 3 11.8785 4.1817 152.3701 -8.9540 -29.2359 4.4896
# 4 -2.5799 -7.0341 -8.9540 51.5910 -1.4950 -1.3132
# 5 -13.4477 0.5533 -29.2359 -1.4950 35.9343 -5.9867
# 6 17.3616 20.3079 4.4896 -1.3132 -5.9867 20.2149
#
#
#
# Elastic Compliance Matrix: (Units=1/GPa)
#
#
# Indices 1 2 3 4 5 6 
#
# 1 0.011776 0.004771 -0.000230 0.000889 0.001807 -0.014262
# 2 0.004771 0.016185 -0.000541 0.001755 -0.002297 -0.020803
# 3 -0.000230 -0.000541 0.007920 0.001507 0.006601 0.001034
# 4 0.000889 0.001755 0.001507 0.019969 0.002211 -0.000910
# 5 0.001807 -0.002297 0.006601 0.002211 0.035668 0.009996
# 6 -0.014262 -0.020803 0.001034 -0.000910 0.009996 0.085288
#
#
# Mechanical properties :
#
#
# Convention : Reuss Voigt Hill
#
# Bulk Modulus (GPa) = 22.78833 40.63712 31.71272
# Shear Modulus (GPa) = 27.25771 45.18889 36.22330
#
# Velocity S-wave (km/s) = 3.23980 4.17147 3.73480
# Velocity P-wave (km/s) = 4.77183 6.23298 5.55069
#
# Compressibility (1/GPa) = 0.04388211
#
# Stress axis : x y z
#
# Youngs Moduli (GPa) = 84.91867 61.78483 126.25566
#
# Poissons Ratio (x) = -0.29475 0.02900
# Poissons Ratio (y) = -0.40511 0.06826
# Poissons Ratio (z) = 0.01950 0.03340
#
# Static dielectric constant tensor:
#      x y z
#    x 2.283880 -0.016190 0.022390 
#    y -0.016190 2.017660 -0.049760 
#    z 0.022390 -0.049760 2.070490 
# 
# From -- ./inp_files/486046.got.cif
#   From: 2010.05.17/outbox.cif.g08.bks.cpg/sg2_244_cif.got.tgz:486046.got - 2010.06.03 11:33:40.
