data_PCOD9033058
_publ_section_title
;
Structure prediction by ZEFSAII (Michael W. Deem and Ramdas Pophale) SiO2 
 PCOD9033058
Probable space group: P -1
;
_chemical_formula_sum "Si O2"
_cell_formula_units_Z 14
_cell_length_a 10.789144
_cell_length_b 12.936308
_cell_length_c 10.782018
_cell_angle_alpha 44.100056
_cell_angle_beta 127.309445
_cell_angle_gamma 144.802644
_cell_volume 602.934180
_symmetry_space_group_name_H-M "P -1"
_symmetry_group_IT_number 2
_symmetry_cell_setting 'triclinic'
loop_
_space_group_symop_operation_xyz
x,y,z
-x,-y,-z
loop_
_atom_site_type_symbol
_atom_site_label
_atom_site_fract_x
_atom_site_fract_y
_atom_site_fract_z
Si Si1 0.452699 0.150429 0.775571
Si Si2 0.776999 0.761726 0.573669
Si Si3 0.421086 0.252600 0.283426
Si Si4 0.281661 0.055765 0.026576
Si Si5 0.082756 0.476131 0.195643
Si Si6 0.363270 0.910458 0.678259
Si Si7 0.197477 0.284616 0.905268
O O1 0.379980 0.268154 0.595311
O O2 0.710678 0.309229 0.804448
O O3 0.365801 0.994472 0.743001
O O4 0.347611 0.054668 0.928291
O O5 0.667534 0.719575 0.674346
O O6 0.829403 0.626738 0.700585
O O7 0.000000 0.000000 0.500000
O O8 0.656906 0.474033 0.210211
O O9 0.415195 0.075481 0.469908
O O10 0.268561 0.215779 0.115280
O O11 0.465608 0.108546 0.181889
O O12 0.251749 0.215221 0.880165
O O13 0.051171 0.843749 0.114019
O O14 0.873288 0.312063 0.294396
O O15 0.000000 0.500000 0.000000
#
# Coordination Sequence:
#
# PCOD9033058 Si02
#       7
#     2   2   2   2   2   2   2
#     4  11  23  42  70  99 132 167 211 272 337 385
#     4  11  21  41  69  97 132 168 210 275 328 387
#     4  10  22  44  65  93 128 169 225 259 323 383
#     4  11  23  43  65  94 132 166 223 263 319 391
#     4  12  24  38  63 105 132 169 206 259 354 381
#     4  11  25  44  66 101 132 165 210 286 327 381
#     4  10  24  42  67  89 124 187 214 261 310 387
#
# _framework density 23.21978
#
# number of rings (size 3 to 8) (size 9 to 14) (size 15 to 20)
#    0.000    1.143    4.286    2.571    0.000    2.286 
#    7.714    0.000    0.000    0.000    0.000    0.000 
#    0.000    0.000    0.000    0.000    0.000    0.000 
#
# Total GULP energy -78325.794896 kJ/mol
# GULP energy per Si atom -5594.699635 kJ/mol
# Density = 2.316693 g / cm^3
# Si number density = 23.219780 Si / 1000 Ang^3
#
#
#
# Elastic Constant Matrix: (Units=GPa)
#
#
# Indices 1 2 3 4 5 6 
#
# 1 82.5108 40.6434 45.5987 -0.9891 10.5241 24.0438
# 2 40.6434 131.6895 25.1381 -7.9363 -2.0171 33.2599
# 3 45.5987 25.1381 90.9215 -6.3842 1.7987 2.4670
# 4 -0.9891 -7.9363 -6.3842 26.7183 -2.1356 1.5266
# 5 10.5241 -2.0171 1.7987 -2.1356 33.6153 5.8745
# 6 24.0438 33.2599 2.4670 1.5266 5.8745 35.2464
#
#
#
# Elastic Compliance Matrix: (Units=1/GPa)
#
#
# Indices 1 2 3 4 5 6 
#
# 1 0.023334 -0.002286 -0.010792 -0.002093 -0.004883 -0.012100
# 2 -0.002286 0.011334 -0.001527 0.003749 0.003422 -0.009762
# 3 -0.010792 -0.001527 0.016810 0.002851 0.001295 0.007287
# 4 -0.002093 0.003749 0.002851 0.039739 0.004075 -0.004709
# 5 -0.004883 0.003422 0.001295 0.004075 0.032652 -0.005607
# 6 -0.012100 -0.009762 0.007287 -0.004709 -0.005607 0.046466
#
#
# Mechanical properties :
#
#
# Convention : Reuss Voigt Hill
#
# Bulk Modulus (GPa) = 44.90823 58.65360 51.78091
# Shear Modulus (GPa) = 24.15824 32.03211 28.09518
#
# Velocity S-wave (km/s) = 3.22905 3.71822 3.48223
# Velocity P-wave (km/s) = 5.76930 6.61427 6.20618
#
# Compressibility (1/GPa) = 0.02226763
#
# Stress axis : x y z
#
# Youngs Moduli (GPa) = 42.85636 88.22633 59.48864
#
# Poissons Ratio (x) = 0.20171 0.64201
# Poissons Ratio (y) = 0.09798 0.09082
# Poissons Ratio (z) = 0.46251 0.13470
#
# Static dielectric constant tensor:
#      x y z
#    x 1.870010 -0.010050 0.020230 
#    y -0.010050 1.857030 -0.055200 
#    z 0.020230 -0.055200 1.820750 
# 
# From -- ./inp_files/432484.got.cif
#   From: 2010.05.17/outbox.cif.g08.bks.cpg/sg2_217_cif.got.tgz:432484.got - 2010.06.03 11:33:40.
