data_PCOD9033021
_publ_section_title
;
Structure prediction by ZEFSAII (Michael W. Deem and Ramdas Pophale) SiO2 
 PCOD9033021
Probable space group: P -1
;
_chemical_formula_sum "Si O2"
_cell_formula_units_Z 14
_cell_length_a 11.803410
_cell_length_b 14.796027
_cell_length_c 12.169455
_cell_angle_alpha 48.396282
_cell_angle_beta 142.471204
_cell_angle_gamma 150.888549
_cell_volume 626.864189
_symmetry_space_group_name_H-M "P -1"
_symmetry_group_IT_number 2
_symmetry_cell_setting 'triclinic'
loop_
_space_group_symop_operation_xyz
x,y,z
-x,-y,-z
loop_
_atom_site_type_symbol
_atom_site_label
_atom_site_fract_x
_atom_site_fract_y
_atom_site_fract_z
Si Si1 0.963427 0.465028 0.820253
Si Si2 0.693016 0.503659 0.763794
Si Si3 0.567536 0.932589 0.378482
Si Si4 0.791996 0.440704 0.290801
Si Si5 0.184274 0.085529 0.217470
Si Si6 0.901077 0.816541 0.542258
Si Si7 0.072668 0.835478 0.161210
O O1 0.852470 0.509932 0.783163
O O2 0.679976 0.252884 0.734238
O O3 0.119204 0.583069 0.733478
O O4 0.180666 0.485273 0.036195
O O5 0.773383 0.681801 0.656968
O O6 0.355689 0.314693 0.638299
O O7 0.719068 0.910605 0.592498
O O8 0.393166 0.940779 0.312101
O O9 0.814896 0.105039 0.351550
O O10 0.471393 0.259694 0.229178
O O11 0.000000 0.500000 0.500000
O O12 0.862894 0.616809 0.181625
O O13 0.042689 0.903210 0.191179
O O14 0.989600 0.107421 0.035784
O O15 0.000000 0.000000 0.500000
#
# Coordination Sequence:
#
# PCOD9033021 Si02
#       7
#     2   2   2   2   2   2   2
#     4  10  22  44  65 100 130 176 226 269 335 396
#     4  10  24  45  66  95 136 171 225 278 327 400
#     4  11  23  43  69 100 135 178 218 282 336 394
#     4  11  22  40  69  95 134 178 215 271 333 394
#     4  11  23  43  66  98 139 171 225 270 332 405
#     4  11  24  44  69  98 129 176 225 277 336 393
#     4  10  24  41  63 100 134 175 224 269 329 399
#
# _framework density 22.333385
#
# number of rings (size 3 to 8) (size 9 to 14) (size 15 to 20)
#    0.000    1.429    4.286    0.857    2.000    5.143 
#    2.571    0.000    0.000    0.000    0.000    0.000 
#    0.000    0.000    0.000    0.000    0.000    0.000 
#
# Total GULP energy -78301.599544 kJ/mol
# GULP energy per Si atom -5592.971396 kJ/mol
# Density = 2.228255 g / cm^3
# Si number density = 22.333385 Si / 1000 Ang^3
#
#
#
# Elastic Constant Matrix: (Units=GPa)
#
#
# Indices 1 2 3 4 5 6 
#
# 1 49.1496 11.2443 4.9301 -6.7081 -10.0888 -0.3530
# 2 11.2443 90.7652 -3.4020 3.7244 1.3300 -1.3301
# 3 4.9301 -3.4020 113.5683 7.3993 -11.2628 -7.1760
# 4 -6.7081 3.7244 7.3993 22.5229 -4.6740 10.5280
# 5 -10.0888 1.3300 -11.2628 -4.6740 31.0695 -1.0619
# 6 -0.3530 -1.3301 -7.1760 10.5280 -1.0619 37.1530
#
#
#
# Elastic Compliance Matrix: (Units=1/GPa)
#
#
# Indices 1 2 3 4 5 6 
#
# 1 0.024893 -0.003807 -0.001237 0.011937 0.009482 -0.003250
# 2 -0.003807 0.011760 0.000718 -0.004574 -0.002107 0.001759
# 3 -0.001237 0.000718 0.009636 -0.004668 0.002470 0.003269
# 4 0.011937 -0.004574 -0.004668 0.060874 0.010926 -0.017889
# 5 0.009482 -0.002107 0.002470 0.010926 0.037842 -0.001523
# 6 -0.003250 0.001759 0.003269 -0.017889 -0.001523 0.032605
#
#
# Mechanical properties :
#
#
# Convention : Reuss Voigt Hill
#
# Bulk Modulus (GPa) = 26.56955 31.00310 28.78633
# Shear Modulus (GPa) = 25.14973 34.19645 29.67309
#
# Velocity S-wave (km/s) = 3.35939 3.91728 3.64901
# Velocity P-wave (km/s) = 5.19326 5.86278 5.53814
#
# Compressibility (1/GPa) = 0.03763707
#
# Stress axis : x y z
#
# Youngs Moduli (GPa) = 40.17134 85.03211 103.77619
#
# Poissons Ratio (x) = 0.32369 0.12841
# Poissons Ratio (y) = 0.15292 -0.07448
# Poissons Ratio (z) = 0.04971 -0.06103
#
# Static dielectric constant tensor:
#      x y z
#    x 1.861250 -0.017920 0.023460 
#    y -0.017920 1.826030 -0.018280 
#    z 0.023460 -0.018280 1.826300 
# 
# From -- ./inp_files/432635.got.cif
#   From: 2010.05.17/outbox.cif.g08.bks.cpg/sg2_217_cif.got.tgz:432635.got - 2010.06.03 11:33:40.
