data_PCOD9033515
_publ_section_title
;
Structure prediction by ZEFSAII (Michael W. Deem and Ramdas Pophale) SiO2 
 PCOD9033515
Probable space group: P -1
;
_chemical_formula_sum "Si O2"
_cell_formula_units_Z 16
_cell_length_a 8.943774
_cell_length_b 7.376828
_cell_length_c 16.845293
_cell_angle_alpha 139.599918
_cell_angle_beta 109.665080
_cell_angle_gamma 68.550655
_cell_volume 667.320202
_symmetry_space_group_name_H-M "P -1"
_symmetry_group_IT_number 2
_symmetry_cell_setting 'triclinic'
loop_
_space_group_symop_operation_xyz
x,y,z
-x,-y,-z
loop_
_atom_site_type_symbol
_atom_site_label
_atom_site_fract_x
_atom_site_fract_y
_atom_site_fract_z
Si Si1 0.328399 0.973078 0.921988
Si Si2 0.220997 0.723359 0.960275
Si Si3 0.825810 0.003136 0.782797
Si Si4 0.377353 0.654119 0.593792
Si Si5 0.089609 0.306560 0.882558
Si Si6 0.057933 0.597754 0.457967
Si Si7 0.527170 0.790376 0.230267
Si Si8 0.294335 0.368287 0.637944
O O1 0.205196 0.962731 0.969997
O O2 0.310140 0.678579 0.778948
O O3 0.262073 0.202020 0.920104
O O4 0.500000 0.000000 0.000000
O O5 0.104664 0.489495 0.868376
O O6 0.388878 0.504793 0.895389
O O7 0.194266 0.887408 0.093541
O O8 0.846483 0.666365 0.664170
O O9 0.661866 0.179106 0.776502
O O10 0.981180 0.065898 0.782610
O O11 0.500000 0.500000 0.500000
O O12 0.198452 0.766928 0.563862
O O13 0.358122 0.416105 0.577106
O O14 0.446063 0.935941 0.725086
O O15 0.000000 0.500000 0.000000
O O16 0.000000 0.500000 0.500000
O O17 0.885950 0.701167 0.420045
O O18 0.604871 0.822598 0.341152
#
# Coordination Sequence:
#
# PCOD9033515 Si02
#       8
#     2   2   2   2   2   2   2   2
#     4  11  24  39  65  99 133 176 215 270 335 395
#     4  10  25  41  68  95 137 176 221 263 333 403
#     4  11  22  42  67  98 135 176 222 272 328 400
#     4  11  23  43  71  96 126 176 223 275 332 382
#     4  10  23  40  62  90 134 174 217 265 324 383
#     4  10  22  44  68  92 130 178 216 272 335 381
#     4  11  24  42  67 101 130 173 223 270 332 396
#     4  10  24  44  64  93 136 170 220 275 326 392
#
# _framework density 23.976497999999999
#
# number of rings (size 3 to 8) (size 9 to 14) (size 15 to 20)
#    0.000    1.500    2.500    1.125   12.250    3.000 
#    0.000    3.750    0.000    0.000    0.000    0.000 
#    0.000    0.000    0.000    0.000    0.000    0.000 
#
# Total GULP energy -89170.555967 kJ/mol
# GULP energy per Si atom -5573.159748 kJ/mol
# Density = 2.392193 g / cm^3
# Si number density = 23.976498 Si / 1000 Ang^3
#
#
#
# Elastic Constant Matrix: (Units=GPa)
#
#
# Indices 1 2 3 4 5 6 
#
# 1 122.0866 38.6226 28.0696 -26.1699 -0.1016 -0.6173
# 2 38.6226 60.1705 -4.7190 -16.2724 -13.0527 6.6356
# 3 28.0696 -4.7190 56.0394 -5.6556 -16.1789 -2.4652
# 4 -26.1699 -16.2724 -5.6556 34.5630 -1.5945 4.1966
# 5 -0.1016 -13.0527 -16.1789 -1.5945 44.3572 -0.8051
# 6 -0.6173 6.6356 -2.4652 4.1966 -0.8051 42.9524
#
#
#
# Elastic Compliance Matrix: (Units=1/GPa)
#
#
# Indices 1 2 3 4 5 6 
#
# 1 0.014593 -0.010453 -0.009575 0.004177 -0.006371 0.000748
# 2 -0.010453 0.030455 0.012543 0.009698 0.013774 -0.004825
# 3 -0.009575 0.012543 0.028132 0.003979 0.014063 -0.000586
# 4 0.004177 0.009698 0.003979 0.038157 0.005599 -0.004833
# 5 -0.006371 0.013774 0.014063 0.005599 0.031889 -0.001362
# 6 0.000748 -0.004825 -0.000586 -0.004833 -0.001362 0.024451
#
#
# Mechanical properties :
#
#
# Convention : Reuss Voigt Hill
#
# Bulk Modulus (GPa) = 17.17835 40.24922 28.71378
# Shear Modulus (GPa) = 24.74649 36.12940 30.43794
#
# Velocity S-wave (km/s) = 3.21614 3.88605 3.56686
# Velocity P-wave (km/s) = 4.57948 6.07936 5.38192
#
# Compressibility (1/GPa) = 0.05821282
#
# Stress axis : x y z
#
# Youngs Moduli (GPa) = 68.52716 32.83491 35.54620
#
# Poissons Ratio (x) = 0.34322 0.34034
# Poissons Ratio (y) = 0.71630 -0.44587
# Poissons Ratio (z) = 0.65611 -0.41186
#
# Static dielectric constant tensor:
#      x y z
#    x 2.026640 0.010420 0.106190 
#    y 0.010420 2.020750 0.002960 
#    z 0.106190 0.002960 2.093090 
# 
# From -- ./inp_files/557677.got.cif
#   From: 2010.05.17/outbox.cif.g08.bks.cpg/sg2_279_cif.got.tgz:557677.got - 2010.06.03 11:33:40.
