data_PCOD9033775
_publ_section_title
;
Structure prediction by ZEFSAII (Michael W. Deem and Ramdas Pophale) SiO2 
 PCOD9033775
Probable space group: P -1
;
_chemical_formula_sum "Si O2"
_cell_formula_units_Z 14
_cell_length_a 19.961658
_cell_length_b 7.867221
_cell_length_c 8.898161
_cell_angle_alpha 125.197589
_cell_angle_beta 29.925714
_cell_angle_gamma 127.615258
_cell_volume 548.222677
_symmetry_space_group_name_H-M "P -1"
_symmetry_group_IT_number 2
_symmetry_cell_setting 'triclinic'
loop_
_space_group_symop_operation_xyz
x,y,z
-x,-y,-z
loop_
_atom_site_type_symbol
_atom_site_label
_atom_site_fract_x
_atom_site_fract_y
_atom_site_fract_z
Si Si1 0.422289 0.001750 0.309509
Si Si2 0.838030 0.352549 0.734929
Si Si3 0.860609 0.434735 0.060864
Si Si4 0.356037 0.334611 0.804667
Si Si5 0.082130 0.975651 0.174735
Si Si6 0.444840 0.644376 0.295651
Si Si7 0.886718 0.144681 0.254317
O O1 0.476444 0.883751 0.282148
O O2 0.263165 0.857630 0.525688
O O3 0.413841 0.241324 0.495509
O O4 0.500000 0.000000 0.000000
O O5 0.835247 0.149749 0.531344
O O6 0.000000 0.500000 0.500000
O O7 0.807077 0.306041 0.944914
O O8 0.729799 0.485878 0.958462
O O9 0.720841 0.459985 0.418325
O O10 0.979050 0.651040 0.907857
O O11 0.931391 0.277488 0.931310
O O12 0.475884 0.368418 0.711174
O O13 0.234323 0.127341 0.989148
O O14 0.000000 0.000000 0.500000
O O15 0.069772 0.017255 0.035984
O O16 0.500000 0.500000 0.000000
#
# Coordination Sequence:
#
# PCOD9033775 Si02
#       7
#     2   2   2   2   2   2   2
#     4  11  26  46  71 105 145 184 230 294 351 417
#     4  10  23  44  70  99 139 181 236 291 347 413
#     4  11  24  43  70 102 140 183 238 289 343 423
#     4  11  25  45  67 102 144 184 233 285 358 417
#     4  11  23  40  72  99 135 182 230 297 354 402
#     4  12  27  44  71 105 140 192 236 278 358 431
#     4  10  22  44  69  98 138 179 234 285 344 413
#
# _framework density 25.537068999999999
#
# number of rings (size 3 to 8) (size 9 to 14) (size 15 to 20)
#    0.000    1.143    2.857    3.429    6.000    0.571 
#    0.000   17.857    0.000    0.000    0.000    0.000 
#    0.000    0.000    0.000    0.000    0.000    0.000 
#
# Total GULP energy -78065.989449 kJ/mol
# GULP energy per Si atom -5576.142104 kJ/mol
# Density = 2.547895 g / cm^3
# Si number density = 25.537069 Si / 1000 Ang^3
#
#
#
# Elastic Constant Matrix: (Units=GPa)
#
#
# Indices 1 2 3 4 5 6 
#
# 1 99.2993 37.3528 60.6958 33.7262 14.6239 1.4127
# 2 37.3528 56.6124 36.0552 -6.2022 -12.5968 -8.7293
# 3 60.6958 36.0552 224.1551 13.8490 20.2648 6.2886
# 4 33.7262 -6.2022 13.8490 31.6449 -2.9588 -2.0008
# 5 14.6239 -12.5968 20.2648 -2.9588 57.8916 10.9320
# 6 1.4127 -8.7293 6.2886 -2.0008 10.9320 43.0112
#
#
#
# Elastic Compliance Matrix: (Units=1/GPa)
#
#
# Indices 1 2 3 4 5 6 
#
# 1 0.078110 -0.074038 0.000984 -0.102636 -0.039055 -0.012584
# 2 -0.074038 0.094000 -0.005953 0.105033 0.043550 0.016197
# 3 0.000984 -0.005953 0.005837 -0.005195 -0.003584 -0.001425
# 4 -0.102636 0.105033 -0.005195 0.170267 0.055673 0.019218
# 5 -0.039055 0.043550 -0.003584 0.055673 0.040143 0.003032
# 6 -0.012584 0.016197 -0.001425 0.019218 0.003032 0.027282
#
#
# Mechanical properties :
#
#
# Convention : Reuss Voigt Hill
#
# Bulk Modulus (GPa) = 50.16894 72.03047 61.09971
# Shear Modulus (GPa) = 8.61624 42.90706 25.76165
#
# Velocity S-wave (km/s) = 1.83884 4.10346 3.17960
# Velocity P-wave (km/s) = 4.91901 7.12170 6.12026
#
# Compressibility (1/GPa) = 0.01993265
#
# Stress axis : x y z
#
# Youngs Moduli (GPa) = 12.80242 10.63826 171.31364
#
# Poissons Ratio (x) = 0.78764 -0.16852
# Poissons Ratio (y) = 0.94787 1.01981
# Poissons Ratio (z) = -0.01259 0.06333
#
# Static dielectric constant tensor:
#      x y z
#    x 2.160220 -0.084180 0.015150 
#    y -0.084180 2.054380 0.075330 
#    z 0.015150 0.075330 2.076260 
# 
# From -- ./inp_files/327272.got.cif
#   From: 2010.05.17/outbox.cif.g08.bks.cpg/sg2_164_cif.got.tgz:327272.got - 2010.06.03 11:33:40.
