data_PCOD9033048
_publ_section_title
;
Structure prediction by ZEFSAII (Michael W. Deem and Ramdas Pophale) SiO2 
 PCOD9033048
Probable space group: P -1
;
_chemical_formula_sum "Si O2"
_cell_formula_units_Z 14
_cell_length_a 6.745873
_cell_length_b 20.480651
_cell_length_c 9.684708
_cell_angle_alpha 42.561493
_cell_angle_beta 131.474347
_cell_angle_gamma 135.799042
_cell_volume 604.850824
_symmetry_space_group_name_H-M "P -1"
_symmetry_group_IT_number 2
_symmetry_cell_setting 'triclinic'
loop_
_space_group_symop_operation_xyz
x,y,z
-x,-y,-z
loop_
_atom_site_type_symbol
_atom_site_label
_atom_site_fract_x
_atom_site_fract_y
_atom_site_fract_z
Si Si1 0.687650 0.228431 0.552660
Si Si2 0.586444 0.520553 0.847779
Si Si3 0.998758 0.088037 0.466292
Si Si4 0.443717 0.814753 0.941503
Si Si5 0.736555 0.339541 0.129456
Si Si6 0.598888 0.321483 0.624305
Si Si7 0.017768 0.116646 0.738032
O O1 0.769328 0.277948 0.665631
O O2 0.785670 0.138174 0.689425
O O3 0.335127 0.178512 0.470794
O O4 0.793336 0.320773 0.343304
O O5 0.568703 0.413326 0.934535
O O6 0.396752 0.569956 0.601197
O O7 0.500000 0.500000 0.000000
O O8 0.937807 0.601811 0.877528
O O9 0.923444 0.054276 0.646048
O O10 0.776567 0.133009 0.242928
O O11 0.000000 0.000000 0.500000
O O12 0.457713 0.775011 0.855996
O O13 0.320778 0.702838 0.148419
O O14 0.747380 0.897300 0.030004
O O15 0.245795 0.237651 0.598075
#
# Coordination Sequence:
#
# PCOD9033048 Si02
#       7
#     2   2   2   2   2   2   2
#     4  11  19  41  69  87 127 178 200 256 324 373
#     4  11  21  36  61  93 130 168 214 265 298 365
#     4  11  24  42  67  98 126 161 209 265 322 384
#     4  10  22  44  65  90 132 166 208 262 320 384
#     4  11  21  36  65  91 124 174 215 248 317 373
#     4   9  20  38  59  89 129 163 206 253 312 358
#     4   9  21  42  63  88 129 160 211 253 315 376
#
# _framework density 23.146204999999998
#
# number of rings (size 3 to 8) (size 9 to 14) (size 15 to 20)
#    0.857    0.857    4.286    0.857    0.000    2.857 
#    0.000    1.429    0.000    0.000    0.000    0.000 
#    0.000    0.000    0.000    0.000    0.000    0.000 
#
# Total GULP energy -78084.300003 kJ/mol
# GULP energy per Si atom -5577.450000 kJ/mol
# Density = 2.309352 g / cm^3
# Si number density = 23.146205 Si / 1000 Ang^3
#
#
#
# Elastic Constant Matrix: (Units=GPa)
#
#
# Indices 1 2 3 4 5 6 
#
# 1 119.4486 12.3461 45.6855 10.4236 16.3883 -4.8098
# 2 12.3461 33.1165 -0.4608 9.0768 20.9516 -10.6622
# 3 45.6855 -0.4608 112.5459 -0.0454 21.5538 -3.7150
# 4 10.4236 9.0768 -0.0454 17.4094 8.6235 1.2703
# 5 16.3883 20.9516 21.5538 8.6235 38.9556 -14.3758
# 6 -4.8098 -10.6622 -3.7150 1.2703 -14.3758 37.5625
#
#
#
# Elastic Compliance Matrix: (Units=1/GPa)
#
#
# Indices 1 2 3 4 5 6 
#
# 1 0.010796 -0.003076 -0.004587 -0.005469 0.001106 0.000664
# 2 -0.003076 0.053494 0.006622 -0.013633 -0.025913 0.005989
# 3 -0.004587 0.006622 0.012679 0.004488 -0.010197 -0.001508
# 4 -0.005469 -0.013633 0.004488 0.075677 -0.014055 -0.012064
# 5 0.001106 -0.025913 -0.010197 -0.014055 0.052443 0.012324
# 6 0.000664 0.005989 -0.001508 -0.012064 0.012324 0.033383
#
#
# Mechanical properties :
#
#
# Convention : Reuss Voigt Hill
#
# Bulk Modulus (GPa) = 13.35317 42.25029 27.80173
# Shear Modulus (GPa) = 18.83120 32.62151 25.72636
#
# Velocity S-wave (km/s) = 2.85542 3.75823 3.33749
# Velocity P-wave (km/s) = 4.08079 6.09308 5.18548
#
# Compressibility (1/GPa) = 0.07488861
#
# Stress axis : x y z
#
# Youngs Moduli (GPa) = 92.62316 18.69357 78.86795
#
# Poissons Ratio (x) = 0.05750 0.36179
# Poissons Ratio (y) = 0.28490 -0.52230
# Poissons Ratio (z) = 0.42489 -0.12380
#
# Static dielectric constant tensor:
#      x y z
#    x 1.803610 -0.057810 -0.061480 
#    y -0.057810 1.869630 -0.085900 
#    z -0.061480 -0.085900 1.880740 
# 
# From -- ./inp_files/29991.got.cif
#   From: 2010.05.17/outbox.cif.g08.bks.cpg/sg2_15_cif.got.tgz:29991.got - 2010.06.03 11:33:40.
