data_PCOD9033052
_publ_section_title
;
Structure prediction by ZEFSAII (Michael W. Deem and Ramdas Pophale) SiO2 
 PCOD9033052
Probable space group: P -1
;
_chemical_formula_sum "Si O2"
_cell_formula_units_Z 13
_cell_length_a 8.259817
_cell_length_b 12.101204
_cell_length_c 5.811112
_cell_angle_alpha 77.512202
_cell_angle_beta 92.037113
_cell_angle_gamma 97.819319
_cell_volume 561.816634
_symmetry_space_group_name_H-M "P -1"
_symmetry_group_IT_number 2
_symmetry_cell_setting 'triclinic'
loop_
_space_group_symop_operation_xyz
x,y,z
-x,-y,-z
loop_
_atom_site_type_symbol
_atom_site_label
_atom_site_fract_x
_atom_site_fract_y
_atom_site_fract_z
Si Si1 0.905264 0.381282 0.465046
Si Si2 0.064379 0.827980 0.152668
Si Si3 0.552381 0.840165 0.477471
Si Si4 0.700099 0.280902 0.110598
Si Si5 0.804650 0.928021 0.807757
Si Si6 0.449803 0.614469 0.338237
Si Si7 0.500000 0.000000 0.000000
O O1 0.981312 0.278000 0.633573
O O2 0.856418 0.352594 0.210773
O O3 0.726862 0.378495 0.566229
O O4 0.000000 0.500000 0.500000
O O5 0.101120 0.943817 0.247395
O O6 0.227884 0.803271 0.030654
O O7 0.928395 0.847004 0.951465
O O8 0.415067 0.797876 0.684712
O O9 0.721954 0.884801 0.586645
O O10 0.563896 0.725544 0.383764
O O11 0.485678 0.937147 0.280870
O O12 0.587758 0.365106 0.941735
O O13 0.658420 0.933684 0.979200
O O14 0.500000 0.500000 0.500000
#
# Coordination Sequence:
#
# PCOD9033052 Si02
#       7
#     2   2   2   2   2   2   1
#     4  10  23  41  64  91 125 166 208 259 315 371
#     4  10  24  42  61  94 127 164 214 257 312 376
#     4  11  24  41  66  94 127 170 209 259 318 374
#     4  10  22  44  65  91 130 166 210 261 314 375
#     4  11  23  40  65  91 128 169 205 259 313 374
#     4  10  23  41  64  96 128 163 213 263 310 372
#     4  12  24  40  62  94 128 162 210 256 310 376
#
# _framework density 23.139222
#
# number of rings (size 3 to 8) (size 9 to 14) (size 15 to 20)
#    0.000    1.538    0.000    5.077    0.000   13.538 
#    0.000    5.385    0.000    0.000    0.000    0.000 
#    0.000    0.000    0.000    0.000    0.000    0.000 
#
# Total GULP energy -72468.301925 kJ/mol
# GULP energy per Si atom -5574.484763 kJ/mol
# Density = 2.308656 g / cm^3
# Si number density = 23.139222 Si / 1000 Ang^3
#
#
#
# Elastic Constant Matrix: (Units=GPa)
#
#
# Indices 1 2 3 4 5 6 
#
# 1 66.0184 28.4085 44.3240 -10.7945 33.7390 -5.4202
# 2 28.4085 154.4201 93.8804 -11.9015 50.3453 22.4796
# 3 44.3240 93.8804 161.2803 -25.3354 51.6922 6.9050
# 4 -10.7945 -11.9015 -25.3354 41.3959 -2.5959 22.5707
# 5 33.7390 50.3453 51.6922 -2.5959 49.5849 5.4292
# 6 -5.4202 22.4796 6.9050 22.5707 5.4292 38.5017
#
#
#
# Elastic Compliance Matrix: (Units=1/GPa)
#
#
# Indices 1 2 3 4 5 6 
#
# 1 0.025347 0.002045 -0.002435 0.002638 -0.017048 0.003669
# 2 0.002045 0.013471 -0.003886 0.006514 -0.009654 -0.009338
# 3 -0.002435 -0.003886 0.012691 0.007727 -0.006794 -0.003922
# 4 0.002638 0.006514 0.007727 0.047924 -0.010514 -0.031429
# 5 -0.017048 -0.009654 -0.006794 -0.010514 0.047676 0.003896
# 6 0.003669 -0.009338 -0.003922 -0.031429 0.003896 0.050520
#
#
# Mechanical properties :
#
#
# Convention : Reuss Voigt Hill
#
# Bulk Modulus (GPa) = 23.27924 79.43830 51.35877
# Shear Modulus (GPa) = 22.67569 40.23690 31.45629
#
# Velocity S-wave (km/s) = 3.13384 4.17454 3.69105
# Velocity P-wave (km/s) = 4.81425 7.59216 6.35680
#
# Compressibility (1/GPa) = 0.04295672
#
# Stress axis : x y z
#
# Youngs Moduli (GPa) = 39.45191 74.23258 78.79664
#
# Poissons Ratio (x) = -0.15177 0.19185
# Poissons Ratio (y) = -0.08066 0.30621
# Poissons Ratio (z) = 0.09606 0.28848
#
# Static dielectric constant tensor:
#      x y z
#    x 1.871800 0.060600 0.013640 
#    y 0.060600 1.982120 0.075520 
#    z 0.013640 0.075520 1.981540 
# 
# From -- ./inp_files/23627.got.cif
#   From: 2010.05.17/outbox.cif.g08.bks.cpg/sg2_12_cif.got.tgz:23627.got - 2010.06.03 11:33:40.
