data_PCOD9033882
_publ_section_title
;
Structure prediction by ZEFSAII (Michael W. Deem and Ramdas Pophale) SiO2 
 PCOD9033882
Probable space group: P -1
;
_chemical_formula_sum "Si O2"
_cell_formula_units_Z 13
_cell_length_a 9.465995
_cell_length_b 11.987393
_cell_length_c 8.910866
_cell_angle_alpha 95.132853
_cell_angle_beta 63.536774
_cell_angle_gamma 138.607128
_cell_volume 544.930811
_symmetry_space_group_name_H-M "P -1"
_symmetry_group_IT_number 2
_symmetry_cell_setting 'triclinic'
loop_
_space_group_symop_operation_xyz
x,y,z
-x,-y,-z
loop_
_atom_site_type_symbol
_atom_site_label
_atom_site_fract_x
_atom_site_fract_y
_atom_site_fract_z
Si Si1 0.129526 0.818035 0.523418
Si Si2 0.135617 0.595405 0.610759
Si Si3 0.312777 0.170823 0.525006
Si Si4 0.067240 0.151738 0.900133
Si Si5 0.571848 0.558989 0.647351
Si Si6 0.000000 0.500000 0.000000
Si Si7 0.618212 0.078815 0.117546
O O1 0.133927 0.730173 0.642621
O O2 0.844107 0.655734 0.566408
O O3 0.181463 0.977064 0.548270
O O4 0.372737 0.918888 0.320704
O O5 0.425784 0.706707 0.488300
O O6 0.002036 0.474484 0.810516
O O7 0.000000 0.500000 0.500000
O O8 0.110020 0.134302 0.706979
O O9 0.395630 0.287217 0.350474
O O10 0.337557 0.372575 0.831743
O O11 0.839480 0.110085 0.029374
O O12 0.000000 0.000000 0.000000
O O13 0.500000 0.500000 0.500000
O O14 0.249251 0.726469 0.889895
O O15 0.500000 0.000000 0.000000
#
# Coordination Sequence:
#
# PCOD9033882 Si02
#       7
#     2   2   2   2   2   1   2
#     4  12  25  45  79 110 153 214 269 324 404 492
#     4  12  25  47  80 114 159 213 270 340 406 481
#     4  11  23  46  73 110 155 209 261 325 409 490
#     4  11  25  44  73 107 155 197 256 331 410 471
#     4  10  22  44  70 105 148 204 252 313 401 486
#     4  12  28  48  78 124 160 206 284 336 400 488
#     4  12  26  48  77 116 159 206 270 339 398 477
#
# _framework density 23.85624
#
# number of rings (size 3 to 8) (size 9 to 14) (size 15 to 20)
#    0.000    0.615    1.538    7.385    2.154    1.231 
#    0.000    0.769    0.000    0.000    0.000    0.000 
#    0.000    0.000    0.000    0.000    0.000    0.000 
#
# Total GULP energy -72446.289745 kJ/mol
# GULP energy per Si atom -5572.791519 kJ/mol
# Density = 2.380194 g / cm^3
# Si number density = 23.856240 Si / 1000 Ang^3
#
#
#
# Elastic Constant Matrix: (Units=GPa)
#
#
# Indices 1 2 3 4 5 6 
#
# 1 121.2389 40.2133 41.8362 -20.8338 -34.0315 12.9604
# 2 40.2133 118.7713 31.1467 -20.0255 -8.1131 8.1804
# 3 41.8362 31.1467 107.1838 -13.8616 -9.3409 16.4017
# 4 -20.8338 -20.0255 -13.8616 40.9401 -0.2731 -1.2907
# 5 -34.0315 -8.1131 -9.3409 -0.2731 47.3565 -2.7053
# 6 12.9604 8.1804 16.4017 -1.2907 -2.7053 51.3014
#
#
#
# Elastic Compliance Matrix: (Units=1/GPa)
#
#
# Indices 1 2 3 4 5 6 
#
# 1 0.013420 -0.002274 -0.002988 0.004715 0.008606 -0.001500
# 2 -0.002274 0.010176 -0.001594 0.003264 -0.000213 -0.000468
# 3 -0.002988 -0.001594 0.011537 0.001520 -0.000288 -0.002656
# 4 0.004715 0.003264 0.001520 0.028927 0.004344 -0.001241
# 5 0.008606 -0.000213 -0.000288 0.004344 0.027204 -0.000504
# 6 -0.001500 -0.000468 -0.002656 -0.001241 -0.000504 0.020738
#
#
# Mechanical properties :
#
#
# Convention : Reuss Voigt Hill
#
# Bulk Modulus (GPa) = 46.68396 63.73182 55.20789
# Shear Modulus (GPa) = 37.63539 43.51946 40.57742
#
# Velocity S-wave (km/s) = 3.97620 4.27574 4.12869
# Velocity P-wave (km/s) = 6.37899 7.15185 6.77645
#
# Compressibility (1/GPa) = 0.02142063
#
# Stress axis : x y z
#
# Youngs Moduli (GPa) = 74.51617 98.27521 86.67489
#
# Poissons Ratio (x) = 0.22347 0.25898
# Poissons Ratio (y) = 0.16944 0.13818
# Poissons Ratio (z) = 0.22265 0.15668
#
# Static dielectric constant tensor:
#      x y z
#    x 1.897540 -0.082930 0.032980 
#    y -0.082930 2.043680 0.052620 
#    z 0.032980 0.052620 1.880640 
# 
# From -- ./inp_files/187457.got.cif
#   From: 2010.05.17/outbox.cif.g08.bks.cpg/sg2_94_cif.got.tgz:187457.got - 2010.06.03 11:33:40.
