data_PCOD9033190
_publ_section_title
;
Structure prediction by ZEFSAII (Michael W. Deem and Ramdas Pophale) SiO2 
 PCOD9033190
Probable space group: P -1
;
_chemical_formula_sum "Si O2"
_cell_formula_units_Z 16
_cell_length_a 10.623803
_cell_length_b 14.005306
_cell_length_c 7.083885
_cell_angle_alpha 89.474854
_cell_angle_beta 55.059802
_cell_angle_gamma 114.539503
_cell_volume 741.602011
_symmetry_space_group_name_H-M "P -1"
_symmetry_group_IT_number 2
_symmetry_cell_setting 'triclinic'
loop_
_space_group_symop_operation_xyz
x,y,z
-x,-y,-z
loop_
_atom_site_type_symbol
_atom_site_label
_atom_site_fract_x
_atom_site_fract_y
_atom_site_fract_z
Si Si1 0.155735 0.988520 0.463019
Si Si2 0.358901 0.756537 0.854053
Si Si3 0.021896 0.300567 0.860450
Si Si4 0.335217 0.136906 0.661148
Si Si5 0.867862 0.776351 0.904778
Si Si6 0.400887 0.475087 0.385705
Si Si7 0.483818 0.346908 0.014748
Si Si8 0.272209 0.938032 0.986658
O O1 0.270319 0.980224 0.196414
O O2 0.055832 0.873826 0.666207
O O3 0.249459 0.084882 0.533862
O O4 0.000000 0.000000 0.500000
O O5 0.468217 0.765733 0.570909
O O6 0.430518 0.720506 0.971243
O O7 0.387098 0.879233 0.859980
O O8 0.145078 0.680686 0.012579
O O9 0.192993 0.382896 0.590908
O O10 0.926575 0.169491 0.883413
O O11 0.094816 0.307509 0.009250
O O12 0.222266 0.178385 0.871461
O O13 0.328965 0.039088 0.793297
O O14 0.724406 0.727406 0.861653
O O15 0.500000 0.500000 0.500000
O O16 0.494024 0.427544 0.170646
O O17 0.424639 0.582216 0.253081
#
# Coordination Sequence:
#
# PCOD9033190 Si02
#       8
#     2   2   2   2   2   2   2   2
#     4  12  21  36  63  95 129 182 232 272 307 376
#     4  10  25  44  62 100 140 179 217 273 334 398
#     4  10  22  44  66  95 133 170 220 274 333 389
#     4  12  23  41  63  94 142 183 228 261 324 387
#     4  12  22  41  69  98 133 179 226 277 319 391
#     4  11  23  47  78  98 125 166 222 284 336 403
#     4  11  25  45  72 101 128 169 224 272 347 396
#     4  10  23  42  62  92 141 180 226 262 329 382
#
# _framework density 21.574915000000001
#
# number of rings (size 3 to 8) (size 9 to 14) (size 15 to 20)
#    0.750    0.250    3.750    3.750    0.000    1.000 
#    4.500    0.625    0.000    0.000    0.000    0.000 
#    0.000    0.000    0.000    0.000    0.000    0.000 
#
# Total GULP energy -89393.191203 kJ/mol
# GULP energy per Si atom -5587.074450 kJ/mol
# Density = 2.152581 g / cm^3
# Si number density = 21.574915 Si / 1000 Ang^3
#
#
#
# Elastic Constant Matrix: (Units=GPa)
#
#
# Indices 1 2 3 4 5 6 
#
# 1 118.8465 26.9214 41.4368 -2.6509 15.7038 7.7594
# 2 26.9214 43.7035 23.9417 0.2725 10.7041 14.4009
# 3 41.4368 23.9417 120.8959 -6.2641 21.6019 4.4598
# 4 -2.6509 0.2725 -6.2641 53.7926 3.0128 3.2432
# 5 15.7038 10.7041 21.6019 3.0128 18.2319 -4.2033
# 6 7.7594 14.4009 4.4598 3.2432 -4.2033 23.4299
#
#
#
# Elastic Compliance Matrix: (Units=1/GPa)
#
#
# Indices 1 2 3 4 5 6 
#
# 1 0.010764 -0.003527 -0.001868 0.000775 -0.005612 -0.002155
# 2 -0.003527 0.042379 -0.000871 0.002912 -0.028251 -0.030185
# 3 -0.001868 -0.000871 0.011636 0.002210 -0.012879 -0.003677
# 4 0.000775 0.002912 0.002210 0.019846 -0.009887 -0.006988
# 5 -0.005612 -0.028251 -0.012879 -0.009887 0.102723 0.041471
# 6 -0.002155 -0.030185 -0.003677 -0.006988 0.041471 0.071054
#
#
# Mechanical properties :
#
#
# Convention : Reuss Voigt Hill
#
# Bulk Modulus (GPa) = 19.14057 52.00509 35.57283
# Shear Modulus (GPa) = 17.33993 31.83394 24.58693
#
# Velocity S-wave (km/s) = 2.83805 3.84540 3.37947
# Velocity P-wave (km/s) = 4.43061 6.62366 5.63486
#
# Compressibility (1/GPa) = 0.05224504
#
# Stress axis : x y z
#
# Youngs Moduli (GPa) = 92.90039 23.59638 85.94101
#
# Poissons Ratio (x) = 0.08323 0.16058
# Poissons Ratio (y) = 0.32770 0.07488
# Poissons Ratio (z) = 0.17358 0.02056
#
# Static dielectric constant tensor:
#      x y z
#    x 1.805780 0.015250 -0.009340 
#    y 0.015250 1.839600 -0.037510 
#    z -0.009340 -0.037510 1.795250 
# 
# From -- ./inp_files/81448.got.cif
#   From: 2010.05.17/outbox.cif.g08.bks.cpg/sg2_41_cif.got.tgz:81448.got - 2010.06.03 11:33:40.
