data_PCOD9033088
_publ_section_title
;
Structure prediction by ZEFSAII (Michael W. Deem and Ramdas Pophale) SiO2 
 PCOD9033088
Probable space group: P -1
;
_chemical_formula_sum "Si O2"
_cell_formula_units_Z 16
_cell_length_a 12.466186
_cell_length_b 8.966061
_cell_length_c 8.336773
_cell_angle_alpha 128.814707
_cell_angle_beta 84.806646
_cell_angle_gamma 93.388250
_cell_volume 723.070995
_symmetry_space_group_name_H-M "P -1"
_symmetry_group_IT_number 2
_symmetry_cell_setting 'triclinic'
loop_
_space_group_symop_operation_xyz
x,y,z
-x,-y,-z
loop_
_atom_site_type_symbol
_atom_site_label
_atom_site_fract_x
_atom_site_fract_y
_atom_site_fract_z
Si Si1 0.679224 0.703454 0.149137
Si Si2 0.439920 0.124075 0.455703
Si Si3 0.050647 0.617843 0.430357
Si Si4 0.078265 0.334508 0.822846
Si Si5 0.008344 0.014966 0.198060
Si Si6 0.262945 0.066239 0.192514
Si Si7 0.341634 0.877311 0.729316
Si Si8 0.721707 0.522955 0.703427
O O1 0.600026 0.699456 0.309934
O O2 0.795821 0.644381 0.158194
O O3 0.685894 0.925668 0.233588
O O4 0.655670 0.573450 0.908160
O O5 0.335067 0.038116 0.323124
O O6 0.528474 0.145137 0.318532
O O7 0.500000 0.000000 0.500000
O O8 0.153682 0.506763 0.278466
O O9 0.000000 0.500000 0.500000
O O10 0.955944 0.674940 0.362447
O O11 0.077842 0.821416 0.637246
O O12 0.035104 0.158883 0.811860
O O13 0.000000 0.500000 0.000000
O O14 0.136395 0.039199 0.225776
O O15 0.000000 0.000000 0.000000
O O16 0.281347 0.286274 0.277307
O O17 0.299802 0.925856 0.946943
O O18 0.305323 0.674529 0.518074
#
# Coordination Sequence:
#
# PCOD9033088 Si02
#       8
#     2   2   2   2   2   2   2   2
#     4  10  22  44  65  96 140 178 227 289 344 420
#     4  10  23  45  70  94 132 180 233 296 350 399
#     4  12  23  40  64  95 140 185 228 279 345 420
#     4  12  24  41  65  99 141 181 227 278 346 421
#     4  12  24  42  68 101 142 186 228 280 347 424
#     4  11  23  44  69  98 138 178 231 286 349 417
#     4  10  23  43  71  96 131 179 231 289 349 411
#     4  11  22  41  66  99 136 179 229 283 349 421
#
# _framework density 22.127842000000001
#
# number of rings (size 3 to 8) (size 9 to 14) (size 15 to 20)
#    0.000    1.000    2.500    5.250    0.000    3.000 
#    0.000    0.000    0.000    0.000    0.000    0.000 
#    0.000    0.000    0.000    0.000    0.000    0.000 
#
# Total GULP energy -89232.589382 kJ/mol
# GULP energy per Si atom -5577.036836 kJ/mol
# Density = 2.207748 g / cm^3
# Si number density = 22.127842 Si / 1000 Ang^3
#
#
#
# Elastic Constant Matrix: (Units=GPa)
#
#
# Indices 1 2 3 4 5 6 
#
# 1 107.3909 1.2342 25.7802 -2.1293 -10.8084 -21.3204
# 2 1.2342 76.0601 24.8051 8.3845 3.9411 -17.1384
# 3 25.7802 24.8051 150.0854 9.3703 -21.7381 -10.3572
# 4 -2.1293 8.3845 9.3703 35.3639 -1.6099 7.7888
# 5 -10.8084 3.9411 -21.7381 -1.6099 45.7949 -7.8616
# 6 -21.3204 -17.1384 -10.3572 7.7888 -7.8616 25.7472
#
#
#
# Elastic Compliance Matrix: (Units=1/GPa)
#
#
# Indices 1 2 3 4 5 6 
#
# 1 0.012890 0.003537 -0.000886 -0.002917 0.004793 0.015017
# 2 0.003537 0.018239 -0.001858 -0.007281 0.001017 0.016835
# 3 -0.000886 -0.001858 0.008114 -0.002293 0.004288 0.003296
# 4 -0.002917 -0.007281 -0.002293 0.034617 -0.003310 -0.019667
# 5 0.004793 0.001017 0.004288 -0.003310 0.027506 0.015770
# 6 0.015017 0.016835 0.003296 -0.019667 0.015770 0.074571
#
#
# Mechanical properties :
#
#
# Convention : Reuss Voigt Hill
#
# Bulk Modulus (GPa) = 24.49309 48.57504 36.53406
# Shear Modulus (GPa) = 26.60120 40.16232 33.38176
#
# Velocity S-wave (km/s) = 3.47098 4.26492 3.88827
# Velocity P-wave (km/s) = 5.21119 6.80091 6.05842
#
# Compressibility (1/GPa) = 0.04082784
#
# Stress axis : x y z
#
# Youngs Moduli (GPa) = 77.58113 54.82616 123.24591
#
# Poissons Ratio (x) = -0.19391 0.10920
# Poissons Ratio (y) = -0.27439 0.22904
# Poissons Ratio (z) = 0.06874 0.10189
#
# Static dielectric constant tensor:
#      x y z
#    x 1.875680 0.003220 0.126390 
#    y 0.003220 1.767800 -0.017050 
#    z 0.126390 -0.017050 2.042540 
# 
# From -- ./inp_files/245860.got.cif
#   From: 2010.05.17/outbox.cif.g08.bks.cpg/sg2_123_cif.got.tgz:245860.got - 2010.06.03 11:33:40.
