data_PCOD9033134
_publ_section_title
;
Structure prediction by ZEFSAII (Michael W. Deem and Ramdas Pophale) SiO2 
 PCOD9033134
Probable space group: P -1
;
_chemical_formula_sum "Si O2"
_cell_formula_units_Z 16
_cell_length_a 13.925050
_cell_length_b 11.699395
_cell_length_c 16.196179
_cell_angle_alpha 28.916090
_cell_angle_beta 29.796185
_cell_angle_gamma 45.030586
_cell_volume 618.438687
_symmetry_space_group_name_H-M "P -1"
_symmetry_group_IT_number 2
_symmetry_cell_setting 'triclinic'
loop_
_space_group_symop_operation_xyz
x,y,z
-x,-y,-z
loop_
_atom_site_type_symbol
_atom_site_label
_atom_site_fract_x
_atom_site_fract_y
_atom_site_fract_z
Si Si1 0.805475 0.425842 0.880955
Si Si2 0.222981 0.531398 0.420511
Si Si3 0.598149 0.127524 0.083211
Si Si4 0.392215 0.293255 0.891108
Si Si5 0.291283 0.315769 0.769942
Si Si6 0.731023 0.995199 0.332256
Si Si7 0.226279 0.098649 0.295335
Si Si8 0.908453 0.385776 0.056181
O O1 0.632429 0.301888 0.025635
O O2 0.762003 0.640053 0.834832
O O3 0.002382 0.528503 0.616175
O O4 0.827344 0.201522 0.064246
O O5 0.306117 0.709439 0.169669
O O6 0.375980 0.597333 0.341320
O O7 0.231713 0.263544 0.553011
O O8 0.369502 0.998989 0.314894
O O9 0.709782 0.907589 0.148232
O O10 0.294639 0.215022 0.925639
O O11 0.336122 0.091093 0.130602
O O12 0.280148 0.494924 0.884011
O O13 0.500000 0.500000 0.500000
O O14 0.107610 0.442209 0.816221
O O15 0.500000 0.000000 0.500000
O O16 0.826391 0.101798 0.280899
O O17 0.000000 0.000000 0.500000
O O18 0.000000 0.500000 0.000000
#
# Coordination Sequence:
#
# PCOD9033134 Si02
#       8
#     2   2   2   2   2   2   2   2
#     4  12  26  45  73 105 144 187 240 287 354 428
#     4  11  25  44  74 101 144 183 241 289 359 412
#     4  11  27  50  67 107 143 186 233 296 361 418
#     4  10  23  45  68 104 138 183 232 293 353 417
#     4  11  27  42  74 105 143 181 239 294 353 418
#     4  12  23  44  72 104 143 188 233 288 351 423
#     4  11  26  46  73 101 139 188 236 290 357 424
#     4  10  22  44  66 102 139 181 233 286 346 411
#
# _framework density 25.871603
#
# number of rings (size 3 to 8) (size 9 to 14) (size 15 to 20)
#    0.000    1.000    2.500    2.625    8.750    1.000 
#    4.500    0.000    0.000    0.000    0.000    0.000 
#    0.000    0.000    0.000    0.000    0.000    0.000 
#
# Total GULP energy -89455.780493 kJ/mol
# GULP energy per Si atom -5590.986281 kJ/mol
# Density = 2.581272 g / cm^3
# Si number density = 25.871603 Si / 1000 Ang^3
#
#
#
# Elastic Constant Matrix: (Units=GPa)
#
#
# Indices 1 2 3 4 5 6 
#
# 1 91.6120 10.8505 30.6820 2.3142 -30.5375 20.9459
# 2 10.8505 125.6897 22.4888 -28.4444 -9.4292 6.2652
# 3 30.6820 22.4888 92.8264 0.0786 -29.4407 8.3882
# 4 2.3142 -28.4444 0.0786 42.3418 -2.6632 -8.3314
# 5 -30.5375 -9.4292 -29.4407 -2.6632 50.6418 -4.7847
# 6 20.9459 6.2652 8.3882 -8.3314 -4.7847 39.4386
#
#
#
# Elastic Compliance Matrix: (Units=1/GPa)
#
#
# Indices 1 2 3 4 5 6 
#
# 1 0.015944 -0.000583 -0.002080 -0.002266 0.007468 -0.007506
# 2 -0.000583 0.009958 -0.002056 0.006913 0.000739 0.000715
# 3 -0.002080 -0.002056 0.014079 -0.001092 0.006394 -0.001018
# 4 -0.002266 0.006913 -0.001092 0.029823 0.001499 0.006820
# 5 0.007468 0.000739 0.006394 0.001499 0.028020 -0.001728
# 6 -0.007506 0.000715 -0.001018 0.006820 -0.001728 0.030676
#
#
# Mechanical properties :
#
#
# Convention : Reuss Voigt Hill
#
# Bulk Modulus (GPa) = 32.73959 48.68562 40.71260
# Shear Modulus (GPa) = 33.75625 42.89155 38.32390
#
# Velocity S-wave (km/s) = 3.61607 4.07610 3.85296
# Velocity P-wave (km/s) = 5.48787 6.40405 5.96358
#
# Compressibility (1/GPa) = 0.03054406
#
# Stress axis : x y z
#
# Youngs Moduli (GPa) = 62.71953 100.41713 71.02563
#
# Poissons Ratio (x) = 0.05851 0.14773
# Poissons Ratio (y) = 0.03655 0.14604
# Poissons Ratio (z) = 0.13046 0.20648
#
# Static dielectric constant tensor:
#      x y z
#    x 2.118660 -0.024420 0.053740 
#    y -0.024420 2.048770 0.029490 
#    z 0.053740 0.029490 2.081360 
# 
# From -- ./inp_files/573557.got.cif
#   From: 2010.05.17/outbox.cif.g08.bks.cpg/sg2_287_cif.got.tgz:573557.got - 2010.06.03 11:33:40.
