data_PCOD9033680
_publ_section_title
;
Structure prediction by ZEFSAII (Michael W. Deem and Ramdas Pophale) SiO2 
 PCOD9033680
Probable space group: P -1
;
_chemical_formula_sum "Si O2"
_cell_formula_units_Z 14
_cell_length_a 10.497558
_cell_length_b 6.879974
_cell_length_c 11.331315
_cell_angle_alpha 113.993073
_cell_angle_beta 51.491124
_cell_angle_gamma 102.939794
_cell_volume 584.569139
_symmetry_space_group_name_H-M "P -1"
_symmetry_group_IT_number 2
_symmetry_cell_setting 'triclinic'
loop_
_space_group_symop_operation_xyz
x,y,z
-x,-y,-z
loop_
_atom_site_type_symbol
_atom_site_label
_atom_site_fract_x
_atom_site_fract_y
_atom_site_fract_z
Si Si1 0.102013 0.743190 0.214777
Si Si2 0.088877 0.094022 0.859426
Si Si3 0.230571 0.298918 0.489098
Si Si4 0.677135 0.880187 0.843725
Si Si5 0.306313 0.325922 0.971532
Si Si6 0.339026 0.745627 0.596284
Si Si7 0.549265 0.070678 0.656637
O O1 0.013398 0.775371 0.146635
O O2 0.963759 0.683807 0.374126
O O3 0.191245 0.958502 0.239245
O O4 0.246138 0.565898 0.078052
O O5 0.218936 0.243068 0.883278
O O6 0.172822 0.882103 0.702423
O O7 0.000000 0.000000 0.000000
O O8 0.309345 0.296135 0.311651
O O9 0.305350 0.499024 0.564501
O O10 0.287408 0.070436 0.454064
O O11 0.739875 0.790901 0.910428
O O12 0.500000 0.000000 0.000000
O O13 0.494132 0.249273 0.826048
O O14 0.421571 0.876871 0.686250
O O15 0.449341 0.802384 0.435173
#
# Coordination Sequence:
#
# PCOD9033680 Si02
#       7
#     2   2   2   2   2   2   2
#     4  12  27  46  73 107 142 186 237 297 362 407
#     4  11  21  45  73 104 142 172 233 300 354 420
#     4  12  25  45  73 103 143 189 238 288 351 417
#     4  12  28  49  69 103 145 194 244 286 341 432
#     4  11  25  44  74 105 140 189 231 289 359 421
#     4  10  23  41  71 105 141 184 233 290 356 413
#     4  10  22  44  69 105 145 181 233 293 346 427
#
# _framework density 23.949262000000001
#
# number of rings (size 3 to 8) (size 9 to 14) (size 15 to 20)
#    0.000    0.857    4.286    2.143    2.000    2.286 
#    0.000    0.000    0.000    0.000    0.000    0.000 
#    0.000    0.000    0.000    0.000    0.000    0.000 
#
# Total GULP energy -78141.154737 kJ/mol
# GULP energy per Si atom -5581.511053 kJ/mol
# Density = 2.389475 g / cm^3
# Si number density = 23.949262 Si / 1000 Ang^3
#
#
#
# Elastic Constant Matrix: (Units=GPa)
#
#
# Indices 1 2 3 4 5 6 
#
# 1 72.2537 19.5117 7.1997 5.8582 12.8133 -5.4927
# 2 19.5117 62.0347 29.1520 8.2226 -2.5564 -16.2612
# 3 7.1997 29.1520 116.0000 2.7358 -1.9445 -7.1850
# 4 5.8582 8.2226 2.7358 37.8545 -1.4363 -10.0575
# 5 12.8133 -2.5564 -1.9445 -1.4363 22.3112 -5.2399
# 6 -5.4927 -16.2612 -7.1850 -10.0575 -5.2399 31.5234
#
#
#
# Elastic Compliance Matrix: (Units=1/GPa)
#
#
# Indices 1 2 3 4 5 6 
#
# 1 0.017665 -0.006614 0.000240 -0.002573 -0.011765 -0.003055
# 2 -0.006614 0.023817 -0.004713 -0.000456 0.008757 0.011369
# 3 0.000240 -0.004713 0.009784 0.000276 0.000183 -0.000041
# 4 -0.002573 -0.000456 0.000276 0.029713 0.005664 0.009800
# 5 -0.011765 0.008757 0.000183 0.005664 0.056167 0.013652
# 6 -0.003055 0.011369 -0.000041 0.009800 0.013652 0.042441
#
#
# Mechanical properties :
#
#
# Convention : Reuss Voigt Hill
#
# Bulk Modulus (GPa) = 34.37359 40.22391 37.29875
# Shear Modulus (GPa) = 23.64527 31.29948 27.47237
#
# Velocity S-wave (km/s) = 3.14555 3.61904 3.39057
# Velocity P-wave (km/s) = 5.25133 5.85621 5.56200
#
# Compressibility (1/GPa) = 0.02909211
#
# Stress axis : x y z
#
# Youngs Moduli (GPa) = 56.60944 41.98755 102.20470
#
# Poissons Ratio (x) = 0.27769 -0.02452
# Poissons Ratio (y) = 0.37439 0.48170
# Poissons Ratio (z) = -0.01358 0.19789
#
# Static dielectric constant tensor:
#      x y z
#    x 2.019330 -0.020390 -0.000530 
#    y -0.020390 1.881960 -0.006340 
#    z -0.000530 -0.006340 1.985610 
# 
# From -- ./inp_files/69065.got.cif
#   From: 2010.05.17/outbox.cif.g08.bks.cpg/sg2_35_cif.got.tgz:69065.got - 2010.06.03 11:33:40.
