data_PCOD9033550
_publ_section_title
;
Structure prediction by ZEFSAII (Michael W. Deem and Ramdas Pophale) SiO2 
 PCOD9033550
Probable space group: P -1
;
_chemical_formula_sum "Si O2"
_cell_formula_units_Z 11
_cell_length_a 9.198423
_cell_length_b 12.195310
_cell_length_c 13.622082
_cell_angle_alpha 31.918760
_cell_angle_beta 126.677576
_cell_angle_gamma 143.923031
_cell_volume 456.044883
_symmetry_space_group_name_H-M "P -1"
_symmetry_group_IT_number 2
_symmetry_cell_setting 'triclinic'
loop_
_space_group_symop_operation_xyz
x,y,z
-x,-y,-z
loop_
_atom_site_type_symbol
_atom_site_label
_atom_site_fract_x
_atom_site_fract_y
_atom_site_fract_z
Si Si1 0.557460 0.652565 0.669462
Si Si2 0.347250 0.837475 0.308628
Si Si3 0.421177 0.205333 0.223356
Si Si4 0.993480 0.585600 0.199457
Si Si5 0.767787 0.379899 0.927736
Si Si6 0.000000 0.000000 0.000000
O O1 0.494448 0.776566 0.470327
O O2 0.690219 0.856688 0.665775
O O3 0.719775 0.587166 0.750008
O O4 0.276548 0.341392 0.825470
O O5 0.088857 0.560934 0.358589
O O6 0.281477 0.977386 0.249214
O O7 0.526607 0.076285 0.114463
O O8 0.693469 0.308128 0.266780
O O9 0.500000 0.500000 0.000000
O O10 0.160391 0.641297 0.134269
O O11 0.036281 0.864173 0.025381
O O12 0.000000 0.500000 0.000000
#
# Coordination Sequence:
#
# PCOD9033550 Si02
#       6
#     2   2   2   2   2   1
#     4  11  25  43  72 103 137 182 235 281 348 408
#     4  12  24  43  73 103 138 182 233 285 338 415
#     4  11  21  45  71 100 139 185 228 285 340 406
#     4  11  23  43  71  99 139 184 227 280 350 406
#     4  12  24  47  69  99 145 183 224 288 348 405
#     4  10  22  44  68  96 136 174 226 284 334 398
#
# _framework density 24.120432000000001
#
# number of rings (size 3 to 8) (size 9 to 14) (size 15 to 20)
#    0.000    0.727    5.455    2.182    0.000    4.364 
#    0.000    1.818    0.000    0.000    0.000    0.000 
#    0.000    0.000    0.000    0.000    0.000    0.000 
#
# Total GULP energy -61366.714691 kJ/mol
# GULP energy per Si atom -5578.792245 kJ/mol
# Density = 2.406553 g / cm^3
# Si number density = 24.120432 Si / 1000 Ang^3
#
#
#
# Elastic Constant Matrix: (Units=GPa)
#
#
# Indices 1 2 3 4 5 6 
#
# 1 194.0876 41.6754 52.2318 1.7377 31.3584 -45.2731
# 2 41.6754 112.3358 10.0403 9.8846 5.2436 -31.7900
# 3 52.2318 10.0403 111.7346 21.6982 33.9143 -23.3449
# 4 1.7377 9.8846 21.6982 42.2245 7.9844 -1.3424
# 5 31.3584 5.2436 33.9143 7.9844 30.9459 3.9087
# 6 -45.2731 -31.7900 -23.3449 -1.3424 3.9087 49.8622
#
#
#
# Elastic Compliance Matrix: (Units=1/GPa)
#
#
# Indices 1 2 3 4 5 6 
#
# 1 0.009070 -0.000373 0.001059 0.001727 -0.011930 0.009474
# 2 -0.000373 0.011869 0.003338 -0.003121 -0.005641 0.009149
# 3 0.001059 0.003338 0.019033 -0.005880 -0.022701 0.013622
# 4 0.001727 -0.003121 -0.005880 0.027594 -0.001606 -0.002306
# 5 -0.011930 -0.005641 -0.022701 -0.001606 0.074561 -0.030945
# 6 0.009474 0.009149 0.013622 -0.002306 -0.030945 0.043232
#
#
# Mechanical properties :
#
#
# Convention : Reuss Voigt Hill
#
# Bulk Modulus (GPa) = 20.82515 69.56146 45.19331
# Shear Modulus (GPa) = 25.86416 45.55389 35.70902
#
# Velocity S-wave (km/s) = 3.27814 4.35052 3.85183
# Velocity P-wave (km/s) = 4.79383 7.35784 6.20962
#
# Compressibility (1/GPa) = 0.04801885
#
# Stress axis : x y z
#
# Youngs Moduli (GPa) = 110.25940 84.25213 52.54059
#
# Poissons Ratio (x) = 0.03145 -0.05564
# Poissons Ratio (y) = 0.04116 -0.17537
# Poissons Ratio (z) = -0.11677 -0.28122
#
# Static dielectric constant tensor:
#      x y z
#    x 1.935790 0.080550 0.104020 
#    y 0.080550 2.126300 0.184620 
#    z 0.104020 0.184620 2.400860 
# 
# From -- ./inp_files/269085.got.cif
#   From: 2010.05.17/outbox.cif.g08.bks.cpg/sg2_135_cif.got.tgz:269085.got - 2010.06.03 11:33:40.
