data_PCOD9033660
_publ_section_title
;
Structure prediction by ZEFSAII (Michael W. Deem and Ramdas Pophale) SiO2 
 PCOD9033660
Probable space group: P -1
;
_chemical_formula_sum "Si O2"
_cell_formula_units_Z 16
_cell_length_a 11.648587
_cell_length_b 5.251714
_cell_length_c 14.506838
_cell_angle_alpha 123.739041
_cell_angle_beta 61.778264
_cell_angle_gamma 117.681810
_cell_volume 625.081353
_symmetry_space_group_name_H-M "P -1"
_symmetry_group_IT_number 2
_symmetry_cell_setting 'triclinic'
loop_
_space_group_symop_operation_xyz
x,y,z
-x,-y,-z
loop_
_atom_site_type_symbol
_atom_site_label
_atom_site_fract_x
_atom_site_fract_y
_atom_site_fract_z
Si Si1 0.954113 0.767887 0.628313
Si Si2 0.333961 0.646358 0.324368
Si Si3 0.658709 0.684913 0.465137
Si Si4 0.315837 0.566385 0.000193
Si Si5 0.609632 0.533327 0.257423
Si Si6 0.910875 0.503816 0.320685
Si Si7 0.510707 0.154609 0.866818
Si Si8 0.011303 0.369139 0.070996
O O1 0.792018 0.650796 0.666435
O O2 0.000000 0.500000 0.500000
O O3 0.013359 0.716470 0.696623
O O4 0.008988 0.119511 0.636196
O O5 0.473596 0.640820 0.318130
O O6 0.371966 0.643069 0.202447
O O7 0.304904 0.976694 0.430460
O O8 0.500000 0.500000 0.500000
O O9 0.685900 0.728553 0.353387
O O10 0.763154 0.485973 0.414385
O O11 0.323351 0.497443 0.873730
O O12 0.387004 0.306078 0.960808
O O13 0.410897 0.880120 0.076593
O O14 0.163780 0.539221 0.079266
O O15 0.554226 0.162731 0.229420
O O16 0.905956 0.411678 0.196168
O O17 0.000000 0.500000 0.000000
O O18 0.000000 0.000000 0.000000
#
# Coordination Sequence:
#
# PCOD9033660 Si02
#       8
#     2   2   2   2   2   2   2   2
#     4  12  27  48  76 105 153 195 253 307 362 447
#     4  11  25  42  71 107 141 192 240 301 372 437
#     4  12  26  44  73 103 148 189 240 301 370 447
#     4  10  24  43  70 101 139 182 245 298 362 425
#     4  11  24  42  71 101 141 183 241 295 367 435
#     4  12  29  50  75 112 147 203 249 306 376 445
#     4  10  22  44  69 103 137 184 237 305 359 427
#     4  12  28  49  77 108 150 196 247 308 373 448
#
# _framework density 25.596668000000001
#
# number of rings (size 3 to 8) (size 9 to 14) (size 15 to 20)
#    0.000    0.750    2.500    3.375    8.750    1.000 
#    0.000    0.000    0.000    0.000    0.000    0.000 
#    0.000    0.000    0.000    0.000    0.000    0.000 
#
# Total GULP energy -89549.224781 kJ/mol
# GULP energy per Si atom -5596.826549 kJ/mol
# Density = 2.553841 g / cm^3
# Si number density = 25.596668 Si / 1000 Ang^3
#
#
#
# Elastic Constant Matrix: (Units=GPa)
#
#
# Indices 1 2 3 4 5 6 
#
# 1 94.1092 9.3798 17.0440 -13.5400 -2.1138 3.5755
# 2 9.3798 85.3451 5.1266 -2.8422 -1.0527 7.1734
# 3 17.0440 5.1266 126.3713 6.5698 -1.1055 -1.6177
# 4 -13.5400 -2.8422 6.5698 31.2504 -0.2260 -1.9026
# 5 -2.1138 -1.0527 -1.1055 -0.2260 49.5116 -9.2880
# 6 3.5755 7.1734 -1.6177 -1.9026 -9.2880 29.7251
#
#
#
# Elastic Compliance Matrix: (Units=1/GPa)
#
#
# Indices 1 2 3 4 5 6 
#
# 1 0.011871 -0.000938 -0.001852 0.005397 0.000309 -0.000860
# 2 -0.000938 0.012106 -0.000436 0.000608 -0.000333 -0.002898
# 3 -0.001852 -0.000436 0.008324 -0.002549 0.000214 0.000685
# 4 0.005397 0.000608 -0.002549 0.035025 0.000628 0.001504
# 5 0.000309 -0.000333 0.000214 0.000628 0.021488 0.006809
# 6 -0.000860 -0.002898 0.000685 0.001504 0.006809 0.036706
#
#
# Mechanical properties :
#
#
# Convention : Reuss Voigt Hill
#
# Bulk Modulus (GPa) = 38.68573 40.99182 39.83877
# Shear Modulus (GPa) = 35.56488 40.38243 37.97366
#
# Velocity S-wave (km/s) = 3.73156 3.97627 3.85585
# Velocity P-wave (km/s) = 5.80624 6.09346 5.95158
#
# Compressibility (1/GPa) = 0.02584932
#
# Stress axis : x y z
#
# Youngs Moduli (GPa) = 84.23916 82.60325 120.13729
#
# Poissons Ratio (x) = 0.07744 0.22249
# Poissons Ratio (y) = 0.07898 0.05241
# Poissons Ratio (z) = 0.15601 0.03604
#
# Static dielectric constant tensor:
#      x y z
#    x 2.088840 -0.024690 0.095530 
#    y -0.024690 2.071470 -0.043070 
#    z 0.095530 -0.043070 2.088590 
# 
# From -- ./inp_files/511231.got.cif
#   From: 2010.05.17/outbox.cif.g08.bks.cpg/sg2_256_cif.got.tgz:511231.got - 2010.06.03 11:33:40.
