data_PCOD9033925
_publ_section_title
;
Structure prediction by ZEFSAII (Michael W. Deem and Ramdas Pophale) SiO2 
 PCOD9033925
Probable space group: P -1
;
_chemical_formula_sum "Si O2"
_cell_formula_units_Z 15
_cell_length_a 9.409164
_cell_length_b 15.096846
_cell_length_c 13.309537
_cell_angle_alpha 135.339252
_cell_angle_beta 30.200687
_cell_angle_gamma 126.606788
_cell_volume 667.578893
_symmetry_space_group_name_H-M "P -1"
_symmetry_group_IT_number 2
_symmetry_cell_setting 'triclinic'
loop_
_space_group_symop_operation_xyz
x,y,z
-x,-y,-z
loop_
_atom_site_type_symbol
_atom_site_label
_atom_site_fract_x
_atom_site_fract_y
_atom_site_fract_z
Si Si1 0.459168 0.402229 0.227205
Si Si2 0.617376 0.860428 0.280413
Si Si3 0.091722 0.331602 0.727853
Si Si4 0.158315 0.079573 0.383142
Si Si5 0.830757 0.036164 0.935517
Si Si6 0.170739 0.193480 0.104182
Si Si7 0.418953 0.685351 0.427172
Si Si8 0.500000 0.500000 0.500000
O O1 0.296885 0.290096 0.184343
O O2 0.405000 0.534756 0.308399
O O3 0.387845 0.429631 0.408447
O O4 0.789553 0.363368 0.984557
O O5 0.463665 0.755020 0.351015
O O6 0.951198 0.854826 0.100306
O O7 0.500000 0.000000 0.500000
O O8 0.619070 0.838624 0.142530
O O9 0.059784 0.222499 0.578349
O O10 0.319299 0.285865 0.636962
O O11 0.235837 0.448280 0.683720
O O12 0.107835 0.027343 0.261179
O O13 0.500183 0.073540 0.178230
O O14 0.000000 0.000000 0.500000
O O15 0.892755 0.934762 0.903278
O O16 0.872834 0.257595 0.301855
#
# Coordination Sequence:
#
# PCOD9033925 Si02
#       8
#     2   2   2   2   2   2   2   1
#     4  11  26  45  72 103 136 176 233 283 346 407
#     4  12  27  43  69  97 141 185 228 282 341 409
#     4  11  24  42  71 100 135 178 227 284 338 411
#     4  11  24  41  69 100 140 175 231 286 340 406
#     4  11  25  42  66 102 134 186 229 279 346 405
#     4  12  26  44  70  99 141 181 229 283 343 411
#     4  11  25  45  68 102 137 182 229 284 343 409
#     4  10  22  44  70  94 134 172 222 280 340 400
#
# _framework density 22.469255
#
# number of rings (size 3 to 8) (size 9 to 14) (size 15 to 20)
#    0.000    0.800    1.333    5.600    5.600   10.133 
#    0.000    0.000    0.000    0.000    0.000    0.000 
#    0.000    0.000    0.000    0.000    0.000    0.000 
#
# Total GULP energy -83694.908341 kJ/mol
# GULP energy per Si atom -5579.660556 kJ/mol
# Density = 2.241811 g / cm^3
# Si number density = 22.469255 Si / 1000 Ang^3
#
#
#
# Elastic Constant Matrix: (Units=GPa)
#
#
# Indices 1 2 3 4 5 6 
#
# 1 62.1175 6.4974 48.5383 -4.5059 13.7585 -1.2184
# 2 6.4974 59.4293 29.5734 -8.9396 19.2692 9.0555
# 3 48.5383 29.5734 118.5866 -2.9924 21.4987 -12.4174
# 4 -4.5059 -8.9396 -2.9924 33.4310 2.3057 3.5070
# 5 13.7585 19.2692 21.4987 2.3057 45.4817 -2.1932
# 6 -1.2184 9.0555 -12.4174 3.5070 -2.1932 20.9095
#
#
#
# Elastic Compliance Matrix: (Units=1/GPa)
#
#
# Indices 1 2 3 4 5 6 
#
# 1 0.027074 0.008323 -0.013036 0.006359 -0.006432 -0.011509
# 2 0.008323 0.030253 -0.010839 0.011389 -0.011860 -0.022208
# 3 -0.013036 -0.010839 0.017760 -0.004759 0.001124 0.015397
# 4 0.006359 0.011389 -0.004759 0.035343 -0.006968 -0.014046
# 5 -0.006432 -0.011860 0.001124 -0.006968 0.029245 0.009665
# 6 -0.011509 -0.022208 0.015397 -0.014046 0.009665 0.069286
#
#
# Mechanical properties :
#
#
# Convention : Reuss Voigt Hill
#
# Bulk Modulus (GPa) = 22.73645 45.48351 34.10998
# Shear Modulus (GPa) = 19.62891 30.33274 24.98082
#
# Velocity S-wave (km/s) = 2.95886 3.67817 3.33795
# Velocity P-wave (km/s) = 4.67055 6.19073 5.48357
#
# Compressibility (1/GPa) = 0.04398223
#
# Stress axis : x y z
#
# Youngs Moduli (GPa) = 36.93558 33.05450 56.30719
#
# Poissons Ratio (x) = -0.27510 0.73401
# Poissons Ratio (y) = -0.30740 0.61032
# Poissons Ratio (z) = 0.48149 0.35828
#
# Static dielectric constant tensor:
#      x y z
#    x 1.836510 -0.023340 -0.047330 
#    y -0.023340 1.752650 0.001380 
#    z -0.047330 0.001380 1.827520 
# 
# From -- ./inp_files/109940.got.cif
#   From: 2010.05.17/outbox.cif.g08.bks.cpg/sg2_55_cif.got.tgz:109940.got - 2010.06.03 11:33:40.
