data_PCOD9033615
_publ_section_title
;
Structure prediction by ZEFSAII (Michael W. Deem and Ramdas Pophale) SiO2 
 PCOD9033615
Probable space group: P -1
;
_chemical_formula_sum "Si O2"
_cell_formula_units_Z 15
_cell_length_a 5.162611
_cell_length_b 6.822404
_cell_length_c 21.938407
_cell_angle_alpha 121.571030
_cell_angle_beta 113.749982
_cell_angle_gamma 72.721327
_cell_volume 598.893132
_symmetry_space_group_name_H-M "P -1"
_symmetry_group_IT_number 2
_symmetry_cell_setting 'triclinic'
loop_
_space_group_symop_operation_xyz
x,y,z
-x,-y,-z
loop_
_atom_site_type_symbol
_atom_site_label
_atom_site_fract_x
_atom_site_fract_y
_atom_site_fract_z
Si Si1 0.856514 0.072045 0.757829
Si Si2 0.842174 0.540406 0.416163
Si Si3 0.711225 0.156348 0.011609
Si Si4 0.636096 0.102510 0.861111
Si Si5 0.659052 0.320300 0.251586
Si Si6 0.161723 0.459039 0.818003
Si Si7 0.447055 0.250560 0.402804
Si Si8 0.500000 0.000000 0.500000
O O1 0.902619 0.094862 0.839440
O O2 0.883245 0.324781 0.775023
O O3 0.603387 0.940393 0.685403
O O4 0.116852 0.884785 0.733886
O O5 0.630137 0.501251 0.332622
O O6 0.718327 0.377792 0.429264
O O7 0.763017 0.804468 0.470249
O O8 0.165077 0.444479 0.411041
O O9 0.792042 0.357364 0.095565
O O10 0.615508 0.219872 0.943957
O O11 0.500000 0.000000 0.000000
O O12 0.000000 0.000000 0.000000
O O13 0.415441 0.257335 0.822704
O O14 0.586571 0.832782 0.818106
O O15 0.796494 0.432419 0.225415
O O16 0.479281 0.119516 0.448512
#
# Coordination Sequence:
#
# PCOD9033615 Si02
#       8
#     2   2   2   2   2   2   2   1
#     4  10  24  42  70 101 140 186 241 298 352 426
#     4  11  26  47  74 107 149 192 240 305 359 441
#     4  12  27  46  70 100 145 191 233 292 364 415
#     4  11  23  43  71  98 140 183 238 293 353 417
#     4  10  22  44  68  99 141 187 234 292 361 414
#     4  11  25  42  71 106 137 186 245 292 349 431
#     4  11  26  49  72 108 150 190 243 305 363 434
#     4  12  28  46  80 108 148 192 248 288 386 428
#
# _framework density 25.046206999999999
#
# number of rings (size 3 to 8) (size 9 to 14) (size 15 to 20)
#    0.000    1.067    2.667    2.000    5.600    5.867 
#    0.000    0.000    0.000    0.000    0.000    0.000 
#    0.000    0.000    0.000    0.000    0.000    0.000 
#
# Total GULP energy -83562.799781 kJ/mol
# GULP energy per Si atom -5570.853319 kJ/mol
# Density = 2.498920 g / cm^3
# Si number density = 25.046207 Si / 1000 Ang^3
#
#
#
# Elastic Constant Matrix: (Units=GPa)
#
#
# Indices 1 2 3 4 5 6 
#
# 1 85.0246 20.8219 2.8347 12.8415 -16.1905 5.5635
# 2 20.8219 105.0235 21.1446 3.4713 -10.5184 2.8417
# 3 2.8347 21.1446 117.3546 -2.8023 -29.3509 9.8448
# 4 12.8415 3.4713 -2.8023 43.1831 4.7093 -3.7931
# 5 -16.1905 -10.5184 -29.3509 4.7093 35.5180 -1.6729
# 6 5.5635 2.8417 9.8448 -3.7931 -1.6729 39.3449
#
#
#
# Elastic Compliance Matrix: (Units=1/GPa)
#
#
# Indices 1 2 3 4 5 6 
#
# 1 0.014842 -0.002303 0.002291 -0.005244 0.008547 -0.002648
# 2 -0.002303 0.010392 -0.001646 -0.000336 0.000712 -0.000015
# 3 0.002291 -0.001646 0.011485 -0.001144 0.010070 -0.002761
# 4 -0.005244 -0.000336 -0.001144 0.025684 -0.006689 0.003244
# 5 0.008547 0.000712 0.010070 -0.006689 0.041344 -0.002667
# 6 -0.002648 -0.000015 -0.002761 0.003244 -0.002667 0.026682
#
#
# Mechanical properties :
#
#
# Convention : Reuss Voigt Hill
#
# Bulk Modulus (GPa) = 29.93583 44.11167 37.02375
# Shear Modulus (GPa) = 34.51162 41.11597 37.81380
#
# Velocity S-wave (km/s) = 3.71606 4.05607 3.88978
# Velocity P-wave (km/s) = 5.51274 6.29174 5.91508
#
# Compressibility (1/GPa) = 0.03340478
#
# Stress axis : x y z
#
# Youngs Moduli (GPa) = 67.37728 96.22455 87.06947
#
# Poissons Ratio (x) = 0.22158 -0.19948
# Poissons Ratio (y) = 0.15515 0.14327
# Poissons Ratio (z) = -0.15436 0.15834
#
# Static dielectric constant tensor:
#      x y z
#    x 3.341490 1.178790 -2.381850 
#    y 1.178790 3.157800 -2.460580 
#    z -2.381850 -2.460580 6.995650 
# 
# From -- ./inp_files/9939.got.cif
#   From: 2010.05.17/outbox.cif.g08.bks.cpg/sg2_5_cif.got.tgz:9939.got - 2010.06.03 11:33:40.
