data_PCOD9033943
_publ_section_title
;
Structure prediction by ZEFSAII (Michael W. Deem and Ramdas Pophale) SiO2 
 PCOD9033943
Probable space group: P -1
;
_chemical_formula_sum "Si O2"
_cell_formula_units_Z 15
_cell_length_a 21.817817
_cell_length_b 18.329619
_cell_length_c 9.094958
_cell_angle_alpha 45.708858
_cell_angle_beta 40.871003
_cell_angle_gamma 17.135413
_cell_volume 695.629615
_symmetry_space_group_name_H-M "P -1"
_symmetry_group_IT_number 2
_symmetry_cell_setting 'triclinic'
loop_
_space_group_symop_operation_xyz
x,y,z
-x,-y,-z
loop_
_atom_site_type_symbol
_atom_site_label
_atom_site_fract_x
_atom_site_fract_y
_atom_site_fract_z
Si Si1 0.757530 0.953734 0.094376
Si Si2 0.239219 0.228770 0.876001
Si Si3 0.716313 0.601713 0.576194
Si Si4 0.892716 0.705562 0.490776
Si Si5 0.386388 0.471473 0.355335
Si Si6 0.500000 0.000000 0.000000
Si Si7 0.872162 0.086595 0.966213
Si Si8 0.912252 0.191122 0.318034
O O1 0.810936 0.808135 0.095613
O O2 0.816788 0.856954 0.286519
O O3 0.487058 0.241757 0.177133
O O4 0.902049 0.906253 0.851966
O O5 0.341725 0.225949 0.613598
O O6 0.402781 0.034130 0.984484
O O7 0.000000 0.500000 0.000000
O O8 0.710794 0.535022 0.535897
O O9 0.934725 0.404402 0.559863
O O10 0.000000 0.500000 0.500000
O O11 0.691643 0.864919 0.735587
O O12 0.252929 0.694603 0.197390
O O13 0.314968 0.550483 0.545181
O O14 0.658675 0.221570 0.194172
O O15 0.064598 0.849339 0.841423
O O16 0.000000 0.000000 0.000000
O O17 0.000000 0.000000 0.500000
#
# Coordination Sequence:
#
# PCOD9033943 Si02
#       8
#     2   2   2   2   2   1   2   2
#     4  12  24  44  68  95 142 184 222 287 344 395
#     4  12  23  41  65  97 138 182 222 275 336 406
#     4  12  23  40  68  97 138 179 220 277 341 403
#     4  12  25  43  65 100 137 180 233 273 332 409
#     4  10  23  42  67  95 133 171 220 278 340 404
#     4  12  24  40  66  96 132 176 230 264 326 404
#     4  10  22  44  70  96 128 170 223 284 339 396
#     4  10  23  45  68  98 132 175 229 280 338 402
#
# _framework density 21.563199999999998
#
# number of rings (size 3 to 8) (size 9 to 14) (size 15 to 20)
#    0.000    0.800    5.333    2.000    1.867    0.533 
#    0.000    2.667    0.000    0.000    0.000    0.000 
#    0.000    0.000    0.000    0.000    0.000    0.000 
#
# Total GULP energy -83505.773410 kJ/mol
# GULP energy per Si atom -5567.051561 kJ/mol
# Density = 2.151412 g / cm^3
# Si number density = 21.563200 Si / 1000 Ang^3
#
#
#
# Elastic Constant Matrix: (Units=GPa)
#
#
# Indices 1 2 3 4 5 6 
#
# 1 201.8733 41.8392 65.4405 6.9914 9.1046 1.7363
# 2 41.8392 35.6821 30.1289 9.7291 1.3202 -3.3177
# 3 65.4405 30.1289 142.6553 12.1964 -0.5517 3.0102
# 4 6.9914 9.7291 12.1964 21.3155 13.0784 -2.2653
# 5 9.1046 1.3202 -0.5517 13.0784 40.4423 0.6633
# 6 1.7363 -3.3177 3.0102 -2.2653 0.6633 41.5353
#
#
#
# Elastic Compliance Matrix: (Units=1/GPa)
#
#
# Indices 1 2 3 4 5 6 
#
# 1 0.007199 -0.007771 -0.001993 0.003893 -0.002645 -0.000523
# 2 -0.007771 0.046440 -0.004606 -0.019643 0.006470 0.003193
# 3 -0.001993 -0.004606 0.009264 -0.003904 0.002008 -0.001201
# 4 0.003893 -0.019643 -0.003904 0.071536 -0.023469 0.002827
# 5 -0.002645 0.006470 0.002008 -0.023469 0.032749 -0.001321
# 6 -0.000523 0.003193 -0.001201 0.002827 -0.001321 0.024615
#
#
# Mechanical properties :
#
#
# Convention : Reuss Voigt Hill
#
# Bulk Modulus (GPa) = 29.27228 72.78087 51.02657
# Shear Modulus (GPa) = 21.55803 36.84542 29.20172
#
# Velocity S-wave (km/s) = 3.16533 4.13815 3.68399
# Velocity P-wave (km/s) = 5.19265 7.52715 6.46613
#
# Compressibility (1/GPa) = 0.03416201
#
# Stress axis : x y z
#
# Youngs Moduli (GPa) = 138.90364 21.53334 107.94352
#
# Poissons Ratio (x) = 0.16733 0.21518
# Poissons Ratio (y) = 1.07936 0.49724
# Poissons Ratio (z) = 0.27689 0.09919
#
# Static dielectric constant tensor:
#      x y z
#    x 1.781190 0.009000 0.012280 
#    y 0.009000 1.833870 0.000660 
#    z 0.012280 0.000660 1.766540 
# 
# From -- ./inp_files/348317.got.cif
#   From: 2010.05.17/outbox.cif.g08.bks.cpg/sg2_175_cif.got.tgz:348317.got - 2010.06.03 11:33:40.
