data_PCOD9033876
_publ_section_title
;
Structure prediction by ZEFSAII (Michael W. Deem and Ramdas Pophale) SiO2 
 PCOD9033876
Probable space group: P -1
;
_chemical_formula_sum "Si O2"
_cell_formula_units_Z 13
_cell_length_a 8.647160
_cell_length_b 14.575040
_cell_length_c 7.745777
_cell_angle_alpha 115.504429
_cell_angle_beta 81.229808
_cell_angle_gamma 47.789615
_cell_volume 489.813237
_symmetry_space_group_name_H-M "P -1"
_symmetry_group_IT_number 2
_symmetry_cell_setting 'triclinic'
loop_
_space_group_symop_operation_xyz
x,y,z
-x,-y,-z
loop_
_atom_site_type_symbol
_atom_site_label
_atom_site_fract_x
_atom_site_fract_y
_atom_site_fract_z
Si Si1 0.372619 0.068816 0.891633
Si Si2 0.266110 0.265423 0.649088
Si Si3 0.500000 0.500000 0.500000
Si Si4 0.808414 0.005217 0.569280
Si Si5 0.947787 0.918561 0.870707
Si Si6 0.782894 0.386611 0.945116
Si Si7 0.174288 0.518801 0.663704
O O1 0.603592 0.910092 0.588922
O O2 0.500000 0.000000 0.000000
O O3 0.200931 0.057238 0.926354
O O4 0.151949 0.279304 0.101336
O O5 0.500348 0.175346 0.674811
O O6 0.236312 0.373271 0.603304
O O7 0.956688 0.396479 0.872090
O O8 0.344026 0.466555 0.429350
O O9 0.768977 0.294551 0.365211
O O10 0.797989 0.997904 0.773595
O O11 0.000000 0.000000 0.500000
O O12 0.993829 0.819300 0.296121
O O13 0.000000 0.000000 0.000000
O O14 0.500000 0.500000 0.000000
O O15 0.710776 0.446237 0.207640
#
# Coordination Sequence:
#
# PCOD9033876 Si02
#       7
#     2   2   1   2   2   2   2
#     4  11  25  46  73 106 149 199 248 311 382 452
#     4  12  26  51  77 111 156 199 262 318 378 468
#     4  10  22  44  70 104 156 188 246 304 372 460
#     4  12  25  45  78 115 151 203 253 317 388 457
#     4  11  24  44  71 106 151 196 247 304 379 451
#     4  12  26  47  74 112 152 196 257 324 383 445
#     4  11  25  46  76 110 151 202 251 315 385 456
#
# _framework density 26.540728000000001
#
# number of rings (size 3 to 8) (size 9 to 14) (size 15 to 20)
#    0.000    0.615    1.538    6.462    4.308    1.846 
#    2.769    0.000    0.000    0.000    0.000    0.000 
#    0.000    0.000    0.000    0.000    0.000    0.000 
#
# Total GULP energy -72436.691087 kJ/mol
# GULP energy per Si atom -5572.053161 kJ/mol
# Density = 2.648032 g / cm^3
# Si number density = 26.540728 Si / 1000 Ang^3
#
#
#
# Elastic Constant Matrix: (Units=GPa)
#
#
# Indices 1 2 3 4 5 6 
#
# 1 134.3302 55.8767 28.2105 16.0835 -20.1246 9.7638
# 2 55.8767 157.1573 40.4115 34.1557 -2.1957 -8.6394
# 3 28.2105 40.4115 94.7306 18.6025 -28.6175 -0.7479
# 4 16.0835 34.1557 18.6025 48.8499 -4.3368 3.9785
# 5 -20.1246 -2.1957 -28.6175 -4.3368 52.5880 0.5172
# 6 9.7638 -8.6394 -0.7479 3.9785 0.5172 63.2053
#
#
#
# Elastic Compliance Matrix: (Units=1/GPa)
#
#
# Indices 1 2 3 4 5 6 
#
# 1 0.009570 -0.003308 -0.000412 -0.000230 0.003300 -0.001948
# 2 -0.003308 0.009414 -0.002946 -0.004798 -0.002892 0.002089
# 3 -0.000412 -0.002946 0.014746 -0.002748 0.007518 -0.000053
# 4 -0.000230 -0.004798 -0.002748 0.025158 0.000313 -0.002239
# 5 0.003300 -0.002892 0.007518 0.000313 0.024285 -0.001035
# 6 -0.001948 0.002089 -0.000053 -0.002239 -0.001035 0.016557
#
#
# Mechanical properties :
#
#
# Convention : Reuss Voigt Hill
#
# Bulk Modulus (GPa) = 49.02339 70.57949 59.80144
# Shear Modulus (GPa) = 41.71508 50.37660 46.04584
#
# Velocity S-wave (km/s) = 3.96882 4.36143 4.16975
# Velocity P-wave (km/s) = 6.28595 7.21203 6.76485
#
# Compressibility (1/GPa) = 0.02039843
#
# Stress axis : x y z
#
# Youngs Moduli (GPa) = 104.48958 106.22699 67.81510
#
# Poissons Ratio (x) = 0.35137 0.02796
# Poissons Ratio (y) = 0.34563 0.19977
# Poissons Ratio (z) = 0.04308 0.31292
#
# Static dielectric constant tensor:
#      x y z
#    x 2.631030 0.073060 -0.138640 
#    y 0.073060 2.979920 -0.145000 
#    z -0.138640 -0.145000 1.808110 
# 
# From -- ./inp_files/175092.got.cif
#   From: 2010.05.17/outbox.cif.g08.bks.cpg/sg2_88_cif.got.tgz:175092.got - 2010.06.03 11:33:40.
