data_PCOD9033621
_publ_section_title
;
Structure prediction by ZEFSAII (Michael W. Deem and Ramdas Pophale) SiO2 
 PCOD9033621
Probable space group: P -1
;
_chemical_formula_sum "Si O2"
_cell_formula_units_Z 14
_cell_length_a 11.476364
_cell_length_b 9.240089
_cell_length_c 9.440187
_cell_angle_alpha 45.299778
_cell_angle_beta 67.262024
_cell_angle_gamma 85.754654
_cell_volume 625.650852
_symmetry_space_group_name_H-M "P -1"
_symmetry_group_IT_number 2
_symmetry_cell_setting 'triclinic'
loop_
_space_group_symop_operation_xyz
x,y,z
-x,-y,-z
loop_
_atom_site_type_symbol
_atom_site_label
_atom_site_fract_x
_atom_site_fract_y
_atom_site_fract_z
Si Si1 0.867058 0.225945 0.413149
Si Si2 0.431322 0.371771 0.982482
Si Si3 0.375941 0.015492 0.453965
Si Si4 0.850365 0.359250 0.639374
Si Si5 0.865028 0.752745 0.844781
Si Si6 0.674867 0.641406 0.553659
Si Si7 0.860241 0.911702 0.045612
O O1 0.835761 0.336727 0.492169
O O2 0.016716 0.324845 0.219551
O O3 0.747530 0.190036 0.382347
O O4 0.869286 0.986221 0.619957
O O5 0.423424 0.130958 0.199816
O O6 0.284356 0.383707 0.023987
O O7 0.500000 0.500000 0.000000
O O8 0.524164 0.486750 0.730605
O O9 0.315797 0.173222 0.464414
O O10 0.500000 0.000000 0.500000
O O11 0.758492 0.484451 0.665134
O O12 0.000000 0.500000 0.500000
O O13 0.822353 0.122111 0.874616
O O14 0.882626 0.790766 0.977735
O O15 0.744928 0.759770 0.299440
O O16 0.000000 0.000000 0.000000
#
# Coordination Sequence:
#
# PCOD9033621 Si02
#       7
#     2   2   2   2   2   2   2
#     4   9  20  40  69  97 133 173 224 273 338 389
#     4   9  21  40  63  94 130 177 221 266 336 391
#     4  10  22  44  69 100 134 179 226 272 336 404
#     4  11  24  41  67 102 136 175 221 280 337 394
#     4   9  19  39  68  93 129 179 221 273 325 401
#     4  11  24  43  67  95 139 174 223 273 336 399
#     4  11  22  41  66 100 134 174 221 274 341 388
#
# _framework density 22.376697
#
# number of rings (size 3 to 8) (size 9 to 14) (size 15 to 20)
#    0.000    2.000    1.429    0.857   10.000    0.571 
#    7.714    2.857    0.000    0.000    0.000    0.000 
#    0.000    0.000    0.000    0.000    0.000    0.000 
#
# Total GULP energy -78180.546582 kJ/mol
# GULP energy per Si atom -5584.324756 kJ/mol
# Density = 2.232577 g / cm^3
# Si number density = 22.376697 Si / 1000 Ang^3
#
#
#
# Elastic Constant Matrix: (Units=GPa)
#
#
# Indices 1 2 3 4 5 6 
#
# 1 167.0354 51.0871 52.3581 10.2294 -25.9111 19.5136
# 2 51.0871 77.7757 0.4702 10.8188 4.6180 -10.0647
# 3 52.3581 0.4702 134.4266 3.8327 -13.9058 -13.4545
# 4 10.2294 10.8188 3.8327 25.4023 -4.5057 4.6219
# 5 -25.9111 4.6180 -13.9058 -4.5057 43.1072 -3.4885
# 6 19.5136 -10.0647 -13.4545 4.6219 -3.4885 30.9530
#
#
#
# Elastic Compliance Matrix: (Units=1/GPa)
#
#
# Indices 1 2 3 4 5 6 
#
# 1 0.014775 -0.012878 -0.006729 0.004810 0.007272 -0.016326
# 2 -0.012878 0.026050 0.006463 -0.012004 -0.008060 0.020283
# 3 -0.006729 0.006463 0.011271 -0.003986 -0.000565 0.011774
# 4 0.004810 -0.012004 -0.003986 0.047033 0.006598 -0.014948
# 5 0.007272 -0.008060 -0.000565 0.006598 0.028517 -0.005222
# 6 -0.016326 0.020283 0.011774 -0.014948 -0.005222 0.055956
#
#
# Mechanical properties :
#
#
# Convention : Reuss Voigt Hill
#
# Bulk Modulus (GPa) = 38.74502 65.22984 51.98743
# Shear Modulus (GPa) = 22.88398 38.24729 30.56564
#
# Velocity S-wave (km/s) = 3.20139 4.13879 3.69990
# Velocity P-wave (km/s) = 5.56935 7.21481 6.44481
#
# Compressibility (1/GPa) = 0.02580977
#
# Stress axis : x y z
#
# Youngs Moduli (GPa) = 67.68064 38.38706 88.72418
#
# Poissons Ratio (x) = 0.49435 0.59700
# Poissons Ratio (y) = 0.87159 -0.57346
# Poissons Ratio (z) = 0.45541 -0.24811
#
# Static dielectric constant tensor:
#      x y z
#    x 1.820910 -0.004100 0.009400 
#    y -0.004100 1.816590 -0.031720 
#    z 0.009400 -0.031720 1.954490 
# 
# From -- ./inp_files/241904.got.cif
#   From: 2010.05.17/outbox.cif.g08.bks.cpg/sg2_121_cif.got.tgz:241904.got - 2010.06.03 11:33:40.
