data_PCOD9033747
_publ_section_title
;
Structure prediction by ZEFSAII (Michael W. Deem and Ramdas Pophale) SiO2 
 PCOD9033747
Probable space group: P -1
;
_chemical_formula_sum "Si O2"
_cell_formula_units_Z 16
_cell_length_a 14.320136
_cell_length_b 10.100933
_cell_length_c 7.816600
_cell_angle_alpha 136.703377
_cell_angle_beta 98.411427
_cell_angle_gamma 61.714501
_cell_volume 644.806718
_symmetry_space_group_name_H-M "P -1"
_symmetry_group_IT_number 2
_symmetry_cell_setting 'triclinic'
loop_
_space_group_symop_operation_xyz
x,y,z
-x,-y,-z
loop_
_atom_site_type_symbol
_atom_site_label
_atom_site_fract_x
_atom_site_fract_y
_atom_site_fract_z
Si Si1 0.000191 0.451057 0.251431
Si Si2 0.142300 0.950097 0.889894
Si Si3 0.535715 0.625565 0.260662
Si Si4 0.697769 0.100232 0.410453
Si Si5 0.793663 0.934461 0.624608
Si Si6 0.630897 0.839076 0.677907
Si Si7 0.388558 0.230192 0.908559
Si Si8 0.800426 0.507130 0.679577
O O1 0.098702 0.468868 0.208040
O O2 0.000000 0.500000 0.500000
O O3 0.883926 0.666267 0.358518
O O4 0.034860 0.188507 0.012469
O O5 0.242609 0.915137 0.762850
O O6 0.140818 0.726450 0.634472
O O7 0.164604 0.983151 0.124672
O O8 0.432473 0.702097 0.433266
O O9 0.626389 0.617706 0.408514
O O10 0.564310 0.754923 0.245645
O O11 0.500000 0.500000 0.000000
O O12 0.764464 0.084899 0.587310
O O13 0.682143 0.887457 0.235304
O O14 0.683333 0.943314 0.666472
O O15 0.720562 0.727366 0.747499
O O16 0.503219 0.052415 0.873316
O O17 0.293155 0.471758 0.193683
#
# Coordination Sequence:
#
# PCOD9033747 Si02
#       8
#     2   2   2   2   2   2   2   2
#     4  10  22  44  69  96 137 176 225 283 332 395
#     4  11  25  43  68 101 135 174 228 282 329 397
#     4  11  23  38  60 100 138 172 222 276 333 401
#     4  11  21  44  67  92 138 177 222 275 336 399
#     4  11  22  44  73  97 128 184 230 267 345 397
#     4  11  21  40  66  95 130 180 220 267 339 402
#     4  11  21  42  66  93 137 176 221 275 334 405
#     4  12  24  42  68 101 135 176 225 282 333 395
#
# _framework density 24.813635999999999
#
# number of rings (size 3 to 8) (size 9 to 14) (size 15 to 20)
#    0.000    1.000    6.250    1.875    1.750    3.500 
#    0.000    4.375    0.000    0.000    0.000    0.000 
#    0.000    0.000    0.000    0.000    0.000    0.000 
#
# Total GULP energy -89105.865905 kJ/mol
# GULP energy per Si atom -5569.116619 kJ/mol
# Density = 2.475716 g / cm^3
# Si number density = 24.813636 Si / 1000 Ang^3
#
#
#
# Elastic Constant Matrix: (Units=GPa)
#
#
# Indices 1 2 3 4 5 6 
#
# 1 85.5263 10.5077 19.1948 0.8271 -20.9641 -1.9168
# 2 10.5077 66.4561 3.5286 -5.0464 -11.6785 -6.6239
# 3 19.1948 3.5286 64.6435 10.1548 -3.0265 -2.6831
# 4 0.8271 -5.0464 10.1548 32.5651 -6.5309 -6.9091
# 5 -20.9641 -11.6785 -3.0265 -6.5309 46.7168 2.8874
# 6 -1.9168 -6.6239 -2.6831 -6.9091 2.8874 31.5221
#
#
#
# Elastic Compliance Matrix: (Units=1/GPa)
#
#
# Indices 1 2 3 4 5 6 
#
# 1 0.014240 -0.000748 -0.004222 0.002138 0.006213 0.000249
# 2 -0.000748 0.016705 -0.001054 0.004623 0.004171 0.004006
# 3 -0.004222 -0.001054 0.017624 -0.005945 -0.001841 -0.000113
# 4 0.002138 0.004623 -0.005945 0.036172 0.006295 0.007947
# 5 0.006213 0.004171 -0.001841 0.006295 0.025991 0.000097
# 6 0.000249 0.004006 -0.000113 0.007947 0.000097 0.034304
#
#
# Mechanical properties :
#
#
# Convention : Reuss Voigt Hill
#
# Bulk Modulus (GPa) = 27.38300 31.45425 29.41862
# Shear Modulus (GPa) = 29.54067 34.38712 31.96390
#
# Velocity S-wave (km/s) = 3.45411 3.72669 3.59299
# Velocity P-wave (km/s) = 5.19300 5.58761 5.39391
#
# Compressibility (1/GPa) = 0.03651901
#
# Stress axis : x y z
#
# Youngs Moduli (GPa) = 70.22671 59.86196 56.74188
#
# Poissons Ratio (x) = 0.04480 0.23956
# Poissons Ratio (y) = 0.05256 0.05982
# Poissons Ratio (z) = 0.29650 0.06311
#
# Static dielectric constant tensor:
#      x y z
#    x 2.074760 -0.061650 -0.088070 
#    y -0.061650 2.042580 0.061940 
#    z -0.088070 0.061940 2.298470 
# 
# From -- ./inp_files/200230.got.cif
#   From: 2010.05.17/outbox.cif.g08.bks.cpg/sg2_101_cif.got.tgz:200230.got - 2010.06.03 11:33:40.
