data_PCOD9033109
_publ_section_title
;
Structure prediction by ZEFSAII (Michael W. Deem and Ramdas Pophale) SiO2 
 PCOD9033109
Probable space group: P -1
;
_chemical_formula_sum "Si O2"
_cell_formula_units_Z 13
_cell_length_a 10.134344
_cell_length_b 6.718050
_cell_length_c 13.314988
_cell_angle_alpha 81.572994
_cell_angle_beta 38.272242
_cell_angle_gamma 66.274533
_cell_volume 490.590346
_symmetry_space_group_name_H-M "P -1"
_symmetry_group_IT_number 2
_symmetry_cell_setting 'triclinic'
loop_
_space_group_symop_operation_xyz
x,y,z
-x,-y,-z
loop_
_atom_site_type_symbol
_atom_site_label
_atom_site_fract_x
_atom_site_fract_y
_atom_site_fract_z
Si Si1 0.328394 0.751737 0.694865
Si Si2 0.851587 0.612918 0.183150
Si Si3 0.500000 0.000000 0.500000
Si Si4 0.130530 0.508644 0.572516
Si Si5 0.229030 0.042423 0.144200
Si Si6 0.753382 0.251355 0.021768
Si Si7 0.226365 0.647754 0.300818
O O1 0.277753 0.546984 0.711010
O O2 0.618776 0.696692 0.519633
O O3 0.268757 0.939484 0.632075
O O4 0.250604 0.798776 0.853523
O O5 0.066807 0.641219 0.109132
O O6 0.630372 0.862201 0.319618
O O7 0.000000 0.500000 0.000000
O O8 0.212700 0.632051 0.430234
O O9 0.979702 0.402720 0.617171
O O10 0.957906 0.700784 0.736690
O O11 0.198102 0.969196 0.055852
O O12 0.201982 0.876419 0.252834
O O13 0.500000 0.000000 0.000000
O O14 0.488173 0.441573 0.133913
#
# Coordination Sequence:
#
# PCOD9033109 Si02
#       7
#     2   2   1   2   2   2   2
#     4  10  25  49  69 101 138 182 232 288 349 409
#     4  10  25  48  70 101 139 181 233 292 344 411
#     4  12  26  48  74 100 138 186 240 288 350 414
#     4  10  23  43  69  95 141 179 224 286 335 413
#     4  12  24  40  67 106 136 181 226 275 348 414
#     4  10  23  46  68 100 142 178 225 291 337 411
#     4  10  22  44  65  99 139 179 227 272 344 413
#
# _framework density 26.498684999999998
#
# number of rings (size 3 to 8) (size 9 to 14) (size 15 to 20)
#    0.000    1.538    1.538    1.385    4.308    2.462 
#   13.846    0.000    0.000    0.000    0.000    0.000 
#    0.000    0.000    0.000    0.000    0.000    0.000 
#
# Total GULP energy -72526.537906 kJ/mol
# GULP energy per Si atom -5578.964454 kJ/mol
# Density = 2.643837 g / cm^3
# Si number density = 26.498685 Si / 1000 Ang^3
#
#
#
# Elastic Constant Matrix: (Units=GPa)
#
#
# Indices 1 2 3 4 5 6 
#
# 1 98.4167 19.4578 60.9764 2.7350 -0.5101 7.3239
# 2 19.4578 148.6976 100.4187 -25.3800 12.1148 13.2477
# 3 60.9764 100.4187 166.3389 16.9820 -13.7438 10.9195
# 4 2.7350 -25.3800 16.9820 78.3257 8.0390 -1.9533
# 5 -0.5101 12.1148 -13.7438 8.0390 60.1017 -4.1681
# 6 7.3239 13.2477 10.9195 -1.9533 -4.1681 43.8448
#
#
#
# Elastic Compliance Matrix: (Units=1/GPa)
#
#
# Indices 1 2 3 4 5 6 
#
# 1 0.014837 0.005358 -0.009208 0.003541 -0.003672 -0.001996
# 2 0.005358 0.018635 -0.014719 0.009846 -0.008619 -0.003241
# 3 -0.009208 -0.014719 0.019891 -0.009630 0.008825 0.001442
# 4 0.003541 0.009846 -0.009630 0.018586 -0.006711 -0.000978
# 5 -0.003672 -0.008619 0.008825 -0.006711 0.021452 0.002760
# 6 -0.001996 -0.003241 0.001442 -0.000978 0.002760 0.023980
#
#
# Mechanical properties :
#
#
# Convention : Reuss Voigt Hill
#
# Bulk Modulus (GPa) = 61.62815 86.12878 73.87847
# Shear Modulus (GPa) = 31.26413 51.96112 41.61263
#
# Velocity S-wave (km/s) = 3.43860 4.43300 3.96708
# Velocity P-wave (km/s) = 6.25083 7.66653 6.99459
#
# Compressibility (1/GPa) = 0.01622635
#
# Stress axis : x y z
#
# Youngs Moduli (GPa) = 67.39725 53.66111 50.27475
#
# Poissons Ratio (x) = -0.28751 0.46291
# Poissons Ratio (y) = -0.36111 0.73999
# Poissons Ratio (z) = 0.62057 0.78983
#
# Static dielectric constant tensor:
#      x y z
#    x 2.359080 -0.538000 0.011640 
#    y -0.538000 3.231130 -0.034890 
#    z 0.011640 -0.034890 2.150290 
# 
# From -- ./inp_files/131692.got.cif
#   From: 2010.05.17/outbox.cif.g08.bks.cpg/sg2_66_cif.got.tgz:131692.got - 2010.06.03 11:33:40.
