data_PCOD9033952
_publ_section_title
;
Structure prediction by ZEFSAII (Michael W. Deem and Ramdas Pophale) SiO2 
 PCOD9033952
Probable space group: P -1
;
_chemical_formula_sum "Si O2"
_cell_formula_units_Z 14
_cell_length_a 9.531112
_cell_length_b 14.890506
_cell_length_c 11.593260
_cell_angle_alpha 150.316958
_cell_angle_beta 120.435166
_cell_angle_gamma 48.934773
_cell_volume 605.177407
_symmetry_space_group_name_H-M "P -1"
_symmetry_group_IT_number 2
_symmetry_cell_setting 'triclinic'
loop_
_space_group_symop_operation_xyz
x,y,z
-x,-y,-z
loop_
_atom_site_type_symbol
_atom_site_label
_atom_site_fract_x
_atom_site_fract_y
_atom_site_fract_z
Si Si1 0.086828 0.280760 0.602009
Si Si2 0.333638 0.952581 0.896996
Si Si3 0.021140 0.283528 0.308515
Si Si4 0.384149 0.675562 0.809932
Si Si5 0.630443 0.181016 0.795752
Si Si6 0.764237 0.420171 0.987444
Si Si7 0.248715 0.743226 0.444378
O O1 0.085512 0.251566 0.432046
O O2 0.900667 0.299454 0.600244
O O3 0.265239 0.058306 0.471795
O O4 0.093731 0.492202 0.861786
O O5 0.418988 0.739415 0.770449
O O6 0.243020 0.940094 0.724279
O O7 0.500000 0.000000 0.000000
O O8 0.170863 0.112447 0.093108
O O9 0.000000 0.500000 0.500000
O O10 0.824323 0.288434 0.232756
O O11 0.538738 0.441248 0.647919
O O12 0.404827 0.809367 0.071538
O O13 0.762771 0.283460 0.941346
O O14 0.435743 0.355736 0.850298
O O15 0.782452 0.275461 0.724205
#
# Coordination Sequence:
#
# PCOD9033952 Si02
#       7
#     2   2   2   2   2   2   2
#     4  12  23  43  70 100 139 187 234 281 348 411
#     4  12  25  42  68 104 137 176 230 286 355 407
#     4  12  25  42  71 102 137 184 232 283 349 419
#     4  11  22  46  66  99 141 179 226 287 350 408
#     4  10  22  44  70  96 134 185 239 289 332 419
#     4  10  24  45  68 100 137 182 237 283 347 408
#     4  11  25  43  67  99 144 177 224 294 339 415
#
# _framework density 23.133711000000002
#
# number of rings (size 3 to 8) (size 9 to 14) (size 15 to 20)
#    0.000    0.857    2.857    4.286    2.000    2.857 
#    5.143    0.000    0.000    0.000    0.000    0.000 
#    0.000    0.000    0.000    0.000    0.000    0.000 
#
# Total GULP energy -78292.696409 kJ/mol
# GULP energy per Si atom -5592.335458 kJ/mol
# Density = 2.308106 g / cm^3
# Si number density = 23.133711 Si / 1000 Ang^3
#
#
#
# Elastic Constant Matrix: (Units=GPa)
#
#
# Indices 1 2 3 4 5 6 
#
# 1 123.8351 5.2365 22.2190 -14.4520 6.3928 -5.2013
# 2 5.2365 40.7427 11.4041 -10.8316 -15.3789 9.4238
# 3 22.2190 11.4041 81.2237 -23.0602 -6.8705 9.0110
# 4 -14.4520 -10.8316 -23.0602 32.6864 2.3075 0.7338
# 5 6.3928 -15.3789 -6.8705 2.3075 37.9482 -6.1298
# 6 -5.2013 9.4238 9.0110 0.7338 -6.1298 29.0938
#
#
#
# Elastic Compliance Matrix: (Units=1/GPa)
#
#
# Indices 1 2 3 4 5 6 
#
# 1 0.008961 -0.001326 -0.002076 0.002165 -0.002207 0.002155
# 2 -0.001326 0.033968 0.000589 0.010445 0.011981 -0.009161
# 3 -0.002076 0.000589 0.016731 0.011062 0.002042 -0.005593
# 4 0.002165 0.010445 0.011062 0.042825 0.002128 -0.007054
# 5 -0.002207 0.011981 0.002042 0.002128 0.032111 0.001804
# 6 0.002155 -0.009161 -0.005593 -0.007054 0.001804 0.040015
#
#
# Mechanical properties :
#
#
# Convention : Reuss Voigt Hill
#
# Bulk Modulus (GPa) = 18.50720 35.94674 27.22697
# Shear Modulus (GPa) = 25.22091 33.74181 29.48136
#
# Velocity S-wave (km/s) = 3.30544 3.82325 3.57373
# Velocity P-wave (km/s) = 4.75240 5.92132 5.36877
#
# Compressibility (1/GPa) = 0.05403302
#
# Stress axis : x y z
#
# Youngs Moduli (GPa) = 111.59525 29.43911 59.77043
#
# Poissons Ratio (x) = 0.03905 0.12409
# Poissons Ratio (y) = 0.14802 -0.03520
# Poissons Ratio (z) = 0.23168 -0.01734
#
# Static dielectric constant tensor:
#      x y z
#    x 1.838830 -0.042810 -0.008520 
#    y -0.042810 1.781400 0.067030 
#    z -0.008520 0.067030 1.948070 
# 
# From -- ./inp_files/175796.got.cif
#   From: 2010.05.17/outbox.cif.g08.bks.cpg/sg2_88_cif.got.tgz:175796.got - 2010.06.03 11:33:40.
