data_PCOD9033230
_publ_section_title
;
Structure prediction by ZEFSAII (Michael W. Deem and Ramdas Pophale) SiO2 
 PCOD9033230
Probable space group: P -1
;
_chemical_formula_sum "Si O2"
_cell_formula_units_Z 16
_cell_length_a 7.168669
_cell_length_b 6.193986
_cell_length_c 21.593946
_cell_angle_alpha 105.417438
_cell_angle_beta 49.442580
_cell_angle_gamma 121.144223
_cell_volume 619.809358
_symmetry_space_group_name_H-M "P -1"
_symmetry_group_IT_number 2
_symmetry_cell_setting 'triclinic'
loop_
_space_group_symop_operation_xyz
x,y,z
-x,-y,-z
loop_
_atom_site_type_symbol
_atom_site_label
_atom_site_fract_x
_atom_site_fract_y
_atom_site_fract_z
Si Si1 0.325610 0.632030 0.836932
Si Si2 0.581295 0.592601 0.323512
Si Si3 0.173721 0.308737 0.176793
Si Si4 0.577495 0.856154 0.099522
Si Si5 0.212991 0.891901 0.645027
Si Si6 0.083836 0.869975 0.063030
Si Si7 0.700721 0.777291 0.529878
Si Si8 0.037708 0.533155 0.420887
O O1 0.338413 0.522526 0.759507
O O2 0.576918 0.652140 0.827389
O O3 0.025664 0.417843 0.911214
O O4 0.392859 0.922617 0.843385
O O5 0.440715 0.391301 0.392359
O O6 0.366804 0.695378 0.351997
O O7 0.804558 0.849119 0.326195
O O8 0.301470 0.587335 0.139435
O O9 0.913205 0.247358 0.273171
O O10 0.104956 0.073733 0.126810
O O11 0.833750 0.815768 0.064461
O O12 0.643894 0.988640 0.027813
O O13 0.503452 0.897733 0.563300
O O14 0.018313 0.724717 0.619436
O O15 0.809624 0.614232 0.452074
O O16 0.000000 0.000000 0.500000
O O17 0.000000 0.500000 0.500000
#
# Coordination Sequence:
#
# PCOD9033230 Si02
#       8
#     2   2   2   2   2   2   2   2
#     4  11  23  41  66  98 134 179 222 270 332 395
#     4  11  24  43  66  93 133 171 217 277 331 396
#     4  11  24  40  67 100 136 173 223 274 333 392
#     4  10  24  41  68  98 138 175 224 272 327 394
#     4  12  24  44  69  95 133 176 218 277 338 391
#     4  10  22  44  66  98 135 179 220 276 328 388
#     4  11  25  43  69  95 124 171 220 273 333 401
#     4  10  23  46  65  95 130 167 217 273 330 398
#
# _framework density 25.814387
#
# number of rings (size 3 to 8) (size 9 to 14) (size 15 to 20)
#    0.000    1.250    3.750    1.125    1.750    5.500 
#    4.500    0.000    0.000    0.000    0.000    0.000 
#    0.000    0.000    0.000    0.000    0.000    0.000 
#
# Total GULP energy -89392.264540 kJ/mol
# GULP energy per Si atom -5587.016534 kJ/mol
# Density = 2.575563 g / cm^3
# Si number density = 25.814387 Si / 1000 Ang^3
#
#
#
# Elastic Constant Matrix: (Units=GPa)
#
#
# Indices 1 2 3 4 5 6 
#
# 1 64.2820 -0.9756 8.1903 -1.8425 9.7047 -3.2080
# 2 -0.9756 137.5472 40.5959 5.0516 4.7088 24.2347
# 3 8.1903 40.5959 107.9654 6.1030 5.1023 9.1066
# 4 -1.8425 5.0516 6.1030 57.2832 11.3950 6.4977
# 5 9.7047 4.7088 5.1023 11.3950 30.8269 9.9976
# 6 -3.2080 24.2347 9.1066 6.4977 9.9976 30.7351
#
#
#
# Elastic Compliance Matrix: (Units=1/GPa)
#
#
# Indices 1 2 3 4 5 6 
#
# 1 0.017060 -0.000019 -0.001396 0.001637 -0.007095 0.004171
# 2 -0.000019 0.009320 -0.002984 0.000018 0.001306 -0.006896
# 3 -0.001396 -0.002984 0.010606 -0.000765 -0.000365 -0.000655
# 4 0.001637 0.000018 -0.000765 0.019143 -0.007020 -0.001380
# 5 -0.007095 0.001306 -0.000365 -0.007020 0.041572 -0.013701
# 6 0.004171 -0.006896 -0.000655 -0.001380 -0.013701 0.043351
#
#
# Mechanical properties :
#
#
# Convention : Reuss Voigt Hill
#
# Bulk Modulus (GPa) = 35.47638 45.04619 40.26129
# Shear Modulus (GPa) = 31.39781 41.23466 36.31624
#
# Velocity S-wave (km/s) = 3.49132 4.00102 3.75483
# Velocity P-wave (km/s) = 5.47952 6.23155 5.86759
#
# Compressibility (1/GPa) = 0.02818777
#
# Stress axis : x y z
#
# Youngs Moduli (GPa) = 58.61588 107.29109 94.28682
#
# Poissons Ratio (x) = 0.00205 0.13163
# Poissons Ratio (y) = 0.00112 0.28137
# Poissons Ratio (z) = 0.08183 0.32018
#
# Static dielectric constant tensor:
#      x y z
#    x 2.134910 -0.055100 -0.050110 
#    y -0.055100 2.193900 -0.004010 
#    z -0.050110 -0.004010 2.011770 
# 
# From -- ./inp_files/605889.got.cif
#   From: 2010.05.17/outbox.cif.g08.bks.cpg/sg2_303_cif.got.tgz:605889.got - 2010.06.03 11:33:40.
