data_PCOD9033940
_publ_section_title
;
Structure prediction by ZEFSAII (Michael W. Deem and Ramdas Pophale) SiO2 
 PCOD9033940
Probable space group: P -1
;
_chemical_formula_sum "Si O2"
_cell_formula_units_Z 10
_cell_length_a 4.962163
_cell_length_b 11.643599
_cell_length_c 8.657113
_cell_angle_alpha 45.554457
_cell_angle_beta 85.012817
_cell_angle_gamma 94.397866
_cell_volume 349.021936
_symmetry_space_group_name_H-M "P -1"
_symmetry_group_IT_number 2
_symmetry_cell_setting 'triclinic'
loop_
_space_group_symop_operation_xyz
x,y,z
-x,-y,-z
loop_
_atom_site_type_symbol
_atom_site_label
_atom_site_fract_x
_atom_site_fract_y
_atom_site_fract_z
Si Si1 0.237709 0.646349 0.903559
Si Si2 0.272692 0.993194 0.653174
Si Si3 0.228914 0.948232 0.212360
Si Si4 0.863361 0.713077 0.256206
Si Si5 0.448616 0.541104 0.699923
O O1 0.131899 0.802619 0.820960
O O2 0.405022 0.672409 0.708640
O O3 0.422633 0.588182 0.082067
O O4 0.000000 0.500000 0.000000
O O5 0.011100 0.078057 0.617001
O O6 0.466539 0.024556 0.762879
O O7 0.500000 0.000000 0.500000
O O8 0.149978 0.789805 0.254827
O O9 0.204859 0.120513 0.970911
O O10 0.657803 0.631049 0.478340
O O11 0.817062 0.565320 0.273255
#
# Coordination Sequence:
#
# PCOD9033940 Si02
#       5
#     2   2   2   2   2
#     4  11  24  41  68  98 134 177 230 280 331 402
#     4  12  26  45  72 101 137 179 227 279 338 398
#     4  11  25  46  69 102 135 179 226 280 332 407
#     4  10  22  44  70  95 138 179 223 278 342 399
#     4  10  22  45  65  98 134 178 226 277 339 399
#
# _framework density 28.651495000000001
#
# number of rings (size 3 to 8) (size 9 to 14) (size 15 to 20)
#    0.000    1.200    2.000    3.000    5.600    3.200 
#    7.200    3.000    0.000    0.000    0.000    0.000 
#    0.000    0.000    0.000    0.000    0.000    0.000 
#
# Total GULP energy -56069.593817 kJ/mol
# GULP energy per Si atom -5606.959382 kJ/mol
# Density = 2.858628 g / cm^3
# Si number density = 28.651495 Si / 1000 Ang^3
#
#
#
# Elastic Constant Matrix: (Units=GPa)
#
#
# Indices 1 2 3 4 5 6 
#
# 1 115.8899 55.1273 16.5165 14.0803 -11.5494 13.1112
# 2 55.1273 216.9989 36.1949 -7.4010 12.8804 25.8393
# 3 16.5165 36.1949 126.1986 14.4431 -28.9721 -2.0137
# 4 14.0803 -7.4010 14.4431 40.5480 -8.0924 -16.3205
# 5 -11.5494 12.8804 -28.9721 -8.0924 51.7074 0.3940
# 6 13.1112 25.8393 -2.0137 -16.3205 0.3940 52.5348
#
#
#
# Elastic Compliance Matrix: (Units=1/GPa)
#
#
# Indices 1 2 3 4 5 6 
#
# 1 0.011192 -0.002922 0.000558 -0.005278 0.002737 -0.002995
# 2 -0.002922 0.006219 -0.002361 0.001572 -0.003264 -0.001907
# 3 0.000558 -0.002361 0.010243 -0.002886 0.005996 0.000473
# 4 -0.005278 0.001572 -0.002886 0.032388 0.001802 0.010482
# 5 0.002737 -0.003264 0.005996 0.001802 0.024394 0.001529
# 6 -0.002995 -0.001907 0.000473 0.010482 0.001529 0.023983
#
#
# Mechanical properties :
#
#
# Convention : Reuss Voigt Hill
#
# Bulk Modulus (GPa) = 54.93464 74.97386 64.95425
# Shear Modulus (GPa) = 40.34282 52.37463 46.35872
#
# Velocity S-wave (km/s) = 3.75647 4.28014 4.02683
# Velocity P-wave (km/s) = 6.16683 7.11691 6.65884
#
# Compressibility (1/GPa) = 0.01820345
#
# Stress axis : x y z
#
# Youngs Moduli (GPa) = 89.34731 160.79849 97.63156
#
# Poissons Ratio (x) = 0.46990 -0.05448
# Poissons Ratio (y) = 0.26110 0.23050
# Poissons Ratio (z) = -0.04986 0.37963
#
# Static dielectric constant tensor:
#      x y z
#    x 2.250130 -0.062650 -0.172450 
#    y -0.062650 2.198990 0.133190 
#    z -0.172450 0.133190 2.475550 
# 
# From -- ./inp_files/15225.got.cif
#   From: 2010.05.17/outbox.cif.g08.bks.cpg/sg2_8_cif.got.tgz:15225.got - 2010.06.03 11:33:40.
