data_PCOD9033546
_publ_section_title
;
Structure prediction by ZEFSAII (Michael W. Deem and Ramdas Pophale) SiO2 
 PCOD9033546
Probable space group: P -1
;
_chemical_formula_sum "Si O2"
_cell_formula_units_Z 16
_cell_length_a 5.962102
_cell_length_b 14.495323
_cell_length_c 15.500498
_cell_angle_alpha 142.885964
_cell_angle_beta 56.776052
_cell_angle_gamma 109.437651
_cell_volume 661.635502
_symmetry_space_group_name_H-M "P -1"
_symmetry_group_IT_number 2
_symmetry_cell_setting 'triclinic'
loop_
_space_group_symop_operation_xyz
x,y,z
-x,-y,-z
loop_
_atom_site_type_symbol
_atom_site_label
_atom_site_fract_x
_atom_site_fract_y
_atom_site_fract_z
Si Si1 0.457849 0.537715 0.273508
Si Si2 0.828653 0.216669 0.620449
Si Si3 0.944670 0.506346 0.915855
Si Si4 0.912461 0.989424 0.729245
Si Si5 0.325993 0.212926 0.025731
Si Si6 0.629751 0.837561 0.213674
Si Si7 0.328447 0.476465 0.433255
Si Si8 0.255937 0.146396 0.169104
O O1 0.375199 0.682606 0.333924
O O2 0.403703 0.578662 0.415117
O O3 0.775359 0.455790 0.148983
O O4 0.303741 0.400284 0.173108
O O5 0.917504 0.345358 0.758839
O O6 0.662881 0.119891 0.645525
O O7 0.077557 0.121081 0.439338
O O8 0.691844 0.648691 0.063523
O O9 0.000000 0.500000 0.000000
O O10 0.927629 0.884173 0.734263
O O11 0.643831 0.123694 0.900816
O O12 0.161570 0.073989 0.718379
O O13 0.281606 0.145088 0.891343
O O14 0.143865 0.175393 0.116286
O O15 0.500000 0.500000 0.500000
O O16 0.401344 0.291228 0.264249
O O17 0.000000 0.500000 0.500000
O O18 0.500000 0.000000 0.000000
#
# Coordination Sequence:
#
# PCOD9033546 Si02
#       8
#     2   2   2   2   2   2   2   2
#     4  11  23  42  73 100 134 183 233 290 359 428
#     4  12  26  42  68 104 138 174 238 298 363 422
#     4  12  24  43  71  97 132 184 237 290 349 436
#     4  11  25  44  65  97 141 175 232 292 362 423
#     4  10  22  44  68  96 131 182 232 287 351 433
#     4  12  24  42  69  96 137 183 236 285 357 441
#     4  11  26  47  75 110 149 187 243 308 371 430
#     4   9  22  48  68 100 138 190 245 290 367 440
#
# _framework density 24.182499
#
# number of rings (size 3 to 8) (size 9 to 14) (size 15 to 20)
#    0.000    1.000    3.750    2.250    3.500    2.000 
#    6.750    0.000    0.000    0.000    0.000    0.000 
#    0.000    0.000    0.000    0.000    0.000    0.000 
#
# Total GULP energy -89169.386056 kJ/mol
# GULP energy per Si atom -5573.086629 kJ/mol
# Density = 2.412746 g / cm^3
# Si number density = 24.182499 Si / 1000 Ang^3
#
#
#
# Elastic Constant Matrix: (Units=GPa)
#
#
# Indices 1 2 3 4 5 6 
#
# 1 57.0000 11.2461 30.4266 -9.5679 22.4287 -11.5334
# 2 11.2461 68.0190 40.3380 -15.4300 17.3893 -9.2819
# 3 30.4266 40.3380 109.1258 -19.6715 22.5232 -8.7088
# 4 -9.5679 -15.4300 -19.6715 48.6415 -7.3117 6.4440
# 5 22.4287 17.3893 22.5232 -7.3117 38.2138 -3.1386
# 6 -11.5334 -9.2819 -8.7088 6.4440 -3.1386 26.7397
#
#
#
# Elastic Compliance Matrix: (Units=1/GPa)
#
#
# Indices 1 2 3 4 5 6 
#
# 1 0.026926 0.003527 -0.005097 0.001099 -0.013427 0.009337
# 2 0.003527 0.021070 -0.006382 0.003072 -0.006881 0.005209
# 3 -0.005097 -0.006382 0.013673 0.002332 -0.001777 -0.000731
# 4 0.001099 0.003072 0.002332 0.023232 0.000764 -0.003209
# 5 -0.013427 -0.006881 -0.001777 0.000764 0.038006 -0.004482
# 6 0.009337 0.005209 -0.000731 -0.003209 -0.004482 0.043242
#
#
# Mechanical properties :
#
#
# Convention : Reuss Voigt Hill
#
# Bulk Modulus (GPa) = 21.85092 44.24070 33.04581
# Shear Modulus (GPa) = 25.34104 32.86129 29.10117
#
# Velocity S-wave (km/s) = 3.24065 3.69031 3.47277
# Velocity P-wave (km/s) = 4.80186 6.04087 5.45665
#
# Compressibility (1/GPa) = 0.04576466
#
# Stress axis : x y z
#
# Youngs Moduli (GPa) = 37.13921 47.45994 73.13810
#
# Poissons Ratio (x) = -0.16738 0.37275
# Poissons Ratio (y) = -0.13098 0.46679
# Poissons Ratio (z) = 0.18928 0.30290
#
# Static dielectric constant tensor:
#      x y z
#    x 1.981540 -0.100980 -0.013240 
#    y -0.100980 1.975740 -0.035420 
#    z -0.013240 -0.035420 1.911830 
# 
# From -- ./inp_files/367885.got.cif
#   From: 2010.05.17/outbox.cif.g08.bks.cpg/sg2_184_cif.got.tgz:367885.got - 2010.06.03 11:33:40.
