data_PCOD9033638
_publ_section_title
;
Structure prediction by ZEFSAII (Michael W. Deem and Ramdas Pophale) SiO2 
 PCOD9033638
Probable space group: P -1
;
_chemical_formula_sum "Si O2"
_cell_formula_units_Z 14
_cell_length_a 12.389803
_cell_length_b 6.357528
_cell_length_c 15.379853
_cell_angle_alpha 99.641764
_cell_angle_beta 41.003628
_cell_angle_gamma 96.129127
_cell_volume 783.250875
_symmetry_space_group_name_H-M "P -1"
_symmetry_group_IT_number 2
_symmetry_cell_setting 'triclinic'
loop_
_space_group_symop_operation_xyz
x,y,z
-x,-y,-z
loop_
_atom_site_type_symbol
_atom_site_label
_atom_site_fract_x
_atom_site_fract_y
_atom_site_fract_z
Si Si1 0.557964 0.460629 0.102958
Si Si2 0.341744 0.094602 0.279486
Si Si3 0.708379 0.271181 0.832625
Si Si4 0.426053 0.843258 0.605997
Si Si5 0.336779 0.534724 0.500881
Si Si6 0.052925 0.370150 0.544543
Si Si7 0.443267 0.194678 0.744165
O O1 0.458899 0.293537 0.209336
O O2 0.418904 0.582220 0.136953
O O3 0.640479 0.636771 0.126364
O O4 0.678036 0.335458 0.954954
O O5 0.165745 0.173398 0.427343
O O6 0.329091 0.971549 0.187092
O O7 0.421061 0.931279 0.288853
O O8 0.891032 0.310458 0.690747
O O9 0.312745 0.678645 0.612115
O O10 0.573341 0.690560 0.544241
O O11 0.500000 0.000000 0.500000
O O12 0.353893 0.005242 0.734337
O O13 0.173053 0.498790 0.543517
O O14 0.463381 0.662007 0.372682
O O15 0.000000 0.500000 0.500000
#
# Coordination Sequence:
#
# PCOD9033638 Si02
#       7
#     2   2   2   2   2   2   2
#     4  10  19  35  49  73 107 144 184 216 250 319
#     4  11  19  34  53  74 106 143 181 213 264 316
#     4  10  22  32  49  74 108 146 179 215 261 313
#     4   9  18  32  54  80 106 138 175 227 264 308
#     4  10  19  33  52  82 111 133 178 223 266 310
#     4  12  20  35  53  80 114 142 169 222 269 316
#     4  10  17  32  56  78 103 136 180 220 264 308
#
# _framework density 17.874223000000001
#
# number of rings (size 3 to 8) (size 9 to 14) (size 15 to 20)
#    0.000    1.714    4.286    1.714    0.000    0.000 
#    0.000    0.000    0.000    0.857    0.000   14.000 
#    0.000    0.000    0.000    0.000    0.000    0.000 
#
# Total GULP energy -78005.747799 kJ/mol
# GULP energy per Si atom -5571.839129 kJ/mol
# Density = 1.783354 g / cm^3
# Si number density = 17.874223 Si / 1000 Ang^3
#
#
#
# Elastic Constant Matrix: (Units=GPa)
#
#
# Indices 1 2 3 4 5 6 
#
# 1 92.7232 35.6351 16.6287 14.8026 17.8825 23.4006
# 2 35.6351 85.5203 26.1434 17.3340 13.4144 22.4812
# 3 16.6287 26.1434 85.0453 23.9325 16.3185 16.6472
# 4 14.8026 17.3340 23.9325 27.8306 9.9115 17.9046
# 5 17.8825 13.4144 16.3185 9.9115 21.9410 9.1468
# 6 23.4006 22.4812 16.6472 17.9046 9.1468 37.4558
#
#
#
# Elastic Compliance Matrix: (Units=1/GPa)
#
#
# Indices 1 2 3 4 5 6 
#
# 1 0.015084 -0.003810 0.000871 0.000154 -0.008366 -0.005554
# 2 -0.003810 0.015959 -0.002216 -0.002318 -0.002035 -0.004608
# 3 0.000871 -0.002216 0.016665 -0.011253 -0.006846 0.000430
# 4 0.000154 -0.002318 -0.011253 0.064978 -0.010430 -0.022218
# 5 -0.008366 -0.002035 -0.006846 -0.010430 0.063914 -0.001132
# 6 -0.005554 -0.004608 0.000430 -0.022218 -0.001132 0.043640
#
#
# Mechanical properties :
#
#
# Convention : Reuss Voigt Hill
#
# Bulk Modulus (GPa) = 26.73974 46.67812 36.70893
# Shear Modulus (GPa) = 20.57482 29.77093 25.17287
#
# Velocity S-wave (km/s) = 3.39645 4.08558 3.75685
# Velocity P-wave (km/s) = 5.51122 6.95898 6.27698
#
# Compressibility (1/GPa) = 0.03739752
#
# Stress axis : x y z
#
# Youngs Moduli (GPa) = 66.29752 62.66194 60.00471
#
# Poissons Ratio (x) = 0.23876 -0.05227
# Poissons Ratio (y) = 0.25261 0.13297
# Poissons Ratio (z) = -0.05776 0.13885
#
# Static dielectric constant tensor:
#      x y z
#    x 1.643350 0.044130 0.053580 
#    y 0.044130 1.647380 0.031690 
#    z 0.053580 0.031690 1.593170 
# 
# From -- ./inp_files/37221.got.cif
#   From: 2010.05.17/outbox.cif.g08.bks.cpg/sg2_19_cif.got.tgz:37221.got - 2010.06.03 11:33:40.
