data_PCOD9033939
_publ_section_title
;
Structure prediction by ZEFSAII (Michael W. Deem and Ramdas Pophale) SiO2 
 PCOD9033939
Probable space group: P -1
;
_chemical_formula_sum "Si O2"
_cell_formula_units_Z 16
_cell_length_a 11.670249
_cell_length_b 15.040565
_cell_length_c 11.370322
_cell_angle_alpha 150.246307
_cell_angle_beta 79.301400
_cell_angle_gamma 118.548313
_cell_volume 740.008921
_symmetry_space_group_name_H-M "P -1"
_symmetry_group_IT_number 2
_symmetry_cell_setting 'triclinic'
loop_
_space_group_symop_operation_xyz
x,y,z
-x,-y,-z
loop_
_atom_site_type_symbol
_atom_site_label
_atom_site_fract_x
_atom_site_fract_y
_atom_site_fract_z
Si Si1 0.181971 0.849804 0.191073
Si Si2 0.202291 0.347406 0.176194
Si Si3 0.631466 0.099159 0.183506
Si Si4 0.608485 0.798177 0.043228
Si Si5 0.089248 0.751207 0.830697
Si Si6 0.853895 0.652305 0.077199
Si Si7 0.320144 0.852711 0.388452
Si Si8 0.383758 0.379735 0.772440
O O1 0.235527 0.760313 0.173359
O O2 0.034094 0.798069 0.218410
O O3 0.329237 0.125198 0.464180
O O4 0.126654 0.741345 0.947876
O O5 0.292191 0.627849 0.494767
O O6 0.031367 0.206194 0.097416
O O7 0.294059 0.264986 0.106325
O O8 0.180844 0.295081 0.981003
O O9 0.755100 0.089471 0.088365
O O10 0.576862 0.933978 0.118810
O O11 0.500000 0.000000 0.000000
O O12 0.692628 0.972219 0.340014
O O13 0.461494 0.555070 0.849493
O O14 0.000000 0.500000 0.500000
O O15 0.771140 0.676033 0.223183
O O16 0.762713 0.374036 0.775275
O O17 0.500000 0.000000 0.500000
O O18 0.500000 0.500000 0.000000
#
# Coordination Sequence:
#
# PCOD9033939 Si02
#       8
#     2   2   2   2   2   2   2   2
#     4  11  24  40  69  98 140 185 234 290 354 419
#     4  10  22  44  70  95 137 181 228 293 351 417
#     4  11  26  44  71  96 136 184 241 295 346 411
#     4  12  25  41  72 104 138 183 236 280 363 415
#     4   9  23  47  69  97 134 190 235 292 350 410
#     4  11  21  40  65  98 143 182 222 283 354 427
#     4  12  23  40  68 105 143 185 229 287 360 428
#     4  12  22  39  64 102 142 177 226 283 354 427
#
# _framework density 21.621359000000002
#
# number of rings (size 3 to 8) (size 9 to 14) (size 15 to 20)
#    0.000    1.000    5.000    0.750    3.500    2.000 
#    0.000    0.000    5.500    0.000    0.000    0.000 
#    0.000    0.000    0.000    0.000    0.000    0.000 
#
# Total GULP energy -89331.860906 kJ/mol
# GULP energy per Si atom -5583.241307 kJ/mol
# Density = 2.157215 g / cm^3
# Si number density = 21.621359 Si / 1000 Ang^3
#
#
#
# Elastic Constant Matrix: (Units=GPa)
#
#
# Indices 1 2 3 4 5 6 
#
# 1 87.4746 40.2379 43.9698 0.1286 3.7606 -1.8679
# 2 40.2379 82.3946 24.9338 3.7475 7.8637 4.4662
# 3 43.9698 24.9338 66.0834 3.1565 4.6157 -2.8223
# 4 0.1286 3.7475 3.1565 36.9175 -1.3377 2.1171
# 5 3.7606 7.8637 4.6157 -1.3377 38.6529 -3.9212
# 6 -1.8679 4.4662 -2.8223 2.1171 -3.9212 36.6108
#
#
#
# Elastic Compliance Matrix: (Units=1/GPa)
#
#
# Indices 1 2 3 4 5 6 
#
# 1 0.019921 -0.006655 -0.010833 0.001506 0.000863 0.000998
# 2 -0.006655 0.016346 -0.001588 -0.001449 -0.002810 -0.002673
# 3 -0.010833 -0.001588 0.023182 -0.001911 -0.001316 0.001398
# 4 0.001506 -0.001449 -0.001911 0.027514 0.001191 -0.001357
# 5 0.000863 -0.002810 -0.001316 0.001191 0.026871 0.003095
# 6 0.000998 -0.002673 0.001398 -0.001357 0.003095 0.028209
#
#
# Mechanical properties :
#
#
# Convention : Reuss Voigt Hill
#
# Bulk Modulus (GPa) = 46.95584 50.47063 48.71324
# Shear Modulus (GPa) = 26.69588 30.89031 28.79310
#
# Velocity S-wave (km/s) = 3.51764 3.78391 3.65320
# Velocity P-wave (km/s) = 6.18570 6.51799 6.35402
#
# Compressibility (1/GPa) = 0.02129660
#
# Stress axis : x y z
#
# Youngs Moduli (GPa) = 50.19952 61.17575 43.13604
#
# Poissons Ratio (x) = 0.40713 0.46729
# Poissons Ratio (y) = 0.33408 0.06851
# Poissons Ratio (z) = 0.54381 0.09716
#
# Static dielectric constant tensor:
#      x y z
#    x 1.829900 0.033450 -0.040200 
#    y 0.033450 1.782080 0.005030 
#    z -0.040200 0.005030 1.793500 
# 
# From -- ./inp_files/434362.got.cif
#   From: 2010.05.17/outbox.cif.g08.bks.cpg/sg2_218_cif.got.tgz:434362.got - 2010.06.03 11:33:40.
