data_PCOD9033837
_publ_section_title
;
Structure prediction by ZEFSAII (Michael W. Deem and Ramdas Pophale) SiO2 
 PCOD9033837
Probable space group: P -1
;
_chemical_formula_sum "Si O2"
_cell_formula_units_Z 16
_cell_length_a 12.062205
_cell_length_b 9.317458
_cell_length_c 14.341000
_cell_angle_alpha 110.894236
_cell_angle_beta 110.232480
_cell_angle_gamma 29.919524
_cell_volume 748.723649
_symmetry_space_group_name_H-M "P -1"
_symmetry_group_IT_number 2
_symmetry_cell_setting 'triclinic'
loop_
_space_group_symop_operation_xyz
x,y,z
-x,-y,-z
loop_
_atom_site_type_symbol
_atom_site_label
_atom_site_fract_x
_atom_site_fract_y
_atom_site_fract_z
Si Si1 0.547990 0.580590 0.287801
Si Si2 0.070151 0.145691 0.032785
Si Si3 0.301148 0.639490 0.099045
Si Si4 0.703656 0.865142 0.572333
Si Si5 0.257676 0.772239 0.552823
Si Si6 0.576376 0.050737 0.966958
Si Si7 0.120636 0.260112 0.605763
Si Si8 0.734422 0.600949 0.206587
O O1 0.405159 0.596272 0.211554
O O2 0.681720 0.389549 0.374745
O O3 0.705681 0.479381 0.231137
O O4 0.378649 0.905464 0.335827
O O5 0.918034 0.366147 0.126331
O O6 0.256956 0.829856 0.060094
O O7 0.167570 0.187593 0.022016
O O8 0.933256 0.192091 0.931319
O O9 0.465411 0.329251 0.036886
O O10 0.828471 0.798804 0.503793
O O11 0.855743 0.577992 0.606021
O O12 0.500000 0.000000 0.500000
O O13 0.500000 0.500000 0.500000
O O14 0.216505 0.997958 0.613207
O O15 0.000000 0.000000 0.500000
O O16 0.485997 0.122160 0.853338
O O17 0.500000 0.000000 0.000000
O O18 0.215369 0.309780 0.692301
#
# Coordination Sequence:
#
# PCOD9033837 Si02
#       8
#     2   2   2   2   2   2   2   2
#     4  12  24  45  74 108 144 194 255 302 366 453
#     4  10  22  44  70 102 138 179 238 301 364 428
#     4  10  23  40  70 102 137 184 237 297 357 442
#     4  11  22  43  73 101 141 186 242 302 364 436
#     4  12  29  51  71 108 157 197 247 320 382 436
#     4  11  25  46  67  98 146 177 226 298 367 434
#     4  11  25  42  71 106 140 193 241 302 373 437
#     4  11  25  41  71 104 132 186 244 288 355 452
#
# _framework density 21.369700999999999
#
# number of rings (size 3 to 8) (size 9 to 14) (size 15 to 20)
#    0.000    1.000    3.750    1.875    7.000    3.000 
#    0.000    1.250    0.000    0.000    0.000    0.000 
#    0.000    0.000    0.000    0.000    0.000    0.000 
#
# Total GULP energy -89274.241385 kJ/mol
# GULP energy per Si atom -5579.640087 kJ/mol
# Density = 2.132106 g / cm^3
# Si number density = 21.369701 Si / 1000 Ang^3
#
#
#
# Elastic Constant Matrix: (Units=GPa)
#
#
# Indices 1 2 3 4 5 6 
#
# 1 131.2397 38.2150 38.8921 -8.4161 -14.5730 -7.9296
# 2 38.2150 108.9152 33.2012 -0.3729 2.4055 3.4707
# 3 38.8921 33.2012 90.5015 -5.2360 15.4950 -13.6238
# 4 -8.4161 -0.3729 -5.2360 39.2202 4.7955 3.4071
# 5 -14.5730 2.4055 15.4950 4.7955 31.0211 -4.6928
# 6 -7.9296 3.4707 -13.6238 3.4071 -4.6928 24.5878
#
#
#
# Elastic Compliance Matrix: (Units=1/GPa)
#
#
# Indices 1 2 3 4 5 6 
#
# 1 0.010836 -0.002664 -0.004593 0.000475 0.007938 0.002775
# 2 -0.002664 0.011371 -0.003572 -0.000424 -0.000975 -0.004571
# 3 -0.004593 -0.003572 0.017068 0.001897 -0.009738 0.006359
# 4 0.000475 -0.000424 0.001897 0.026805 -0.005361 -0.003473
# 5 0.007938 -0.000975 -0.009738 -0.005361 0.042670 0.006189
# 6 0.002775 -0.004571 0.006359 -0.003473 0.006189 0.047396
#
#
# Mechanical properties :
#
#
# Convention : Reuss Voigt Hill
#
# Bulk Modulus (GPa) = 56.76689 61.25253 59.00971
# Shear Modulus (GPa) = 27.22154 33.65569 30.43861
#
# Velocity S-wave (km/s) = 3.57296 3.97284 3.77819
# Velocity P-wave (km/s) = 6.60630 7.05479 6.83423
#
# Compressibility (1/GPa) = 0.01761590
#
# Stress axis : x y z
#
# Youngs Moduli (GPa) = 92.28430 87.94376 58.58838
#
# Poissons Ratio (x) = 0.23428 0.26911
# Poissons Ratio (y) = 0.24584 0.20930
# Poissons Ratio (z) = 0.42388 0.31417
#
# Static dielectric constant tensor:
#      x y z
#    x 1.909320 -0.099000 -0.020910 
#    y -0.099000 1.846750 -0.004430 
#    z -0.020910 -0.004430 1.772780 
# 
# From -- ./inp_files/515944.got.cif
#   From: 2010.05.17/outbox.cif.g08.bks.cpg/sg2_258_cif.got.tgz:515944.got - 2010.06.03 11:33:40.
