data_PCOD9033870
_publ_section_title
;
Structure prediction by ZEFSAII (Michael W. Deem and Ramdas Pophale) SiO2 
 PCOD9033870
Probable space group: P -1
;
_chemical_formula_sum "Si O2"
_cell_formula_units_Z 16
_cell_length_a 11.675486
_cell_length_b 8.043976
_cell_length_c 15.668079
_cell_angle_alpha 117.130988
_cell_angle_beta 59.073887
_cell_angle_gamma 67.520312
_cell_volume 662.168176
_symmetry_space_group_name_H-M "P -1"
_symmetry_group_IT_number 2
_symmetry_cell_setting 'triclinic'
loop_
_space_group_symop_operation_xyz
x,y,z
-x,-y,-z
loop_
_atom_site_type_symbol
_atom_site_label
_atom_site_fract_x
_atom_site_fract_y
_atom_site_fract_z
Si Si1 0.592594 0.379660 0.724292
Si Si2 0.292988 0.391368 0.173475
Si Si3 0.282344 0.515760 0.576140
Si Si4 0.919409 0.541376 0.944682
Si Si5 0.082977 0.059656 0.047747
Si Si6 0.489315 0.245397 0.896819
Si Si7 0.032239 0.396190 0.367982
Si Si8 0.317908 0.857960 0.549524
O O1 0.718539 0.431008 0.710506
O O2 0.550773 0.301613 0.805698
O O3 0.677121 0.168900 0.560554
O O4 0.345650 0.734055 0.879923
O O5 0.085982 0.491826 0.299377
O O6 0.316352 0.477208 0.096133
O O7 0.500000 0.000000 0.000000
O O8 0.353653 0.606350 0.510940
O O9 0.472356 0.266776 0.516913
O O10 0.052048 0.823847 0.786866
O O11 0.196894 0.445717 0.534114
O O12 0.953107 0.691175 0.912823
O O13 0.093132 0.195402 0.757106
O O14 0.000000 0.500000 0.000000
O O15 0.658299 0.763388 0.088399
O O16 0.000000 0.000000 0.000000
O O17 0.725779 0.979336 0.797992
O O18 0.000000 0.500000 0.500000
#
# Coordination Sequence:
#
# PCOD9033870 Si02
#       8
#     2   2   2   2   2   2   2   2
#     4  12  24  45  76 108 150 194 253 309 377 443
#     4  10  22  44  70 104 145 196 241 296 365 449
#     4  11  24  46  73 104 152 194 246 300 386 441
#     4  12  28  46  74 107 149 193 250 309 377 456
#     4  12  23  45  70 103 143 197 240 295 379 450
#     4  11  25  45  71 111 143 193 248 300 378 450
#     4  11  24  44  73 108 145 194 247 307 370 438
#     4  11  27  46  73 112 147 195 252 316 372 445
#
# _framework density 24.163046999999999
#
# number of rings (size 3 to 8) (size 9 to 14) (size 15 to 20)
#    0.000    0.750    1.250    7.125    3.500    3.500 
#    0.000    1.875    0.000    0.000    0.000    0.000 
#    0.000    0.000    0.000    0.000    0.000    0.000 
#
# Total GULP energy -89319.638736 kJ/mol
# GULP energy per Si atom -5582.477421 kJ/mol
# Density = 2.410805 g / cm^3
# Si number density = 24.163047 Si / 1000 Ang^3
#
#
#
# Elastic Constant Matrix: (Units=GPa)
#
#
# Indices 1 2 3 4 5 6 
#
# 1 159.0702 48.0717 27.4453 -2.0529 -14.7057 -17.2871
# 2 48.0717 107.5867 31.2071 -21.9728 3.2080 -5.2895
# 3 27.4453 31.2071 86.2025 -7.4346 11.2233 -12.6697
# 4 -2.0529 -21.9728 -7.4346 41.8747 -11.0198 -4.4320
# 5 -14.7057 3.2080 11.2233 -11.0198 36.7106 -14.2522
# 6 -17.2871 -5.2895 -12.6697 -4.4320 -14.2522 31.1380
#
#
#
# Elastic Compliance Matrix: (Units=1/GPa)
#
#
# Indices 1 2 3 4 5 6 
#
# 1 0.009072 -0.003201 -0.001502 0.001338 0.007729 0.007609
# 2 -0.003201 0.012905 -0.003146 0.006220 0.000519 0.000258
# 3 -0.001502 -0.003146 0.014097 0.000148 -0.003512 0.002781
# 4 0.001338 0.006220 0.000148 0.032563 0.014889 0.013309
# 5 0.007729 0.000519 -0.003512 0.014889 0.045971 0.026110
# 6 0.007609 0.000258 0.002781 0.013309 0.026110 0.051360
#
#
# Mechanical properties :
#
#
# Convention : Reuss Voigt Hill
#
# Bulk Modulus (GPa) = 49.07814 62.92308 56.00061
# Shear Modulus (GPa) = 26.53114 38.35369 32.44242
#
# Velocity S-wave (km/s) = 3.31721 3.98840 3.66819
# Velocity P-wave (km/s) = 5.91838 6.87803 6.41617
#
# Compressibility (1/GPa) = 0.02037567
#
# Stress axis : x y z
#
# Youngs Moduli (GPa) = 110.23284 77.48841 70.93946
#
# Poissons Ratio (x) = 0.24803 0.10655
# Poissons Ratio (y) = 0.35284 0.22318
# Poissons Ratio (z) = 0.16556 0.24378
#
# Static dielectric constant tensor:
#      x y z
#    x 1.896790 -0.066720 -0.080390 
#    y -0.066720 1.933470 -0.090730 
#    z -0.080390 -0.090730 1.632830 
# 
# From -- ./inp_files/515905.got.cif
#   From: 2010.05.17/outbox.cif.g08.bks.cpg/sg2_258_cif.got.tgz:515905.got - 2010.06.03 11:33:40.
