data_PCOD9033957
_publ_section_title
;
Structure prediction by ZEFSAII (Michael W. Deem and Ramdas Pophale) SiO2 
 PCOD9033957
Probable space group: P -1
;
_chemical_formula_sum "Si O2"
_cell_formula_units_Z 15
_cell_length_a 9.381993
_cell_length_b 8.903046
_cell_length_c 15.297836
_cell_angle_alpha 101.326128
_cell_angle_beta 42.613828
_cell_angle_gamma 122.568816
_cell_volume 682.947346
_symmetry_space_group_name_H-M "P -1"
_symmetry_group_IT_number 2
_symmetry_cell_setting 'triclinic'
loop_
_space_group_symop_operation_xyz
x,y,z
-x,-y,-z
loop_
_atom_site_type_symbol
_atom_site_label
_atom_site_fract_x
_atom_site_fract_y
_atom_site_fract_z
Si Si1 0.969716 0.167676 0.518032
Si Si2 0.280138 0.503828 0.551444
Si Si3 0.500000 0.500000 0.000000
Si Si4 0.178840 0.179032 0.252915
Si Si5 0.993040 0.519380 0.848377
Si Si6 0.359135 0.942746 0.784963
Si Si7 0.646148 0.920378 0.376328
Si Si8 0.382498 0.878324 0.950445
O O1 0.100073 0.319971 0.552811
O O2 0.113994 0.261521 0.372378
O O3 0.664366 0.067847 0.639497
O O4 0.000000 0.000000 0.500000
O O5 0.500000 0.500000 0.500000
O O6 0.436141 0.694927 0.445738
O O7 0.109698 0.512896 0.703401
O O8 0.707200 0.677485 0.862227
O O9 0.742812 0.516211 0.942372
O O10 0.389601 0.142755 0.182317
O O11 0.901388 0.988799 0.326066
O O12 0.215230 0.716630 0.816759
O O13 0.881947 0.326975 0.930572
O O14 0.338392 0.975693 0.900796
O O15 0.257416 0.998630 0.755955
O O16 0.500000 0.000000 0.500000
O O17 0.500000 0.000000 0.000000
#
# Coordination Sequence:
#
# PCOD9033957 Si02
#       8
#     2   2   1   2   2   2   2   2
#     4  12  24  43  72 105 142 187 243 302 366 426
#     4  12  27  45  75 109 147 190 247 306 365 445
#     4  10  22  44  70  96 142 192 232 290 352 442
#     4  11  22  44  69  96 141 186 232 287 367 423
#     4  11  23  45  73 103 142 195 247 288 372 429
#     4  12  23  44  74 101 141 184 241 303 364 427
#     4  12  23  45  71 108 144 183 236 304 367 424
#     4  11  26  44  69 100 143 191 242 296 355 444
#
# _framework density 21.963625
#
# number of rings (size 3 to 8) (size 9 to 14) (size 15 to 20)
#    0.000    0.533    5.333    2.800    1.867    0.533 
#    4.800    0.667    0.000    0.000    0.000    0.000 
#    0.000    0.000    0.000    0.000    0.000    0.000 
#
# Total GULP energy -83646.605843 kJ/mol
# GULP energy per Si atom -5576.440390 kJ/mol
# Density = 2.191363 g / cm^3
# Si number density = 21.963625 Si / 1000 Ang^3
#
#
#
# Elastic Constant Matrix: (Units=GPa)
#
#
# Indices 1 2 3 4 5 6 
#
# 1 84.4705 16.9321 19.6676 -0.9697 13.6373 15.5936
# 2 16.9321 82.8887 31.3368 -13.9598 4.0833 23.8513
# 3 19.6676 31.3368 90.2280 -22.6662 9.1366 19.2538
# 4 -0.9697 -13.9598 -22.6662 26.3842 3.7661 9.5482
# 5 13.6373 4.0833 9.1366 3.7661 46.6178 -11.1297
# 6 15.5936 23.8513 19.2538 9.5482 -11.1297 40.2753
#
#
#
# Elastic Compliance Matrix: (Units=1/GPa)
#
#
# Indices 1 2 3 4 5 6 
#
# 1 0.014683 0.001396 0.001501 0.007806 -0.008041 -0.011302
# 2 0.001396 0.022864 0.006222 0.029217 -0.012544 -0.027448
# 3 0.001501 0.006222 0.027394 0.040857 -0.017249 -0.031815
# 4 0.007806 0.029217 0.040857 0.124055 -0.042193 -0.080927
# 5 -0.008041 -0.012544 -0.017249 -0.042193 0.041289 0.040201
# 6 -0.011302 -0.027448 -0.031815 -0.080927 0.040201 0.090964
#
#
# Mechanical properties :
#
#
# Convention : Reuss Voigt Hill
#
# Bulk Modulus (GPa) = 12.02214 43.71780 27.86997
# Shear Modulus (GPa) = 15.11776 35.29885 25.20830
#
# Velocity S-wave (km/s) = 2.62641 4.01328 3.39149
# Velocity P-wave (km/s) = 3.83183 6.43607 5.29651
#
# Compressibility (1/GPa) = 0.08317987
#
# Stress axis : x y z
#
# Youngs Moduli (GPa) = 68.10515 43.73723 36.50434
#
# Poissons Ratio (x) = -0.06105 -0.05481
# Poissons Ratio (y) = -0.09506 -0.22713
# Poissons Ratio (z) = -0.10226 -0.27214
#
# Static dielectric constant tensor:
#      x y z
#    x 1.843000 -0.025210 0.043480 
#    y -0.025210 1.803280 0.013520 
#    z 0.043480 0.013520 1.803710 
# 
# From -- ./inp_files/380416.got.cif
#   From: 2010.05.17/outbox.cif.g08.bks.cpg/sg2_191_cif.got.tgz:380416.got - 2010.06.03 11:33:40.
