data_PCOD9033444
_publ_section_title
;
Structure prediction by ZEFSAII (Michael W. Deem and Ramdas Pophale) SiO2 
 PCOD9033444
Probable space group: P -1
;
_chemical_formula_sum "Si O2"
_cell_formula_units_Z 16
_cell_length_a 13.517059
_cell_length_b 9.043381
_cell_length_c 17.543107
_cell_angle_alpha 139.917852
_cell_angle_beta 29.736037
_cell_angle_gamma 138.539433
_cell_volume 660.152716
_symmetry_space_group_name_H-M "P -1"
_symmetry_group_IT_number 2
_symmetry_cell_setting 'triclinic'
loop_
_space_group_symop_operation_xyz
x,y,z
-x,-y,-z
loop_
_atom_site_type_symbol
_atom_site_label
_atom_site_fract_x
_atom_site_fract_y
_atom_site_fract_z
Si Si1 0.718677 0.475407 0.872454
Si Si2 0.679847 0.340355 0.354975
Si Si3 0.858148 0.282931 0.057060
Si Si4 0.360709 0.003224 0.520836
Si Si5 0.228947 0.552178 0.337095
Si Si6 0.973700 0.177367 0.656044
Si Si7 0.703919 0.956079 0.886021
Si Si8 0.067916 0.937524 0.824026
O O1 0.798731 0.384579 0.705987
O O2 0.784525 0.301782 0.818890
O O3 0.853039 0.741640 0.902251
O O4 0.500000 0.500000 0.000000
O O5 0.700059 0.320321 0.242597
O O6 0.782902 0.150744 0.253721
O O7 0.819050 0.601574 0.389682
O O8 0.449673 0.242980 0.506824
O O9 0.000000 0.500000 0.000000
O O10 0.744112 0.094810 0.994753
O O11 0.023774 0.190763 0.961119
O O12 0.365630 0.780514 0.378062
O O13 0.141418 0.947644 0.689925
O O14 0.500000 0.000000 0.500000
O O15 0.318082 0.324062 0.197116
O O16 0.000000 0.500000 0.500000
O O17 0.902884 0.045070 0.731460
O O18 0.000000 0.000000 0.500000
O O19 0.500000 0.000000 0.000000
#
# Coordination Sequence:
#
# PCOD9033444 Si02
#       8
#     2   2   2   2   2   2   2   2
#     4  11  23  41  70 102 139 184 246 291 349 432
#     4  10  24  45  73 105 139 190 245 301 362 433
#     4  12  24  47  67  99 149 188 233 298 373 430
#     4  10  23  42  69 103 136 181 242 297 357 416
#     4  12  23  44  75  99 138 190 245 295 353 429
#     4  11  25  46  72 107 146 186 243 304 363 432
#     4  12  27  45  70 108 147 190 236 299 371 429
#     4  10  22  44  68 101 139 188 243 300 352 427
#
# _framework density 24.236816999999999
#
# number of rings (size 3 to 8) (size 9 to 14) (size 15 to 20)
#    0.000    1.000    3.750    1.875    5.250    2.000 
#    2.250    0.625    0.000    0.000    0.000    0.000 
#    0.000    0.000    0.000    0.000    0.000    0.000 
#
# Total GULP energy -89337.572299 kJ/mol
# GULP energy per Si atom -5583.598269 kJ/mol
# Density = 2.418165 g / cm^3
# Si number density = 24.236817 Si / 1000 Ang^3
#
#
#
# Elastic Constant Matrix: (Units=GPa)
#
#
# Indices 1 2 3 4 5 6 
#
# 1 87.9380 44.6845 25.2476 9.6330 3.8721 -11.5525
# 2 44.6845 150.2187 47.4931 -0.7840 15.0591 -12.5122
# 3 25.2476 47.4931 68.8700 -0.8456 13.7376 -15.4302
# 4 9.6330 -0.7840 -0.8456 41.5339 -9.0140 5.9082
# 5 3.8721 15.0591 13.7376 -9.0140 63.0372 -1.2112
# 6 -11.5525 -12.5122 -15.4302 5.9082 -1.2112 42.4038
#
#
#
# Elastic Compliance Matrix: (Units=1/GPa)
#
#
# Indices 1 2 3 4 5 6 
#
# 1 0.014552 -0.003341 -0.002481 -0.003873 -0.000059 0.002614
# 2 -0.003341 0.009327 -0.005061 0.000686 -0.000824 -0.000119
# 3 -0.002481 -0.005061 0.020740 -0.000541 -0.003133 0.005363
# 4 -0.003873 0.000686 -0.000541 0.026479 0.003889 -0.004628
# 5 -0.000059 -0.000824 -0.003133 0.003889 0.017275 -0.001448
# 6 0.002614 -0.000119 0.005363 -0.004628 -0.001448 0.026815
#
#
# Mechanical properties :
#
#
# Convention : Reuss Voigt Hill
#
# Bulk Modulus (GPa) = 43.75839 60.20856 51.98347
# Shear Modulus (GPa) = 34.58492 42.03509 38.31000
#
# Velocity S-wave (km/s) = 3.78161 4.16907 3.98006
# Velocity P-wave (km/s) = 6.09599 6.93329 6.52808
#
# Compressibility (1/GPa) = 0.02285276
#
# Stress axis : x y z
#
# Youngs Moduli (GPa) = 68.71996 107.21379 48.21677
#
# Poissons Ratio (x) = 0.35818 0.11963
# Poissons Ratio (y) = 0.22958 0.24403
# Poissons Ratio (z) = 0.17050 0.54262
#
# Static dielectric constant tensor:
#      x y z
#    x 1.874900 0.020470 -0.035190 
#    y 0.020470 1.944360 -0.053640 
#    z -0.035190 -0.053640 2.081540 
# 
# From -- ./inp_files/572927.got.cif
#   From: 2010.05.17/outbox.cif.g08.bks.cpg/sg2_287_cif.got.tgz:572927.got - 2010.06.03 11:33:40.
