data_PCOD9033469
_publ_section_title
;
Structure prediction by ZEFSAII (Michael W. Deem and Ramdas Pophale) SiO2 
 PCOD9033469
Probable space group: P -1
;
_chemical_formula_sum "Si O2"
_cell_formula_units_Z 14
_cell_length_a 18.122181
_cell_length_b 10.467793
_cell_length_c 23.762746
_cell_angle_alpha 36.371230
_cell_angle_beta 20.329843
_cell_angle_gamma 25.295540
_cell_volume 641.027212
_symmetry_space_group_name_H-M "P -1"
_symmetry_group_IT_number 2
_symmetry_cell_setting 'triclinic'
loop_
_space_group_symop_operation_xyz
x,y,z
-x,-y,-z
loop_
_atom_site_type_symbol
_atom_site_label
_atom_site_fract_x
_atom_site_fract_y
_atom_site_fract_z
Si Si1 0.967107 0.497984 0.926489
Si Si2 0.260478 0.526776 0.803565
Si Si3 0.129998 0.283512 0.662589
Si Si4 0.108926 0.756215 0.555185
Si Si5 0.183885 0.916541 0.003203
Si Si6 0.911287 0.396243 0.650657
Si Si7 0.868507 0.199679 0.351926
O O1 0.226992 0.400714 0.818606
O O2 0.955592 0.704204 0.820370
O O3 0.686123 0.656621 0.113661
O O4 0.058213 0.190450 0.951630
O O5 0.518801 0.511972 0.617733
O O6 0.939428 0.880967 0.922230
O O7 0.016930 0.582825 0.668268
O O8 0.976325 0.196106 0.836802
O O9 0.038584 0.358981 0.635009
O O10 0.500000 0.000000 0.500000
O O11 0.041740 0.906265 0.610431
O O12 0.000000 0.000000 0.500000
O O13 0.544388 0.646236 0.832494
O O14 0.000000 0.500000 0.500000
O O15 0.034027 0.071861 0.659375
O O16 0.500000 0.500000 0.500000
#
# Coordination Sequence:
#
# PCOD9033469 Si02
#       7
#     2   2   2   2   2   2   2
#     4   9  19  37  71  92 127 172 233 271 328 396
#     4   9  19  39  68  95 133 175 224 273 345 390
#     4  12  24  46  71 101 140 183 222 281 358 405
#     4  12  26  42  68 100 141 179 224 280 349 411
#     4  10  22  44  68 103 132 180 232 284 329 414
#     4  12  27  43  71 105 137 176 240 288 330 402
#     4  12  23  43  68  99 132 181 232 276 335 411
#
# _framework density 21.839946000000001
#
# number of rings (size 3 to 8) (size 9 to 14) (size 15 to 20)
#    0.857    0.286    2.857    3.857    2.000    1.143 
#    0.000    7.143    0.000    0.000    0.000    0.000 
#    0.000    0.000    0.000    0.000    0.000    0.000 
#
# Total GULP energy -77990.041462 kJ/mol
# GULP energy per Si atom -5570.717247 kJ/mol
# Density = 2.179024 g / cm^3
# Si number density = 21.839946 Si / 1000 Ang^3
#
#
#
# Elastic Constant Matrix: (Units=GPa)
#
#
# Indices 1 2 3 4 5 6 
#
# 1 72.7837 9.4832 14.4962 -7.4581 1.3279 3.4246
# 2 9.4832 83.5570 40.3390 -12.0977 -9.3700 16.1200
# 3 14.4962 40.3390 132.5832 -17.2789 -3.8631 1.6607
# 4 -7.4581 -12.0977 -17.2789 43.7412 8.2286 -0.9071
# 5 1.3279 -9.3700 -3.8631 8.2286 23.0097 -12.6799
# 6 3.4246 16.1200 1.6607 -0.9071 -12.6799 32.5370
#
#
#
# Elastic Compliance Matrix: (Units=1/GPa)
#
#
# Indices 1 2 3 4 5 6 
#
# 1 0.014482 -0.000666 -0.001134 0.002448 -0.003517 -0.002439
# 2 -0.000666 0.015977 -0.004378 0.002225 0.001080 -0.007139
# 3 -0.001134 -0.004378 0.009274 0.002285 0.000074 0.001907
# 4 0.002448 0.002225 0.002285 0.026809 -0.011259 -0.005117
# 5 -0.003517 0.001080 0.000074 -0.011259 0.060969 0.023277
# 6 -0.002439 -0.007139 0.001907 -0.005117 0.023277 0.043359
#
#
# Mechanical properties :
#
#
# Convention : Reuss Voigt Hill
#
# Bulk Modulus (GPa) = 36.52355 46.39564 41.45960
# Shear Modulus (GPa) = 25.99416 34.83128 30.41272
#
# Velocity S-wave (km/s) = 3.45369 3.99788 3.73571
# Velocity P-wave (km/s) = 5.71520 6.52689 6.13449
#
# Compressibility (1/GPa) = 0.02737959
#
# Stress axis : x y z
#
# Youngs Moduli (GPa) = 69.05297 62.58853 107.82418
#
# Poissons Ratio (x) = 0.04166 0.12224
# Poissons Ratio (y) = 0.04597 0.47200
# Poissons Ratio (z) = 0.07829 0.27398
#
# Static dielectric constant tensor:
#      x y z
#    x 1.805690 -0.055730 0.017120 
#    y -0.055730 1.771500 -0.036600 
#    z 0.017120 -0.036600 1.890420 
# 
# From -- ./inp_files/620727.got.cif
#   From: 2010.05.17/outbox.cif.g08.bks.cpg/sg2_311_cif.got.tgz:620727.got - 2010.06.03 11:33:40.
