data_PCOD9033811
_publ_section_title
;
Structure prediction by ZEFSAII (Michael W. Deem and Ramdas Pophale) SiO2 
 PCOD9033811
Probable space group: P -1
;
_chemical_formula_sum "Si O2"
_cell_formula_units_Z 16
_cell_length_a 13.757166
_cell_length_b 11.129331
_cell_length_c 7.499638
_cell_angle_alpha 104.042120
_cell_angle_beta 87.255667
_cell_angle_gamma 40.081765
_cell_volume 665.235308
_symmetry_space_group_name_H-M "P -1"
_symmetry_group_IT_number 2
_symmetry_cell_setting 'triclinic'
loop_
_space_group_symop_operation_xyz
x,y,z
-x,-y,-z
loop_
_atom_site_type_symbol
_atom_site_label
_atom_site_fract_x
_atom_site_fract_y
_atom_site_fract_z
Si Si1 0.186627 0.808007 0.975889
Si Si2 0.376270 0.991993 0.146194
Si Si3 0.187847 0.840053 0.392957
Si Si4 0.974886 0.672084 0.556265
Si Si5 0.329630 0.163501 0.833514
Si Si6 0.882705 0.391756 0.117676
Si Si7 0.501774 0.396851 0.126275
Si Si8 0.850800 0.882797 0.296243
O O1 0.184185 0.870907 0.193799
O O2 0.221125 0.625646 0.915384
O O3 0.332748 0.728155 0.833857
O O4 0.000000 0.000000 0.000000
O O5 0.492253 0.958823 0.245257
O O6 0.213797 0.116914 0.302587
O O7 0.472280 0.771224 0.994368
O O8 0.324001 0.126547 0.027353
O O9 0.330699 0.593053 0.311127
O O10 0.225185 0.916848 0.543213
O O11 0.000000 0.000000 0.500000
O O12 0.989625 0.704513 0.365557
O O13 0.000000 0.500000 0.500000
O O14 0.082606 0.625792 0.682242
O O15 0.202317 0.399401 0.876265
O O16 0.279638 0.092890 0.704226
O O17 0.053005 0.201858 0.928326
O O18 0.500000 0.500000 0.000000
#
# Coordination Sequence:
#
# PCOD9033811 Si02
#       8
#     2   2   2   2   2   2   2   2
#     4  11  23  43  73 101 140 192 240 294 365 428
#     4  11  24  44  71 101 144 184 245 294 363 440
#     4  11  23  43  68 103 137 184 238 298 353 427
#     4  12  24  44  69 105 139 185 242 292 353 441
#     4  11  24  43  69 102 136 193 226 295 368 422
#     4  12  23  46  74 102 145 188 238 295 366 432
#     4  10  22  44  70 100 141 193 238 296 364 430
#     4  12  24  42  72 102 146 179 239 299 359 430
#
# _framework density 24.051639000000002
#
# number of rings (size 3 to 8) (size 9 to 14) (size 15 to 20)
#    0.000    0.750    3.750    5.625    0.000    0.500 
#    2.250    2.500    0.000    0.000    0.000    0.000 
#    0.000    0.000    0.000    0.000    0.000    0.000 
#
# Total GULP energy -89501.641029 kJ/mol
# GULP energy per Si atom -5593.852564 kJ/mol
# Density = 2.399690 g / cm^3
# Si number density = 24.051639 Si / 1000 Ang^3
#
#
#
# Elastic Constant Matrix: (Units=GPa)
#
#
# Indices 1 2 3 4 5 6 
#
# 1 150.1716 30.8780 46.8741 13.2268 34.3132 -19.7977
# 2 30.8780 105.8301 34.1071 5.7379 11.5848 -17.7290
# 3 46.8741 34.1071 86.9042 6.5794 30.7888 -13.6753
# 4 13.2268 5.7379 6.5794 49.7403 -1.4999 -3.2220
# 5 34.3132 11.5848 30.7888 -1.4999 48.8776 5.4790
# 6 -19.7977 -17.7290 -13.6753 -3.2220 5.4790 35.7040
#
#
#
# Elastic Compliance Matrix: (Units=1/GPa)
#
#
# Indices 1 2 3 4 5 6 
#
# 1 0.009592 -0.000578 -0.001840 -0.002095 -0.006071 0.005069
# 2 -0.000578 0.011472 -0.003214 -0.000495 -0.000777 0.004219
# 3 -0.001840 -0.003214 0.018439 -0.001507 -0.010268 0.005886
# 4 -0.002095 -0.000495 -0.001507 0.020978 0.003248 -0.000590
# 5 -0.006071 -0.000777 -0.010268 0.003248 0.032866 -0.012435
# 6 0.005069 0.004219 0.005886 -0.000590 -0.012435 0.037024
#
#
# Mechanical properties :
#
#
# Convention : Reuss Voigt Hill
#
# Bulk Modulus (GPa) = 35.41216 62.95824 49.18520
# Shear Modulus (GPa) = 33.10211 42.26750 37.68480
#
# Velocity S-wave (km/s) = 3.71387 4.19664 3.96261
# Velocity P-wave (km/s) = 5.75724 7.05092 6.43666
#
# Compressibility (1/GPa) = 0.02823889
#
# Stress axis : x y z
#
# Youngs Moduli (GPa) = 104.25164 87.16597 54.23420
#
# Poissons Ratio (x) = 0.05042 0.09978
# Poissons Ratio (y) = 0.06030 0.17431
# Poissons Ratio (z) = 0.19179 0.28015
#
# Static dielectric constant tensor:
#      x y z
#    x 1.983170 -0.006990 -0.048580 
#    y -0.006990 2.024880 -0.011270 
#    z -0.048580 -0.011270 1.919200 
# 
# From -- ./inp_files/308330.got.cif
#   From: 2010.05.17/outbox.cif.g08.bks.cpg/sg2_155_cif.got.tgz:308330.got - 2010.06.03 11:33:40.
