data_PCOD9033261
_publ_section_title
;
Structure prediction by ZEFSAII (Michael W. Deem and Ramdas Pophale) SiO2 
 PCOD9033261
Probable space group: P -1
;
_chemical_formula_sum "Si O2"
_cell_formula_units_Z 14
_cell_length_a 7.197551
_cell_length_b 12.886883
_cell_length_c 9.465718
_cell_angle_alpha 64.977774
_cell_angle_beta 113.586877
_cell_angle_gamma 136.218954
_cell_volume 544.141044
_symmetry_space_group_name_H-M "P -1"
_symmetry_group_IT_number 2
_symmetry_cell_setting 'triclinic'
loop_
_space_group_symop_operation_xyz
x,y,z
-x,-y,-z
loop_
_atom_site_type_symbol
_atom_site_label
_atom_site_fract_x
_atom_site_fract_y
_atom_site_fract_z
Si Si1 0.436906 0.768625 0.110560
Si Si2 0.608689 0.033017 0.191950
Si Si3 0.054243 0.182820 0.721212
Si Si4 0.752213 0.432594 0.091013
Si Si5 0.261059 0.048875 0.468405
Si Si6 0.875658 0.745358 0.972888
Si Si7 0.140180 0.649287 0.550960
O O1 0.419304 0.857119 0.180317
O O2 0.654904 0.764939 0.246568
O O3 0.260177 0.616944 0.045520
O O4 0.503569 0.887683 0.939100
O O5 0.662410 0.036714 0.370186
O O6 0.100258 0.868982 0.856852
O O7 0.050108 0.188642 0.884874
O O8 0.001880 0.285269 0.574096
O O9 0.836902 0.017721 0.678949
O O10 0.872395 0.605669 0.044316
O O11 0.881587 0.395721 0.266145
O O12 0.433484 0.330244 0.098414
O O13 0.537443 0.223548 0.455335
O O14 0.000000 0.000000 0.500000
O O15 0.000000 0.500000 0.500000
#
# Coordination Sequence:
#
# PCOD9033261 Si02
#       7
#     2   2   2   2   2   2   2
#     4  10  24  40  69 100 138 177 234 292 344 413
#     4  11  24  44  67 104 141 181 228 294 357 409
#     4  11  24  45  70 105 137 186 241 289 342 424
#     4  10  22  44  67 101 134 184 236 286 347 414
#     4  12  26  47  71 109 146 183 231 295 359 413
#     4  10  23  42  74  99 135 181 244 287 339 425
#     4  12  26  45  74 103 143 189 235 285 349 426
#
# _framework density 25.728622999999999
#
# number of rings (size 3 to 8) (size 9 to 14) (size 15 to 20)
#    0.000    1.143    2.857    2.143    6.000    1.714 
#    0.000    2.143    0.000    0.000    0.000    0.000 
#    0.000    0.000    0.000    0.000    0.000    0.000 
#
# Total GULP energy -78323.492027 kJ/mol
# GULP energy per Si atom -5594.535145 kJ/mol
# Density = 2.567006 g / cm^3
# Si number density = 25.728623 Si / 1000 Ang^3
#
#
#
# Elastic Constant Matrix: (Units=GPa)
#
#
# Indices 1 2 3 4 5 6 
#
# 1 73.0381 19.4536 16.7464 -11.9420 12.3444 -3.1289
# 2 19.4536 178.9076 43.2056 31.1651 1.2073 -0.3109
# 3 16.7464 43.2056 154.5201 11.0971 -3.9365 10.0614
# 4 -11.9420 31.1651 11.0971 48.2933 -7.2942 1.6011
# 5 12.3444 1.2073 -3.9365 -7.2942 47.7567 -5.5562
# 6 -3.1289 -0.3109 10.0614 1.6011 -5.5562 28.5820
#
#
#
# Elastic Compliance Matrix: (Units=1/GPa)
#
#
# Indices 1 2 3 4 5 6 
#
# 1 0.016155 -0.002248 -0.001677 0.005288 -0.003287 0.001399
# 2 -0.002248 0.007022 -0.001416 -0.004839 -0.000391 0.000524
# 3 -0.001677 -0.001416 0.007306 -0.001000 0.000617 -0.002595
# 4 0.005288 -0.004839 -0.001000 0.025762 0.002601 -0.000059
# 5 -0.003287 -0.000391 0.000617 0.002601 0.022675 0.003681
# 6 0.001399 0.000524 -0.002595 -0.000059 0.003681 0.036778
#
#
# Mechanical properties :
#
#
# Convention : Reuss Voigt Hill
#
# Bulk Modulus (GPa) = 50.50446 62.80854 56.65650
# Shear Modulus (GPa) = 37.59920 46.73040 42.16480
#
# Velocity S-wave (km/s) = 3.82694 4.26641 4.05264
# Velocity P-wave (km/s) = 6.26096 6.98102 6.63077
#
# Compressibility (1/GPa) = 0.01980023
#
# Stress axis : x y z
#
# Youngs Moduli (GPa) = 61.90100 142.40035 136.87491
#
# Poissons Ratio (x) = 0.32015 0.22951
# Poissons Ratio (y) = 0.13917 0.19388
# Poissons Ratio (z) = 0.10379 0.20171
#
# Static dielectric constant tensor:
#      x y z
#    x 2.143480 0.088900 0.055920 
#    y 0.088900 2.061700 0.026350 
#    z 0.055920 0.026350 1.994960 
# 
# From -- ./inp_files/153722.got.cif
#   From: 2010.05.17/outbox.cif.g08.bks.cpg/sg2_77_cif.got.tgz:153722.got - 2010.06.03 11:33:40.
