data_PCOD9033478
_publ_section_title
;
Structure prediction by ZEFSAII (Michael W. Deem and Ramdas Pophale) SiO2 
 PCOD9033478
Probable space group: P -1
;
_chemical_formula_sum "Si O2"
_cell_formula_units_Z 14
_cell_length_a 8.857647
_cell_length_b 15.643028
_cell_length_c 15.143366
_cell_angle_alpha 28.892202
_cell_angle_beta 41.612692
_cell_angle_gamma 38.431615
_cell_volume 616.674667
_symmetry_space_group_name_H-M "P -1"
_symmetry_group_IT_number 2
_symmetry_cell_setting 'triclinic'
loop_
_space_group_symop_operation_xyz
x,y,z
-x,-y,-z
loop_
_atom_site_type_symbol
_atom_site_label
_atom_site_fract_x
_atom_site_fract_y
_atom_site_fract_z
Si Si1 0.123085 0.640026 0.784529
Si Si2 0.267289 0.625301 0.548252
Si Si3 0.520434 0.729555 0.629370
Si Si4 0.409367 0.093698 0.237027
Si Si5 0.475584 0.924874 0.176148
Si Si6 0.371930 0.724011 0.881544
Si Si7 0.996749 0.598740 0.226131
O O1 0.297340 0.564745 0.691675
O O2 0.285990 0.683991 0.746029
O O3 0.884550 0.825599 0.689212
O O4 0.000000 0.500000 0.000000
O O5 0.500000 0.500000 0.500000
O O6 0.262083 0.839904 0.349481
O O7 0.051000 0.562532 0.665709
O O8 0.446806 0.817559 0.680321
O O9 0.772977 0.535466 0.693203
O O10 0.537382 0.883568 0.414292
O O11 0.522647 0.224002 0.122166
O O12 0.436998 0.076600 0.134614
O O13 0.734028 0.741223 0.250880
O O14 0.500000 0.000000 0.000000
O O15 0.500000 0.500000 0.000000
O O16 0.093346 0.742529 0.001578
#
# Coordination Sequence:
#
# PCOD9033478 Si02
#       7
#     2   2   2   2   2   2   2
#     4  12  24  42  73 103 143 186 242 291 353 431
#     4  10  23  46  69 101 139 192 238 286 358 424
#     4  11  23  42  71 103 141 181 235 300 351 424
#     4  12  26  44  70 107 139 187 245 291 359 419
#     4  11  27  46  71 104 143 188 242 295 351 428
#     4  10  22  44  68 104 139 183 231 294 363 422
#     4  10  23  46  69  98 144 184 232 286 363 415
#
# _framework density 22.702408999999999
#
# number of rings (size 3 to 8) (size 9 to 14) (size 15 to 20)
#    0.000    1.143    1.429    5.143    6.000    2.286 
#    0.000    0.000    0.000    0.000    0.000    0.000 
#    0.000    0.000    0.000    0.000    0.000    0.000 
#
# Total GULP energy -78148.146895 kJ/mol
# GULP energy per Si atom -5582.010493 kJ/mol
# Density = 2.265074 g / cm^3
# Si number density = 22.702409 Si / 1000 Ang^3
#
#
#
# Elastic Constant Matrix: (Units=GPa)
#
#
# Indices 1 2 3 4 5 6 
#
# 1 126.1368 44.2517 50.7670 -2.5322 -23.9431 24.7845
# 2 44.2517 83.1856 25.2481 6.7782 0.3558 14.4682
# 3 50.7670 25.2481 118.9428 -0.8223 -2.1736 21.2379
# 4 -2.5322 6.7782 -0.8223 30.8270 5.6790 7.4028
# 5 -23.9431 0.3558 -2.1736 5.6790 48.1288 -1.3089
# 6 24.7845 14.4682 21.2379 7.4028 -1.3089 54.4250
#
#
#
# Elastic Compliance Matrix: (Units=1/GPa)
#
#
# Indices 1 2 3 4 5 6 
#
# 1 0.013203 -0.005500 -0.003776 0.001826 0.006136 -0.003178
# 2 -0.005500 0.015649 -0.000876 -0.003224 -0.002536 -0.000936
# 3 -0.003776 -0.000876 0.010605 0.001024 -0.001578 -0.002363
# 4 0.001826 -0.003224 0.001024 0.035195 -0.003317 -0.005241
# 5 0.006136 -0.002536 -0.001578 -0.003317 0.024156 -0.000472
# 6 -0.003178 -0.000936 -0.002363 -0.005241 -0.000472 0.021694
#
#
# Mechanical properties :
#
#
# Convention : Reuss Voigt Hill
#
# Bulk Modulus (GPa) = 52.20704 63.19986 57.70345
# Shear Modulus (GPa) = 33.96986 40.54272 37.25629
#
# Velocity S-wave (km/s) = 3.87241 4.23050 4.05541
# Velocity P-wave (km/s) = 6.56051 7.19456 6.88484
#
# Compressibility (1/GPa) = 0.01915450
#
# Stress axis : x y z
#
# Youngs Moduli (GPa) = 75.74161 63.90082 94.29481
#
# Poissons Ratio (x) = 0.35144 0.35602
# Poissons Ratio (y) = 0.41656 0.08260
# Poissons Ratio (z) = 0.28597 0.05597
#
# Static dielectric constant tensor:
#      x y z
#    x 1.874630 -0.012360 0.012560 
#    y -0.012360 1.900110 0.002030 
#    z 0.012560 0.002030 1.939860 
# 
# From -- ./inp_files/504863.got.cif
#   From: 2010.05.17/outbox.cif.g08.bks.cpg/sg2_253_cif.got.tgz:504863.got - 2010.06.03 11:33:40.
