data_PCOD9033875
_publ_section_title
;
Structure prediction by ZEFSAII (Michael W. Deem and Ramdas Pophale) SiO2 
 PCOD9033875
Probable space group: P -1
;
_chemical_formula_sum "Si O2"
_cell_formula_units_Z 14
_cell_length_a 12.455788
_cell_length_b 11.732197
_cell_length_c 11.459042
_cell_angle_alpha 96.730796
_cell_angle_beta 151.346673
_cell_angle_gamma 64.392623
_cell_volume 575.954728
_symmetry_space_group_name_H-M "P -1"
_symmetry_group_IT_number 2
_symmetry_cell_setting 'triclinic'
loop_
_space_group_symop_operation_xyz
x,y,z
-x,-y,-z
loop_
_atom_site_type_symbol
_atom_site_label
_atom_site_fract_x
_atom_site_fract_y
_atom_site_fract_z
Si Si1 0.867345 0.672159 0.426943
Si Si2 0.347382 0.865175 0.768545
Si Si3 0.480071 0.696515 0.248758
Si Si4 0.324613 0.319854 0.303488
Si Si5 0.989401 0.029873 0.855433
Si Si6 0.732386 0.849393 0.950947
Si Si7 0.722018 0.369780 0.365036
O O1 0.727945 0.691859 0.420874
O O2 0.000000 0.500000 0.500000
O O3 0.131780 0.662478 0.628672
O O4 0.573653 0.810397 0.084634
O O5 0.415556 0.708931 0.777678
O O6 0.435457 0.916491 0.751449
O O7 0.000000 0.000000 0.500000
O O8 0.574817 0.681188 0.471242
O O9 0.515927 0.552734 0.223438
O O10 0.125994 0.863731 0.912959
O O11 0.659798 0.210647 0.544097
O O12 0.244198 0.224383 0.159607
O O13 0.000000 0.500000 0.000000
O O14 0.237312 0.031232 0.042859
O O15 0.000000 0.000000 0.000000
O O16 0.007979 0.722402 0.289850
#
# Coordination Sequence:
#
# PCOD9033875 Si02
#       7
#     2   2   2   2   2   2   2
#     4   9  22  42  66 100 144 182 234 292 354 416
#     4  11  26  43  75 108 137 192 242 289 358 422
#     4  10  22  44  70 104 147 186 230 304 353 421
#     4  11  23  46  73 106 136 189 240 286 360 428
#     4  10  25  45  69 103 144 185 237 294 356 412
#     4  11  24  45  73 104 144 182 242 292 350 434
#     4  10  22  45  70 105 141 188 240 293 353 421
#
# _framework density 24.307466999999999
#
# number of rings (size 3 to 8) (size 9 to 14) (size 15 to 20)
#    0.000    1.714    1.429    0.857    6.000    6.286 
#    5.143    7.143    0.000    0.000    0.000    0.000 
#    0.000    0.000    0.000    0.000    0.000    0.000 
#
# Total GULP energy -78025.011059 kJ/mol
# GULP energy per Si atom -5573.215076 kJ/mol
# Density = 2.425214 g / cm^3
# Si number density = 24.307467 Si / 1000 Ang^3
#
#
#
# Elastic Constant Matrix: (Units=GPa)
#
#
# Indices 1 2 3 4 5 6 
#
# 1 116.2857 51.5503 33.2866 -12.6442 15.6987 7.8817
# 2 51.5503 128.5617 39.3091 -25.0139 20.0022 -7.8337
# 3 33.2866 39.3091 109.9929 -28.0205 12.2757 -8.0026
# 4 -12.6442 -25.0139 -28.0205 40.0190 -16.7988 3.9348
# 5 15.6987 20.0022 12.2757 -16.7988 29.9658 3.1202
# 6 7.8817 -7.8337 -8.0026 3.9348 3.1202 40.3480
#
#
#
# Elastic Compliance Matrix: (Units=1/GPa)
#
#
# Indices 1 2 3 4 5 6 
#
# 1 0.011435 -0.003877 -0.002320 -0.001340 -0.002882 -0.003093
# 2 -0.003877 0.011035 -0.001445 0.003013 -0.003322 0.002576
# 3 -0.002320 -0.001445 0.012140 0.007107 0.001002 0.001810
# 4 -0.001340 0.003013 0.007107 0.039332 0.018139 -0.002982
# 5 -0.002882 -0.003322 0.001002 0.018139 0.047411 -0.005319
# 6 -0.003093 0.002576 0.001810 -0.002982 -0.005319 0.026950
#
#
# Mechanical properties :
#
#
# Convention : Reuss Voigt Hill
#
# Bulk Modulus (GPa) = 51.73967 67.01467 59.37717
# Shear Modulus (GPa) = 29.40704 37.44618 33.42661
#
# Velocity S-wave (km/s) = 3.48198 3.92921 3.71234
# Velocity P-wave (km/s) = 6.12351 6.94365 6.54644
#
# Compressibility (1/GPa) = 0.01932753
#
# Stress axis : x y z
#
# Youngs Moduli (GPa) = 87.44971 90.62387 82.37114
#
# Poissons Ratio (x) = 0.35133 0.19109
# Poissons Ratio (y) = 0.33902 0.11899
# Poissons Ratio (z) = 0.20287 0.13091
#
# Static dielectric constant tensor:
#      x y z
#    x 2.179340 -0.374060 0.008030 
#    y -0.374060 2.571760 0.022950 
#    z 0.008030 0.022950 2.042450 
# 
# From -- ./inp_files/428289.got.cif
#   From: 2010.05.17/outbox.cif.g08.bks.cpg/sg2_215_cif.got.tgz:428289.got - 2010.06.03 11:33:40.
