data_PCOD9033256
_publ_section_title
;
Structure prediction by ZEFSAII (Michael W. Deem and Ramdas Pophale) SiO2 
 PCOD9033256
Probable space group: P -1
;
_chemical_formula_sum "Si O2"
_cell_formula_units_Z 16
_cell_length_a 10.458895
_cell_length_b 13.886581
_cell_length_c 9.491868
_cell_angle_alpha 90.918982
_cell_angle_beta 107.200831
_cell_angle_gamma 31.654165
_cell_volume 609.968667
_symmetry_space_group_name_H-M "P -1"
_symmetry_group_IT_number 2
_symmetry_cell_setting 'triclinic'
loop_
_space_group_symop_operation_xyz
x,y,z
-x,-y,-z
loop_
_atom_site_type_symbol
_atom_site_label
_atom_site_fract_x
_atom_site_fract_y
_atom_site_fract_z
Si Si1 0.887806 0.449075 0.419135
Si Si2 0.416082 0.768455 0.667314
Si Si3 0.425034 0.543854 0.640024
Si Si4 0.795633 0.305694 0.005179
Si Si5 0.584249 0.064094 0.141554
Si Si6 0.689105 0.084737 0.669916
Si Si7 0.204597 0.196295 0.249452
Si Si8 0.079005 0.339541 0.790307
O O1 0.821334 0.376906 0.409090
O O2 0.576979 0.697101 0.331449
O O3 0.060623 0.349942 0.329223
O O4 0.044793 0.378257 0.613089
O O5 0.346884 0.701232 0.663593
O O6 0.307217 0.905389 0.760082
O O7 0.303739 0.874647 0.481364
O O8 0.766308 0.554157 0.762346
O O9 0.500000 0.500000 0.500000
O O10 0.701315 0.339472 0.819012
O O11 0.952145 0.309505 0.074437
O O12 0.500000 0.500000 0.000000
O O13 0.021604 0.090875 0.148023
O O14 0.420017 0.117206 0.220222
O O15 0.820951 0.835978 0.165651
O O16 0.340188 0.230211 0.945969
O O17 0.652021 0.992063 0.644598
#
# Coordination Sequence:
#
# PCOD9033256 Si02
#       8
#     2   2   2   2   2   2   2   2
#     4  11  22  43  70 104 138 185 232 291 351 411
#     4  11  23  44  71 106 139 188 234 290 349 415
#     4  12  22  43  75  98 141 183 226 296 349 410
#     4  10  22  44  67 100 142 178 228 287 348 415
#     4  11  24  44  72 101 144 187 234 287 345 425
#     4   9  22  40  66 102 138 178 238 276 353 414
#     4  10  23  43  66 102 141 177 230 292 344 410
#     4  10  23  42  69 102 140 183 234 287 348 407
#
# _framework density 26.230855999999999
#
# number of rings (size 3 to 8) (size 9 to 14) (size 15 to 20)
#    0.750    0.750    3.750    1.875    0.000    3.500 
#    0.000   11.875    0.000    0.000    0.000    0.000 
#    0.000    0.000    0.000    0.000    0.000    0.000 
#
# Total GULP energy -89806.947844 kJ/mol
# GULP energy per Si atom -5612.934240 kJ/mol
# Density = 2.617115 g / cm^3
# Si number density = 26.230856 Si / 1000 Ang^3
#
#
#
# Elastic Constant Matrix: (Units=GPa)
#
#
# Indices 1 2 3 4 5 6 
#
# 1 91.5828 23.9863 17.9447 0.3152 1.9246 19.1364
# 2 23.9863 139.2134 47.1508 -3.0622 -6.7918 6.2818
# 3 17.9447 47.1508 189.7998 -11.6146 -23.4220 -1.0146
# 4 0.3152 -3.0622 -11.6146 47.3099 5.2462 6.1482
# 5 1.9246 -6.7918 -23.4220 5.2462 34.2512 4.6752
# 6 19.1364 6.2818 -1.0146 6.1482 4.6752 47.7352
#
#
#
# Elastic Compliance Matrix: (Units=1/GPa)
#
#
# Indices 1 2 3 4 5 6 
#
# 1 0.012555 -0.001686 -0.000904 0.000322 -0.001057 -0.004769
# 2 -0.001686 0.008131 -0.001791 0.000103 0.000535 -0.000498
# 3 -0.000904 -0.001791 0.006335 0.000989 0.003845 0.000229
# 4 0.000322 0.000103 0.000989 0.021996 -0.002318 -0.002728
# 5 -0.001057 0.000535 0.003845 -0.002318 0.032683 -0.002467
# 6 -0.004769 -0.000498 0.000229 -0.002728 -0.002467 0.023524
#
#
# Mechanical properties :
#
#
# Convention : Reuss Voigt Hill
#
# Bulk Modulus (GPa) = 54.76779 66.52885 60.64832
# Shear Modulus (GPa) = 41.64093 47.96020 44.80056
#
# Velocity S-wave (km/s) = 3.98864 4.28060 4.13720
# Velocity P-wave (km/s) = 6.49129 7.06041 6.78182
#
# Compressibility (1/GPa) = 0.01825891
#
# Stress axis : x y z
#
# Youngs Moduli (GPa) = 79.64678 122.98394 157.84331
#
# Poissons Ratio (x) = 0.20739 0.14274
# Poissons Ratio (y) = 0.13431 0.28268
# Poissons Ratio (z) = 0.07203 0.22025
#
# Static dielectric constant tensor:
#      x y z
#    x 2.048190 0.036820 0.007900 
#    y 0.036820 2.017780 -0.018000 
#    z 0.007900 -0.018000 2.059270 
# 
# From -- ./inp_files/456208.got.cif
#   From: 2010.05.17/outbox.cif.g08.bks.cpg/sg2_229_cif.got.tgz:456208.got - 2010.06.03 11:33:40.
