data_PCOD9033407
_publ_section_title
;
Structure prediction by ZEFSAII (Michael W. Deem and Ramdas Pophale) SiO2 
 PCOD9033407
Probable space group: P -1
;
_chemical_formula_sum "Si O2"
_cell_formula_units_Z 14
_cell_length_a 9.281855
_cell_length_b 15.516177
_cell_length_c 11.892251
_cell_angle_alpha 125.479218
_cell_angle_beta 117.454898
_cell_angle_gamma 28.951718
_cell_volume 670.357895
_symmetry_space_group_name_H-M "P -1"
_symmetry_group_IT_number 2
_symmetry_cell_setting 'triclinic'
loop_
_space_group_symop_operation_xyz
x,y,z
-x,-y,-z
loop_
_atom_site_type_symbol
_atom_site_label
_atom_site_fract_x
_atom_site_fract_y
_atom_site_fract_z
Si Si1 0.171732 0.113300 0.134533
Si Si2 0.133774 0.309779 0.898312
Si Si3 0.836402 0.299933 0.930967
Si Si4 0.105031 0.979440 0.642448
Si Si5 0.194379 0.352615 0.351742
Si Si6 0.832229 0.247355 0.336039
Si Si7 0.136750 0.584210 0.353994
O O1 0.134326 0.261752 0.239625
O O2 0.994058 0.159582 0.208941
O O3 0.515840 0.891564 0.102092
O O4 0.037350 0.153321 0.997264
O O5 0.965552 0.335724 0.952523
O O6 0.065593 0.300242 0.742206
O O7 0.000000 0.500000 0.000000
O O8 0.500000 0.500000 0.000000
O O9 0.880518 0.190693 0.766736
O O10 0.446587 0.833199 0.643635
O O11 0.096809 0.888772 0.659866
O O12 0.000000 0.000000 0.500000
O O13 0.127085 0.470696 0.314726
O O14 0.000000 0.500000 0.500000
O O15 0.474659 0.434739 0.329838
O O16 0.930529 0.298633 0.479010
#
# Coordination Sequence:
#
# PCOD9033407 Si02
#       7
#     2   2   2   2   2   2   2
#     4  12  26  45  68 103 138 177 231 284 349 405
#     4  12  27  44  69  97 137 179 231 287 338 407
#     4  12  28  47  71  99 142 185 227 285 348 417
#     4  11  26  45  70 100 138 182 231 278 343 413
#     4  11  23  43  72 101 140 177 220 290 343 407
#     4  10  23  41  71  96 135 175 227 278 333 410
#     4  10  22  44  67  99 132 178 223 277 342 401
#
# _framework density 20.884367000000001
#
# number of rings (size 3 to 8) (size 9 to 14) (size 15 to 20)
#    0.000    0.857    2.857    3.000    8.000    2.286 
#    0.000    0.000    0.000    0.000    0.000    0.000 
#    0.000    0.000    0.000    0.000    0.000    0.000 
#
# Total GULP energy -78352.132291 kJ/mol
# GULP energy per Si atom -5596.580878 kJ/mol
# Density = 2.083683 g / cm^3
# Si number density = 20.884367 Si / 1000 Ang^3
#
#
#
# Elastic Constant Matrix: (Units=GPa)
#
#
# Indices 1 2 3 4 5 6 
#
# 1 84.3791 23.8849 34.8748 -5.1858 -29.0168 2.5026
# 2 23.8849 107.0927 44.8088 -7.7331 -19.9222 -2.1832
# 3 34.8748 44.8088 117.0223 2.1751 -14.9419 -2.5168
# 4 -5.1858 -7.7331 2.1751 44.1838 6.1691 -4.7919
# 5 -29.0168 -19.9222 -14.9419 6.1691 36.6681 7.2802
# 6 2.5026 -2.1832 -2.5168 -4.7919 7.2802 20.8399
#
#
#
# Elastic Compliance Matrix: (Units=1/GPa)
#
#
# Indices 1 2 3 4 5 6 
#
# 1 0.018816 0.000005 -0.003854 -0.000579 0.015029 -0.008108
# 2 0.000005 0.012008 -0.004037 0.001587 0.004717 -0.000513
# 3 -0.003854 -0.004037 0.011208 -0.001475 -0.000685 0.001294
# 4 -0.000579 0.001587 -0.001475 0.024577 -0.005872 0.007760
# 5 0.015029 0.004717 -0.000685 -0.005872 0.046184 -0.018878
# 6 -0.008108 -0.000513 0.001294 0.007760 -0.018878 0.057440
#
#
# Mechanical properties :
#
#
# Convention : Reuss Voigt Hill
#
# Bulk Modulus (GPa) = 38.08372 57.29234 47.68803
# Shear Modulus (GPa) = 25.67286 34.00008 29.83647
#
# Velocity S-wave (km/s) = 3.50992 4.03925 3.78385
# Velocity P-wave (km/s) = 5.89077 7.01760 6.47873
#
# Compressibility (1/GPa) = 0.02625794
#
# Stress axis : x y z
#
# Youngs Moduli (GPa) = 53.14636 83.28046 89.22469
#
# Poissons Ratio (x) = -0.00040 0.34387
# Poissons Ratio (y) = -0.00025 0.36024
# Poissons Ratio (z) = 0.20483 0.33624
#
# Static dielectric constant tensor:
#      x y z
#    x 1.730300 0.008550 0.027870 
#    y 0.008550 1.701780 -0.034740 
#    z 0.027870 -0.034740 1.679980 
# 
# From -- ./inp_files/158366.got.cif
#   From: 2010.05.17/outbox.cif.g08.bks.cpg/sg2_80_cif.got.tgz:158366.got - 2010.06.03 11:33:40.
