data_PCOD9033563
_publ_section_title
;
Structure prediction by ZEFSAII (Michael W. Deem and Ramdas Pophale) SiO2 
 PCOD9033563
Probable space group: P -1
;
_chemical_formula_sum "Si O2"
_cell_formula_units_Z 16
_cell_length_a 5.135865
_cell_length_b 20.000363
_cell_length_c 7.605074
_cell_angle_alpha 123.569360
_cell_angle_beta 113.207855
_cell_angle_gamma 82.091364
_cell_volume 594.930077
_symmetry_space_group_name_H-M "P -1"
_symmetry_group_IT_number 2
_symmetry_cell_setting 'triclinic'
loop_
_space_group_symop_operation_xyz
x,y,z
-x,-y,-z
loop_
_atom_site_type_symbol
_atom_site_label
_atom_site_fract_x
_atom_site_fract_y
_atom_site_fract_z
Si Si1 0.799453 0.934948 0.102867
Si Si2 0.655706 0.957935 0.710516
Si Si3 0.108890 0.413453 0.365969
Si Si4 0.905639 0.414572 0.937867
Si Si5 0.429637 0.687452 0.748980
Si Si6 0.852925 0.161951 0.696093
Si Si7 0.944882 0.246043 0.496395
Si Si8 0.498642 0.300720 0.832924
O O1 0.911162 0.866740 0.155320
O O2 0.526411 0.970795 0.164741
O O3 0.747453 0.916280 0.855555
O O4 0.068048 0.004770 0.266979
O O5 0.433880 0.899232 0.455305
O O6 0.403192 0.373024 0.414478
O O7 0.000000 0.500000 0.500000
O O8 0.863832 0.358179 0.321064
O O9 0.111917 0.415456 0.159533
O O10 0.925178 0.336992 0.705710
O O11 0.601328 0.390812 0.922776
O O12 0.000000 0.500000 0.000000
O O13 0.308898 0.761000 0.720415
O O14 0.601612 0.709996 0.007577
O O15 0.916131 0.173837 0.523193
O O16 0.768076 0.250183 0.844432
O O17 0.282711 0.258255 0.570689
#
# Coordination Sequence:
#
# PCOD9033563 Si02
#       8
#     2   2   2   2   2   2   2   2
#     4  10  23  44  70 104 146 177 230 287 334 407
#     4  10  23  44  69 106 139 183 230 279 345 403
#     4  11  23  44  69  98 128 174 224 284 357 411
#     4  10  22  44  68  97 133 176 231 292 347 408
#     4  11  25  46  66  92 140 172 222 288 339 414
#     4  11  25  41  71 101 138 187 232 280 345 409
#     4  11  25  44  67 101 136 183 234 281 350 415
#     4  10  25  45  66  99 140 182 233 286 348 418
#
# _framework density 26.893916000000001
#
# number of rings (size 3 to 8) (size 9 to 14) (size 15 to 20)
#    0.000    1.500    1.250    1.875    7.000    2.500 
#    2.250    0.000    0.000    0.000    0.000    0.000 
#    0.000    0.000    0.000    0.000    0.000    0.000 
#
# Total GULP energy -89354.533817 kJ/mol
# GULP energy per Si atom -5584.658364 kJ/mol
# Density = 2.683270 g / cm^3
# Si number density = 26.893916 Si / 1000 Ang^3
#
#
#
# Elastic Constant Matrix: (Units=GPa)
#
#
# Indices 1 2 3 4 5 6 
#
# 1 108.6961 72.4304 7.6043 -4.9383 9.0428 -7.8697
# 2 72.4304 151.0996 45.7514 -26.8226 6.4290 -2.4676
# 3 7.6043 45.7514 65.9548 -14.1148 8.9989 -5.9328
# 4 -4.9383 -26.8226 -14.1148 47.7508 -7.3284 3.9598
# 5 9.0428 6.4290 8.9989 -7.3284 31.4360 -4.2074
# 6 -7.8697 -2.4676 -5.9328 3.9598 -4.2074 42.0163
#
#
#
# Elastic Compliance Matrix: (Units=1/GPa)
#
#
# Indices 1 2 3 4 5 6 
#
# 1 0.015358 -0.009103 0.004735 -0.003013 -0.004229 0.002871
# 2 -0.009103 0.014276 -0.008340 0.005261 0.003013 -0.002238
# 3 0.004735 -0.008340 0.021613 0.001162 -0.005195 0.002819
# 4 -0.003013 0.005261 0.001162 0.024856 0.004994 -0.001934
# 5 -0.004229 0.003013 -0.005195 0.004994 0.035292 0.001715
# 6 0.002871 -0.002238 0.002819 -0.001934 0.001715 0.024959
#
#
# Mechanical properties :
#
#
# Convention : Reuss Voigt Hill
#
# Bulk Modulus (GPa) = 38.71676 64.14698 51.43187
# Shear Modulus (GPa) = 29.34612 37.57157 33.45885
#
# Velocity S-wave (km/s) = 3.30689 3.74174 3.53101
# Velocity P-wave (km/s) = 5.38591 6.52465 5.98244
#
# Compressibility (1/GPa) = 0.02582861
#
# Stress axis : x y z
#
# Youngs Moduli (GPa) = 65.11403 70.04590 46.26930
#
# Poissons Ratio (x) = 0.63766 -0.21907
# Poissons Ratio (y) = 0.59276 0.38590
# Poissons Ratio (z) = -0.30829 0.58420
#
# Static dielectric constant tensor:
#      x y z
#    x 2.254170 -0.048170 -0.040390 
#    y -0.048170 2.134680 -0.003240 
#    z -0.040390 -0.003240 2.218900 
# 
# From -- ./inp_files/139425.got.cif
#   From: 2010.05.17/outbox.cif.g08.bks.cpg/sg2_70_cif.got.tgz:139425.got - 2010.06.03 11:33:40.
