data_PCOD9033895
_publ_section_title
;
Structure prediction by ZEFSAII (Michael W. Deem and Ramdas Pophale) SiO2 
 PCOD9033895
Probable space group: P -1
;
_chemical_formula_sum "Si O2"
_cell_formula_units_Z 12
_cell_length_a 15.384359
_cell_length_b 8.805485
_cell_length_c 18.815162
_cell_angle_alpha 131.755890
_cell_angle_beta 18.832073
_cell_angle_gamma 139.974992
_cell_volume 507.450520
_symmetry_space_group_name_H-M "P -1"
_symmetry_group_IT_number 2
_symmetry_cell_setting 'triclinic'
loop_
_space_group_symop_operation_xyz
x,y,z
-x,-y,-z
loop_
_atom_site_type_symbol
_atom_site_label
_atom_site_fract_x
_atom_site_fract_y
_atom_site_fract_z
Si Si1 0.696143 0.779318 0.759536
Si Si2 0.353141 0.166736 0.671076
Si Si3 0.660513 0.039820 0.123355
Si Si4 0.366308 0.292568 0.384737
Si Si5 0.660272 0.371013 0.871950
Si Si6 0.650006 0.316135 0.625895
O O1 0.621506 0.734633 0.719166
O O2 0.730498 0.553602 0.681384
O O3 0.429325 0.723459 0.007337
O O4 0.019857 0.051438 0.601662
O O5 0.578617 0.449169 0.556796
O O6 0.348521 0.210233 0.772719
O O7 0.500000 0.000000 0.500000
O O8 0.998236 0.062018 0.880097
O O9 0.650603 0.275719 0.192792
O O10 0.471766 0.868879 0.148414
O O11 0.438105 0.898517 0.319796
O O12 0.039159 0.572974 0.630270
O O13 0.500000 0.500000 0.000000
#
# Coordination Sequence:
#
# PCOD9033895 Si02
#       6
#     2   2   2   2   2   2
#     4  10  22  44  70 108 141 187 225 295 360 411
#     4  11  26  47  69 100 142 192 237 283 358 427
#     4  12  23  44  71 108 140 185 234 293 351 416
#     4  10  23  46  72 101 148 181 234 295 352 416
#     4  12  22  38  73 108 138 179 241 284 342 427
#     4  11  23  45  72 100 145 181 233 292 354 418
#
# _framework density 23.647627
#
# number of rings (size 3 to 8) (size 9 to 14) (size 15 to 20)
#    0.000    1.000    3.333    3.500    0.000    0.667 
#    0.000    3.333    0.000    0.000    0.000    0.000 
#    0.000    0.000    0.000    0.000    0.000    0.000 
#
# Total GULP energy -67000.514541 kJ/mol
# GULP energy per Si atom -5583.376212 kJ/mol
# Density = 2.359380 g / cm^3
# Si number density = 23.647627 Si / 1000 Ang^3
#
#
#
# Elastic Constant Matrix: (Units=GPa)
#
#
# Indices 1 2 3 4 5 6 
#
# 1 60.3825 30.1748 46.3231 -10.3399 -4.8412 -17.6787
# 2 30.1748 158.5450 46.2739 -1.3634 -21.6054 -20.8835
# 3 46.3231 46.2739 127.8777 -20.4351 -6.5034 -6.2604
# 4 -10.3399 -1.3634 -20.4351 33.9113 -9.6362 -10.5363
# 5 -4.8412 -21.6054 -6.5034 -9.6362 45.9365 3.7512
# 6 -17.6787 -20.8835 -6.2604 -10.5363 3.7512 37.2916
#
#
#
# Elastic Compliance Matrix: (Units=1/GPa)
#
#
# Indices 1 2 3 4 5 6 
#
# 1 0.029001 -0.000958 -0.007893 0.009106 0.002236 0.014235
# 2 -0.000958 0.008021 -0.002084 0.000815 0.003254 0.003591
# 3 -0.007893 -0.002084 0.012135 0.004587 0.001005 -0.001677
# 4 0.009106 0.000815 0.004587 0.042999 0.009647 0.016722
# 5 0.002236 0.003254 0.001005 0.009647 0.025439 0.003218
# 6 0.014235 0.003591 -0.001677 0.016722 0.003218 0.039694
#
#
# Mechanical properties :
#
#
# Convention : Reuss Voigt Hill
#
# Bulk Modulus (GPa) = 36.64617 65.81654 51.23135
# Shear Modulus (GPa) = 26.55949 38.36346 32.46147
#
# Velocity S-wave (km/s) = 3.35496 4.03214 3.70904
# Velocity P-wave (km/s) = 5.52613 7.04061 6.32883
#
# Compressibility (1/GPa) = 0.02728798
#
# Stress axis : x y z
#
# Youngs Moduli (GPa) = 34.48105 124.66581 82.40326
#
# Poissons Ratio (x) = 0.11941 0.65043
# Poissons Ratio (y) = 0.03303 0.17174
# Poissons Ratio (z) = 0.27217 0.25982
#
# Static dielectric constant tensor:
#      x y z
#    x 1.897880 -0.011090 -0.040480 
#    y -0.011090 1.985440 0.060620 
#    z -0.040480 0.060620 1.979840 
# 
# From -- ./inp_files/229787.got.cif
#   From: 2010.05.17/outbox.cif.g08.bks.cpg/sg2_115_cif.got.tgz:229787.got - 2010.06.03 11:33:40.
