data_PCOD9033392
_publ_section_title
;
Structure prediction by ZEFSAII (Michael W. Deem and Ramdas Pophale) SiO2 
 PCOD9033392
Probable space group: P -1
;
_chemical_formula_sum "Si O2"
_cell_formula_units_Z 16
_cell_length_a 22.112064
_cell_length_b 7.600041
_cell_length_c 9.324924
_cell_angle_alpha 50.707922
_cell_angle_beta 130.151545
_cell_angle_gamma 147.428541
_cell_volume 629.257591
_symmetry_space_group_name_H-M "P -1"
_symmetry_group_IT_number 2
_symmetry_cell_setting 'triclinic'
loop_
_space_group_symop_operation_xyz
x,y,z
-x,-y,-z
loop_
_atom_site_type_symbol
_atom_site_label
_atom_site_fract_x
_atom_site_fract_y
_atom_site_fract_z
Si Si1 0.913796 0.364174 0.068064
Si Si2 0.093978 0.138522 0.195313
Si Si3 0.969261 0.711077 0.505381
Si Si4 0.331181 0.206445 0.904710
Si Si5 0.474854 0.431951 0.754916
Si Si6 0.544713 0.990095 0.422247
Si Si7 0.291621 0.698545 0.725869
Si Si8 0.689634 0.383200 0.890252
O O1 0.991370 0.440537 0.281847
O O2 0.792478 0.984588 0.119206
O O3 0.876502 0.541300 0.879988
O O4 0.000000 0.500000 0.000000
O O5 0.210279 0.291095 0.220746
O O6 0.038174 0.889006 0.370124
O O7 0.000000 0.000000 0.000000
O O8 0.831232 0.436620 0.411783
O O9 0.000000 0.000000 0.500000
O O10 0.382096 0.379802 0.737356
O O11 0.433939 0.468268 0.040102
O O12 0.315907 0.899313 0.010015
O O13 0.552155 0.743129 0.606182
O O14 0.395492 0.087418 0.729198
O O15 0.435850 0.792302 0.252301
O O16 0.500000 0.000000 0.500000
O O17 0.660751 0.302579 0.350606
O O18 0.280533 0.528186 0.942576
#
# Coordination Sequence:
#
# PCOD9033392 Si02
#       8
#     2   2   2   2   2   2   2   2
#     4  11  25  44  73 104 139 190 234 289 358 424
#     4  11  24  48  70 105 140 183 237 296 354 416
#     4  12  27  47  74 104 144 192 241 297 356 430
#     4   9  21  43  68  95 141 174 228 282 351 417
#     4  10  22  44  67  98 135 184 223 290 347 416
#     4  12  25  40  71 105 132 183 231 285 355 418
#     4  11  26  47  66 100 143 179 236 290 353 425
#     4  10  22  45  68  99 141 176 227 292 348 423
#
# _framework density 25.426791999999999
#
# number of rings (size 3 to 8) (size 9 to 14) (size 15 to 20)
#    0.000    1.250    3.750    0.750    5.250    1.500 
#    4.500    0.000    0.000    0.000    0.000    0.000 
#    0.000    0.000    0.000    0.000    0.000    0.000 
#
# Total GULP energy -89414.671427 kJ/mol
# GULP energy per Si atom -5588.416964 kJ/mol
# Density = 2.536892 g / cm^3
# Si number density = 25.426792 Si / 1000 Ang^3
#
#
#
# Elastic Constant Matrix: (Units=GPa)
#
#
# Indices 1 2 3 4 5 6 
#
# 1 121.8262 63.3283 46.7279 -13.1691 -34.8072 38.7479
# 2 63.3283 99.2006 22.1299 2.7555 -27.6899 49.0245
# 3 46.7279 22.1299 130.5714 -12.9437 -29.7967 33.7464
# 4 -13.1691 2.7555 -12.9437 44.3975 12.0361 -12.7111
# 5 -34.8072 -27.6899 -29.7967 12.0361 33.7324 -8.9511
# 6 38.7479 49.0245 33.7464 -12.7111 -8.9511 64.0703
#
#
#
# Elastic Compliance Matrix: (Units=1/GPa)
#
#
# Indices 1 2 3 4 5 6 
#
# 1 0.015192 -0.006061 -0.001901 0.001578 0.007893 -0.002134
# 2 -0.006061 0.031522 0.007184 -0.015270 0.025111 -0.023759
# 3 -0.001901 0.007184 0.012368 -0.003894 0.013670 -0.009724
# 4 0.001578 -0.015270 -0.003894 0.033432 -0.021937 0.016349
# 5 0.007893 0.025111 0.013670 -0.021937 0.071526 -0.025547
# 6 -0.002134 -0.023759 -0.009724 0.016349 -0.025547 0.039874
#
#
# Mechanical properties :
#
#
# Convention : Reuss Voigt Hill
#
# Bulk Modulus (GPa) = 17.38291 68.44116 42.91204
# Shear Modulus (GPa) = 22.25726 43.06752 32.66239
#
# Velocity S-wave (km/s) = 2.96184 4.12003 3.58797
# Velocity P-wave (km/s) = 4.30673 7.04331 5.83764
#
# Compressibility (1/GPa) = 0.05752775
#
# Stress axis : x y z
#
# Youngs Moduli (GPa) = 65.82287 31.72356 80.85370
#
# Poissons Ratio (x) = 0.19226 0.15367
# Poissons Ratio (y) = 0.39893 -0.58083
# Poissons Ratio (z) = 0.12510 -0.22789
#
# Static dielectric constant tensor:
#      x y z
#    x 2.003410 0.136190 -0.103720 
#    y 0.136190 1.789740 0.121000 
#    z -0.103720 0.121000 1.870510 
# 
# From -- ./inp_files/335584.got.cif
#   From: 2010.05.17/outbox.cif.g08.bks.cpg/sg2_168_cif.got.tgz:335584.got - 2010.06.03 11:33:40.
