data_PCOD9033399
_publ_section_title
;
Structure prediction by ZEFSAII (Michael W. Deem and Ramdas Pophale) SiO2 
 PCOD9033399
Probable space group: P -1
;
_chemical_formula_sum "Si O2"
_cell_formula_units_Z 14
_cell_length_a 11.662104
_cell_length_b 11.134180
_cell_length_c 5.712464
_cell_angle_alpha 75.611196
_cell_angle_beta 109.017041
_cell_angle_gamma 126.211028
_cell_volume 564.289081
_symmetry_space_group_name_H-M "P -1"
_symmetry_group_IT_number 2
_symmetry_cell_setting 'triclinic'
loop_
_space_group_symop_operation_xyz
x,y,z
-x,-y,-z
loop_
_atom_site_type_symbol
_atom_site_label
_atom_site_fract_x
_atom_site_fract_y
_atom_site_fract_z
Si Si1 0.853888 0.500142 0.605690
Si Si2 0.555583 0.403844 0.692968
Si Si3 0.680433 0.851811 0.117531
Si Si4 0.465611 0.917185 0.765747
Si Si5 0.756136 0.626118 0.073652
Si Si6 0.133954 0.742997 0.525476
Si Si7 0.955432 0.113810 0.984730
O O1 0.705001 0.430795 0.682496
O O2 0.879667 0.372502 0.623620
O O3 0.014015 0.647069 0.692578
O O4 0.818708 0.561299 0.322899
O O5 0.500000 0.500000 0.500000
O O6 0.612489 0.483703 0.942472
O O7 0.421245 0.231523 0.684617
O O8 0.564942 0.850819 0.868548
O O9 0.723722 0.738184 0.122409
O O10 0.825159 0.019317 0.131935
O O11 0.292237 0.808981 0.702663
O O12 0.500000 0.000000 0.500000
O O13 0.500000 0.000000 0.000000
O O14 0.888673 0.733088 0.930369
O O15 0.109382 0.854167 0.305058
O O16 0.000000 0.000000 0.000000
#
# Coordination Sequence:
#
# PCOD9033399 Si02
#       7
#     2   2   2   2   2   2   2
#     4  10  23  45  71 102 141 191 249 309 376 450
#     4  12  25  39  69 106 142 190 244 309 373 453
#     4  11  23  42  70 104 143 188 242 311 374 441
#     4  12  28  47  73 110 153 203 249 314 384 454
#     4  10  22  44  67  98 142 190 241 301 373 448
#     4  10  22  47  72 101 146 194 251 310 379 453
#     4   9  20  42  71  97 141 191 244 309 372 452
#
# _framework density 24.809978999999998
#
# number of rings (size 3 to 8) (size 9 to 14) (size 15 to 20)
#    0.000    1.429    2.857    1.286    4.000    1.143 
#    0.000    5.000    0.000    0.000    0.000    0.000 
#    0.000    0.000    0.000    0.000    0.000    0.000 
#
# Total GULP energy -78161.536359 kJ/mol
# GULP energy per Si atom -5582.966883 kJ/mol
# Density = 2.475351 g / cm^3
# Si number density = 24.809979 Si / 1000 Ang^3
#
#
#
# Elastic Constant Matrix: (Units=GPa)
#
#
# Indices 1 2 3 4 5 6 
#
# 1 163.7116 41.8826 20.8090 -19.2604 -0.3758 17.0372
# 2 41.8826 112.7479 28.5904 -19.1875 -8.3196 39.0072
# 3 20.8090 28.5904 45.9251 -15.6687 11.7887 -6.0616
# 4 -19.2604 -19.1875 -15.6687 32.8279 2.5196 6.5058
# 5 -0.3758 -8.3196 11.7887 2.5196 54.9157 -17.1126
# 6 17.0372 39.0072 -6.0616 6.5058 -17.1126 68.0154
#
#
#
# Elastic Compliance Matrix: (Units=1/GPa)
#
#
# Indices 1 2 3 4 5 6 
#
# 1 0.007148 -0.001197 -0.001525 0.003130 -0.000465 -0.001656
# 2 -0.001197 0.016310 -0.008973 0.006511 0.000896 -0.010251
# 3 -0.001525 -0.008973 0.033910 0.009451 -0.007270 0.005817
# 4 0.003130 0.006511 0.009451 0.042900 -0.005874 -0.009257
# 5 -0.000465 0.000896 -0.007270 -0.005874 0.021725 0.004983
# 6 -0.001656 -0.010251 0.005817 -0.009257 0.004983 0.023654
#
#
# Mechanical properties :
#
#
# Convention : Reuss Voigt Hill
#
# Bulk Modulus (GPa) = 29.43076 56.10539 42.76807
# Shear Modulus (GPa) = 27.72185 46.55865 37.14025
#
# Velocity S-wave (km/s) = 3.34633 4.33668 3.87329
# Velocity P-wave (km/s) = 5.17869 6.90934 6.10564
#
# Compressibility (1/GPa) = 0.03397806
#
# Stress axis : x y z
#
# Youngs Moduli (GPa) = 139.90045 61.31188 29.48977
#
# Poissons Ratio (x) = 0.07341 0.04497
# Poissons Ratio (y) = 0.16750 0.26461
# Poissons Ratio (z) = 0.21332 0.55015
#
# Static dielectric constant tensor:
#      x y z
#    x 1.906360 0.041190 -0.153960 
#    y 0.041190 2.024770 -0.004990 
#    z -0.153960 -0.004990 1.958720 
# 
# From -- ./inp_files/69413.got.cif
#   From: 2010.05.17/outbox.cif.g08.bks.cpg/sg2_35_cif.got.tgz:69413.got - 2010.06.03 11:33:40.
