data_PCOD9033352
_publ_section_title
;
Structure prediction by ZEFSAII (Michael W. Deem and Ramdas Pophale) SiO2 
 PCOD9033352
Probable space group: P -1
;
_chemical_formula_sum "Si O2"
_cell_formula_units_Z 16
_cell_length_a 9.298564
_cell_length_b 23.044011
_cell_length_c 9.591210
_cell_angle_alpha 26.826767
_cell_angle_beta 47.292624
_cell_angle_gamma 49.210401
_cell_volume 674.357173
_symmetry_space_group_name_H-M "P -1"
_symmetry_group_IT_number 2
_symmetry_cell_setting 'triclinic'
loop_
_space_group_symop_operation_xyz
x,y,z
-x,-y,-z
loop_
_atom_site_type_symbol
_atom_site_label
_atom_site_fract_x
_atom_site_fract_y
_atom_site_fract_z
Si Si1 0.362569 0.921551 0.854195
Si Si2 0.877945 0.596590 0.767134
Si Si3 0.029942 0.859468 0.708055
Si Si4 0.344534 0.403416 0.345087
Si Si5 0.860537 0.208198 0.919450
Si Si6 0.561799 0.630021 0.114672
Si Si7 0.407989 0.889241 0.212020
Si Si8 0.714407 0.707308 0.107659
O O1 0.500000 0.000000 0.500000
O O2 0.172844 0.913071 0.898752
O O3 0.345756 0.953676 0.961626
O O4 0.487491 0.777992 0.101549
O O5 0.840901 0.555659 0.721840
O O6 0.999722 0.715549 0.426582
O O7 0.656060 0.621356 0.920001
O O8 0.000000 0.500000 0.000000
O O9 0.217341 0.855426 0.492981
O O10 0.053864 0.782969 0.001072
O O11 0.000000 0.000000 0.500000
O O12 0.852839 0.809439 0.848500
O O13 0.440567 0.248729 0.596769
O O14 0.277529 0.408417 0.539484
O O15 0.500000 0.500000 0.000000
O O16 0.634859 0.268325 0.971125
O O17 0.500000 0.500000 0.500000
O O18 0.737504 0.665839 0.021949
O O19 0.500000 0.000000 0.000000
#
# Coordination Sequence:
#
# PCOD9033352 Si02
#       8
#     2   2   2   2   2   2   2   2
#     4  10  22  44  67  96 133 176 227 290 351 412
#     4  12  25  41  70 101 137 182 233 288 353 424
#     4  12  24  45  67 100 139 181 240 295 341 423
#     4  11  24  46  71 101 140 185 232 288 353 422
#     4  11  24  44  68  97 138 183 227 291 357 411
#     4  11  23  43  65  95 139 178 224 283 353 422
#     4  11  25  44  75 103 139 188 236 286 361 425
#     4  10  23  41  65  96 133 176 224 285 347 412
#
# _framework density 23.726298
#
# number of rings (size 3 to 8) (size 9 to 14) (size 15 to 20)
#    0.000    1.000    2.500    4.500    5.250    1.000 
#    0.000    3.125    0.000    0.000    0.000    0.000 
#    0.000    0.000    0.000    0.000    0.000    0.000 
#
# Total GULP energy -89207.249422 kJ/mol
# GULP energy per Si atom -5575.453089 kJ/mol
# Density = 2.367230 g / cm^3
# Si number density = 23.726298 Si / 1000 Ang^3
#
#
#
# Elastic Constant Matrix: (Units=GPa)
#
#
# Indices 1 2 3 4 5 6 
#
# 1 97.2151 0.7000 13.1954 -9.7158 -0.5194 22.3897
# 2 0.7000 45.0634 -2.5480 13.0548 6.5013 2.7978
# 3 13.1954 -2.5480 119.2743 15.9143 -4.7626 12.0671
# 4 -9.7158 13.0548 15.9143 33.7048 8.3872 -2.9305
# 5 -0.5194 6.5013 -4.7626 8.3872 48.9642 3.6154
# 6 22.3897 2.7978 12.0671 -2.9305 3.6154 36.0842
#
#
#
# Elastic Compliance Matrix: (Units=1/GPa)
#
#
# Indices 1 2 3 4 5 6 
#
# 1 0.012447 -0.000974 -0.001226 0.003949 -0.000024 -0.006914
# 2 -0.000974 0.026029 0.002475 -0.011544 -0.001021 -0.003077
# 3 -0.001226 0.002475 0.009918 -0.006809 0.002048 -0.003506
# 4 0.003949 -0.011544 -0.006809 0.040482 -0.006365 0.004647
# 5 -0.000024 -0.001021 0.002048 -0.006365 0.022093 -0.003322
# 6 -0.006914 -0.003077 -0.003506 0.004647 -0.003322 0.034124
#
#
# Mechanical properties :
#
#
# Convention : Reuss Voigt Hill
#
# Bulk Modulus (GPa) = 20.43227 31.58308 26.00767
# Shear Modulus (GPa) = 31.08335 40.43099 35.75717
#
# Velocity S-wave (km/s) = 3.62343 4.13250 3.88631
# Velocity P-wave (km/s) = 5.11234 6.00919 5.57882
#
# Compressibility (1/GPa) = 0.04894219
#
# Stress axis : x y z
#
# Youngs Moduli (GPa) = 80.34124 38.41920 100.83142
#
# Poissons Ratio (x) = 0.03742 0.12363
# Poissons Ratio (y) = 0.07825 -0.24951
# Poissons Ratio (z) = 0.09851 -0.09507
#
# Static dielectric constant tensor:
#      x y z
#    x 1.925690 0.045680 -0.029010 
#    y 0.045680 2.081410 -0.027810 
#    z -0.029010 -0.027810 1.822140 
# 
# From -- ./inp_files/208562.got.cif
#   From: 2010.05.17/outbox.cif.g08.bks.cpg/sg2_105_cif.got.tgz:208562.got - 2010.06.03 11:33:40.
