data_PCOD9033534
_publ_section_title
;
Structure prediction by ZEFSAII (Michael W. Deem and Ramdas Pophale) SiO2 
 PCOD9033534
Probable space group: P -1
;
_chemical_formula_sum "Si O2"
_cell_formula_units_Z 14
_cell_length_a 5.267753
_cell_length_b 9.351243
_cell_length_c 23.942570
_cell_angle_alpha 43.804000
_cell_angle_beta 124.327943
_cell_angle_gamma 135.804584
_cell_volume 566.458726
_symmetry_space_group_name_H-M "P -1"
_symmetry_group_IT_number 2
_symmetry_cell_setting 'triclinic'
loop_
_space_group_symop_operation_xyz
x,y,z
-x,-y,-z
loop_
_atom_site_type_symbol
_atom_site_label
_atom_site_fract_x
_atom_site_fract_y
_atom_site_fract_z
Si Si1 0.878530 0.883264 0.685134
Si Si2 0.802623 0.423682 0.170514
Si Si3 0.066579 0.901381 0.255376
Si Si4 0.198866 0.162998 0.881441
Si Si5 0.634804 0.010756 0.452021
Si Si6 0.014234 0.631746 0.023150
Si Si7 0.536571 0.279763 0.583510
O O1 0.462459 0.808865 0.642963
O O2 0.904604 0.650202 0.762819
O O3 0.069246 0.052828 0.716004
O O4 0.147593 0.045773 0.621999
O O5 0.922873 0.671246 0.149489
O O6 0.754285 0.459708 0.089113
O O7 0.424879 0.178287 0.212311
O O8 0.188229 0.711789 0.339248
O O9 0.832137 0.825887 0.192140
O O10 0.593887 0.272834 0.926845
O O11 0.993271 0.871879 0.949324
O O12 0.500000 0.000000 0.500000
O O13 0.352579 0.777258 0.445891
O O14 0.000000 0.000000 0.500000
O O15 0.000000 0.500000 0.000000
O O16 0.500000 0.500000 0.500000
#
# Coordination Sequence:
#
# PCOD9033534 Si02
#       7
#     2   2   2   2   2   2   2
#     4  10  22  44  68  94 145 187 236 302 371 432
#     4  11  23  43  68  99 137 187 238 300 367 434
#     4  10  24  44  67  97 142 183 240 298 368 436
#     4  11  24  42  69 104 135 187 241 294 367 443
#     4  11  22  42  68 102 137 185 242 296 362 440
#     4  11  25  44  67 101 145 184 235 301 368 440
#     4  10  23  44  68 101 139 187 236 307 368 436
#
# _framework density 24.714950000000002
#
# number of rings (size 3 to 8) (size 9 to 14) (size 15 to 20)
#    0.000    1.429    1.429    3.000    0.000   10.286 
#    2.571    0.000    0.000    0.000    0.000    0.000 
#    0.000    0.000    0.000    0.000    0.000    0.000 
#
# Total GULP energy -78112.605664 kJ/mol
# GULP energy per Si atom -5579.471833 kJ/mol
# Density = 2.465870 g / cm^3
# Si number density = 24.714950 Si / 1000 Ang^3
#
#
#
# Elastic Constant Matrix: (Units=GPa)
#
#
# Indices 1 2 3 4 5 6 
#
# 1 90.2824 69.0251 46.5019 8.8334 14.7186 -23.5958
# 2 69.0251 140.7816 105.4956 19.9296 10.1551 -25.4268
# 3 46.5019 105.4956 186.7618 9.3997 17.9483 -23.8923
# 4 8.8334 19.9296 9.3997 54.9461 -7.5606 -2.7147
# 5 14.7186 10.1551 17.9483 -7.5606 56.9961 4.7735
# 6 -23.5958 -25.4268 -23.8923 -2.7147 4.7735 43.3858
#
#
#
# Elastic Compliance Matrix: (Units=1/GPa)
#
#
# Indices 1 2 3 4 5 6 
#
# 1 0.019997 -0.009472 0.001697 -0.000373 -0.004625 0.006745
# 2 -0.009472 0.018068 -0.007664 -0.003525 0.001099 0.000876
# 3 0.001697 -0.007664 0.009705 0.000644 -0.002216 0.002060
# 4 -0.000373 -0.003525 0.000644 0.019823 0.003238 -0.001030
# 5 -0.004625 0.001099 -0.002216 0.003238 0.020098 -0.005100
# 6 0.006745 0.000876 0.002060 -0.001030 -0.005100 0.028862
#
#
# Mechanical properties :
#
#
# Convention : Reuss Voigt Hill
#
# Bulk Modulus (GPa) = 59.19438 95.54123 77.36781
# Shear Modulus (GPa) = 32.66675 44.18580 38.42628
#
# Velocity S-wave (km/s) = 3.63952 4.23285 3.94735
# Velocity P-wave (km/s) = 6.45479 7.91394 7.22132
#
# Compressibility (1/GPa) = 0.01689349
#
# Stress axis : x y z
#
# Youngs Moduli (GPa) = 50.00727 55.34596 103.03964
#
# Poissons Ratio (x) = 0.52423 -0.17490
# Poissons Ratio (y) = 0.47366 0.78968
# Poissons Ratio (z) = -0.08488 0.42416
#
# Static dielectric constant tensor:
#      x y z
#    x 2.102290 0.026440 0.049740 
#    y 0.026440 1.981000 -0.046560 
#    z 0.049740 -0.046560 2.067520 
# 
# From -- ./inp_files/603952.got.cif
#   From: 2010.05.17/outbox.cif.g08.bks.cpg/sg2_302_cif.got.tgz:603952.got - 2010.06.03 11:33:40.
