data_PCOD9033832
_publ_section_title
;
Structure prediction by ZEFSAII (Michael W. Deem and Ramdas Pophale) SiO2 
 PCOD9033832
Probable space group: P -1
;
_chemical_formula_sum "Si O2"
_cell_formula_units_Z 13
_cell_length_a 18.972598
_cell_length_b 5.161792
_cell_length_c 17.438318
_cell_angle_alpha 129.103968
_cell_angle_beta 158.299213
_cell_angle_gamma 50.584433
_cell_volume 482.848718
_symmetry_space_group_name_H-M "P -1"
_symmetry_group_IT_number 2
_symmetry_cell_setting 'triclinic'
loop_
_space_group_symop_operation_xyz
x,y,z
-x,-y,-z
loop_
_atom_site_type_symbol
_atom_site_label
_atom_site_fract_x
_atom_site_fract_y
_atom_site_fract_z
Si Si1 0.312395 0.472668 0.937240
Si Si2 0.727620 0.849753 0.780623
Si Si3 0.733522 0.229634 0.292624
Si Si4 0.203970 0.733076 0.474803
Si Si5 0.504906 0.553303 0.630568
Si Si6 0.000000 0.500000 0.500000
Si Si7 0.997966 0.127562 0.199582
O O1 0.192588 0.594602 0.762350
O O2 0.199087 0.634166 0.926998
O O3 0.316355 0.068879 0.865240
O O4 0.539486 0.492964 0.164006
O O5 0.606715 0.792090 0.724499
O O6 0.676240 0.556016 0.618990
O O7 0.646637 0.202518 0.722870
O O8 0.940236 0.889734 0.029697
O O9 0.815328 0.059196 0.425865
O O10 0.903194 0.399219 0.463623
O O11 0.417465 0.699051 0.649421
O O12 0.145977 0.369524 0.367487
O O13 0.068824 0.913544 0.306038
#
# Coordination Sequence:
#
# PCOD9033832 Si02
#       7
#     2   2   2   2   2   1   2
#     4  11  25  44  67  96 135 183 225 285 342 408
#     4  10  22  44  70 102 135 182 226 285 340 418
#     4  11  26  44  68  97 137 183 232 281 351 401
#     4  12  26  44  67 102 138 182 227 293 335 412
#     4  10  22  44  72  98 139 178 230 281 347 408
#     4  12  22  46  68  98 134 176 234 292 332 420
#     4  12  26  42  69 100 141 177 232 287 342 403
#
# _framework density 26.923546000000002
#
# number of rings (size 3 to 8) (size 9 to 14) (size 15 to 20)
#    0.000    0.923    1.538    4.615    2.154    1.231 
#    2.769    0.000    0.000    0.000    0.000    0.000 
#    0.000    0.000    0.000    0.000    0.000    0.000 
#
# Total GULP energy -72737.614558 kJ/mol
# GULP energy per Si atom -5595.201120 kJ/mol
# Density = 2.686227 g / cm^3
# Si number density = 26.923546 Si / 1000 Ang^3
#
#
#
# Elastic Constant Matrix: (Units=GPa)
#
#
# Indices 1 2 3 4 5 6 
#
# 1 133.2634 35.5436 13.7320 1.6013 9.6900 15.8048
# 2 35.5436 53.1136 35.4056 13.6389 7.1235 19.8346
# 3 13.7320 35.4056 115.9743 -5.4899 -6.8038 15.4109
# 4 1.6013 13.6389 -5.4899 55.4874 -6.2781 0.8266
# 5 9.6900 7.1235 -6.8038 -6.2781 34.5513 -11.5789
# 6 15.8048 19.8346 15.4109 0.8266 -11.5789 39.0145
#
#
#
# Elastic Compliance Matrix: (Units=1/GPa)
#
#
# Indices 1 2 3 4 5 6 
#
# 1 0.009411 -0.006819 0.001120 0.001403 -0.001146 -0.001158
# 2 -0.006819 0.045597 -0.012118 -0.014104 -0.019517 -0.021126
# 3 0.001120 -0.012118 0.012451 0.004862 0.006384 0.002580
# 4 0.001403 -0.014104 0.004862 0.022959 0.010049 0.007177
# 5 -0.001146 -0.019517 0.006384 0.010049 0.043235 0.020484
# 6 -0.001158 -0.021126 0.002580 0.007177 0.020484 0.041749
#
#
# Mechanical properties :
#
#
# Convention : Reuss Voigt Hill
#
# Bulk Modulus (GPa) = 31.42052 52.41265 41.91658
# Shear Modulus (GPa) = 22.55859 40.32199 31.44029
#
# Velocity S-wave (km/s) = 2.89775 3.87414 3.42096
# Velocity P-wave (km/s) = 4.78451 6.28661 5.58628
#
# Compressibility (1/GPa) = 0.03182634
#
# Stress axis : x y z
#
# Youngs Moduli (GPa) = 106.25863 21.93118 80.31262
#
# Poissons Ratio (x) = 0.14954 -0.08999
# Poissons Ratio (y) = 0.72455 0.97325
# Poissons Ratio (z) = -0.11906 0.26577
#
# Static dielectric constant tensor:
#      x y z
#    x 2.030450 -0.095030 -0.020340 
#    y -0.095030 1.779090 0.056280 
#    z -0.020340 0.056280 2.025040 
# 
# From -- ./inp_files/576758.got.cif
#   From: 2010.05.17/outbox.cif.g08.bks.cpg/sg2_289_cif.got.tgz:576758.got - 2010.06.03 11:33:40.
