data_PCOD9033745
_publ_section_title
;
Structure prediction by ZEFSAII (Michael W. Deem and Ramdas Pophale) SiO2 
 PCOD9033745
Probable space group: P -1
;
_chemical_formula_sum "Si O2"
_cell_formula_units_Z 16
_cell_length_a 9.513340
_cell_length_b 12.202383
_cell_length_c 8.280800
_cell_angle_alpha 61.170245
_cell_angle_beta 124.293953
_cell_angle_gamma 107.485471
_cell_volume 695.187010
_symmetry_space_group_name_H-M "P -1"
_symmetry_group_IT_number 2
_symmetry_cell_setting 'triclinic'
loop_
_space_group_symop_operation_xyz
x,y,z
-x,-y,-z
loop_
_atom_site_type_symbol
_atom_site_label
_atom_site_fract_x
_atom_site_fract_y
_atom_site_fract_z
Si Si1 0.064781 0.123427 0.770083
Si Si2 0.467799 0.200860 0.250362
Si Si3 0.036028 0.353675 0.172182
Si Si4 0.558652 0.865788 0.089626
Si Si5 0.853550 0.881292 0.794480
Si Si6 0.608335 0.620558 0.424091
Si Si7 0.832500 0.322286 0.372827
Si Si8 0.673503 0.566009 0.132303
O O1 0.236789 0.130565 0.775282
O O2 0.975993 0.254854 0.610238
O O3 0.113307 0.105666 0.000545
O O4 0.942651 0.012060 0.700145
O O5 0.354215 0.115146 0.358670
O O6 0.653199 0.260791 0.365569
O O7 0.490059 0.154935 0.114503
O O8 0.329577 0.309677 0.062705
O O9 0.058748 0.239060 0.141849
O O10 0.219765 0.363404 0.373427
O O11 0.885397 0.307336 0.230611
O O12 0.000000 0.500000 0.000000
O O13 0.505418 0.748829 0.253551
O O14 0.500000 0.000000 0.000000
O O15 0.500000 0.500000 0.500000
O O16 0.652826 0.596636 0.283381
O O17 0.821011 0.470724 0.276907
O O18 0.500000 0.500000 0.000000
#
# Coordination Sequence:
#
# PCOD9033745 Si02
#       8
#     2   2   2   2   2   2   2   2
#     4  10  23  46  69  98 132 186 231 286 344 418
#     4   9  21  41  66  94 130 180 219 270 344 414
#     4  12  28  41  66 105 142 180 228 296 351 400
#     4  10  22  44  69  96 135 183 229 283 353 413
#     4  10  24  45  66  94 145 173 233 285 344 413
#     4  11  26  44  66 105 138 180 239 282 349 418
#     4  11  23  41  69  98 129 180 228 275 350 410
#     4   9  21  42  69  91 136 177 222 274 342 419
#
# _framework density 23.015388000000002
#
# number of rings (size 3 to 8) (size 9 to 14) (size 15 to 20)
#    0.000    1.750    1.250    0.750   12.250    2.500 
#    4.500    0.000    0.000    0.000    0.000    0.000 
#    0.000    0.000    0.000    0.000    0.000    0.000 
#
# Total GULP energy -89261.699572 kJ/mol
# GULP energy per Si atom -5578.856223 kJ/mol
# Density = 2.296300 g / cm^3
# Si number density = 23.015388 Si / 1000 Ang^3
#
#
#
# Elastic Constant Matrix: (Units=GPa)
#
#
# Indices 1 2 3 4 5 6 
#
# 1 80.1813 21.5989 1.3981 -9.4400 5.0483 15.8017
# 2 21.5989 104.0558 11.5577 -14.6123 10.3092 -0.0091
# 3 1.3981 11.5577 58.4560 -16.1025 16.5489 -4.7097
# 4 -9.4400 -14.6123 -16.1025 28.6246 -5.7941 8.4450
# 5 5.0483 10.3092 16.5489 -5.7941 30.2024 -8.9486
# 6 15.8017 -0.0091 -4.7097 8.4450 -8.9486 41.1606
#
#
#
# Elastic Compliance Matrix: (Units=1/GPa)
#
#
# Indices 1 2 3 4 5 6 
#
# 1 0.015707 -0.002123 0.002568 0.007057 -0.004364 -0.008133
# 2 -0.002123 0.010959 -0.000202 0.004453 -0.002625 -0.000690
# 3 0.002568 -0.000202 0.023673 0.012670 -0.011929 -0.003470
# 4 0.007057 0.004453 0.012670 0.049510 -0.003769 -0.012236
# 5 -0.004364 -0.002625 -0.011929 -0.003769 0.043684 0.010580
# 6 -0.008133 -0.000690 -0.003470 -0.012236 0.010580 0.031831
#
#
# Mechanical properties :
#
#
# Convention : Reuss Voigt Hill
#
# Bulk Modulus (GPa) = 19.67488 34.64470 27.15979
# Shear Modulus (GPa) = 26.06631 33.87342 29.96987
#
# Velocity S-wave (km/s) = 3.36900 3.84053 3.61247
# Velocity P-wave (km/s) = 4.86834 5.89506 5.40613
#
# Compressibility (1/GPa) = 0.05082623
#
# Stress axis : x y z
#
# Youngs Moduli (GPa) = 63.66452 91.25229 42.24201
#
# Poissons Ratio (x) = 0.19372 -0.10849
# Poissons Ratio (y) = 0.13516 0.00852
# Poissons Ratio (z) = -0.16350 0.01840
#
# Static dielectric constant tensor:
#      x y z
#    x 1.893970 0.070360 -0.035900 
#    y 0.070360 1.964630 -0.059350 
#    z -0.035900 -0.059350 1.886560 
# 
# From -- ./inp_files/185347.got.cif
#   From: 2010.05.17/outbox.cif.g08.bks.cpg/sg2_93_cif.got.tgz:185347.got - 2010.06.03 11:33:40.
