data_PCOD9033565
_publ_section_title
;
Structure prediction by ZEFSAII (Michael W. Deem and Ramdas Pophale) SiO2 
 PCOD9033565
Probable space group: P -1
;
_chemical_formula_sum "Si O2"
_cell_formula_units_Z 16
_cell_length_a 19.488964
_cell_length_b 8.609345
_cell_length_c 10.823323
_cell_angle_alpha 97.450198
_cell_angle_beta 43.792170
_cell_angle_gamma 131.585273
_cell_volume 693.469285
_symmetry_space_group_name_H-M "P -1"
_symmetry_group_IT_number 2
_symmetry_cell_setting 'triclinic'
loop_
_space_group_symop_operation_xyz
x,y,z
-x,-y,-z
loop_
_atom_site_type_symbol
_atom_site_label
_atom_site_fract_x
_atom_site_fract_y
_atom_site_fract_z
Si Si1 0.671965 0.334296 0.463661
Si Si2 0.361948 0.880204 0.267408
Si Si3 0.070602 0.327283 0.440123
Si Si4 0.965094 0.952154 0.184890
Si Si5 0.431131 0.305490 0.684471
Si Si6 0.120117 0.830971 0.576432
Si Si7 0.856295 0.328781 0.060962
Si Si8 0.775707 0.742041 0.908634
O O1 0.590869 0.129179 0.661272
O O2 0.849511 0.645350 0.323126
O O3 0.562310 0.338313 0.557680
O O4 0.720445 0.281766 0.283961
O O5 0.173919 0.572531 0.424444
O O6 0.310085 0.994099 0.356078
O O7 0.500000 0.000000 0.000000
O O8 0.220895 0.413520 0.188819
O O9 0.957135 0.255761 0.470330
O O10 0.929085 0.041054 0.671126
O O11 0.865645 0.976310 0.364831
O O12 0.147297 0.193257 0.048953
O O13 0.000000 0.000000 0.000000
O O14 0.500000 0.500000 0.500000
O O15 0.249403 0.970977 0.854652
O O16 0.391009 0.367591 0.858303
O O17 0.967575 0.542022 0.823986
O O18 0.000000 0.500000 0.000000
#
# Coordination Sequence:
#
# PCOD9033565 Si02
#       8
#     2   2   2   2   2   2   2   2
#     4  12  26  44  69 104 143 177 227 291 355 409
#     4  12  27  44  65 100 143 184 224 289 347 410
#     4  10  23  44  70  96 131 184 239 278 331 408
#     4  11  21  42  74 104 130 176 237 287 343 411
#     4  12  29  44  69 105 145 179 224 292 359 408
#     4  11  25  42  77 100 131 184 239 284 338 416
#     4  12  25  48  74 101 136 181 238 285 345 421
#     4  10  22  44  68  97 133 180 236 281 333 416
#
# _framework density 23.072399000000001
#
# number of rings (size 3 to 8) (size 9 to 14) (size 15 to 20)
#    0.000    0.750    3.750    3.000    7.000    2.000 
#    0.000    1.250    0.000    0.000    0.000    0.000 
#    0.000    0.000    0.000    0.000    0.000    0.000 
#
# Total GULP energy -89505.112426 kJ/mol
# GULP energy per Si atom -5594.069527 kJ/mol
# Density = 2.301989 g / cm^3
# Si number density = 23.072399 Si / 1000 Ang^3
#
#
#
# Elastic Constant Matrix: (Units=GPa)
#
#
# Indices 1 2 3 4 5 6 
#
# 1 116.8237 8.7178 34.5672 26.7617 -0.6718 -2.9518
# 2 8.7178 95.6045 14.1948 10.1558 -2.8762 -6.7583
# 3 34.5672 14.1948 110.7845 39.6007 -3.5069 -15.6822
# 4 26.7617 10.1558 39.6007 45.6411 -7.8767 -10.5788
# 5 -0.6718 -2.8762 -3.5069 -7.8767 40.9592 11.7724
# 6 -2.9518 -6.7583 -15.6822 -10.5788 11.7724 33.0940
#
#
#
# Elastic Compliance Matrix: (Units=1/GPa)
#
#
# Indices 1 2 3 4 5 6 
#
# 1 0.010134 -0.000276 -0.001568 -0.004911 -0.000569 -0.001263
# 2 -0.000276 0.010824 -0.000599 -0.001387 0.000020 0.001451
# 3 -0.001568 -0.000599 0.013752 -0.010372 -0.001927 0.003624
# 4 -0.004911 -0.001387 -0.010372 0.035866 0.004629 0.004182
# 5 -0.000569 0.000020 -0.001927 0.004629 0.027828 -0.009379
# 6 -0.001263 0.001451 0.003624 0.004182 -0.009379 0.036791
#
#
# Mechanical properties :
#
#
# Convention : Reuss Voigt Hill
#
# Bulk Modulus (GPa) = 33.52867 48.68579 41.10723
# Shear Modulus (GPa) = 33.32831 41.65440 37.49135
#
# Velocity S-wave (km/s) = 3.80479 4.25358 4.03543
# Velocity P-wave (km/s) = 5.81940 6.72838 6.29033
#
# Compressibility (1/GPa) = 0.02982522
#
# Stress axis : x y z
#
# Youngs Moduli (GPa) = 98.67433 92.38375 72.71639
#
# Poissons Ratio (x) = 0.02550 0.11402
# Poissons Ratio (y) = 0.02723 0.04354
# Poissons Ratio (z) = 0.15472 0.05532
#
# Static dielectric constant tensor:
#      x y z
#    x 2.399130 0.371750 0.522190 
#    y 0.371750 2.216810 0.469160 
#    z 0.522190 0.469160 2.544410 
# 
# From -- ./inp_files/308631.got.cif
#   From: 2010.05.17/outbox.cif.g08.bks.cpg/sg2_155_cif.got.tgz:308631.got - 2010.06.03 11:33:40.
