data_PCOD9033885
_publ_section_title
;
Structure prediction by ZEFSAII (Michael W. Deem and Ramdas Pophale) SiO2 
 PCOD9033885
Probable space group: P -1
;
_chemical_formula_sum "Si O2"
_cell_formula_units_Z 12
_cell_length_a 17.573978
_cell_length_b 4.936113
_cell_length_c 9.541357
_cell_angle_alpha 106.990596
_cell_angle_beta 146.299294
_cell_angle_gamma 76.014843
_cell_volume 439.198734
_symmetry_space_group_name_H-M "P -1"
_symmetry_group_IT_number 2
_symmetry_cell_setting 'triclinic'
loop_
_space_group_symop_operation_xyz
x,y,z
-x,-y,-z
loop_
_atom_site_type_symbol
_atom_site_label
_atom_site_fract_x
_atom_site_fract_y
_atom_site_fract_z
Si Si1 0.050767 0.506392 0.281383
Si Si2 0.610430 0.220075 0.462468
Si Si3 0.319916 0.799610 0.724286
Si Si4 0.663114 0.768207 0.807512
Si Si5 0.752996 0.561746 0.208837
Si Si6 0.138757 0.017404 0.051876
O O1 0.195881 0.592803 0.448514
O O2 0.100126 0.553491 0.526273
O O3 0.940643 0.699340 0.065300
O O4 0.980493 0.203732 0.131670
O O5 0.574065 0.207544 0.241415
O O6 0.641056 0.533720 0.616936
O O7 0.482419 0.123243 0.344891
O O8 0.744441 0.028269 0.660246
O O9 0.349931 0.649044 0.896056
O O10 0.264076 0.115738 0.710357
O O11 0.766198 0.006358 0.945856
O O12 0.729131 0.605914 0.015967
#
# Coordination Sequence:
#
# PCOD9033885 Si02
#       6
#     2   2   2   2   2   2
#     4  10  22  44  70 106 138 176 230 284 350 408
#     4  11  27  48  71 102 142 186 234 281 343 412
#     4  10  24  47  71 107 136 179 232 286 348 405
#     4  11  27  48  71 102 142 186 234 281 343 412
#     4  10  24  47  71 107 136 179 232 286 348 405
#     4  12  23  44  72 102 143 180 226 288 342 416
#
# _framework density 27.322483999999999
#
# number of rings (size 3 to 8) (size 9 to 14) (size 15 to 20)
#    1.000    0.333    3.333    0.500    4.667    4.000 
#    0.000    0.000    0.000    0.000    0.000    0.000 
#    0.000    0.000    0.000    0.000    0.000    0.000 
#
# Total GULP energy -67095.368866 kJ/mol
# GULP energy per Si atom -5591.280739 kJ/mol
# Density = 2.726030 g / cm^3
# Si number density = 27.322484 Si / 1000 Ang^3
#
#
#
# Elastic Constant Matrix: (Units=GPa)
#
#
# Indices 1 2 3 4 5 6 
#
# 1 111.8911 35.8953 1.3922 16.8941 -12.5790 20.6772
# 2 35.8953 154.1754 32.9268 3.5946 -5.5643 23.0964
# 3 1.3922 32.9268 110.0101 -8.9757 -7.3036 -5.5867
# 4 16.8941 3.5946 -8.9757 40.0506 -3.4154 -9.9432
# 5 -12.5790 -5.5643 -7.3036 -3.4154 44.4074 -14.1347
# 6 20.6772 23.0964 -5.5867 -9.9432 -14.1347 38.0590
#
#
#
# Elastic Compliance Matrix: (Units=1/GPa)
#
#
# Indices 1 2 3 4 5 6 
#
# 1 0.011794 -0.001324 -0.000676 -0.006836 0.000175 -0.007425
# 2 -0.001324 0.008402 -0.003170 -0.002645 -0.002052 -0.006298
# 3 -0.000676 -0.003170 0.011036 0.004997 0.003710 0.006594
# 4 -0.006836 -0.002645 0.004997 0.034121 0.006739 0.017470
# 5 0.000175 -0.002052 0.003710 0.006739 0.027829 0.013791
# 6 -0.007425 -0.006298 0.006594 0.017470 0.013791 0.044785
#
#
# Mechanical properties :
#
#
# Convention : Reuss Voigt Hill
#
# Bulk Modulus (GPa) = 47.86256 57.38946 52.62601
# Shear Modulus (GPa) = 32.20163 44.89421 38.54792
#
# Velocity S-wave (km/s) = 3.43676 4.05794 3.76020
# Velocity P-wave (km/s) = 5.77097 6.55789 6.17698
#
# Compressibility (1/GPa) = 0.02089316
#
# Stress axis : x y z
#
# Youngs Moduli (GPa) = 84.78748 119.01358 90.61034
#
# Poissons Ratio (x) = 0.15751 0.06129
# Poissons Ratio (y) = 0.11222 0.28723
# Poissons Ratio (z) = 0.05735 0.37727
#
# Static dielectric constant tensor:
#      x y z
#    x 2.215430 -0.070650 -0.023000 
#    y -0.070650 2.141460 0.013920 
#    z -0.023000 0.013920 2.127250 
# 
# From -- ./inp_files/322969.got.cif
#   From: 2010.05.17/outbox.cif.g08.bks.cpg/sg2_162_cif.got.tgz:322969.got - 2010.06.03 11:33:40.
