data_PCOD9033512
_publ_section_title
;
Structure prediction by ZEFSAII (Michael W. Deem and Ramdas Pophale) SiO2 
 PCOD9033512
Probable space group: P -1
;
_chemical_formula_sum "Si O2"
_cell_formula_units_Z 16
_cell_length_a 6.216644
_cell_length_b 17.441243
_cell_length_c 15.378013
_cell_angle_alpha 27.574973
_cell_angle_beta 64.824615
_cell_angle_gamma 72.530417
_cell_volume 686.666505
_symmetry_space_group_name_H-M "P -1"
_symmetry_group_IT_number 2
_symmetry_cell_setting 'triclinic'
loop_
_space_group_symop_operation_xyz
x,y,z
-x,-y,-z
loop_
_atom_site_type_symbol
_atom_site_label
_atom_site_fract_x
_atom_site_fract_y
_atom_site_fract_z
Si Si1 0.779911 0.123228 0.697769
Si Si2 0.448352 0.777148 0.838956
Si Si3 0.457156 0.767819 0.053484
Si Si4 0.724275 0.706199 0.618060
Si Si5 0.545271 0.603914 0.564524
Si Si6 0.961949 0.187304 0.796000
Si Si7 0.277402 0.856466 0.619859
Si Si8 0.860619 0.627003 0.849301
O O1 0.644781 0.270012 0.537218
O O2 0.818461 0.164011 0.752449
O O3 0.051366 0.144311 0.592328
O O4 0.627093 0.940166 0.884269
O O5 0.234972 0.789520 0.793883
O O6 0.607962 0.637291 0.927481
O O7 0.625186 0.948677 0.606183
O O8 0.413493 0.780744 0.944239
O O9 0.550225 0.594270 0.235192
O O10 0.204077 0.753924 0.161119
O O11 0.647081 0.614906 0.633863
O O12 0.496321 0.771278 0.631879
O O13 0.825139 0.597822 0.783133
O O14 0.780828 0.687292 0.384009
O O15 0.000000 0.000000 0.000000
O O16 0.045130 0.800950 0.656957
O O17 0.000000 0.500000 0.000000
#
# Coordination Sequence:
#
# PCOD9033512 Si02
#       8
#     2   2   2   2   2   2   2   2
#     4  11  25  48  71 104 137 185 229 285 355 414
#     4  10  24  40  64 103 129 180 234 280 336 411
#     4  12  25  44  74 104 140 180 236 289 345 413
#     4  10  23  42  71  95 140 186 226 282 347 405
#     4  11  25  45  73 103 143 179 234 289 346 413
#     4  11  25  50  73 103 142 185 223 287 359 419
#     4  10  22  44  68  91 142 183 225 284 342 401
#     4  11  24  39  66  97 138 183 222 276 341 405
#
# _framework density 23.300974
#
# number of rings (size 3 to 8) (size 9 to 14) (size 15 to 20)
#    0.000    1.250    1.250    3.375    7.000    3.500 
#    4.500    0.000    0.000    0.000    0.000    0.000 
#    0.000    0.000    0.000    0.000    0.000    0.000 
#
# Total GULP energy -89498.002190 kJ/mol
# GULP energy per Si atom -5593.625137 kJ/mol
# Density = 2.324794 g / cm^3
# Si number density = 23.300974 Si / 1000 Ang^3
#
#
#
# Elastic Constant Matrix: (Units=GPa)
#
#
# Indices 1 2 3 4 5 6 
#
# 1 88.4693 28.4071 38.9035 5.3083 6.4845 9.7281
# 2 28.4071 84.3138 42.0573 18.0271 4.0701 -0.7137
# 3 38.9035 42.0573 112.5776 -11.6275 8.2791 2.0816
# 4 5.3083 18.0271 -11.6275 56.9179 -0.2867 9.3359
# 5 6.4845 4.0701 8.2791 -0.2867 43.6573 1.7445
# 6 9.7281 -0.7137 2.0816 9.3359 1.7445 23.5110
#
#
#
# Elastic Compliance Matrix: (Units=1/GPa)
#
#
# Indices 1 2 3 4 5 6 
#
# 1 0.014636 -0.002977 -0.003800 -0.000280 -0.000953 -0.005628
# 2 -0.002977 0.017761 -0.006467 -0.007549 -0.000251 0.005360
# 3 -0.003800 -0.006467 0.013297 0.005418 -0.001244 -0.001860
# 4 -0.000280 -0.007549 0.005418 0.022671 0.000251 -0.009614
# 5 -0.000953 -0.000251 -0.001244 0.000251 0.023362 -0.001336
# 6 -0.005628 0.005360 -0.001860 -0.009614 -0.001336 0.049106
#
#
# Mechanical properties :
#
#
# Convention : Reuss Voigt Hill
#
# Bulk Modulus (GPa) = 52.06796 56.01073 54.03934
# Shear Modulus (GPa) = 28.78139 36.55010 32.66574
#
# Velocity S-wave (km/s) = 3.51836 3.96486 3.74826
# Velocity P-wave (km/s) = 6.23694 6.71195 6.47880
#
# Compressibility (1/GPa) = 0.01920567
#
# Stress axis : x y z
#
# Youngs Moduli (GPa) = 68.32487 56.30379 75.20284
#
# Poissons Ratio (x) = 0.16763 0.28579
# Poissons Ratio (y) = 0.20342 0.48631
# Poissons Ratio (z) = 0.25965 0.36410
#
# Static dielectric constant tensor:
#      x y z
#    x 1.888750 0.033000 -0.026980 
#    y 0.033000 1.907290 -0.065800 
#    z -0.026980 -0.065800 1.976680 
# 
# From -- ./inp_files/485123.got.cif
#   From: 2010.05.17/outbox.cif.g08.bks.cpg/sg2_243_cif.got.tgz:485123.got - 2010.06.03 11:33:40.
