data_PCOD9033175
_publ_section_title
;
Structure prediction by ZEFSAII (Michael W. Deem and Ramdas Pophale) SiO2 
 PCOD9033175
Probable space group: P -1
;
_chemical_formula_sum "Si O2"
_cell_formula_units_Z 14
_cell_length_a 12.430425
_cell_length_b 23.421375
_cell_length_c 15.244528
_cell_angle_alpha 17.668003
_cell_angle_beta 151.375596
_cell_angle_gamma 154.212609
_cell_volume 579.345064
_symmetry_space_group_name_H-M "P -1"
_symmetry_group_IT_number 2
_symmetry_cell_setting 'triclinic'
loop_
_space_group_symop_operation_xyz
x,y,z
-x,-y,-z
loop_
_atom_site_type_symbol
_atom_site_label
_atom_site_fract_x
_atom_site_fract_y
_atom_site_fract_z
Si Si1 0.508080 0.205045 0.277500
Si Si2 0.324275 0.113496 0.821136
Si Si3 0.065647 0.638235 0.518965
Si Si4 0.869330 0.230543 0.074690
Si Si5 0.880562 0.731567 0.970472
Si Si6 0.056030 0.027709 0.101760
Si Si7 0.843601 0.577422 0.840482
O O1 0.707553 0.193932 0.506078
O O2 0.290232 0.025874 0.324504
O O3 0.668455 0.389758 0.053959
O O4 0.344632 0.263265 0.145524
O O5 0.580987 0.096575 0.043058
O O6 0.319178 0.313204 0.476715
O O7 0.195918 0.117480 0.815906
O O8 0.132580 0.902631 0.944381
O O9 0.902482 0.463469 0.728889
O O10 0.149526 0.504467 0.709232
O O11 0.914573 0.735892 0.214530
O O12 0.069101 0.205525 0.189256
O O13 0.948292 0.243837 0.211498
O O14 0.000000 0.000000 0.000000
O O15 0.000000 0.500000 0.000000
#
# Coordination Sequence:
#
# PCOD9033175 Si02
#       7
#     2   2   2   2   2   2   2
#     4  10  22  44  66  93 124 171 207 264 309 372
#     4  11  24  41  62  99 128 162 209 266 312 370
#     4   9  21  42  66  91 122 166 209 257 316 364
#     4   9  22  43  67  94 125 167 204 259 321 370
#     4   9  21  43  66  96 126 160 218 254 316 374
#     4  11  26  41  64  93 126 172 216 255 308 375
#     4  11  26  42  65  93 130 170 209 254 320 376
#
# _framework density 24.165217999999999
#
# number of rings (size 3 to 8) (size 9 to 14) (size 15 to 20)
#    0.857    1.143    0.000    1.714    6.000    6.286 
#    2.571    0.000    0.000    0.000    0.000    0.000 
#    0.000    0.000    0.000    0.000    0.000    0.000 
#
# Total GULP energy -78047.884199 kJ/mol
# GULP energy per Si atom -5574.848871 kJ/mol
# Density = 2.411022 g / cm^3
# Si number density = 24.165218 Si / 1000 Ang^3
#
#
#
# Elastic Constant Matrix: (Units=GPa)
#
#
# Indices 1 2 3 4 5 6 
#
# 1 138.1863 49.2269 18.3955 16.3581 -1.9779 -7.3785
# 2 49.2269 80.7616 30.7670 18.1678 18.7665 -1.2394
# 3 18.3955 30.7670 62.8087 14.4459 -5.6878 -3.8732
# 4 16.3581 18.1678 14.4459 28.9180 1.6689 1.6637
# 5 -1.9779 18.7665 -5.6878 1.6689 25.0761 -4.2325
# 6 -7.3785 -1.2394 -3.8732 1.6637 -4.2325 39.9950
#
#
#
# Elastic Compliance Matrix: (Units=1/GPa)
#
#
# Indices 1 2 3 4 5 6 
#
# 1 0.010672 -0.009093 0.002894 -0.002461 0.008977 0.003020
# 2 -0.009093 0.030692 -0.013905 -0.005345 -0.027284 -0.004738
# 3 0.002894 -0.013905 0.025349 -0.006853 0.017635 0.004709
# 4 -0.002461 -0.005345 -0.006853 0.043004 -0.001150 -0.003194
# 5 0.008977 -0.027284 0.017635 -0.001150 0.066707 0.009626
# 6 0.003020 -0.004738 0.004709 -0.003194 0.009626 0.027021
#
#
# Mechanical properties :
#
#
# Convention : Reuss Voigt Hill
#
# Bulk Modulus (GPa) = 37.73015 53.17060 45.45038
# Shear Modulus (GPa) = 19.80306 31.02230 25.41268
#
# Velocity S-wave (km/s) = 2.86577 3.58684 3.24639
# Velocity P-wave (km/s) = 5.15728 6.26136 5.73595
#
# Compressibility (1/GPa) = 0.02650400
#
# Stress axis : x y z
#
# Youngs Moduli (GPa) = 93.70515 32.58226 39.45004
#
# Poissons Ratio (x) = 0.29628 -0.11417
# Poissons Ratio (y) = 0.85208 0.54854
# Poissons Ratio (z) = -0.27118 0.45305
#
# Static dielectric constant tensor:
#      x y z
#    x 2.396740 -0.022560 0.248640 
#    y -0.022560 1.949900 -0.032920 
#    z 0.248640 -0.032920 2.059110 
# 
# From -- ./inp_files/524368.got.cif
#   From: 2010.05.17/outbox.cif.g08.bks.cpg/sg2_263_cif.got.tgz:524368.got - 2010.06.03 11:33:40.
