data_PCOD9033100
_publ_section_title
;
Structure prediction by ZEFSAII (Michael W. Deem and Ramdas Pophale) SiO2 
 PCOD9033100
Probable space group: P -1
;
_chemical_formula_sum "Si O2"
_cell_formula_units_Z 14
_cell_length_a 13.788290
_cell_length_b 22.632413
_cell_length_c 11.400326
_cell_angle_alpha 21.486882
_cell_angle_beta 40.686022
_cell_angle_gamma 30.108110
_cell_volume 632.250738
_symmetry_space_group_name_H-M "P -1"
_symmetry_group_IT_number 2
_symmetry_cell_setting 'triclinic'
loop_
_space_group_symop_operation_xyz
x,y,z
-x,-y,-z
loop_
_atom_site_type_symbol
_atom_site_label
_atom_site_fract_x
_atom_site_fract_y
_atom_site_fract_z
Si Si1 0.788822 0.108442 0.439338
Si Si2 0.471995 0.150372 0.349588
Si Si3 0.408083 0.750065 0.414333
Si Si4 0.678655 0.849433 0.937698
Si Si5 0.031143 0.586576 0.927185
Si Si6 0.016832 0.989506 0.800360
Si Si7 0.359094 0.640073 0.257875
O O1 0.636451 0.285272 0.349632
O O2 0.752445 0.942163 0.779319
O O3 0.821474 0.134498 0.226385
O O4 0.000000 0.000000 0.500000
O O5 0.500000 0.000000 0.500000
O O6 0.541572 0.026919 0.635160
O O7 0.608495 0.196264 0.096989
O O8 0.254169 0.382131 0.136693
O O9 0.538602 0.540188 0.602061
O O10 0.195344 0.921444 0.221980
O O11 0.543867 0.810753 0.190051
O O12 0.871030 0.651011 0.053604
O O13 0.015057 0.794230 0.544204
O O14 0.000000 0.500000 0.000000
O O15 0.117253 0.810907 0.143143
O O16 0.500000 0.500000 0.500000
#
# Coordination Sequence:
#
# PCOD9033100 Si02
#       7
#     2   2   2   2   2   2   2
#     4   9  20  43  73  94 130 181 228 277 334 399
#     4  12  22  42  66  97 135 183 221 264 341 408
#     4  11  24  41  68 101 136 172 225 287 335 394
#     4  11  23  42  66 100 138 172 226 278 339 397
#     4  11  21  39  67  91 132 184 222 269 328 408
#     4  10  22  44  65  98 134 179 227 275 339 405
#     4  12  25  41  66 100 135 177 231 276 341 402
#
# _framework density 22.143111999999999
#
# number of rings (size 3 to 8) (size 9 to 14) (size 15 to 20)
#    0.000    1.143    5.714    1.286    0.000    2.286 
#    0.000    0.000    0.000    6.857    0.000    0.000 
#    0.000    0.000    0.000    0.000    0.000    0.000 
#
# Total GULP energy -78078.718510 kJ/mol
# GULP energy per Si atom -5577.051322 kJ/mol
# Density = 2.209271 g / cm^3
# Si number density = 22.143112 Si / 1000 Ang^3
#
#
#
# Elastic Constant Matrix: (Units=GPa)
#
#
# Indices 1 2 3 4 5 6 
#
# 1 126.8296 38.3415 39.4304 -8.0542 -5.9753 -4.8230
# 2 38.3415 111.0186 27.2403 -18.9486 10.0417 -3.0321
# 3 39.4304 27.2403 58.3461 -13.1112 18.7310 -4.7846
# 4 -8.0542 -18.9486 -13.1112 37.0693 -15.2530 -0.9694
# 5 -5.9753 10.0417 18.7310 -15.2530 32.9864 -3.7488
# 6 -4.8230 -3.0321 -4.7846 -0.9694 -3.7488 46.5765
#
#
#
# Elastic Compliance Matrix: (Units=1/GPa)
#
#
# Indices 1 2 3 4 5 6 
#
# 1 0.012195 -0.002337 -0.009659 0.001931 0.009403 0.000915
# 2 -0.002337 0.011195 -0.002555 0.004139 -0.000436 0.000275
# 3 -0.009659 -0.002555 0.030804 -0.000086 -0.018445 0.000511
# 4 0.001931 0.004139 -0.000086 0.036198 0.016162 0.002515
# 5 0.009403 -0.000436 -0.018445 0.016162 0.050491 0.003451
# 6 0.000915 0.000275 0.000511 0.002515 0.003451 0.021965
#
#
# Mechanical properties :
#
#
# Convention : Reuss Voigt Hill
#
# Bulk Modulus (GPa) = 39.85517 56.24651 48.05084
# Shear Modulus (GPa) = 24.96087 36.07191 30.51639
#
# Velocity S-wave (km/s) = 3.36110 4.04051 3.71636
# Velocity P-wave (km/s) = 5.75332 6.87198 6.33738
#
# Compressibility (1/GPa) = 0.02509085
#
# Stress axis : x y z
#
# Youngs Moduli (GPa) = 82.00309 89.32654 32.46344
#
# Poissons Ratio (x) = 0.20878 0.31358
# Poissons Ratio (y) = 0.19167 0.08293
# Poissons Ratio (z) = 0.79211 0.22819
#
# Static dielectric constant tensor:
#      x y z
#    x 1.922010 -0.007460 0.008550 
#    y -0.007460 1.863690 0.016770 
#    z 0.008550 0.016770 1.796800 
# 
# From -- ./inp_files/458000.got.cif
#   From: 2010.05.17/outbox.cif.g08.bks.cpg/sg2_229_cif.got.tgz:458000.got - 2010.06.03 11:33:40.
