data_PCOD9033279
_publ_section_title
;
Structure prediction by ZEFSAII (Michael W. Deem and Ramdas Pophale) SiO2 
 PCOD9033279
Probable space group: P -1
;
_chemical_formula_sum "Si O2"
_cell_formula_units_Z 16
_cell_length_a 15.245004
_cell_length_b 10.543184
_cell_length_c 6.840387
_cell_angle_alpha 83.302750
_cell_angle_beta 137.747461
_cell_angle_gamma 111.702917
_cell_volume 664.802555
_symmetry_space_group_name_H-M "P -1"
_symmetry_group_IT_number 2
_symmetry_cell_setting 'triclinic'
loop_
_space_group_symop_operation_xyz
x,y,z
-x,-y,-z
loop_
_atom_site_type_symbol
_atom_site_label
_atom_site_fract_x
_atom_site_fract_y
_atom_site_fract_z
Si Si1 0.037962 0.145888 0.652006
Si Si2 0.771683 0.552387 0.559719
Si Si3 0.999359 0.606973 0.647306
Si Si4 0.745982 0.781234 0.669086
Si Si5 0.477098 0.864667 0.758142
Si Si6 0.311856 0.679424 0.204453
Si Si7 0.558180 0.376930 0.951026
Si Si8 0.260051 0.952230 0.608190
O O1 0.062466 0.283013 0.542696
O O2 0.900720 0.129745 0.562615
O O3 0.000000 0.000000 0.500000
O O4 0.180508 0.179833 0.008068
O O5 0.895324 0.521549 0.665482
O O6 0.834092 0.712735 0.704327
O O7 0.715644 0.451948 0.673460
O O8 0.648013 0.517938 0.195891
O O9 0.000000 0.500000 0.500000
O O10 0.163896 0.695397 0.964044
O O11 0.585103 0.656409 0.404641
O O12 0.743997 0.916053 0.538098
O O13 0.445035 0.811861 0.493437
O O14 0.339471 0.885972 0.607905
O O15 0.480051 0.740758 0.922663
O O16 0.627163 0.995147 0.032548
O O17 0.340051 0.645988 0.038074
#
# Coordination Sequence:
#
# PCOD9033279 Si02
#       8
#     2   2   2   2   2   2   2   2
#     4  12  28  43  66 101 137 184 226 273 334 408
#     4  11  24  44  67 103 133 172 225 278 341 401
#     4  12  25  45  69 100 137 173 229 283 330 400
#     4  11  25  43  67  94 139 184 215 276 338 402
#     4   9  22  41  70 100 126 171 221 283 329 395
#     4  11  23  40  73  98 130 176 216 284 339 391
#     4  10  22  44  67 103 133 167 228 274 338 399
#     4  10  22  45  65  92 136 172 225 273 334 398
#
# _framework density 24.067298999999998
#
# number of rings (size 3 to 8) (size 9 to 14) (size 15 to 20)
#    0.000    1.250    1.250    3.375    7.000    0.500 
#    2.250    2.500    0.000    0.000    0.000    0.000 
#    0.000    0.000    0.000    0.000    0.000    0.000 
#
# Total GULP energy -89476.740658 kJ/mol
# GULP energy per Si atom -5592.296291 kJ/mol
# Density = 2.401252 g / cm^3
# Si number density = 24.067299 Si / 1000 Ang^3
#
#
#
# Elastic Constant Matrix: (Units=GPa)
#
#
# Indices 1 2 3 4 5 6 
#
# 1 25.2355 -17.4183 2.5667 6.1180 12.0699 -0.8172
# 2 -17.4183 60.2991 19.5967 0.9544 -7.9269 -14.2806
# 3 2.5667 19.5967 156.6053 15.9443 -5.8734 -3.5630
# 4 6.1180 0.9544 15.9443 27.7479 -6.3948 -4.5637
# 5 12.0699 -7.9269 -5.8734 -6.3948 33.3048 12.1738
# 6 -0.8172 -14.2806 -3.5630 -4.5637 12.1738 31.2214
#
#
#
# Elastic Compliance Matrix: (Units=1/GPa)
#
#
# Indices 1 2 3 4 5 6 
#
# 1 0.081862 0.026078 -0.003239 -0.021563 -0.037352 0.025113
# 2 0.026078 0.027848 -0.003478 -0.004380 -0.010267 0.016386
# 3 -0.003239 -0.003478 0.007224 -0.003248 0.001727 -0.002000
# 4 -0.021563 -0.004380 -0.003248 0.046084 0.015930 -0.002414
# 5 -0.037352 -0.010267 0.001727 0.015930 0.053217 -0.023898
# 6 0.025113 0.016386 -0.002000 -0.002414 -0.023898 0.048919
#
#
# Mechanical properties :
#
#
# Convention : Reuss Voigt Hill
#
# Bulk Modulus (GPa) = 6.42444 27.95889 17.19167
# Shear Modulus (GPa) = 17.96506 34.28114 26.12310
#
# Velocity S-wave (km/s) = 2.73509 3.77820 3.29814
# Velocity P-wave (km/s) = 3.55661 5.53852 4.65428
#
# Compressibility (1/GPa) = 0.15565548
#
# Stress axis : x y z
#
# Youngs Moduli (GPa) = 12.21567 35.90929 138.43126
#
# Poissons Ratio (x) = -0.93646 0.44840
# Poissons Ratio (y) = -0.31857 0.48153
# Poissons Ratio (z) = 0.03957 0.12491
#
# Static dielectric constant tensor:
#      x y z
#    x 2.007980 -0.007170 0.040260 
#    y -0.007170 1.924770 0.008260 
#    z 0.040260 0.008260 1.937820 
# 
# From -- ./inp_files/95096.got.cif
#   From: 2010.05.17/outbox.cif.g08.bks.cpg/sg2_48_cif.got.tgz:95096.got - 2010.06.03 11:33:40.
