data_PCOD9033057
_publ_section_title
;
Structure prediction by ZEFSAII (Michael W. Deem and Ramdas Pophale) SiO2 
 PCOD9033057
Probable space group: P -1
;
_chemical_formula_sum "Si O2"
_cell_formula_units_Z 16
_cell_length_a 26.644407
_cell_length_b 9.274794
_cell_length_c 8.755329
_cell_angle_alpha 133.028691
_cell_angle_beta 30.864695
_cell_angle_gamma 137.197691
_cell_volume 745.565721
_symmetry_space_group_name_H-M "P -1"
_symmetry_group_IT_number 2
_symmetry_cell_setting 'triclinic'
loop_
_space_group_symop_operation_xyz
x,y,z
-x,-y,-z
loop_
_atom_site_type_symbol
_atom_site_label
_atom_site_fract_x
_atom_site_fract_y
_atom_site_fract_z
Si Si1 0.567898 0.755525 0.506118
Si Si2 0.570222 0.160323 0.302404
Si Si3 0.210548 0.032727 0.077541
Si Si4 0.677720 0.654363 0.415358
Si Si5 0.108949 0.213741 0.234918
Si Si6 0.764863 0.021287 0.676492
Si Si7 0.052872 0.592818 0.091496
Si Si8 0.026765 0.855568 0.947407
O O1 0.500000 0.500000 0.500000
O O2 0.490897 0.862437 0.716803
O O3 0.624526 0.785524 0.545067
O O4 0.666290 0.836023 0.188992
O O5 0.600854 0.406718 0.451514
O O6 0.500000 0.000000 0.500000
O O7 0.677277 0.120891 0.978526
O O8 0.162667 0.799815 0.951884
O O9 0.148365 0.165243 0.260147
O O10 0.195127 0.988645 0.264683
O O11 0.712485 0.781251 0.572860
O O12 0.784150 0.667659 0.057280
O O13 0.029367 0.331253 0.548190
O O14 0.049719 0.986941 0.139555
O O15 0.862200 0.149926 0.403516
O O16 0.060254 0.384468 0.997770
O O17 0.000000 0.500000 0.000000
O O18 0.000000 0.000000 0.000000
#
# Coordination Sequence:
#
# PCOD9033057 Si02
#       8
#     2   2   2   2   2   2   2   2
#     4   9  20  43  68  92 133 177 215 275 332 387
#     4  11  21  41  65  97 134 166 220 282 324 384
#     4  11  22  41  67  99 135 175 223 280 327 399
#     4   9  22  42  67  91 131 178 216 266 340 390
#     4  10  22  44  65  92 137 171 219 276 326 399
#     4  11  24  40  68  97 134 171 226 265 335 398
#     4  12  25  41  71  99 132 178 228 269 338 404
#     4  11  25  44  66  99 132 174 220 275 337 398
#
# _framework density 21.460214000000001
#
# number of rings (size 3 to 8) (size 9 to 14) (size 15 to 20)
#    0.000    1.500    2.500    1.875    1.750    5.000 
#    0.000    0.000    0.000    0.000    0.000    0.000 
#    0.000    0.000    0.000    0.000    0.000    0.000 
#
# Total GULP energy -89383.446448 kJ/mol
# GULP energy per Si atom -5586.465403 kJ/mol
# Density = 2.141137 g / cm^3
# Si number density = 21.460214 Si / 1000 Ang^3
#
#
#
# Elastic Constant Matrix: (Units=GPa)
#
#
# Indices 1 2 3 4 5 6 
#
# 1 89.3253 10.5638 37.9312 3.0213 0.9037 -2.9404
# 2 10.5638 123.2404 18.3807 -2.3207 1.4604 0.4181
# 3 37.9312 18.3807 58.4861 6.9054 -3.1826 -2.7678
# 4 3.0213 -2.3207 6.9054 17.9423 3.8338 -7.2299
# 5 0.9037 1.4604 -3.1826 3.8338 33.9835 8.1547
# 6 -2.9404 0.4181 -2.7678 -7.2299 8.1547 33.3513
#
#
#
# Elastic Compliance Matrix: (Units=1/GPa)
#
#
# Indices 1 2 3 4 5 6 
#
# 1 0.015637 0.000305 -0.010578 0.002550 -0.002081 0.001559
# 2 0.000305 0.008641 -0.003278 0.002780 -0.001126 0.000524
# 3 -0.010578 -0.003278 0.026395 -0.010646 0.004608 -0.002135
# 4 0.002550 0.002780 -0.010646 0.069722 -0.013290 0.017670
# 5 -0.002081 -0.001126 0.004608 -0.013290 0.034102 -0.011006
# 6 0.001559 0.000524 -0.002135 0.017670 -0.011006 0.036459
#
#
# Mechanical properties :
#
#
# Convention : Reuss Voigt Hill
#
# Bulk Modulus (GPa) = 42.42476 44.97813 43.70144
# Shear Modulus (GPa) = 22.13236 30.66716 26.39976
#
# Velocity S-wave (km/s) = 3.21490 3.78434 3.51119
# Velocity P-wave (km/s) = 5.79592 6.33241 6.07009
#
# Compressibility (1/GPa) = 0.02357114
#
# Stress axis : x y z
#
# Youngs Moduli (GPa) = 63.95177 115.72881 37.88603
#
# Poissons Ratio (x) = -0.03526 0.40074
# Poissons Ratio (y) = -0.01948 0.12418
# Poissons Ratio (z) = 0.67645 0.37934
#
# Static dielectric constant tensor:
#      x y z
#    x 1.828240 -0.006410 -0.014350 
#    y -0.006410 1.789610 -0.016020 
#    z -0.014350 -0.016020 1.763060 
# 
# From -- ./inp_files/358462.got.cif
#   From: 2010.05.17/outbox.cif.g08.bks.cpg/sg2_180_cif.got.tgz:358462.got - 2010.06.03 11:33:40.
