data_PCOD9033497
_publ_section_title
;
Structure prediction by ZEFSAII (Michael W. Deem and Ramdas Pophale) SiO2 
 PCOD9033497
Probable space group: P -1
;
_chemical_formula_sum "Si O2"
_cell_formula_units_Z 15
_cell_length_a 9.711121
_cell_length_b 7.380535
_cell_length_c 18.705699
_cell_angle_alpha 59.825711
_cell_angle_beta 150.088929
_cell_angle_gamma 113.607503
_cell_volume 576.027290
_symmetry_space_group_name_H-M "P -1"
_symmetry_group_IT_number 2
_symmetry_cell_setting 'triclinic'
loop_
_space_group_symop_operation_xyz
x,y,z
-x,-y,-z
loop_
_atom_site_type_symbol
_atom_site_label
_atom_site_fract_x
_atom_site_fract_y
_atom_site_fract_z
Si Si1 0.798715 0.349618 0.904004
Si Si2 0.271671 0.273976 0.033774
Si Si3 0.445322 0.728455 0.466853
Si Si4 0.109183 0.054236 0.876289
Si Si5 0.054104 0.886694 0.728956
Si Si6 0.263017 0.056747 0.649634
Si Si7 0.733886 0.484971 0.432731
Si Si8 0.500000 0.500000 0.000000
O O1 0.524494 0.499293 0.739792
O O2 0.959197 0.284940 0.915556
O O3 0.000000 0.500000 0.000000
O O4 0.800765 0.136255 0.991923
O O5 0.270783 0.241898 0.950765
O O6 0.410280 0.489548 0.049778
O O7 0.463499 0.102133 0.196230
O O8 0.500000 0.500000 0.500000
O O9 0.729819 0.838927 0.587492
O O10 0.298920 0.682903 0.486746
O O11 0.216278 0.867611 0.289933
O O12 0.156608 0.971676 0.834099
O O13 0.220027 0.667505 0.825842
O O14 0.153927 0.050218 0.683189
O O15 0.318000 0.283978 0.601425
O O16 0.000000 0.000000 0.500000
O O17 0.000000 0.500000 0.500000
#
# Coordination Sequence:
#
# PCOD9033497 Si02
#       8
#     2   2   2   2   2   2   2   1
#     4  12  27  48  77 111 152 207 260 322 389 476
#     4  11  25  46  73 107 147 204 257 309 394 461
#     4  12  26  47  78 109 153 204 261 322 393 471
#     4  12  25  46  77 103 152 198 259 316 377 478
#     4  11  25  47  73 112 150 206 257 312 402 460
#     4  11  26  45  73 109 153 196 251 322 384 459
#     4  12  27  49  71 113 152 196 258 319 388 460
#     4  10  22  44  68 106 152 184 254 316 370 464
#
# _framework density 26.040431999999999
#
# number of rings (size 3 to 8) (size 9 to 14) (size 15 to 20)
#    0.000    0.533    1.333    6.400    5.600    3.200 
#    9.600    0.000    0.000    0.000    0.000    0.000 
#    0.000    0.000    0.000    0.000    0.000    0.000 
#
# Total GULP energy -83723.963324 kJ/mol
# GULP energy per Si atom -5581.597555 kJ/mol
# Density = 2.598116 g / cm^3
# Si number density = 26.040432 Si / 1000 Ang^3
#
#
#
# Elastic Constant Matrix: (Units=GPa)
#
#
# Indices 1 2 3 4 5 6 
#
# 1 139.5625 5.3353 45.7328 -4.8780 0.8920 13.9883
# 2 5.3353 84.5699 10.8670 -2.9147 -8.1113 5.4447
# 3 45.7328 10.8670 144.2022 18.7165 16.9280 4.3349
# 4 -4.8780 -2.9147 18.7165 51.4354 5.8527 -7.3855
# 5 0.8920 -8.1113 16.9280 5.8527 48.2224 0.7997
# 6 13.9883 5.4447 4.3349 -7.3855 0.7997 40.6773
#
#
#
# Elastic Compliance Matrix: (Units=1/GPa)
#
#
# Indices 1 2 3 4 5 6 
#
# 1 0.008381 0.000110 -0.002867 0.001423 0.000736 -0.002347
# 2 0.000110 0.012340 -0.001300 0.000690 0.002471 -0.001474
# 3 -0.002867 -0.001300 0.008702 -0.003234 -0.002823 -0.000299
# 4 0.001423 0.000690 -0.003234 0.021487 -0.001444 0.003692
# 5 0.000736 0.002471 -0.002823 -0.001444 0.022322 -0.000984
# 6 -0.002347 -0.001474 -0.000299 0.003692 -0.000984 0.026310
#
#
# Mechanical properties :
#
#
# Convention : Reuss Voigt Hill
#
# Bulk Modulus (GPa) = 46.92682 54.68944 50.80813
# Shear Modulus (GPa) = 43.56966 48.49364 46.03165
#
# Velocity S-wave (km/s) = 4.09486 4.32005 4.20896
# Velocity P-wave (km/s) = 6.35744 6.77725 6.57070
#
# Compressibility (1/GPa) = 0.02130977
#
# Stress axis : x y z
#
# Youngs Moduli (GPa) = 119.32075 81.03500 114.91603
#
# Poissons Ratio (x) = -0.00895 0.32945
# Poissons Ratio (y) = -0.01318 0.14942
# Poissons Ratio (z) = 0.34207 0.10537
#
# Static dielectric constant tensor:
#      x y z
#    x 2.126560 -0.445760 -0.188350 
#    y -0.445760 1.319750 -0.218680 
#    z -0.188350 -0.218680 2.206150 
# 
# From -- ./inp_files/557065.got.cif
#   From: 2010.05.17/outbox.cif.g08.bks.cpg/sg2_279_cif.got.tgz:557065.got - 2010.06.03 11:33:40.
