data_PCOD9033905
_publ_section_title
;
Structure prediction by ZEFSAII (Michael W. Deem and Ramdas Pophale) SiO2 
 PCOD9033905
Probable space group: P -1
;
_chemical_formula_sum "Si O2"
_cell_formula_units_Z 16
_cell_length_a 16.086202
_cell_length_b 9.420387
_cell_length_c 15.871933
_cell_angle_alpha 69.565845
_cell_angle_beta 136.358599
_cell_angle_gamma 146.133458
_cell_volume 699.266938
_symmetry_space_group_name_H-M "P -1"
_symmetry_group_IT_number 2
_symmetry_cell_setting 'triclinic'
loop_
_space_group_symop_operation_xyz
x,y,z
-x,-y,-z
loop_
_atom_site_type_symbol
_atom_site_label
_atom_site_fract_x
_atom_site_fract_y
_atom_site_fract_z
Si Si1 0.155126 0.829595 0.062247
Si Si2 0.425051 0.353932 0.385190
Si Si3 0.445321 0.192994 0.869742
Si Si4 0.602304 0.532377 0.153403
Si Si5 0.911764 0.690308 0.231295
Si Si6 0.492781 0.856212 0.593072
Si Si7 0.222899 0.359304 0.127699
Si Si8 0.047317 0.524756 0.429947
O O1 0.404745 0.181817 0.119651
O O2 0.253534 0.918078 0.212919
O O3 0.000000 0.500000 0.000000
O O4 0.930049 0.704124 0.908204
O O5 0.500000 0.500000 0.500000
O O6 0.574284 0.370466 0.461787
O O7 0.453365 0.517438 0.304354
O O8 0.103002 0.972942 0.241416
O O9 0.382790 0.303692 0.809284
O O10 0.648915 0.396439 0.900781
O O11 0.184800 0.812581 0.727335
O O12 0.614422 0.331635 0.047509
O O13 0.866380 0.744528 0.268720
O O14 0.500000 0.500000 0.000000
O O15 0.064459 0.711303 0.365667
O O16 0.300429 0.704848 0.556499
O O17 0.500000 0.000000 0.500000
O O18 0.000000 0.000000 0.000000
O O19 0.000000 0.500000 0.500000
#
# Coordination Sequence:
#
# PCOD9033905 Si02
#       8
#     2   2   2   2   2   2   2   2
#     4  12  27  45  77 109 147 194 251 314 366 447
#     4  12  27  46  76 107 147 192 242 311 369 441
#     4  11  24  44  75  98 141 190 242 305 356 433
#     4  10  22  44  70 109 142 184 250 306 367 435
#     4  11  23  46  69 104 141 188 249 293 360 440
#     4  12  27  50  68 110 155 194 248 303 382 449
#     4  12  22  47  73 102 139 187 254 300 361 431
#     4  12  29  46  69 105 151 192 240 298 376 441
#
# _framework density 22.881105999999999
#
# number of rings (size 3 to 8) (size 9 to 14) (size 15 to 20)
#    0.000    0.500    5.000    1.875    8.750    2.000 
#    0.000    1.875    0.000    0.000    0.000    0.000 
#    0.000    0.000    0.000    0.000    0.000    0.000 
#
# Total GULP energy -89226.584088 kJ/mol
# GULP energy per Si atom -5576.661506 kJ/mol
# Density = 2.282903 g / cm^3
# Si number density = 22.881106 Si / 1000 Ang^3
#
#
#
# Elastic Constant Matrix: (Units=GPa)
#
#
# Indices 1 2 3 4 5 6 
#
# 1 156.2023 20.9473 19.3191 -6.7702 12.7206 -12.6772
# 2 20.9473 68.5347 14.2219 -20.9593 -4.3910 -10.4960
# 3 19.3191 14.2219 65.6678 -21.7392 -11.5478 -14.7533
# 4 -6.7702 -20.9593 -21.7392 33.8204 0.4423 -1.4346
# 5 12.7206 -4.3910 -11.5478 0.4423 43.0598 -5.7605
# 6 -12.6772 -10.4960 -14.7533 -1.4346 -5.7605 39.0943
#
#
#
# Elastic Compliance Matrix: (Units=1/GPa)
#
#
# Indices 1 2 3 4 5 6 
#
# 1 0.007237 -0.002330 -0.002662 -0.001658 -0.003045 0.000207
# 2 -0.002330 0.020496 0.003592 0.014795 0.004569 0.007319
# 3 -0.002662 0.003592 0.025726 0.018610 0.009451 0.011885
# 4 -0.001658 0.014795 0.018610 0.050834 0.008279 0.013543
# 5 -0.003045 0.004569 0.009451 0.008279 0.028143 0.008257
# 6 0.000207 0.007319 0.011885 0.013543 0.008257 0.033810
#
#
# Mechanical properties :
#
#
# Convention : Reuss Voigt Hill
#
# Bulk Modulus (GPa) = 19.73943 44.37571 32.05757
# Shear Modulus (GPa) = 26.89163 38.92267 32.90715
#
# Velocity S-wave (km/s) = 3.43195 4.12889 3.79645
# Velocity P-wave (km/s) = 4.93458 6.49357 5.76700
#
# Compressibility (1/GPa) = 0.05066003
#
# Stress axis : x y z
#
# Youngs Moduli (GPa) = 138.18824 48.78983 38.87054
#
# Poissons Ratio (x) = 0.11366 0.10347
# Poissons Ratio (y) = 0.32193 -0.13963
# Poissons Ratio (z) = 0.36786 -0.17526
#
# Static dielectric constant tensor:
#      x y z
#    x 1.904250 0.008370 0.010240 
#    y 0.008370 1.875810 0.054820 
#    z 0.010240 0.054820 1.884560 
# 
# From -- ./inp_files/529663.got.cif
#   From: 2010.05.17/outbox.cif.g08.bks.cpg/sg2_265_cif.got.tgz:529663.got - 2010.06.03 11:33:40.
