data_PCOD9033014
_publ_section_title
;
Structure prediction by ZEFSAII (Michael W. Deem and Ramdas Pophale) SiO2 
 PCOD9033014
Probable space group: P -1
;
_chemical_formula_sum "Si O2"
_cell_formula_units_Z 16
_cell_length_a 12.383595
_cell_length_b 11.248910
_cell_length_c 13.170709
_cell_angle_alpha 81.905810
_cell_angle_beta 33.311387
_cell_angle_gamma 106.712890
_cell_volume 665.083155
_symmetry_space_group_name_H-M "P -1"
_symmetry_group_IT_number 2
_symmetry_cell_setting 'triclinic'
loop_
_space_group_symop_operation_xyz
x,y,z
-x,-y,-z
loop_
_atom_site_type_symbol
_atom_site_label
_atom_site_fract_x
_atom_site_fract_y
_atom_site_fract_z
Si Si1 0.488262 0.622799 0.937758
Si Si2 0.902627 0.752126 0.408505
Si Si3 0.117965 0.475982 0.062055
Si Si4 0.609570 0.622217 0.232346
Si Si5 0.154792 0.901010 0.879579
Si Si6 0.637692 0.899477 0.099910
Si Si7 0.258404 0.710388 0.241725
Si Si8 0.419241 0.767104 0.619982
O O1 0.724313 0.712833 0.652247
O O2 0.500000 0.500000 0.000000
O O3 0.195257 0.523355 0.113291
O O4 0.505216 0.739414 0.989879
O O5 0.694535 0.588092 0.510706
O O6 0.136260 0.758675 0.260318
O O7 0.061491 0.938683 0.215365
O O8 0.798303 0.370827 0.285587
O O9 0.171001 0.359745 0.010782
O O10 0.349005 0.647937 0.783583
O O11 0.571973 0.732722 0.197172
O O12 0.800666 0.727393 0.171550
O O13 0.288316 0.834354 0.751827
O O14 0.308451 0.004286 0.851124
O O15 0.263488 0.053529 0.696416
O O16 0.382414 0.824542 0.233509
O O17 0.000000 0.500000 0.500000
#
# Coordination Sequence:
#
# PCOD9033014 Si02
#       8
#     2   2   2   2   2   2   2   2
#     4  11  23  42  73 105 137 190 233 292 366 404
#     4  11  26  47  71 103 141 186 237 295 350 428
#     4   9  20  39  68  98 138 186 237 285 351 429
#     4  10  22  44  64  99 136 180 227 288 351 415
#     4  10  23  40  66 104 139 185 229 293 357 420
#     4  12  26  45  68 101 143 185 238 287 358 421
#     4  12  24  47  71 101 143 184 241 293 347 423
#     4   9  20  41  64 101 142 181 237 288 352 429
#
# _framework density 24.057144000000001
#
# number of rings (size 3 to 8) (size 9 to 14) (size 15 to 20)
#    0.000    1.500    2.500    1.500    7.000    1.000 
#    4.500    0.000    0.000    0.000    0.000    0.000 
#    0.000    0.000    0.000    0.000    0.000    0.000 
#
# Total GULP energy -89420.282915 kJ/mol
# GULP energy per Si atom -5588.767682 kJ/mol
# Density = 2.400239 g / cm^3
# Si number density = 24.057144 Si / 1000 Ang^3
#
#
#
# Elastic Constant Matrix: (Units=GPa)
#
#
# Indices 1 2 3 4 5 6 
#
# 1 139.8973 36.1479 23.1571 -9.7153 -2.8544 21.7587
# 2 36.1479 81.1355 19.4490 -4.0052 -2.5981 8.0111
# 3 23.1571 19.4490 79.8506 -15.8916 11.5143 10.6111
# 4 -9.7153 -4.0052 -15.8916 34.0945 4.6423 -11.9568
# 5 -2.8544 -2.5981 11.5143 4.6423 34.4369 -2.7405
# 6 21.7587 8.0111 10.6111 -11.9568 -2.7405 39.5883
#
#
#
# Elastic Compliance Matrix: (Units=1/GPa)
#
#
# Indices 1 2 3 4 5 6 
#
# 1 0.008802 -0.003204 -0.001343 0.000104 0.000624 -0.003755
# 2 -0.003204 0.014544 -0.003035 -0.001081 0.001948 -0.000560
# 3 -0.001343 -0.003035 0.016271 0.007335 -0.006871 -0.001269
# 4 0.000104 -0.001081 0.007335 0.036659 -0.006767 0.008799
# 5 0.000624 0.001948 -0.006871 -0.006767 0.032551 0.001314
# 6 -0.003755 -0.000560 -0.001269 0.008799 0.001314 0.030526
#
#
# Mechanical properties :
#
#
# Convention : Reuss Voigt Hill
#
# Bulk Modulus (GPa) = 40.89109 50.93238 45.91173
# Shear Modulus (GPa) = 30.73739 36.43257 33.58498
#
# Velocity S-wave (km/s) = 3.57835 3.89577 3.74043
# Velocity P-wave (km/s) = 5.84013 6.43844 6.14657
#
# Compressibility (1/GPa) = 0.02445521
#
# Stress axis : x y z
#
# Youngs Moduli (GPa) = 113.60819 68.75549 61.45843
#
# Poissons Ratio (x) = 0.22028 0.08251
# Poissons Ratio (y) = 0.36399 0.18651
# Poissons Ratio (z) = 0.15252 0.20866
#
# Static dielectric constant tensor:
#      x y z
#    x 1.967480 0.047490 -0.051220 
#    y 0.047490 1.901480 -0.014910 
#    z -0.051220 -0.014910 1.973440 
# 
# From -- ./inp_files/428084.got.cif
#   From: 2010.05.17/outbox.cif.g08.bks.cpg/sg2_215_cif.got.tgz:428084.got - 2010.06.03 11:33:40.
