data_PCOD9033961
_publ_section_title
;
Structure prediction by ZEFSAII (Michael W. Deem and Ramdas Pophale) SiO2 
 PCOD9033961
Probable space group: P -1
;
_chemical_formula_sum "Si O2"
_cell_formula_units_Z 16
_cell_length_a 22.231739
_cell_length_b 15.075564
_cell_length_c 6.957947
_cell_angle_alpha 70.786912
_cell_angle_beta 118.115712
_cell_angle_gamma 159.395867
_cell_volume 675.021872
_symmetry_space_group_name_H-M "P -1"
_symmetry_group_IT_number 2
_symmetry_cell_setting 'triclinic'
loop_
_space_group_symop_operation_xyz
x,y,z
-x,-y,-z
loop_
_atom_site_type_symbol
_atom_site_label
_atom_site_fract_x
_atom_site_fract_y
_atom_site_fract_z
Si Si1 0.376912 0.421783 0.264716
Si Si2 0.748621 0.974430 0.220752
Si Si3 0.714431 0.592372 0.478529
Si Si4 0.872340 0.962188 0.181770
Si Si5 0.986641 0.639340 0.321313
Si Si6 0.734086 0.160737 0.520336
Si Si7 0.605389 0.236500 0.976635
Si Si8 0.425422 0.089020 0.174711
O O1 0.500000 0.500000 0.500000
O O2 0.528958 0.668067 0.175369
O O3 0.311746 0.407014 0.344331
O O4 0.201822 0.156234 0.059528
O O5 0.810920 0.986159 0.137184
O O6 0.745319 0.078918 0.080628
O O7 0.886280 0.137722 0.495121
O O8 0.765217 0.749838 0.315483
O O9 0.531914 0.304447 0.312426
O O10 0.899840 0.762706 0.636932
O O11 0.857615 0.399875 0.426224
O O12 0.830669 0.504734 0.075945
O O13 0.134669 0.764414 0.336145
O O14 0.671186 0.106575 0.679890
O O15 0.531867 0.885734 0.292181
O O16 0.577976 0.245614 0.139521
O O17 0.500000 0.000000 0.000000
#
# Coordination Sequence:
#
# PCOD9033961 Si02
#       8
#     2   2   2   2   2   2   2   2
#     4  12  23  43  67  91 131 177 215 271 335 386
#     4  12  23  43  66  98 135 174 226 273 329 404
#     4  11  24  42  68  95 131 175 219 276 329 393
#     4  11  24  44  63  97 134 169 225 274 328 399
#     4  10  22  44  70  97 134 174 223 278 331 397
#     4  10  23  46  67  98 135 174 224 277 333 393
#     4  10  23  46  67  95 135 174 220 281 332 388
#     4  12  24  43  70  97 135 179 220 277 334 397
#
# _framework density 23.702936999999999
#
# number of rings (size 3 to 8) (size 9 to 14) (size 15 to 20)
#    0.000    1.000    3.750    3.000    0.000    2.500 
#    6.750    0.000    0.000    0.000    0.000    0.000 
#    0.000    0.000    0.000    0.000    0.000    0.000 
#
# Total GULP energy -89567.682646 kJ/mol
# GULP energy per Si atom -5597.980165 kJ/mol
# Density = 2.364899 g / cm^3
# Si number density = 23.702937 Si / 1000 Ang^3
#
#
#
# Elastic Constant Matrix: (Units=GPa)
#
#
# Indices 1 2 3 4 5 6 
#
# 1 90.2936 6.3912 9.3536 -0.5435 -0.1604 22.8766
# 2 6.3912 47.0408 22.7857 7.4531 16.3592 14.9748
# 3 9.3536 22.7857 83.7977 10.7309 6.2937 13.4668
# 4 -0.5435 7.4531 10.7309 41.5868 0.3738 -0.1075
# 5 -0.1604 16.3592 6.2937 0.3738 31.7354 6.7252
# 6 22.8766 14.9748 13.4668 -0.1075 6.7252 31.9137
#
#
#
# Elastic Compliance Matrix: (Units=1/GPa)
#
#
# Indices 1 2 3 4 5 6 
#
# 1 0.013714 0.000969 -0.000237 0.000023 0.001858 -0.010577
# 2 0.000969 0.032650 -0.005698 -0.004276 -0.013354 -0.010810
# 3 -0.000237 -0.005698 0.014337 -0.002698 0.000844 -0.003393
# 4 0.000023 -0.004276 -0.002698 0.025500 0.001840 0.002827
# 5 0.001858 -0.013354 0.000844 0.001840 0.038984 -0.003631
# 6 -0.010577 -0.010810 -0.003393 0.002827 -0.003631 0.046195
#
#
# Mechanical properties :
#
#
# Convention : Reuss Voigt Hill
#
# Bulk Modulus (GPa) = 19.69756 33.13255 26.41506
# Shear Modulus (GPa) = 25.22264 33.22063 29.22164
#
# Velocity S-wave (km/s) = 3.26562 3.74778 3.51497
# Velocity P-wave (km/s) = 4.74839 5.72157 5.25755
#
# Compressibility (1/GPa) = 0.05076770
#
# Stress axis : x y z
#
# Youngs Moduli (GPa) = 72.91777 30.62829 69.75102
#
# Poissons Ratio (x) = -0.02967 0.01652
# Poissons Ratio (y) = -0.07063 0.39745
# Poissons Ratio (z) = 0.01727 0.17452
#
# Static dielectric constant tensor:
#      x y z
#    x 0.993000 -1.045870 1.046820 
#    y -1.045870 0.735020 1.103270 
#    z 1.046820 1.103270 0.805880 
# 
# From -- ./inp_files/124737.got.cif
#   From: 2010.05.17/outbox.cif.g08.bks.cpg/sg2_63_cif.got.tgz:124737.got - 2010.06.03 11:33:40.
