data_PCOD9033360
_publ_section_title
;
Structure prediction by ZEFSAII (Michael W. Deem and Ramdas Pophale) SiO2 
 PCOD9033360
Probable space group: P -1
;
_chemical_formula_sum "Si O2"
_cell_formula_units_Z 16
_cell_length_a 9.166374
_cell_length_b 9.249730
_cell_length_c 24.285391
_cell_angle_alpha 32.374883
_cell_angle_beta 43.937098
_cell_angle_gamma 58.464528
_cell_volume 744.660466
_symmetry_space_group_name_H-M "P -1"
_symmetry_group_IT_number 2
_symmetry_cell_setting 'triclinic'
loop_
_space_group_symop_operation_xyz
x,y,z
-x,-y,-z
loop_
_atom_site_type_symbol
_atom_site_label
_atom_site_fract_x
_atom_site_fract_y
_atom_site_fract_z
Si Si1 0.832124 0.656489 0.021041
Si Si2 0.183999 0.751158 0.755229
Si Si3 0.782132 0.268374 0.367784
Si Si4 0.106598 0.073692 0.886909
Si Si5 0.289010 0.618953 0.024095
Si Si6 0.585958 0.284319 0.918188
Si Si7 0.165343 0.137026 0.363794
Si Si8 0.509202 0.191723 0.578768
O O1 0.738320 0.492442 0.154927
O O2 0.644506 0.640184 0.033924
O O3 0.000000 0.500000 0.000000
O O4 0.953292 0.952924 0.916098
O O5 0.294280 0.825859 0.642307
O O6 0.931684 0.610161 0.856908
O O7 0.267752 0.010748 0.689440
O O8 0.820025 0.601285 0.245085
O O9 0.639640 0.199955 0.483167
O O10 0.999750 0.151854 0.354326
O O11 0.285139 0.887170 0.901269
O O12 0.000000 0.000000 0.000000
O O13 0.299059 0.716630 0.054262
O O14 0.500000 0.500000 0.000000
O O15 0.724963 0.536602 0.763499
O O16 0.500000 0.000000 0.000000
O O17 0.354705 0.966548 0.366244
O O18 0.000000 0.000000 0.500000
O O19 0.500000 0.500000 0.500000
#
# Coordination Sequence:
#
# PCOD9033360 Si02
#       8
#     2   2   2   2   2   2   2   2
#     4  11  23  36  62  95 131 168 211 272 331 382
#     4  11  22  44  66  91 134 175 220 263 336 398
#     4  11  22  43  71  92 130 177 217 271 330 402
#     4  11  20  40  65  97 130 170 222 266 330 407
#     4  11  24  41  63  96 140 174 209 277 342 390
#     4  12  22  39  68 100 127 170 225 274 325 392
#     4  10  22  44  67  96 137 174 218 274 337 397
#     4  11  26  44  71  99 126 175 228 279 328 396
#
# _framework density 21.486301999999998
#
# number of rings (size 3 to 8) (size 9 to 14) (size 15 to 20)
#    0.000    1.000    5.000    3.375    1.750    1.000 
#    4.500    0.625    0.000    0.000    0.000    0.000 
#    0.000    0.000    0.000    0.000    0.000    0.000 
#
# Total GULP energy -89162.411957 kJ/mol
# GULP energy per Si atom -5572.650747 kJ/mol
# Density = 2.143740 g / cm^3
# Si number density = 21.486302 Si / 1000 Ang^3
#
#
#
# Elastic Constant Matrix: (Units=GPa)
#
#
# Indices 1 2 3 4 5 6 
#
# 1 161.1201 41.6220 48.6753 -17.6354 -4.5325 -5.0160
# 2 41.6220 75.4253 21.0894 -17.0702 -8.9843 -1.7496
# 3 48.6753 21.0894 89.5813 -24.9985 0.7978 3.5579
# 4 -17.6354 -17.0702 -24.9985 39.3359 8.4172 -0.2165
# 5 -4.5325 -8.9843 0.7978 8.4172 39.6050 -7.4607
# 6 -5.0160 -1.7496 3.5579 -0.2165 -7.4607 35.4442
#
#
#
# Elastic Compliance Matrix: (Units=1/GPa)
#
#
# Indices 1 2 3 4 5 6 
#
# 1 0.008293 -0.003473 -0.003854 -0.000359 0.000600 0.001513
# 2 -0.003473 0.016796 -0.000834 0.004644 0.002631 0.001004
# 3 -0.003854 -0.000834 0.016058 0.008820 -0.003366 -0.002853
# 4 -0.000359 0.004644 0.008820 0.034332 -0.006826 -0.001934
# 5 0.000600 0.002631 -0.003366 -0.006826 0.028666 0.006545
# 6 0.001513 0.001004 -0.002853 -0.001934 0.006545 0.030129
#
#
# Mechanical properties :
#
#
# Convention : Reuss Voigt Hill
#
# Bulk Modulus (GPa) = 40.28376 60.98892 50.63634
# Shear Modulus (GPa) = 31.47203 37.19301 34.33252
#
# Velocity S-wave (km/s) = 3.83136 4.16506 4.00169
# Velocity P-wave (km/s) = 6.19368 7.18171 6.70591
#
# Compressibility (1/GPa) = 0.02482390
#
# Stress axis : x y z
#
# Youngs Moduli (GPa) = 120.58667 59.53881 62.27420
#
# Poissons Ratio (x) = 0.20679 0.23999
# Poissons Ratio (y) = 0.41883 0.05195
# Poissons Ratio (z) = 0.46472 0.04967
#
# Static dielectric constant tensor:
#      x y z
#    x 1.842680 -0.037780 -0.014770 
#    y -0.037780 1.884560 0.022580 
#    z -0.014770 0.022580 1.820940 
# 
# From -- ./inp_files/606559.got.cif
#   From: 2010.05.17/outbox.cif.g08.bks.cpg/sg2_304_cif.got.tgz:606559.got - 2010.06.03 11:33:40.
