data_PCOD9033932
_publ_section_title
;
Structure prediction by ZEFSAII (Michael W. Deem and Ramdas Pophale) SiO2 
 PCOD9033932
Probable space group: P -1
;
_chemical_formula_sum "Si O2"
_cell_formula_units_Z 16
_cell_length_a 11.868798
_cell_length_b 14.817205
_cell_length_c 5.357194
_cell_angle_alpha 59.285908
_cell_angle_beta 86.108373
_cell_angle_gamma 56.879849
_cell_volume 648.535108
_symmetry_space_group_name_H-M "P -1"
_symmetry_group_IT_number 2
_symmetry_cell_setting 'triclinic'
loop_
_space_group_symop_operation_xyz
x,y,z
-x,-y,-z
loop_
_atom_site_type_symbol
_atom_site_label
_atom_site_fract_x
_atom_site_fract_y
_atom_site_fract_z
Si Si1 0.308472 0.775141 0.092758
Si Si2 0.442533 0.436426 0.938604
Si Si3 0.114350 0.239237 0.504965
Si Si4 0.750045 0.982716 0.558980
Si Si5 0.832173 0.503511 0.044134
Si Si6 0.992234 0.114660 0.985323
Si Si7 0.250747 0.331354 0.680198
Si Si8 0.539456 0.193889 0.597180
O O1 0.169602 0.785859 0.049173
O O2 0.334022 0.802305 0.328368
O O3 0.451440 0.634101 0.207949
O O4 0.289569 0.894852 0.777916
O O5 0.463625 0.311443 0.245384
O O6 0.500000 0.500000 0.000000
O O7 0.274519 0.532397 0.811952
O O8 0.227246 0.134265 0.438837
O O9 0.185677 0.258547 0.698770
O O10 0.992841 0.379350 0.214383
O O11 0.036437 0.179183 0.696029
O O12 0.619620 0.050540 0.674136
O O13 0.896304 0.932734 0.742226
O O14 0.797750 0.604594 0.131178
O O15 0.803310 0.559208 0.687205
O O16 0.000000 0.000000 0.000000
O O17 0.420205 0.235094 0.760000
#
# Coordination Sequence:
#
# PCOD9033932 Si02
#       8
#     2   2   2   2   2   2   2   2
#     4  11  22  43  66  94 143 179 227 292 356 421
#     4  10  24  39  67 104 135 183 234 291 356 425
#     4  12  28  42  73 102 137 190 236 290 356 427
#     4  11  24  42  66 104 133 184 233 283 365 416
#     4  11  26  48  73 106 145 188 236 297 355 416
#     4  12  25  41  65 101 140 178 227 290 354 427
#     4  11  26  51  73 103 144 187 244 295 350 418
#     4  10  22  44  70  94 141 183 228 297 353 414
#
# _framework density 24.670984000000001
#
# number of rings (size 3 to 8) (size 9 to 14) (size 15 to 20)
#    0.000    1.000    3.750    1.125    7.000    2.000 
#    0.000    2.500    0.000    0.000    0.000    0.000 
#    0.000    0.000    0.000    0.000    0.000    0.000 
#
# Total GULP energy -89505.818666 kJ/mol
# GULP energy per Si atom -5594.113667 kJ/mol
# Density = 2.461483 g / cm^3
# Si number density = 24.670984 Si / 1000 Ang^3
#
#
#
# Elastic Constant Matrix: (Units=GPa)
#
#
# Indices 1 2 3 4 5 6 
#
# 1 105.1908 38.2291 4.3742 -6.9853 5.4123 -0.4276
# 2 38.2291 132.0571 14.3500 5.3093 -3.9180 -0.3275
# 3 4.3742 14.3500 72.1442 -5.0413 13.7619 -1.3226
# 4 -6.9853 5.3093 -5.0413 25.8427 5.5727 6.7451
# 5 5.4123 -3.9180 13.7619 5.5727 31.7668 0.2274
# 6 -0.4276 -0.3275 -1.3226 6.7451 0.2274 42.6688
#
#
#
# Elastic Compliance Matrix: (Units=1/GPa)
#
#
# Indices 1 2 3 4 5 6 
#
# 1 0.011334 -0.003716 0.001105 0.005021 -0.003744 -0.000654
# 2 -0.003716 0.009216 -0.002598 -0.004355 0.003655 0.000622
# 3 0.001105 -0.002598 0.016373 0.005997 -0.008651 -0.000403
# 4 0.005021 -0.004355 0.005997 0.046581 -0.012111 -0.007096
# 5 -0.003744 0.003655 -0.008651 -0.012111 0.038430 0.001432
# 6 -0.000654 0.000622 -0.000403 -0.007096 0.001432 0.024536
#
#
# Mechanical properties :
#
#
# Convention : Reuss Voigt Hill
#
# Bulk Modulus (GPa) = 37.72828 47.03318 42.38073
# Shear Modulus (GPa) = 30.17094 36.88493 33.52793
#
# Velocity S-wave (km/s) = 3.50084 3.87081 3.69046
# Velocity P-wave (km/s) = 5.62734 6.25165 5.94769
#
# Compressibility (1/GPa) = 0.02650532
#
# Stress axis : x y z
#
# Youngs Moduli (GPa) = 88.22691 108.51268 61.07737
#
# Poissons Ratio (x) = 0.40321 -0.06749
# Poissons Ratio (y) = 0.32784 0.15867
# Poissons Ratio (z) = -0.09749 0.28189
#
# Static dielectric constant tensor:
#      x y z
#    x 1.969070 -0.036840 -0.016950 
#    y -0.036840 2.006360 -0.005690 
#    z -0.016950 -0.005690 1.995630 
# 
# From -- ./inp_files/70380.got.cif
#   From: 2010.05.17/outbox.cif.g08.bks.cpg/sg2_36_cif.got.tgz:70380.got - 2010.06.03 11:33:40.
