data_PCOD9033419
_publ_section_title
;
Structure prediction by ZEFSAII (Michael W. Deem and Ramdas Pophale) SiO2 
 PCOD9033419
Probable space group: P -1
;
_chemical_formula_sum "Si O2"
_cell_formula_units_Z 14
_cell_length_a 9.113105
_cell_length_b 11.620004
_cell_length_c 15.309298
_cell_angle_alpha 28.804946
_cell_angle_beta 131.690238
_cell_angle_gamma 122.043517
_cell_volume 577.125520
_symmetry_space_group_name_H-M "P -1"
_symmetry_group_IT_number 2
_symmetry_cell_setting 'triclinic'
loop_
_space_group_symop_operation_xyz
x,y,z
-x,-y,-z
loop_
_atom_site_type_symbol
_atom_site_label
_atom_site_fract_x
_atom_site_fract_y
_atom_site_fract_z
Si Si1 0.772639 0.343803 0.145299
Si Si2 0.807375 0.656877 0.362409
Si Si3 0.411017 0.490943 0.373798
Si Si4 0.535698 0.977017 0.751538
Si Si5 0.709296 0.893189 0.699007
Si Si6 0.013230 0.138374 0.542120
Si Si7 0.822410 0.058635 0.961547
O O1 0.895884 0.306171 0.309541
O O2 0.556333 0.267398 0.128582
O O3 0.759246 0.600204 0.920109
O O4 0.866703 0.109681 0.282440
O O5 0.592944 0.563117 0.338704
O O6 0.000000 0.500000 0.500000
O O7 0.856695 0.712400 0.444944
O O8 0.805099 0.892377 0.147648
O O9 0.500000 0.500000 0.500000
O O10 0.381018 0.222338 0.512601
O O11 0.212885 0.679548 0.180725
O O12 0.696230 0.972244 0.742188
O O13 0.635055 0.011976 0.859349
O O14 0.500000 0.000000 0.500000
O O15 0.860673 0.032753 0.615883
O O16 0.000000 0.000000 0.000000
#
# Coordination Sequence:
#
# PCOD9033419 Si02
#       7
#     2   2   2   2   2   2   2
#     4  11  26  47  72 104 141 192 233 297 359 418
#     4  12  25  43  72 106 141 187 239 291 360 431
#     4  10  22  44  67  99 142 182 234 291 356 425
#     4  11  24  46  69 100 142 181 232 295 356 423
#     4  12  25  44  70 104 138 182 242 287 358 421
#     4  11  25  48  69 104 145 185 240 290 357 433
#     4  11  24  43  68 104 139 188 237 294 363 421
#
# _framework density 24.258157000000001
#
# number of rings (size 3 to 8) (size 9 to 14) (size 15 to 20)
#    0.000    0.857    1.429    6.429    2.000    2.286 
#   12.857    0.000    0.000    0.000    0.000    0.000 
#    0.000    0.000    0.000    0.000    0.000    0.000 
#
# Total GULP energy -78251.884266 kJ/mol
# GULP energy per Si atom -5589.420305 kJ/mol
# Density = 2.420294 g / cm^3
# Si number density = 24.258157 Si / 1000 Ang^3
#
#
#
# Elastic Constant Matrix: (Units=GPa)
#
#
# Indices 1 2 3 4 5 6 
#
# 1 106.9347 10.4184 9.3177 -5.7761 0.5336 15.5942
# 2 10.4184 94.2529 35.1382 -3.6604 3.4348 4.5882
# 3 9.3177 35.1382 124.8880 -12.4373 -1.2506 8.0412
# 4 -5.7761 -3.6604 -12.4373 35.0254 -9.1572 -8.4576
# 5 0.5336 3.4348 -1.2506 -9.1572 30.8327 -9.7148
# 6 15.5942 4.5882 8.0412 -8.4576 -9.7148 42.2849
#
#
#
# Elastic Compliance Matrix: (Units=1/GPa)
#
#
# Indices 1 2 3 4 5 6 
#
# 1 0.010022 -0.000766 -0.000276 0.000238 -0.001224 -0.003794
# 2 -0.000766 0.012042 -0.003370 -0.000843 -0.002037 -0.001020
# 3 -0.000276 -0.003370 0.009337 0.003283 0.001648 -0.000273
# 4 0.000238 -0.000843 0.003283 0.035631 0.013858 0.009690
# 5 -0.001224 -0.002037 0.001648 0.013858 0.040804 0.012505
# 6 -0.003794 -0.001020 -0.000273 0.009690 0.012505 0.030022
#
#
# Mechanical properties :
#
#
# Convention : Reuss Voigt Hill
#
# Bulk Modulus (GPa) = 44.29353 48.42489 46.35921
# Shear Modulus (GPa) = 32.42379 39.70867 36.06623
#
# Velocity S-wave (km/s) = 3.65994 4.05028 3.86004
# Velocity P-wave (km/s) = 6.01324 6.47137 6.24651
#
# Compressibility (1/GPa) = 0.02257666
#
# Stress axis : x y z
#
# Youngs Moduli (GPa) = 99.77551 83.04428 107.10280
#
# Poissons Ratio (x) = 0.06363 0.02960
# Poissons Ratio (y) = 0.07645 0.36089
# Poissons Ratio (z) = 0.02758 0.27982
#
# Static dielectric constant tensor:
#      x y z
#    x 2.053960 0.104110 0.025800 
#    y 0.104110 1.838030 0.274250 
#    z 0.025800 0.274250 1.398290 
# 
# From -- ./inp_files/499804.got.cif
#   From: 2010.05.17/outbox.cif.g08.bks.cpg/sg2_250_cif.got.tgz:499804.got - 2010.06.03 11:33:40.
