data_PCOD9033960
_publ_section_title
;
Structure prediction by ZEFSAII (Michael W. Deem and Ramdas Pophale) SiO2 
 PCOD9033960
Probable space group: P -1
;
_chemical_formula_sum "Si O2"
_cell_formula_units_Z 13
_cell_length_a 8.076492
_cell_length_b 12.832152
_cell_length_c 7.550616
_cell_angle_alpha 128.042479
_cell_angle_beta 104.312291
_cell_angle_gamma 101.034501
_cell_volume 533.148320
_symmetry_space_group_name_H-M "P -1"
_symmetry_group_IT_number 2
_symmetry_cell_setting 'triclinic'
loop_
_space_group_symop_operation_xyz
x,y,z
-x,-y,-z
loop_
_atom_site_type_symbol
_atom_site_label
_atom_site_fract_x
_atom_site_fract_y
_atom_site_fract_z
Si Si1 0.917222 0.514379 0.767496
Si Si2 0.452916 0.599496 0.228065
Si Si3 0.616706 0.935893 0.579607
Si Si4 0.500000 0.000000 0.000000
Si Si5 0.998703 0.181826 0.810228
Si Si6 0.945730 0.216107 0.434256
Si Si7 0.234645 0.326199 0.326402
O O1 0.766404 0.468198 0.841105
O O2 0.808803 0.535709 0.588642
O O3 0.976591 0.385893 0.625075
O O4 0.062404 0.686444 0.020898
O O5 0.531818 0.762381 0.340366
O O6 0.568567 0.618370 0.462082
O O7 0.500000 0.500000 0.000000
O O8 0.584987 0.958814 0.800006
O O9 0.836090 0.030813 0.681737
O O10 0.500000 0.000000 0.500000
O O11 0.277840 0.888155 0.759257
O O12 0.012289 0.181756 0.604019
O O13 0.194583 0.239057 0.036640
O O14 0.075367 0.216310 0.304922
#
# Coordination Sequence:
#
# PCOD9033960 Si02
#       7
#     2   2   2   1   2   2   2
#     4  10  22  44  70  96 144 187 237 289 342 429
#     4  12  26  48  72 106 146 191 233 293 360 430
#     4  12  25  48  72 107 142 188 238 299 350 423
#     4  12  22  40  72 104 138 182 240 290 344 410
#     4  10  23  40  66 100 138 177 236 287 346 413
#     4  12  21  43  69 108 137 190 238 293 347 425
#     4  10  25  41  68 102 141 181 235 292 357 412
#
# _framework density 24.383458999999998
#
# number of rings (size 3 to 8) (size 9 to 14) (size 15 to 20)
#    0.923    0.000    4.615    2.308    0.000    3.077 
#    2.769    3.077    0.000    0.000    0.000    0.000 
#    0.000    0.000    0.000    0.000    0.000    0.000 
#
# Total GULP energy -72481.881768 kJ/mol
# GULP energy per Si atom -5575.529367 kJ/mol
# Density = 2.432796 g / cm^3
# Si number density = 24.383459 Si / 1000 Ang^3
#
#
#
# Elastic Constant Matrix: (Units=GPa)
#
#
# Indices 1 2 3 4 5 6 
#
# 1 44.5221 34.4256 27.5964 3.9011 0.3571 11.3203
# 2 34.4256 129.0738 67.0685 16.7647 -13.3811 5.7231
# 3 27.5964 67.0685 127.1818 6.2032 9.8229 -3.4262
# 4 3.9011 16.7647 6.2032 31.4621 2.8125 -0.8622
# 5 0.3571 -13.3811 9.8229 2.8125 42.9603 -2.7670
# 6 11.3203 5.7231 -3.4262 -0.8622 -2.7670 33.6937
#
#
#
# Elastic Compliance Matrix: (Units=1/GPa)
#
#
# Indices 1 2 3 4 5 6 
#
# 1 0.032426 -0.006472 -0.003743 0.000070 -0.002100 -0.010347
# 2 -0.006472 0.014210 -0.006291 -0.006105 0.006284 -0.000519
# 3 -0.003743 -0.006291 0.012348 0.001888 -0.004666 0.003247
# 4 0.000070 -0.006105 0.001888 0.035108 -0.004521 0.001733
# 5 -0.002100 0.006284 -0.004666 -0.004521 0.026695 0.001240
# 6 -0.010347 -0.000519 0.003247 0.001733 0.001240 0.033720
#
#
# Mechanical properties :
#
#
# Convention : Reuss Voigt Hill
#
# Bulk Modulus (GPa) = 38.50125 62.10652 50.30388
# Shear Modulus (GPa) = 25.48731 33.06904 29.27818
#
# Velocity S-wave (km/s) = 3.23657 3.68667 3.46893
# Velocity P-wave (km/s) = 5.45815 6.60667 6.05968
#
# Compressibility (1/GPa) = 0.02597318
#
# Stress axis : x y z
#
# Youngs Moduli (GPa) = 30.83917 70.37382 80.98356
#
# Poissons Ratio (x) = 0.45543 0.30313
# Poissons Ratio (y) = 0.19958 0.50945
# Poissons Ratio (z) = 0.11544 0.44271
#
# Static dielectric constant tensor:
#      x y z
#    x 1.961560 -0.045620 0.043130 
#    y -0.045620 1.970630 -0.025650 
#    z 0.043130 -0.025650 1.933110 
# 
# From -- ./inp_files/41107.got.cif
#   From: 2010.05.17/outbox.cif.g08.bks.cpg/sg2_21_cif.got.tgz:41107.got - 2010.06.03 11:33:40.
