data_PCOD9033701
_publ_section_title
;
Structure prediction by ZEFSAII (Michael W. Deem and Ramdas Pophale) SiO2 
 PCOD9033701
Probable space group: P -1
;
_chemical_formula_sum "Si O2"
_cell_formula_units_Z 16
_cell_length_a 13.660411
_cell_length_b 9.547429
_cell_length_c 10.901297
_cell_angle_alpha 75.659428
_cell_angle_beta 35.979361
_cell_angle_gamma 66.071567
_cell_volume 754.854572
_symmetry_space_group_name_H-M "P -1"
_symmetry_group_IT_number 2
_symmetry_cell_setting 'triclinic'
loop_
_space_group_symop_operation_xyz
x,y,z
-x,-y,-z
loop_
_atom_site_type_symbol
_atom_site_label
_atom_site_fract_x
_atom_site_fract_y
_atom_site_fract_z
Si Si1 0.261923 0.818750 0.701112
Si Si2 0.436513 0.143941 0.793636
Si Si3 0.887989 0.566558 0.219143
Si Si4 0.615582 0.792813 0.732814
Si Si5 0.522759 0.605635 0.656933
Si Si6 0.130175 0.127593 0.928588
Si Si7 0.002245 0.588014 0.353714
Si Si8 0.387052 0.404164 0.984347
O O1 0.411958 0.832486 0.453458
O O2 0.352132 0.668699 0.728175
O O3 0.073658 0.831779 0.829180
O O4 0.205686 0.962674 0.821774
O O5 0.371725 0.281948 0.926708
O O6 0.523178 0.975356 0.804778
O O7 0.268505 0.141381 0.885679
O O8 0.695001 0.556580 0.406515
O O9 0.962510 0.505331 0.290556
O O10 0.876908 0.743748 0.192952
O O11 0.000000 0.500000 0.000000
O O12 0.541481 0.741123 0.695134
O O13 0.830242 0.744415 0.509998
O O14 0.582769 0.687730 0.898362
O O15 0.532350 0.466850 0.767933
O O16 0.000000 0.500000 0.500000
O O17 0.210243 0.561585 0.136010
#
# Coordination Sequence:
#
# PCOD9033701 Si02
#       8
#     2   2   2   2   2   2   2   2
#     4  11  23  39  66  97 125 174 219 264 330 408
#     4  12  23  42  68  98 136 165 220 279 339 381
#     4  11  22  37  63  93 134 170 212 278 340 384
#     4  10  22  44  69  89 130 181 223 264 326 406
#     4  11  22  40  66  95 131 170 222 268 327 406
#     4  11  23  40  63  96 131 173 217 267 334 400
#     4   9  20  39  60  87 124 176 218 256 320 401
#     4  11  24  40  66  99 130 171 222 278 331 387
#
# _framework density 21.196135999999999
#
# number of rings (size 3 to 8) (size 9 to 14) (size 15 to 20)
#    0.000    1.250    2.500    4.125    1.750    1.500 
#    0.000    0.000    0.000    1.500    0.000    0.000 
#    0.000    0.000    0.000    0.000    0.000    0.000 
#
# Total GULP energy -89306.402977 kJ/mol
# GULP energy per Si atom -5581.650186 kJ/mol
# Density = 2.114789 g / cm^3
# Si number density = 21.196136 Si / 1000 Ang^3
#
#
#
# Elastic Constant Matrix: (Units=GPa)
#
#
# Indices 1 2 3 4 5 6 
#
# 1 91.6440 13.4472 48.8515 3.5392 -2.2933 -8.4459
# 2 13.4472 65.3960 28.2581 -5.1264 2.7551 -12.5527
# 3 48.8515 28.2581 130.0435 -6.9225 -6.6517 -11.6063
# 4 3.5392 -5.1264 -6.9225 27.2213 1.1270 2.4523
# 5 -2.2933 2.7551 -6.6517 1.1270 32.6684 1.7072
# 6 -8.4459 -12.5527 -11.6063 2.4523 1.7072 28.9942
#
#
#
# Elastic Compliance Matrix: (Units=1/GPa)
#
#
# Indices 1 2 3 4 5 6 
#
# 1 0.014068 -0.000527 -0.005167 -0.003430 -0.000011 0.002092
# 2 -0.000527 0.018318 -0.003224 0.002227 -0.002652 0.006454
# 3 -0.005167 -0.003224 0.010661 0.002603 0.001936 0.001033
# 4 -0.003430 0.002227 0.002603 0.038506 -0.001113 -0.002185
# 5 -0.000011 -0.002652 0.001936 -0.001113 0.031377 -0.002130
# 6 0.002092 0.006454 0.001033 -0.002185 -0.002130 0.038617
#
#
# Mechanical properties :
#
#
# Convention : Reuss Voigt Hill
#
# Bulk Modulus (GPa) = 39.66284 52.02191 45.84237
# Shear Modulus (GPa) = 28.12360 30.87855 29.50108
#
# Velocity S-wave (km/s) = 3.64652 3.82095 3.73475
# Velocity P-wave (km/s) = 6.04006 6.63796 6.34606
#
# Compressibility (1/GPa) = 0.02521252
#
# Stress axis : x y z
#
# Youngs Moduli (GPa) = 71.08158 54.59124 93.80106
#
# Poissons Ratio (x) = 0.02877 0.48465
# Poissons Ratio (y) = 0.03746 0.30237
# Poissons Ratio (z) = 0.36726 0.17598
#
# Static dielectric constant tensor:
#      x y z
#    x 1.814350 0.007300 -0.006040 
#    y 0.007300 1.780630 0.039000 
#    z -0.006040 0.039000 1.824930 
# 
# From -- ./inp_files/447303.got.cif
#   From: 2010.05.17/outbox.cif.g08.bks.cpg/sg2_224_cif.got.tgz:447303.got - 2010.06.03 11:33:40.
