data_PCOD9033263
_publ_section_title
;
Structure prediction by ZEFSAII (Michael W. Deem and Ramdas Pophale) SiO2 
 PCOD9033263
Probable space group: P -1
;
_chemical_formula_sum "Si O2"
_cell_formula_units_Z 16
_cell_length_a 14.326580
_cell_length_b 16.999489
_cell_length_c 5.573165
_cell_angle_alpha 125.931567
_cell_angle_beta 76.755473
_cell_angle_gamma 140.827767
_cell_volume 622.882111
_symmetry_space_group_name_H-M "P -1"
_symmetry_group_IT_number 2
_symmetry_cell_setting 'triclinic'
loop_
_space_group_symop_operation_xyz
x,y,z
-x,-y,-z
loop_
_atom_site_type_symbol
_atom_site_label
_atom_site_fract_x
_atom_site_fract_y
_atom_site_fract_z
Si Si1 0.852270 0.452900 0.976178
Si Si2 0.482656 0.926481 0.631779
Si Si3 0.025148 0.940133 0.165062
Si Si4 0.271075 0.340628 0.503162
Si Si5 0.363049 0.611811 0.659796
Si Si6 0.601413 0.718958 0.403822
Si Si7 0.024332 0.251138 0.789754
Si Si8 0.671421 0.910556 0.304062
O O1 0.695898 0.271049 0.626078
O O2 0.783799 0.441832 0.249897
O O3 0.000000 0.500000 0.000000
O O4 0.919680 0.595244 0.025195
O O5 0.619978 0.954932 0.594844
O O6 0.500000 0.000000 0.500000
O O7 0.500000 0.000000 0.000000
O O8 0.009267 0.815529 0.044779
O O9 0.872578 0.826739 0.872792
O O10 0.000000 0.000000 0.500000
O O11 0.217678 0.104700 0.274187
O O12 0.334947 0.486327 0.583792
O O13 0.411112 0.393166 0.646887
O O14 0.168114 0.299481 0.708116
O O15 0.430630 0.635670 0.403331
O O16 0.531315 0.800246 0.991100
O O17 0.644915 0.784708 0.224047
O O18 0.858880 0.087091 0.449410
#
# Coordination Sequence:
#
# PCOD9033263 Si02
#       8
#     2   2   2   2   2   2   2   2
#     4  10  23  49  77 105 141 187 238 313 366 444
#     4  11  26  50  80 109 148 194 246 310 385 451
#     4  11  23  40  65  97 138 186 236 287 348 427
#     4  11  23  39  64  95 136 184 233 292 352 420
#     4  10  24  41  65  97 137 178 233 292 360 435
#     4  11  23  39  66  94 135 182 226 287 350 423
#     4  10  22  44  67 101 135 185 241 290 354 433
#     4  10  24  42  68 100 136 181 233 295 358 436
#
# _framework density 25.687042000000002
#
# number of rings (size 3 to 8) (size 9 to 14) (size 15 to 20)
#    0.000    1.500    1.250    2.250    7.000    3.500 
#   11.250    1.250    0.000    0.000    0.000    0.000 
#    0.000    0.000    0.000    0.000    0.000    0.000 
#
# Total GULP energy -89346.642144 kJ/mol
# GULP energy per Si atom -5584.165134 kJ/mol
# Density = 2.562858 g / cm^3
# Si number density = 25.687042 Si / 1000 Ang^3
#
#
#
# Elastic Constant Matrix: (Units=GPa)
#
#
# Indices 1 2 3 4 5 6 
#
# 1 147.6463 36.7793 17.8971 -1.7709 -2.7858 19.7796
# 2 36.7793 119.3647 10.7279 14.8008 -9.0619 1.8693
# 3 17.8971 10.7279 118.8120 19.9200 8.0737 9.3623
# 4 -1.7709 14.8008 19.9200 27.5171 3.0200 -2.9328
# 5 -2.7858 -9.0619 8.0737 3.0200 32.1313 -1.5627
# 6 19.7796 1.8693 9.3623 -2.9328 -1.5627 63.2838
#
#
#
# Elastic Compliance Matrix: (Units=1/GPa)
#
#
# Indices 1 2 3 4 5 6 
#
# 1 0.007880 -0.002613 -0.001212 0.002578 -0.000093 -0.002089
# 2 -0.002613 0.010156 0.000271 -0.006145 0.003160 0.000270
# 3 -0.001212 0.000271 0.010078 -0.007468 -0.001933 -0.001514
# 4 0.002578 -0.006145 -0.007468 0.045906 -0.003825 0.002514
# 5 -0.000093 0.003160 -0.001933 -0.003825 0.032892 0.000857
# 6 -0.002089 0.000270 -0.001514 0.002514 0.000857 0.016808
#
#
# Mechanical properties :
#
#
# Convention : Reuss Voigt Hill
#
# Bulk Modulus (GPa) = 47.60847 57.40354 52.50601
# Shear Modulus (GPa) = 36.27626 45.94767 41.11197
#
# Velocity S-wave (km/s) = 3.76205 4.23395 4.00496
# Velocity P-wave (km/s) = 6.11923 6.80423 6.47080
#
# Compressibility (1/GPa) = 0.02100466
#
# Stress axis : x y z
#
# Youngs Moduli (GPa) = 126.90615 98.46249 99.23049
#
# Poissons Ratio (x) = 0.25728 0.12029
# Poissons Ratio (y) = 0.33161 -0.02687
# Poissons Ratio (z) = 0.15384 -0.02667
#
# Static dielectric constant tensor:
#      x y z
#    x 2.060320 -0.053210 -0.055480 
#    y -0.053210 2.075690 -0.032400 
#    z -0.055480 -0.032400 2.147310 
# 
# From -- ./inp_files/99946.got.cif
#   From: 2010.05.17/outbox.cif.g08.bks.cpg/sg2_50_cif.got.tgz:99946.got - 2010.06.03 11:33:40.
