data_PCOD9033435
_publ_section_title
;
Structure prediction by ZEFSAII (Michael W. Deem and Ramdas Pophale) SiO2 
 PCOD9033435
Probable space group: P -1
;
_chemical_formula_sum "Si O2"
_cell_formula_units_Z 16
_cell_length_a 28.678465
_cell_length_b 22.938531
_cell_length_c 16.179849
_cell_angle_alpha 20.999553
_cell_angle_beta 21.293922
_cell_angle_gamma 10.865400
_cell_volume 701.339220
_symmetry_space_group_name_H-M "P -1"
_symmetry_group_IT_number 2
_symmetry_cell_setting 'triclinic'
loop_
_space_group_symop_operation_xyz
x,y,z
-x,-y,-z
loop_
_atom_site_type_symbol
_atom_site_label
_atom_site_fract_x
_atom_site_fract_y
_atom_site_fract_z
Si Si1 0.247305 0.726969 0.667582
Si Si2 0.331445 0.152996 0.494209
Si Si3 0.872602 0.510941 0.849578
Si Si4 0.089831 0.140424 0.520997
Si Si5 0.446092 0.373665 0.261195
Si Si6 0.972860 0.170580 0.387124
Si Si7 0.187821 0.221451 0.877978
Si Si8 0.489446 0.825710 0.396945
O O1 0.500000 0.500000 0.500000
O O2 0.230506 0.861732 0.596670
O O3 0.192189 0.594206 0.942628
O O4 0.023849 0.032520 0.572707
O O5 0.030515 0.477915 0.580205
O O6 0.500000 0.000000 0.500000
O O7 0.356191 0.943125 0.698992
O O8 0.516787 0.050099 0.262080
O O9 0.055837 0.296485 0.912034
O O10 0.608793 0.882431 0.820519
O O11 0.820959 0.358451 0.696747
O O12 0.991571 0.425647 0.271941
O O13 0.252650 0.989310 0.533093
O O14 0.440738 0.312649 0.444192
O O15 0.500000 0.500000 0.000000
O O16 0.707589 0.553192 0.330363
O O17 0.000000 0.000000 0.500000
O O18 0.169358 0.098093 0.137072
#
# Coordination Sequence:
#
# PCOD9033435 Si02
#       8
#     2   2   2   2   2   2   2   2
#     4  12  25  40  65 103 144 184 235 291 349 416
#     4   9  20  41  70  99 132 182 233 282 347 411
#     4  10  22  44  68 100 142 184 231 293 348 419
#     4  10  23  44  64 103 136 182 237 287 346 414
#     4  11  23  44  71 100 143 185 230 295 351 413
#     4  12  24  43  70 103 138 187 234 284 361 418
#     4   9  21  40  71  99 137 185 233 291 346 418
#     4  11  26  44  71 102 139 188 235 282 363 421
#
# _framework density 22.813497000000002
#
# number of rings (size 3 to 8) (size 9 to 14) (size 15 to 20)
#    0.000    1.500    2.500    2.250    1.750    4.500 
#    0.000    3.750    0.000    0.000    0.000    0.000 
#    0.000    0.000    0.000    0.000    0.000    0.000 
#
# Total GULP energy -89226.144084 kJ/mol
# GULP energy per Si atom -5576.634005 kJ/mol
# Density = 2.276157 g / cm^3
# Si number density = 22.813497 Si / 1000 Ang^3
#
#
#
# Elastic Constant Matrix: (Units=GPa)
#
#
# Indices 1 2 3 4 5 6 
#
# 1 95.8727 15.4051 26.7308 -11.6919 -27.5009 12.1070
# 2 15.4051 110.1917 35.8426 8.5627 -11.4322 22.7588
# 3 26.7308 35.8426 123.8645 3.1303 -27.2666 3.7836
# 4 -11.6919 8.5627 3.1303 20.7993 1.9306 -8.0520
# 5 -27.5009 -11.4322 -27.2666 1.9306 33.2534 -9.1935
# 6 12.1070 22.7588 3.7836 -8.0520 -9.1935 38.9843
#
#
#
# Elastic Compliance Matrix: (Units=1/GPa)
#
#
# Indices 1 2 3 4 5 6 
#
# 1 0.014945 -0.001535 -0.000579 0.008342 0.011049 0.000640
# 2 -0.001535 0.012672 -0.003154 -0.008873 -0.001411 -0.008781
# 3 -0.000579 -0.003154 0.010817 -0.000317 0.008103 0.002817
# 4 0.008342 -0.008873 -0.000317 0.062471 0.004550 0.016596
# 5 0.011049 -0.001411 0.008103 0.004550 0.047525 0.008753
# 6 0.000640 -0.008781 0.002817 0.016596 0.008753 0.035798
#
#
# Mechanical properties :
#
#
# Convention : Reuss Voigt Hill
#
# Bulk Modulus (GPa) = 35.84516 53.98730 44.91623
# Shear Modulus (GPa) = 24.50228 35.40410 29.95319
#
# Velocity S-wave (km/s) = 3.28079 3.94368 3.62741
# Velocity P-wave (km/s) = 5.48615 6.66730 6.10535
#
# Compressibility (1/GPa) = 0.02789777
#
# Stress axis : x y z
#
# Youngs Moduli (GPa) = 66.91377 78.91248 92.44962
#
# Poissons Ratio (x) = 0.12113 0.05353
# Poissons Ratio (y) = 0.10271 0.29158
# Poissons Ratio (z) = 0.03874 0.24888
#
# Static dielectric constant tensor:
#      x y z
#    x 1.972070 0.116670 -0.011220 
#    y 0.116670 2.021230 -0.035760 
#    z -0.011220 -0.035760 1.860900 
# 
# From -- ./inp_files/580203.got.cif
#   From: 2010.05.17/outbox.cif.g08.bks.cpg/sg2_291_cif.got.tgz:580203.got - 2010.06.03 11:33:40.
