data_PCOD9033370
_publ_section_title
;
Structure prediction by ZEFSAII (Michael W. Deem and Ramdas Pophale) SiO2 
 PCOD9033370
Probable space group: P -1
;
_chemical_formula_sum "Si O2"
_cell_formula_units_Z 16
_cell_length_a 12.619526
_cell_length_b 16.911761
_cell_length_c 8.352619
_cell_angle_alpha 56.214633
_cell_angle_beta 88.410216
_cell_angle_gamma 42.027752
_cell_volume 715.574630
_symmetry_space_group_name_H-M "P -1"
_symmetry_group_IT_number 2
_symmetry_cell_setting 'triclinic'
loop_
_space_group_symop_operation_xyz
x,y,z
-x,-y,-z
loop_
_atom_site_type_symbol
_atom_site_label
_atom_site_fract_x
_atom_site_fract_y
_atom_site_fract_z
Si Si1 0.795608 0.603554 0.967012
Si Si2 0.300546 0.756741 0.588756
Si Si3 0.002568 0.746407 0.514220
Si Si4 0.663068 0.960375 0.029347
Si Si5 0.162265 0.922110 0.763936
Si Si6 0.572309 0.509301 0.339818
Si Si7 0.416551 0.284482 0.443307
Si Si8 0.941652 0.610444 0.224822
O O1 0.879434 0.430238 0.193013
O O2 0.775924 0.676548 0.051471
O O3 0.586768 0.764816 0.676240
O O4 0.000000 0.500000 0.000000
O O5 0.235459 0.821025 0.704574
O O6 0.398151 0.581417 0.716360
O O7 0.479395 0.694963 0.610050
O O8 0.056026 0.959116 0.292991
O O9 0.187308 0.632700 0.504122
O O10 0.791510 0.874238 0.284873
O O11 0.920542 0.903615 0.437734
O O12 0.835922 0.790482 0.082406
O O13 0.500000 0.000000 0.000000
O O14 0.540716 0.143605 0.748272
O O15 0.378616 0.737755 0.068145
O O16 0.500000 0.500000 0.500000
O O17 0.163207 0.468751 0.289019
O O18 0.000000 0.500000 0.500000
#
# Coordination Sequence:
#
# PCOD9033370 Si02
#       8
#     2   2   2   2   2   2   2   2
#     4  10  22  44  67  97 134 175 233 278 335 408
#     4  10  24  43  67 101 134 178 230 278 346 408
#     4  11  25  43  71 101 139 183 232 282 352 408
#     4  12  25  41  66 101 134 179 229 280 348 407
#     4  10  24  46  70  95 142 179 226 290 339 409
#     4  11  26  42  70 103 137 181 226 284 345 416
#     4  11  25  40  68 100 133 176 232 284 337 415
#     4  11  22  43  66  93 137 181 219 288 340 401
#
# _framework density 22.359652000000001
#
# number of rings (size 3 to 8) (size 9 to 14) (size 15 to 20)
#    0.000    1.250    2.500    1.875    5.250    7.500 
#    0.000    0.000    0.000    0.000    0.000    0.000 
#    0.000    0.000    0.000    0.000    0.000    0.000 
#
# Total GULP energy -89258.289266 kJ/mol
# GULP energy per Si atom -5578.643079 kJ/mol
# Density = 2.230876 g / cm^3
# Si number density = 22.359652 Si / 1000 Ang^3
#
#
#
# Elastic Constant Matrix: (Units=GPa)
#
#
# Indices 1 2 3 4 5 6 
#
# 1 98.9006 17.2072 3.3951 -4.0126 14.7805 -17.3684
# 2 17.2072 68.8855 7.6160 -11.9228 -1.8296 -3.9692
# 3 3.3951 7.6160 41.4470 -4.9840 9.6532 -14.0873
# 4 -4.0126 -11.9228 -4.9840 29.3199 1.9895 1.9392
# 5 14.7805 -1.8296 9.6532 1.9895 33.3764 1.3964
# 6 -17.3684 -3.9692 -14.0873 1.9392 1.3964 35.2454
#
#
#
# Elastic Compliance Matrix: (Units=1/GPa)
#
#
# Indices 1 2 3 4 5 6 
#
# 1 0.013126 -0.003279 0.004154 0.001156 -0.007597 0.007996
# 2 -0.003279 0.016679 -0.003339 0.005658 0.003058 -0.001505
# 3 0.004154 -0.003339 0.032999 0.004668 -0.012476 0.015098
# 4 0.001156 0.005658 0.004668 0.037543 -0.003838 0.001159
# 5 -0.007597 0.003058 -0.012476 -0.003838 0.037735 -0.009670
# 6 0.007996 -0.001505 0.015098 0.001159 -0.009670 0.038497
#
#
# Mechanical properties :
#
#
# Convention : Reuss Voigt Hill
#
# Bulk Modulus (GPa) = 17.27886 29.51886 23.39886
# Shear Modulus (GPa) = 24.90043 31.65600 28.27821
#
# Velocity S-wave (km/s) = 3.34073 3.76675 3.56012
# Velocity P-wave (km/s) = 4.75659 5.66995 5.23323
#
# Compressibility (1/GPa) = 0.05787419
#
# Stress axis : x y z
#
# Youngs Moduli (GPa) = 76.18711 59.95592 30.30370
#
# Poissons Ratio (x) = 0.19659 -0.12587
# Poissons Ratio (y) = 0.24981 0.10120
# Poissons Ratio (z) = -0.31645 0.20022
#
# Static dielectric constant tensor:
#      x y z
#    x 1.754030 -0.084360 0.162920 
#    y -0.084360 1.759220 0.264210 
#    z 0.162920 0.264210 1.551800 
# 
# From -- ./inp_files/279028.got.cif
#   From: 2010.05.17/outbox.cif.g08.bks.cpg/sg2_140_cif.got.tgz:279028.got - 2010.06.03 11:33:40.
