data_PCOD9033666
_publ_section_title
;
Structure prediction by ZEFSAII (Michael W. Deem and Ramdas Pophale) SiO2 
 PCOD9033666
Probable space group: P -1
;
_chemical_formula_sum "Si O2"
_cell_formula_units_Z 14
_cell_length_a 6.853024
_cell_length_b 17.007274
_cell_length_c 11.617746
_cell_angle_alpha 143.757558
_cell_angle_beta 81.423646
_cell_angle_gamma 74.144989
_cell_volume 585.423576
_symmetry_space_group_name_H-M "P -1"
_symmetry_group_IT_number 2
_symmetry_cell_setting 'triclinic'
loop_
_space_group_symop_operation_xyz
x,y,z
-x,-y,-z
loop_
_atom_site_type_symbol
_atom_site_label
_atom_site_fract_x
_atom_site_fract_y
_atom_site_fract_z
Si Si1 0.012871 0.846998 0.099612
Si Si2 0.375292 0.909650 0.049443
Si Si3 0.421085 0.350277 0.742089
Si Si4 0.137536 0.762372 0.255752
Si Si5 0.679507 0.751969 0.592895
Si Si6 0.593572 0.913111 0.513331
Si Si7 0.920177 0.599587 0.745935
O O1 0.102541 0.820704 0.194378
O O2 0.146826 0.902909 0.079713
O O3 0.691207 0.985703 0.282781
O O4 0.074254 0.668262 0.839086
O O5 0.309255 0.098840 0.273104
O O6 0.157370 0.104347 0.506526
O O7 0.516468 0.823229 0.810434
O O8 0.605434 0.771905 0.962363
O O9 0.673758 0.247692 0.683810
O O10 0.454659 0.286452 0.532287
O O11 0.268891 0.293987 0.743947
O O12 0.272228 0.556602 0.996722
O O13 0.975696 0.556458 0.356404
O O14 0.500000 0.000000 0.500000
O O15 0.000000 0.500000 0.500000
#
# Coordination Sequence:
#
# PCOD9033666 Si02
#       7
#     2   2   2   2   2   2   2
#     4  11  23  46  73 104 143 187 242 295 360 429
#     4  10  24  46  73 107 146 188 244 300 360 436
#     4  11  22  43  68 101 142 184 242 291 358 436
#     4  10  24  44  68 104 140 188 241 291 359 426
#     4  10  22  46  74 106 147 191 237 299 369 425
#     4  10  24  43  69  95 142 190 235 297 354 419
#     4  10  22  44  69 103 142 189 236 295 360 422
#
# _framework density 23.914306
#
# number of rings (size 3 to 8) (size 9 to 14) (size 15 to 20)
#    0.000    1.714    1.429    1.286    0.000   10.286 
#    7.714   11.429    0.000    2.571    0.000    0.000 
#    0.000    0.000    0.000    0.000    0.000    0.000 
#
# Total GULP energy -78096.679518 kJ/mol
# GULP energy per Si atom -5578.334251 kJ/mol
# Density = 2.385988 g / cm^3
# Si number density = 23.914306 Si / 1000 Ang^3
#
#
#
# Elastic Constant Matrix: (Units=GPa)
#
#
# Indices 1 2 3 4 5 6 
#
# 1 152.9961 48.6984 58.8909 -1.5368 9.2038 1.2461
# 2 48.6984 122.7482 48.1179 7.1052 -0.5481 -5.8829
# 3 58.8909 48.1179 146.0669 10.4750 30.9095 -3.6646
# 4 -1.5368 7.1052 10.4750 50.4134 -5.5493 8.0247
# 5 9.2038 -0.5481 30.9095 -5.5493 34.9288 -2.6855
# 6 1.2461 -5.8829 -3.6646 8.0247 -2.6855 46.3463
#
#
#
# Elastic Compliance Matrix: (Units=1/GPa)
#
#
# Indices 1 2 3 4 5 6 
#
# 1 0.008358 -0.002341 -0.002801 0.001361 0.000382 -0.000957
# 2 -0.002341 0.010445 -0.003166 -0.000726 0.003580 0.001472
# 3 -0.002801 -0.003166 0.011333 -0.003160 -0.009800 0.000549
# 4 0.001361 -0.000726 -0.003160 0.021865 0.005605 -0.003840
# 5 0.000382 0.003580 -0.009800 0.005605 0.038218 0.000913
# 6 -0.000957 0.001472 0.000549 -0.003840 0.000913 0.022550
#
#
# Mechanical properties :
#
#
# Convention : Reuss Voigt Hill
#
# Bulk Modulus (GPa) = 73.96317 81.46950 77.71634
# Shear Modulus (GPa) = 37.34415 44.07798 40.71107
#
# Velocity S-wave (km/s) = 3.95597 4.29787 4.13046
# Velocity P-wave (km/s) = 7.20152 7.66617 7.43747
#
# Compressibility (1/GPa) = 0.01352024
#
# Stress axis : x y z
#
# Youngs Moduli (GPa) = 119.64834 95.74076 88.24142
#
# Poissons Ratio (x) = 0.22410 0.24718
# Poissons Ratio (y) = 0.28006 0.27934
# Poissons Ratio (z) = 0.33515 0.30308
#
# Static dielectric constant tensor:
#      x y z
#    x 1.777220 0.184480 -0.200120 
#    y 0.184480 1.463540 0.507660 
#    z -0.200120 0.507660 1.589090 
# 
# From -- ./inp_files/164750.got.cif
#   From: 2010.05.17/outbox.cif.g08.bks.cpg/sg2_83_cif.got.tgz:164750.got - 2010.06.03 11:33:40.
