data_PCOD9033041
_publ_section_title
;
Structure prediction by ZEFSAII (Michael W. Deem and Ramdas Pophale) SiO2 
 PCOD9033041
Probable space group: P -1
;
_chemical_formula_sum "Si O2"
_cell_formula_units_Z 16
_cell_length_a 5.474066
_cell_length_b 10.655963
_cell_length_c 20.569901
_cell_angle_alpha 141.299814
_cell_angle_beta 71.079545
_cell_angle_gamma 117.256440
_cell_volume 665.726731
_symmetry_space_group_name_H-M "P -1"
_symmetry_group_IT_number 2
_symmetry_cell_setting 'triclinic'
loop_
_space_group_symop_operation_xyz
x,y,z
-x,-y,-z
loop_
_atom_site_type_symbol
_atom_site_label
_atom_site_fract_x
_atom_site_fract_y
_atom_site_fract_z
Si Si1 0.576435 0.281117 0.206144
Si Si2 0.720378 0.845412 0.611037
Si Si3 0.003713 0.938648 0.141736
Si Si4 0.003076 0.320889 0.082497
Si Si5 0.060013 0.270232 0.802049
Si Si6 0.983495 0.637476 0.406716
Si Si7 0.587785 0.383470 0.731449
Si Si8 0.912959 0.288288 0.366103
O O1 0.758155 0.441269 0.309297
O O2 0.459742 0.439674 0.240084
O O3 0.768093 0.210776 0.110909
O O4 0.328158 0.078182 0.169530
O O5 0.849229 0.798837 0.513960
O O6 0.392469 0.728606 0.592675
O O7 0.886251 0.767050 0.621777
O O8 0.790935 0.095197 0.722921
O O9 0.933882 0.772249 0.139563
O O10 0.863686 0.108343 0.242060
O O11 0.927505 0.834611 0.036110
O O12 0.248722 0.476882 0.166354
O O13 0.908342 0.486790 0.115360
O O14 0.304444 0.229664 0.723678
O O15 0.062639 0.516783 0.412107
O O16 0.230697 0.723632 0.368838
#
# Coordination Sequence:
#
# PCOD9033041 Si02
#       8
#     2   2   2   2   2   2   2   2
#     4  10  22  44  65 104 135 169 234 282 335 414
#     4  11  26  42  72 101 139 180 226 284 342 405
#     4  11  22  43  71  98 134 181 223 288 348 394
#     4  10  23  43  68  96 137 182 226 278 345 404
#     4  10  24  44  63  99 140 174 233 278 328 419
#     4  11  22  42  71  94 138 182 217 282 353 393
#     4  10  23  43  63  97 140 174 229 281 328 417
#     4  11  24  43  66 109 139 168 234 285 337 414
#
# _framework density 24.033887
#
# number of rings (size 3 to 8) (size 9 to 14) (size 15 to 20)
#    0.000    1.500    1.250    3.000    5.250    1.500 
#   13.500    5.625    0.000    0.000    0.000    0.000 
#    0.000    0.000    0.000    0.000    0.000    0.000 
#
# Total GULP energy -89513.997630 kJ/mol
# GULP energy per Si atom -5594.624852 kJ/mol
# Density = 2.397918 g / cm^3
# Si number density = 24.033887 Si / 1000 Ang^3
#
#
#
# Elastic Constant Matrix: (Units=GPa)
#
#
# Indices 1 2 3 4 5 6 
#
# 1 76.3781 26.6531 15.9758 -13.2972 -2.2423 3.2755
# 2 26.6531 88.8790 11.4613 -15.0531 -6.7205 19.6525
# 3 15.9758 11.4613 141.0340 -36.5537 -19.3850 4.6443
# 4 -13.2972 -15.0531 -36.5537 21.4174 -0.4605 -6.1520
# 5 -2.2423 -6.7205 -19.3850 -0.4605 15.8638 4.2335
# 6 3.2755 19.6525 4.6443 -6.1520 4.2335 31.3858
#
#
#
# Elastic Compliance Matrix: (Units=1/GPa)
#
#
# Indices 1 2 3 4 5 6 
#
# 1 0.015795 -0.003398 0.001499 0.010607 0.002396 0.002013
# 2 -0.003398 0.018897 0.007501 0.021202 0.020287 -0.011169
# 3 0.001499 0.007501 0.022390 0.043976 0.033096 -0.004011
# 4 0.010607 0.021202 0.043976 0.144161 0.068917 -0.001929
# 5 0.002396 0.020287 0.033096 0.068917 0.119886 -0.020512
# 6 0.002013 -0.011169 -0.004011 -0.001929 -0.020512 0.041627
#
#
# Mechanical properties :
#
#
# Convention : Reuss Voigt Hill
#
# Bulk Modulus (GPa) = 14.64413 46.05239 30.34826
# Shear Modulus (GPa) = 13.35774 30.54678 21.95226
#
# Velocity S-wave (km/s) = 2.36007 3.56896 3.02551
# Velocity P-wave (km/s) = 3.67871 6.01551 4.98594
#
# Compressibility (1/GPa) = 0.06828674
#
# Stress axis : x y z
#
# Youngs Moduli (GPa) = 63.30927 52.91773 44.66276
#
# Poissons Ratio (x) = 0.17979 -0.06695
# Poissons Ratio (y) = 0.21510 -0.33499
# Poissons Ratio (z) = -0.09490 -0.39691
#
# Static dielectric constant tensor:
#      x y z
#    x 1.963560 -0.031220 -0.015070 
#    y -0.031220 1.941690 -0.016820 
#    z -0.015070 -0.016820 1.921550 
# 
# From -- ./inp_files/80260.got.cif
#   From: 2010.05.17/outbox.cif.g08.bks.cpg/sg2_41_cif.got.tgz:80260.got - 2010.06.03 11:33:40.
