data_PCOD9033306
_publ_section_title
;
Structure prediction by ZEFSAII (Michael W. Deem and Ramdas Pophale) SiO2 
 PCOD9033306
Probable space group: P -1
;
_chemical_formula_sum "Si O2"
_cell_formula_units_Z 16
_cell_length_a 7.720823
_cell_length_b 21.520745
_cell_length_c 7.858710
_cell_angle_alpha 124.489174
_cell_angle_beta 124.209014
_cell_angle_gamma 91.426234
_cell_volume 768.984350
_symmetry_space_group_name_H-M "P -1"
_symmetry_group_IT_number 2
_symmetry_cell_setting 'triclinic'
loop_
_space_group_symop_operation_xyz
x,y,z
-x,-y,-z
loop_
_atom_site_type_symbol
_atom_site_label
_atom_site_fract_x
_atom_site_fract_y
_atom_site_fract_z
Si Si1 0.891271 0.663469 0.549633
Si Si2 0.886723 0.526659 0.128383
Si Si3 0.304442 0.864058 0.112373
Si Si4 0.484947 0.812060 0.441471
Si Si5 0.605391 0.371048 0.962294
Si Si6 0.037375 0.065715 0.970670
Si Si7 0.589621 0.502796 0.365477
Si Si8 0.528194 0.918141 0.943851
O O1 0.008453 0.622707 0.422868
O O2 0.646703 0.653669 0.313190
O O3 0.802506 0.596158 0.557454
O O4 0.082661 0.763931 0.841946
O O5 0.825076 0.453799 0.121544
O O6 0.630906 0.511958 0.899783
O O7 0.000000 0.500000 0.000000
O O8 0.425804 0.887050 0.028049
O O9 0.193236 0.926154 0.187015
O O10 0.477208 0.867019 0.363148
O O11 0.363715 0.712236 0.165162
O O12 0.760429 0.842927 0.692370
O O13 0.397732 0.841372 0.608330
O O14 0.608672 0.416155 0.212376
O O15 0.188744 0.054151 0.883955
O O16 0.000000 0.000000 0.000000
O O17 0.500000 0.500000 0.500000
O O18 0.500000 0.000000 0.000000
#
# Coordination Sequence:
#
# PCOD9033306 Si02
#       8
#     2   2   2   2   2   2   2   2
#     4   9  19  37  58  82 122 169 201 257 326 356
#     4   9  19  31  57  81 114 167 198 251 313 362
#     4  12  22  44  67  95 132 167 214 270 316 386
#     4  10  24  41  64 100 124 164 221 261 312 397
#     4   9  18  40  55  81 129 159 205 262 310 370
#     4  10  22  44  67  91 134 164 199 275 321 373
#     4   9  19  36  56  84 121 166 210 252 311 384
#     4  10  23  43  68  96 125 167 214 257 330 393
#
# _framework density 20.806664999999999
#
# number of rings (size 3 to 8) (size 9 to 14) (size 15 to 20)
#    0.750    1.500    2.500    1.500    1.750    4.000 
#    9.000    3.750    0.000    0.000    0.000    0.000 
#    0.000    0.000    0.000    0.000    0.000    0.000 
#
# Total GULP energy -89096.855281 kJ/mol
# GULP energy per Si atom -5568.553455 kJ/mol
# Density = 2.075931 g / cm^3
# Si number density = 20.806665 Si / 1000 Ang^3
#
#
#
# Elastic Constant Matrix: (Units=GPa)
#
#
# Indices 1 2 3 4 5 6 
#
# 1 108.4609 39.7319 22.7427 0.4619 -31.4975 -0.9818
# 2 39.7319 101.4572 19.8003 -0.8848 -18.8856 -17.1929
# 3 22.7427 19.8003 51.3388 13.9181 -15.1592 -5.1590
# 4 0.4619 -0.8848 13.9181 36.6840 -4.8379 -8.3955
# 5 -31.4975 -18.8856 -15.1592 -4.8379 36.9742 -0.8497
# 6 -0.9818 -17.1929 -5.1590 -8.3955 -0.8497 35.9314
#
#
#
# Elastic Compliance Matrix: (Units=1/GPa)
#
#
# Indices 1 2 3 4 5 6 
#
# 1 0.013574 -0.003267 -0.002657 0.001728 0.009009 -0.000957
# 2 -0.003267 0.013583 -0.003018 0.003558 0.003541 0.006892
# 3 -0.002657 -0.003018 0.025980 -0.009099 0.005661 0.000222
# 4 0.001728 0.003558 -0.009099 0.033216 0.004095 0.008301
# 5 0.009009 0.003541 0.005661 0.004095 0.039493 0.004644
# 6 -0.000957 0.006892 0.000222 0.008301 0.004644 0.033184
#
#
# Mechanical properties :
#
#
# Convention : Reuss Voigt Hill
#
# Bulk Modulus (GPa) = 28.36682 47.31185 37.83933
# Shear Modulus (GPa) = 26.50188 33.85006 30.17597
#
# Velocity S-wave (km/s) = 3.57279 4.03784 3.81242
# Velocity P-wave (km/s) = 5.53922 6.67286 6.13229
#
# Compressibility (1/GPa) = 0.03525246
#
# Stress axis : x y z
#
# Youngs Moduli (GPa) = 73.66803 73.62180 38.49097
#
# Poissons Ratio (x) = 0.24055 0.10229
# Poissons Ratio (y) = 0.24070 0.11615
# Poissons Ratio (z) = 0.19577 0.22216
#
# Static dielectric constant tensor:
#      x y z
#    x 1.815320 -0.030260 0.003490 
#    y -0.030260 1.739030 0.001370 
#    z 0.003490 0.001370 1.788800 
# 
# From -- ./inp_files/222499.got.cif
#   From: 2010.05.17/outbox.cif.g08.bks.cpg/sg2_112_cif.got.tgz:222499.got - 2010.06.03 11:33:40.
