data_PCOD9033433
_publ_section_title
;
Structure prediction by ZEFSAII (Michael W. Deem and Ramdas Pophale) SiO2 
 PCOD9033433
Probable space group: P -1
;
_chemical_formula_sum "Si O2"
_cell_formula_units_Z 16
_cell_length_a 17.253375
_cell_length_b 11.890784
_cell_length_c 10.416629
_cell_angle_alpha 122.315336
_cell_angle_beta 47.268835
_cell_angle_gamma 154.436602
_cell_volume 656.772521
_symmetry_space_group_name_H-M "P -1"
_symmetry_group_IT_number 2
_symmetry_cell_setting 'triclinic'
loop_
_space_group_symop_operation_xyz
x,y,z
-x,-y,-z
loop_
_atom_site_type_symbol
_atom_site_label
_atom_site_fract_x
_atom_site_fract_y
_atom_site_fract_z
Si Si1 0.779688 0.036016 0.659921
Si Si2 0.623355 0.580612 0.536705
Si Si3 0.362061 0.672599 0.754837
Si Si4 0.071044 0.428868 0.370545
Si Si5 0.514774 0.232937 0.946182
Si Si6 0.357581 0.335606 0.931823
Si Si7 0.346714 0.899345 0.715520
Si Si8 0.969359 0.237960 0.106395
O O1 0.770474 0.866599 0.579771
O O2 0.600807 0.897529 0.674908
O O3 0.011748 0.315162 0.509883
O O4 0.687947 0.993762 0.870633
O O5 0.500000 0.500000 0.500000
O O6 0.712211 0.535141 0.372656
O O7 0.476674 0.403247 0.717585
O O8 0.326290 0.765084 0.766750
O O9 0.208017 0.507386 0.949260
O O10 0.949872 0.210459 0.265651
O O11 0.000000 0.500000 0.500000
O O12 0.310000 0.690051 0.208152
O O13 0.648207 0.512465 0.998564
O O14 0.438809 0.133195 0.824271
O O15 0.500000 0.500000 0.000000
O O16 0.142070 0.014281 0.984820
O O17 0.136621 0.734899 0.791778
O O18 0.500000 0.000000 0.500000
#
# Coordination Sequence:
#
# PCOD9033433 Si02
#       8
#     2   2   2   2   2   2   2   2
#     4  10  22  44  68 100 142 174 227 296 341 410
#     4   9  20  41  66  98 128 182 230 282 352 402
#     4  11  23  41  70  99 138 179 229 291 347 418
#     4  12  26  44  73 106 137 183 237 285 350 424
#     4  11  25  45  72 101 137 184 234 289 349 411
#     4  11  23  45  70  98 142 183 234 292 355 417
#     4  12  25  45  67  96 142 190 228 285 351 420
#     4  12  25  44  69 105 138 184 234 285 355 418
#
# _framework density 24.361554000000002
#
# number of rings (size 3 to 8) (size 9 to 14) (size 15 to 20)
#    0.000    1.000    2.500    4.875    3.500    1.500 
#    2.250    0.625    0.000    0.000    0.000    0.000 
#    0.000    0.000    0.000    0.000    0.000    0.000 
#
# Total GULP energy -89294.748004 kJ/mol
# GULP energy per Si atom -5580.921750 kJ/mol
# Density = 2.430611 g / cm^3
# Si number density = 24.361554 Si / 1000 Ang^3
#
#
#
# Elastic Constant Matrix: (Units=GPa)
#
#
# Indices 1 2 3 4 5 6 
#
# 1 54.3743 -0.3478 27.2518 -2.9812 -1.2813 -13.7148
# 2 -0.3478 65.8265 43.0595 -4.2433 5.9894 -15.8708
# 3 27.2518 43.0595 182.3071 1.6919 -1.4408 0.4239
# 4 -2.9812 -4.2433 1.6919 27.7281 -8.9959 6.1487
# 5 -1.2813 5.9894 -1.4408 -8.9959 39.3552 5.1010
# 6 -13.7148 -15.8708 0.4239 6.1487 5.1010 27.7620
#
#
#
# Elastic Compliance Matrix: (Units=1/GPa)
#
#
# Indices 1 2 3 4 5 6 
#
# 1 0.026139 0.008924 -0.006079 -0.000725 -0.003343 0.018882
# 2 0.008924 0.025693 -0.007492 -0.001521 -0.006941 0.020823
# 3 -0.006079 -0.007492 0.008198 0.000196 0.002308 -0.007878
# 4 -0.000725 -0.001521 0.000196 0.042304 0.011534 -0.012719
# 5 -0.003343 -0.006941 0.002308 0.011534 0.030877 -0.013882
# 6 0.018882 0.020823 -0.007878 -0.012719 -0.013882 0.062741
#
#
# Mechanical properties :
#
#
# Convention : Reuss Voigt Hill
#
# Bulk Modulus (GPa) = 19.70904 49.15944 34.43424
# Shear Modulus (GPa) = 22.50655 34.47203 28.48929
#
# Velocity S-wave (km/s) = 3.04280 3.76575 3.42341
# Velocity P-wave (km/s) = 4.52245 6.25546 5.45818
#
# Compressibility (1/GPa) = 0.05073814
#
# Stress axis : x y z
#
# Youngs Moduli (GPa) = 38.25712 38.92071 121.97844
#
# Poissons Ratio (x) = -0.34735 0.74148
# Poissons Ratio (y) = -0.34142 0.91383
# Poissons Ratio (z) = 0.23256 0.29158
#
# Static dielectric constant tensor:
#      x y z
#    x 2.124020 0.175130 -0.217000 
#    y 0.175130 2.312660 -0.490420 
#    z -0.217000 -0.490420 2.869600 
# 
# From -- ./inp_files/333600.got.cif
#   From: 2010.05.17/outbox.cif.g08.bks.cpg/sg2_167_cif.got.tgz:333600.got - 2010.06.03 11:33:40.
