data_PCOD9033582
_publ_section_title
;
Structure prediction by ZEFSAII (Michael W. Deem and Ramdas Pophale) SiO2 
 PCOD9033582
Probable space group: P -1
;
_chemical_formula_sum "Si O2"
_cell_formula_units_Z 16
_cell_length_a 11.114830
_cell_length_b 14.203581
_cell_length_c 9.574333
_cell_angle_alpha 109.636643
_cell_angle_beta 28.717240
_cell_angle_gamma 101.178661
_cell_volume 666.819464
_symmetry_space_group_name_H-M "P -1"
_symmetry_group_IT_number 2
_symmetry_cell_setting 'triclinic'
loop_
_space_group_symop_operation_xyz
x,y,z
-x,-y,-z
loop_
_atom_site_type_symbol
_atom_site_label
_atom_site_fract_x
_atom_site_fract_y
_atom_site_fract_z
Si Si1 0.809614 0.666335 0.039792
Si Si2 0.757039 0.226694 0.300252
Si Si3 0.034852 0.283075 0.616365
Si Si4 0.995377 0.107381 0.739603
Si Si5 0.355033 0.916858 0.161875
Si Si6 0.312124 0.749800 0.298551
Si Si7 0.783534 0.602452 0.741003
Si Si8 0.766723 0.473868 0.134921
O O1 0.547777 0.738291 0.401646
O O2 0.757351 0.554014 0.058467
O O3 0.833023 0.676331 0.854592
O O4 0.070786 0.687448 0.847968
O O5 0.764435 0.206476 0.448747
O O6 0.897174 0.138500 0.009475
O O7 0.149818 0.188219 0.553926
O O8 0.906408 0.245920 0.591922
O O9 0.187436 0.361429 0.429549
O O10 0.826351 0.358810 0.961097
O O11 0.759337 0.122831 0.879949
O O12 0.136448 0.989819 0.516136
O O13 0.479024 0.822875 0.088638
O O14 0.500000 0.000000 0.000000
O O15 0.471494 0.630913 0.088629
O O16 0.000000 0.500000 0.500000
O O17 0.500000 0.500000 0.500000
O O18 0.000000 0.500000 0.000000
#
# Coordination Sequence:
#
# PCOD9033582 Si02
#       8
#     2   2   2   2   2   2   2   2
#     4  11  23  42  64  94 141 175 223 273 328 394
#     4  11  24  44  67 101 135 177 219 276 337 399
#     4  11  22  41  64  93 129 177 219 272 329 396
#     4  10  23  41  67  95 132 168 221 277 339 395
#     4  10  22  44  68  98 127 171 224 277 337 404
#     4  10  24  41  68  96 132 172 226 275 335 403
#     4  11  22  39  63  95 128 178 223 271 326 392
#     4  12  26  41  61  96 134 179 225 274 327 394
#
# _framework density 23.994499000000001
#
# number of rings (size 3 to 8) (size 9 to 14) (size 15 to 20)
#    0.000    1.250    2.500    3.000    3.500    2.000 
#    0.000    0.625    0.000    0.000    0.000    0.000 
#    0.000    0.000    0.000    0.000    0.000    0.000 
#
# Total GULP energy -89189.251354 kJ/mol
# GULP energy per Si atom -5574.328210 kJ/mol
# Density = 2.393989 g / cm^3
# Si number density = 23.994499 Si / 1000 Ang^3
#
#
#
# Elastic Constant Matrix: (Units=GPa)
#
#
# Indices 1 2 3 4 5 6 
#
# 1 64.6094 22.5212 53.4376 5.0579 7.6250 -11.4079
# 2 22.5212 82.1826 29.0882 0.5306 3.4615 -12.2934
# 3 53.4376 29.0882 138.3265 9.6278 15.8781 2.1706
# 4 5.0579 0.5306 9.6278 44.2762 2.1445 -1.7785
# 5 7.6250 3.4615 15.8781 2.1445 38.0160 0.8353
# 6 -11.4079 -12.2934 2.1706 -1.7785 0.8353 31.7648
#
#
#
# Elastic Compliance Matrix: (Units=1/GPa)
#
#
# Indices 1 2 3 4 5 6 
#
# 1 0.025922 -0.002333 -0.009498 -0.000446 -0.001194 0.009062
# 2 -0.002333 0.014330 -0.002237 0.000781 -0.000054 0.004906
# 3 -0.009498 -0.002237 0.011860 -0.001544 -0.002646 -0.005104
# 4 -0.000446 0.000781 -0.001544 0.023058 -0.000672 0.001556
# 5 -0.001194 -0.000054 -0.002646 -0.000672 0.027715 -0.001035
# 6 0.009062 0.004906 -0.005104 0.001556 -0.001035 0.037098
#
#
# Mechanical properties :
#
#
# Convention : Reuss Voigt Hill
#
# Bulk Modulus (GPa) = 41.70758 55.02359 48.36558
# Shear Modulus (GPa) = 28.39112 34.81616 31.60364
#
# Velocity S-wave (km/s) = 3.44355 3.81334 3.63315
# Velocity P-wave (km/s) = 5.76460 6.50925 6.14821
#
# Compressibility (1/GPa) = 0.02397646
#
# Stress axis : x y z
#
# Youngs Moduli (GPa) = 38.57704 69.78151 84.31687
#
# Poissons Ratio (x) = 0.16282 0.80080
# Poissons Ratio (y) = 0.09001 0.18863
# Poissons Ratio (z) = 0.36639 0.15612
#
# Static dielectric constant tensor:
#      x y z
#    x 2.058510 -0.125810 0.019610 
#    y -0.125810 2.246540 -0.249420 
#    z 0.019610 -0.249420 2.189550 
# 
# From -- ./inp_files/46697.got.cif
#   From: 2010.05.17/outbox.cif.g08.bks.cpg/sg2_24_cif.got.tgz:46697.got - 2010.06.03 11:33:40.
