data_PCOD9033298
_publ_section_title
;
Structure prediction by ZEFSAII (Michael W. Deem and Ramdas Pophale) SiO2 
 PCOD9033298
Probable space group: P -1
;
_chemical_formula_sum "Si O2"
_cell_formula_units_Z 14
_cell_length_a 9.435998
_cell_length_b 17.050419
_cell_length_c 15.955571
_cell_angle_alpha 146.988282
_cell_angle_beta 114.573485
_cell_angle_gamma 40.709465
_cell_volume 716.744665
_symmetry_space_group_name_H-M "P -1"
_symmetry_group_IT_number 2
_symmetry_cell_setting 'triclinic'
loop_
_space_group_symop_operation_xyz
x,y,z
-x,-y,-z
loop_
_atom_site_type_symbol
_atom_site_label
_atom_site_fract_x
_atom_site_fract_y
_atom_site_fract_z
Si Si1 0.758553 0.089349 0.979057
Si Si2 0.423272 0.535499 0.164662
Si Si3 0.857955 0.460749 0.459244
Si Si4 0.514476 0.739212 0.461345
Si Si5 0.543703 0.137587 0.139047
Si Si6 0.041462 0.316404 0.891404
Si Si7 0.905853 0.347854 0.070064
O O1 0.911587 0.837480 0.748894
O O2 0.585199 0.311450 0.069289
O O3 0.571686 0.177370 0.088732
O O4 0.000000 0.000000 0.000000
O O5 0.335639 0.745146 0.383192
O O6 0.659599 0.421208 0.059279
O O7 0.184796 0.625240 0.145021
O O8 0.639359 0.594832 0.451356
O O9 0.694497 0.608660 0.637276
O O10 0.000000 0.500000 0.500000
O O11 0.770080 0.553917 0.292603
O O12 0.338137 0.017337 0.677911
O O13 0.500000 0.000000 0.000000
O O14 0.835509 0.930331 0.073742
O O15 0.000000 0.500000 0.000000
O O16 0.999492 0.356067 0.016792
#
# Coordination Sequence:
#
# PCOD9033298 Si02
#       7
#     2   2   2   2   2   2   2
#     4  12  22  44  64 103 133 165 224 267 321 401
#     4  10  24  46  65  91 139 173 209 273 316 398
#     4  12  23  40  69  97 135 175 211 273 338 389
#     4  10  22  44  67  89 131 172 214 258 333 382
#     4  12  23  40  69  97 135 175 211 273 338 389
#     4  12  26  42  70  97 124 170 228 272 314 383
#     4  10  22  44  67  89 131 172 214 258 333 382
#
# _framework density 19.532758999999999
#
# number of rings (size 3 to 8) (size 9 to 14) (size 15 to 20)
#    0.857    0.000    7.143    0.857    4.000    1.143 
#    2.571    0.000    0.000    0.000    0.000    0.000 
#    0.000    0.000    0.000    0.000    0.000    0.000 
#
# Total GULP energy -78158.720358 kJ/mol
# GULP energy per Si atom -5582.765740 kJ/mol
# Density = 1.948830 g / cm^3
# Si number density = 19.532759 Si / 1000 Ang^3
#
#
#
# Elastic Constant Matrix: (Units=GPa)
#
#
# Indices 1 2 3 4 5 6 
#
# 1 62.4032 -5.5280 34.9998 -8.2335 -7.6253 17.7032
# 2 -5.5280 45.9221 24.4315 -1.9508 -9.3703 20.1284
# 3 34.9998 24.4315 166.5197 -8.4551 -19.1643 38.4541
# 4 -8.2335 -1.9508 -8.4551 29.4809 5.2690 2.1235
# 5 -7.6253 -9.3703 -19.1643 5.2690 31.8666 -4.1147
# 6 17.7032 20.1284 38.4541 2.1235 -4.1147 48.8671
#
#
#
# Elastic Compliance Matrix: (Units=1/GPa)
#
#
# Indices 1 2 3 4 5 6 
#
# 1 0.022724 0.009770 -0.003197 0.006031 0.004144 -0.009654
# 2 0.009770 0.032341 -0.002338 0.003826 0.007934 -0.014519
# 3 -0.003197 -0.002338 0.008400 0.001162 0.002852 -0.004299
# 4 0.006031 0.003826 0.001162 0.037339 -0.003761 -0.006614
# 5 0.004144 0.007934 0.002852 -0.003761 0.036555 -0.003772
# 6 -0.009654 -0.014519 -0.004299 -0.006614 -0.003772 0.033294
#
#
# Mechanical properties :
#
#
# Convention : Reuss Voigt Hill
#
# Bulk Modulus (GPa) = 13.90163 42.51686 28.20924
# Shear Modulus (GPa) = 26.85790 36.77237 31.81513
#
# Velocity S-wave (km/s) = 3.71215 4.34360 4.04023
# Velocity P-wave (km/s) = 5.05034 6.85347 6.01980
#
# Compressibility (1/GPa) = 0.07193402
#
# Stress axis : x y z
#
# Youngs Moduli (GPa) = 44.00603 30.92015 119.04171
#
# Poissons Ratio (x) = -0.30208 0.38060
# Poissons Ratio (y) = -0.42992 0.27836
# Poissons Ratio (z) = 0.14070 0.07230
#
# Static dielectric constant tensor:
#      x y z
#    x 1.709940 -0.039390 -0.037740 
#    y -0.039390 1.683190 -0.041380 
#    z -0.037740 -0.041380 1.759870 
# 
# From -- ./inp_files/397180.got.cif
#   From: 2010.05.17/outbox.cif.g08.bks.cpg/sg2_199_cif.got.tgz:397180.got - 2010.06.03 11:33:40.
