data_PCOD9033657
_publ_section_title
;
Structure prediction by ZEFSAII (Michael W. Deem and Ramdas Pophale) SiO2 
 PCOD9033657
Probable space group: P -1
;
_chemical_formula_sum "Si O2"
_cell_formula_units_Z 15
_cell_length_a 16.937244
_cell_length_b 11.370518
_cell_length_c 17.347190
_cell_angle_alpha 139.051028
_cell_angle_beta 18.141527
_cell_angle_gamma 127.866248
_cell_volume 586.703817
_symmetry_space_group_name_H-M "P -1"
_symmetry_group_IT_number 2
_symmetry_cell_setting 'triclinic'
loop_
_space_group_symop_operation_xyz
x,y,z
-x,-y,-z
loop_
_atom_site_type_symbol
_atom_site_label
_atom_site_fract_x
_atom_site_fract_y
_atom_site_fract_z
Si Si1 0.406502 0.713564 0.737495
Si Si2 0.820243 0.236791 0.621121
Si Si3 0.372205 0.768092 0.546141
Si Si4 0.151978 0.163581 0.855491
Si Si5 0.371571 0.872548 0.012969
Si Si6 0.605228 0.515733 0.743052
Si Si7 0.000000 0.500000 0.500000
Si Si8 0.702497 0.950114 0.504824
O O1 0.500000 0.500000 0.500000
O O2 0.518391 0.843008 0.647020
O O3 0.513791 0.739569 0.736507
O O4 0.054844 0.811711 0.124820
O O5 0.960432 0.296639 0.451602
O O6 0.604800 0.161475 0.747470
O O7 0.617522 0.441618 0.959689
O O8 0.052056 0.053891 0.370338
O O9 0.721592 0.679748 0.184928
O O10 0.301381 0.682673 0.493393
O O11 0.255470 0.010941 0.757719
O O12 0.197589 0.739112 0.763360
O O13 0.287844 0.032770 0.587225
O O14 0.418442 0.703460 0.949242
O O15 0.500000 0.000000 0.000000
O O16 0.868402 0.524461 0.544922
#
# Coordination Sequence:
#
# PCOD9033657 Si02
#       8
#     2   2   2   2   2   2   1   2
#     4  11  26  46  71 112 145 196 252 315 375 459
#     4  11  26  48  73 113 148 208 243 322 383 459
#     4  10  24  43  68 107 143 191 250 308 367 449
#     4  10  22  44  69 102 146 193 243 303 381 442
#     4  11  24  48  77 108 153 201 253 313 392 457
#     4  12  26  46  75 111 147 194 259 314 379 458
#     4  12  26  46  72 110 152 192 262 310 376 458
#     4  11  24  45  75  99 151 191 249 304 389 449
#
# _framework density 25.566562000000001
#
# number of rings (size 3 to 8) (size 9 to 14) (size 15 to 20)
#    0.000    1.067    1.333    3.600    7.467    1.067 
#    7.200    0.000    0.000    0.000    0.000    0.000 
#    0.000    0.000    0.000    0.000    0.000    0.000 
#
# Total GULP energy -83545.545150 kJ/mol
# GULP energy per Si atom -5569.703010 kJ/mol
# Density = 2.550837 g / cm^3
# Si number density = 25.566562 Si / 1000 Ang^3
#
#
#
# Elastic Constant Matrix: (Units=GPa)
#
#
# Indices 1 2 3 4 5 6 
#
# 1 158.0985 43.7189 42.1702 4.0226 5.9631 13.2029
# 2 43.7189 140.7134 50.2056 -19.8416 3.7694 7.0450
# 3 42.1702 50.2056 86.6448 -19.2054 23.0937 -4.8900
# 4 4.0226 -19.8416 -19.2054 41.1380 2.1547 -3.0970
# 5 5.9631 3.7694 23.0937 2.1547 43.3518 3.0218
# 6 13.2029 7.0450 -4.8900 -3.0970 3.0218 38.9045
#
#
#
# Elastic Compliance Matrix: (Units=1/GPa)
#
#
# Indices 1 2 3 4 5 6 
#
# 1 0.008354 -0.001256 -0.005034 -0.004164 0.002109 -0.003736
# 2 -0.001256 0.009701 -0.005230 0.002098 0.002149 -0.001988
# 3 -0.005034 -0.005230 0.022792 0.009783 -0.011985 0.007230
# 4 -0.004164 0.002098 0.009783 0.031043 -0.006730 0.005257
# 5 0.002109 0.002149 -0.011985 -0.006730 0.029689 -0.005453
# 6 -0.003736 -0.001988 0.007230 0.005257 -0.005453 0.029082
#
#
# Mechanical properties :
#
#
# Convention : Reuss Voigt Hill
#
# Bulk Modulus (GPa) = 56.15705 73.07179 64.61442
# Shear Modulus (GPa) = 31.32133 41.30300 36.31217
#
# Velocity S-wave (km/s) = 3.50393 4.02370 3.77277
# Velocity P-wave (km/s) = 6.19538 7.08731 6.65630
#
# Compressibility (1/GPa) = 0.01780720
#
# Stress axis : x y z
#
# Youngs Moduli (GPa) = 119.70900 103.08702 43.87431
#
# Poissons Ratio (x) = 0.12948 0.22086
# Poissons Ratio (y) = 0.15036 0.22945
# Poissons Ratio (z) = 0.60261 0.53911
#
# Static dielectric constant tensor:
#      x y z
#    x 2.035590 0.034840 -0.037150 
#    y 0.034840 2.043020 -0.069130 
#    z -0.037150 -0.069130 2.159540 
# 
# From -- ./inp_files/575773.got.cif
#   From: 2010.05.17/outbox.cif.g08.bks.cpg/sg2_288_cif.got.tgz:575773.got - 2010.06.03 11:33:40.
