data_PCOD9033171
_publ_section_title
;
Structure prediction by ZEFSAII (Michael W. Deem and Ramdas Pophale) SiO2 
 PCOD9033171
Probable space group: P -1
;
_chemical_formula_sum "Si O2"
_cell_formula_units_Z 12
_cell_length_a 14.706501
_cell_length_b 10.458260
_cell_length_c 14.249273
_cell_angle_alpha 133.549503
_cell_angle_beta 150.898341
_cell_angle_gamma 31.852946
_cell_volume 550.310801
_symmetry_space_group_name_H-M "P -1"
_symmetry_group_IT_number 2
_symmetry_cell_setting 'triclinic'
loop_
_space_group_symop_operation_xyz
x,y,z
-x,-y,-z
loop_
_atom_site_type_symbol
_atom_site_label
_atom_site_fract_x
_atom_site_fract_y
_atom_site_fract_z
Si Si1 0.391034 0.788304 0.290611
Si Si2 0.370810 0.755857 0.464146
Si Si3 0.916624 0.641685 0.701144
Si Si4 0.932806 0.002161 0.332076
Si Si5 0.405432 0.483792 0.004660
Si Si6 0.924582 0.500440 0.828243
O O1 0.312836 0.754383 0.302853
O O2 0.706191 0.623376 0.485216
O O3 0.312682 0.711830 0.098124
O O4 0.248686 0.069637 0.302090
O O5 0.500000 0.500000 0.500000
O O6 0.609020 0.734991 0.660005
O O7 0.131874 0.967364 0.421558
O O8 0.033420 0.537251 0.857919
O O9 0.163988 0.507370 0.788807
O O10 0.642778 0.241708 0.156414
O O11 0.000000 0.000000 0.500000
O O12 0.990102 0.757047 0.244193
O O13 0.500000 0.500000 0.000000
O O14 0.000000 0.500000 0.000000
#
# Coordination Sequence:
#
# PCOD9033171 Si02
#       6
#     2   2   2   2   2   2
#     4  10  22  44  66  92 129 175 219 261 326 389
#     4   9  19  39  65  86 122 174 213 253 317 392
#     4  10  23  42  66  92 129 170 221 266 314 400
#     4  11  24  42  64  96 136 169 210 273 339 380
#     4  12  26  40  66 100 133 169 215 273 334 381
#     4  10  23  39  65  94 120 172 224 261 311 387
#
# _framework density 21.805861
#
# number of rings (size 3 to 8) (size 9 to 14) (size 15 to 20)
#    0.000    1.667    0.000    4.500    9.333    1.333 
#    3.000    0.000    0.000    0.000    0.000    0.000 
#    0.000    0.000    0.000    0.000    0.000    0.000 
#
# Total GULP energy -67003.056854 kJ/mol
# GULP energy per Si atom -5583.588071 kJ/mol
# Density = 2.175623 g / cm^3
# Si number density = 21.805861 Si / 1000 Ang^3
#
#
#
# Elastic Constant Matrix: (Units=GPa)
#
#
# Indices 1 2 3 4 5 6 
#
# 1 153.8254 9.3713 33.2573 1.5030 -4.8144 -2.2421
# 2 9.3713 60.9808 11.7193 -7.6961 -2.7198 3.7303
# 3 33.2573 11.7193 77.5498 -0.5324 -4.6189 -12.1293
# 4 1.5030 -7.6961 -0.5324 31.3706 -12.6217 -2.4508
# 5 -4.8144 -2.7198 -4.6189 -12.6217 46.7704 -9.2953
# 6 -2.2421 3.7303 -12.1293 -2.4508 -9.2953 34.5808
#
#
#
# Elastic Compliance Matrix: (Units=1/GPa)
#
#
# Indices 1 2 3 4 5 6 
#
# 1 0.007203 -0.000537 -0.003088 -0.000509 0.000158 -0.000552
# 2 -0.000537 0.017803 -0.002663 0.004826 0.001598 -0.002118
# 3 -0.003088 -0.002663 0.015806 0.001372 0.002743 0.006466
# 4 -0.000509 0.004826 0.001372 0.038340 0.011870 0.005836
# 5 0.000158 0.001598 0.002743 0.011870 0.026718 0.008823
# 6 -0.000552 -0.002118 0.006466 0.005836 0.008823 0.034164
#
#
# Mechanical properties :
#
#
# Convention : Reuss Voigt Hill
#
# Bulk Modulus (GPa) = 35.41639 44.56130 39.98885
# Shear Modulus (GPa) = 30.86006 38.41158 34.63582
#
# Velocity S-wave (km/s) = 3.76602 4.20161 3.98976
# Velocity P-wave (km/s) = 5.93190 6.63459 6.29306
#
# Compressibility (1/GPa) = 0.02823551
#
# Stress axis : x y z
#
# Youngs Moduli (GPa) = 138.82796 56.17114 63.26759
#
# Poissons Ratio (x) = 0.03015 0.19539
# Poissons Ratio (y) = 0.07453 0.16848
# Poissons Ratio (z) = 0.42874 0.14958
#
# Static dielectric constant tensor:
#      x y z
#    x 1.945680 -0.003450 0.090520 
#    y -0.003450 1.783350 -0.042160 
#    z 0.090520 -0.042160 1.906350 
# 
# From -- ./inp_files/314518.got.cif
#   From: 2010.05.17/outbox.cif.g08.bks.cpg/sg2_158_cif.got.tgz:314518.got - 2010.06.03 11:33:40.
