data_PCOD9033633
_publ_section_title
;
Structure prediction by ZEFSAII (Michael W. Deem and Ramdas Pophale) SiO2 
 PCOD9033633
Probable space group: P -1
;
_chemical_formula_sum "Si O2"
_cell_formula_units_Z 14
_cell_length_a 8.038538
_cell_length_b 10.163075
_cell_length_c 14.585738
_cell_angle_alpha 141.991107
_cell_angle_beta 124.981117
_cell_angle_gamma 48.748880
_cell_volume 547.930953
_symmetry_space_group_name_H-M "P -1"
_symmetry_group_IT_number 2
_symmetry_cell_setting 'triclinic'
loop_
_space_group_symop_operation_xyz
x,y,z
-x,-y,-z
loop_
_atom_site_type_symbol
_atom_site_label
_atom_site_fract_x
_atom_site_fract_y
_atom_site_fract_z
Si Si1 0.539914 0.853362 0.552858
Si Si2 0.066576 0.298191 0.119947
Si Si3 0.375903 0.624036 0.761085
Si Si4 0.343319 0.821819 0.667053
Si Si5 0.132421 0.021896 0.166903
Si Si6 0.052798 0.187043 0.558284
Si Si7 0.245240 0.302371 0.988091
O O1 0.629139 0.626834 0.393019
O O2 0.474712 0.766168 0.582253
O O3 0.713816 0.959874 0.694020
O O4 0.313837 0.048600 0.548016
O O5 0.550298 0.309838 0.278018
O O6 0.182564 0.134450 0.152744
O O7 0.999822 0.567043 0.273120
O O8 0.859467 0.232761 0.992453
O O9 0.126108 0.809163 0.803403
O O10 0.554108 0.617963 0.890975
O O11 0.781882 0.781781 0.965289
O O12 0.120296 0.775157 0.557830
O O13 0.286032 0.094760 0.816427
O O14 0.000000 0.000000 0.500000
O O15 0.000000 0.500000 0.000000
#
# Coordination Sequence:
#
# PCOD9033633 Si02
#       7
#     2   2   2   2   2   2   2
#     4  11  23  42  68  98 140 177 227 279 341 399
#     4  11  24  47  70  96 143 177 228 277 339 408
#     4  12  24  44  68  99 133 182 233 277 332 405
#     4  11  22  40  70  99 130 177 235 282 329 391
#     4  11  26  44  69 101 140 184 224 270 345 415
#     4  10  22  44  69 101 132 178 229 282 335 390
#     4  12  24  43  70 101 133 173 234 288 332 393
#
# _framework density 25.550663
#
# number of rings (size 3 to 8) (size 9 to 14) (size 15 to 20)
#    0.000    0.857    1.429    7.286    4.000    0.571 
#    2.571    1.429    0.000    0.000    0.000    0.000 
#    0.000    0.000    0.000    0.000    0.000    0.000 
#
# Total GULP energy -78445.753675 kJ/mol
# GULP energy per Si atom -5603.268120 kJ/mol
# Density = 2.549251 g / cm^3
# Si number density = 25.550663 Si / 1000 Ang^3
#
#
#
# Elastic Constant Matrix: (Units=GPa)
#
#
# Indices 1 2 3 4 5 6 
#
# 1 72.3206 8.4973 5.8570 2.3920 -2.9338 8.9982
# 2 8.4973 113.2000 91.9493 -28.4823 4.9658 -24.6406
# 3 5.8570 91.9493 258.4082 -11.5044 -0.2624 -20.8709
# 4 2.3920 -28.4823 -11.5044 56.4542 -8.2294 5.9704
# 5 -2.9338 4.9658 -0.2624 -8.2294 33.1907 2.9290
# 6 8.9982 -24.6406 -20.8709 5.9704 2.9290 32.7715
#
#
#
# Elastic Compliance Matrix: (Units=1/GPa)
#
#
# Indices 1 2 3 4 5 6 
#
# 1 0.015070 -0.003024 0.000178 -0.001166 0.002050 -0.006269
# 2 -0.003024 0.016696 -0.004841 0.006275 -0.002072 0.009343
# 3 0.000178 -0.004841 0.005535 -0.001256 0.000470 0.000023
# 4 -0.001166 0.006275 -0.001256 0.021291 0.004229 -0.000018
# 5 0.002050 -0.002072 0.000470 0.004229 0.032155 -0.005466
# 6 -0.006269 0.009343 0.000023 -0.000018 -0.005466 0.039767
#
#
# Mechanical properties :
#
#
# Convention : Reuss Voigt Hill
#
# Bulk Modulus (GPa) = 45.60272 72.94846 59.27559
# Shear Modulus (GPa) = 32.63792 46.99161 39.81477
#
# Velocity S-wave (km/s) = 3.57792 4.29319 3.95177
# Velocity P-wave (km/s) = 5.91231 7.29300 6.63864
#
# Compressibility (1/GPa) = 0.02192852
#
# Stress axis : x y z
#
# Youngs Moduli (GPa) = 66.35770 59.89300 180.67893
#
# Poissons Ratio (x) = 0.18111 -0.03221
# Poissons Ratio (y) = 0.20066 0.87460
# Poissons Ratio (z) = -0.01183 0.28992
#
# Static dielectric constant tensor:
#      x y z
#    x 2.136150 0.014720 0.076930 
#    y 0.014720 2.031530 -0.033840 
#    z 0.076930 -0.033840 2.017990 
# 
# From -- ./inp_files/618680.got.cif
#   From: 2010.05.17/outbox.cif.g08.bks.cpg/sg2_310_cif.got.tgz:618680.got - 2010.06.03 11:33:40.
