data_PCOD9033522
_publ_section_title
;
Structure prediction by ZEFSAII (Michael W. Deem and Ramdas Pophale) SiO2 
 PCOD9033522
Probable space group: P -1
;
_chemical_formula_sum "Si O2"
_cell_formula_units_Z 16
_cell_length_a 11.854026
_cell_length_b 5.485365
_cell_length_c 11.643021
_cell_angle_alpha 59.541462
_cell_angle_beta 96.682572
_cell_angle_gamma 87.242806
_cell_volume 643.068555
_symmetry_space_group_name_H-M "P -1"
_symmetry_group_IT_number 2
_symmetry_cell_setting 'triclinic'
loop_
_space_group_symop_operation_xyz
x,y,z
-x,-y,-z
loop_
_atom_site_type_symbol
_atom_site_label
_atom_site_fract_x
_atom_site_fract_y
_atom_site_fract_z
Si Si1 0.921622 0.732454 0.269178
Si Si2 0.765184 0.314051 0.410085
Si Si3 0.286502 0.801003 0.831223
Si Si4 0.274790 0.379988 0.129485
Si Si5 0.439295 0.213564 0.658505
Si Si6 0.965928 0.337030 0.923153
Si Si7 0.830481 0.136755 0.685391
Si Si8 0.636335 0.574744 0.632585
O O1 0.868026 0.506898 0.395164
O O2 0.965775 0.562397 0.200587
O O3 0.034058 0.862331 0.292783
O O4 0.814771 0.976785 0.178381
O O5 0.757427 0.240895 0.293441
O O6 0.648235 0.511424 0.378358
O O7 0.790606 0.070901 0.566691
O O8 0.399928 0.954688 0.787809
O O9 0.307638 0.522470 0.980631
O O10 0.169537 0.595949 0.115791
O O11 0.365530 0.342970 0.253329
O O12 0.216059 0.092216 0.181509
O O13 0.561847 0.309897 0.672704
O O14 0.414740 0.194819 0.523524
O O15 0.000000 0.500000 0.000000
O O16 0.000000 0.000000 0.000000
O O17 0.761686 0.442450 0.634964
#
# Coordination Sequence:
#
# PCOD9033522 Si02
#       8
#     2   2   2   2   2   2   2   2
#     4  11  23  40  64  96 131 179 224 276 337 406
#     4  10  23  42  66  93 131 176 225 280 345 407
#     4  11  24  41  64  95 133 175 218 273 343 410
#     4  12  25  38  65  98 133 174 223 277 341 415
#     4   9  22  45  69  89 124 172 227 286 338 410
#     4  12  24  41  65  97 145 189 227 274 344 421
#     4  11  24  41  64  99 133 173 227 282 342 411
#     4  10  22  44  68  93 124 171 228 284 344 399
#
# _framework density 24.880707000000001
#
# number of rings (size 3 to 8) (size 9 to 14) (size 15 to 20)
#    0.000    1.250    2.500    2.625    1.750    4.000 
#    0.000    5.000    0.000    0.000    0.000    0.000 
#    0.000    0.000    0.000    0.000    0.000    0.000 
#
# Total GULP energy -89491.659199 kJ/mol
# GULP energy per Si atom -5593.228700 kJ/mol
# Density = 2.482408 g / cm^3
# Si number density = 24.880707 Si / 1000 Ang^3
#
#
#
# Elastic Constant Matrix: (Units=GPa)
#
#
# Indices 1 2 3 4 5 6 
#
# 1 98.9399 11.3680 29.1389 -1.8849 -18.8970 6.6575
# 2 11.3680 80.3076 34.0984 11.3645 -2.9901 0.9749
# 3 29.1389 34.0984 141.8075 11.6677 -26.0512 17.2754
# 4 -1.8849 11.3645 11.6677 50.7359 8.8401 -3.6251
# 5 -18.8970 -2.9901 -26.0512 8.8401 35.7805 -0.6243
# 6 6.6575 0.9749 17.2754 -3.6251 -0.6243 39.1839
#
#
#
# Elastic Compliance Matrix: (Units=1/GPa)
#
#
# Indices 1 2 3 4 5 6 
#
# 1 0.011627 -0.000992 -0.000976 -0.000159 0.005361 -0.001450
# 2 -0.000992 0.014290 -0.003423 -0.002150 -0.001272 0.001103
# 3 -0.000976 -0.003423 0.010236 -0.003225 0.007370 -0.004443
# 4 -0.000159 -0.002150 -0.003225 0.022592 -0.008133 0.003463
# 5 0.005361 -0.001272 0.007370 -0.008133 0.037974 -0.004276
# 6 -0.001450 0.001103 -0.004443 0.003463 -0.004276 0.027951
#
#
# Mechanical properties :
#
#
# Convention : Reuss Voigt Hill
#
# Bulk Modulus (GPa) = 39.41587 52.25173 45.83380
# Shear Modulus (GPa) = 34.74430 41.57004 38.15717
#
# Velocity S-wave (km/s) = 3.74095 4.09194 3.92038
# Velocity P-wave (km/s) = 5.87672 6.58573 6.24130
#
# Compressibility (1/GPa) = 0.02537049
#
# Stress axis : x y z
#
# Youngs Moduli (GPa) = 86.00653 69.98122 97.69296
#
# Poissons Ratio (x) = 0.06940 0.09536
# Poissons Ratio (y) = 0.08529 0.33443
# Poissons Ratio (z) = 0.08395 0.23957
#
# Static dielectric constant tensor:
#      x y z
#    x 1.963360 0.039560 0.007570 
#    y 0.039560 2.013240 0.005400 
#    z 0.007570 0.005400 2.077710 
# 
# From -- ./inp_files/409884.got.cif
#   From: 2010.05.17/outbox.cif.g08.bks.cpg/sg2_205_cif.got.tgz:409884.got - 2010.06.03 11:33:40.
