data_PCOD9033046
_publ_section_title
;
Structure prediction by ZEFSAII (Michael W. Deem and Ramdas Pophale) SiO2 
 PCOD9033046
Probable space group: P -1
;
_chemical_formula_sum "Si O2"
_cell_formula_units_Z 16
_cell_length_a 8.812908
_cell_length_b 12.401586
_cell_length_c 9.296072
_cell_angle_alpha 83.315487
_cell_angle_beta 88.968109
_cell_angle_gamma 41.626344
_cell_volume 666.637796
_symmetry_space_group_name_H-M "P -1"
_symmetry_group_IT_number 2
_symmetry_cell_setting 'triclinic'
loop_
_space_group_symop_operation_xyz
x,y,z
-x,-y,-z
loop_
_atom_site_type_symbol
_atom_site_label
_atom_site_fract_x
_atom_site_fract_y
_atom_site_fract_z
Si Si1 0.714251 0.217069 0.319850
Si Si2 0.854397 0.465470 0.153826
Si Si3 0.353722 0.934364 0.436696
Si Si4 0.057875 0.117648 0.134703
Si Si5 0.309476 0.344207 0.167450
Si Si6 0.282223 0.565130 0.571175
Si Si7 0.341566 0.019964 0.887054
Si Si8 0.818008 0.771434 0.416162
O O1 0.738177 0.112477 0.454974
O O2 0.447010 0.358592 0.256065
O O3 0.810253 0.274244 0.380953
O O4 0.860643 0.139277 0.182729
O O5 0.682343 0.531145 0.276805
O O6 0.963832 0.292544 0.124043
O O7 0.067257 0.425404 0.210555
O O8 0.738206 0.585185 0.002143
O O9 0.630854 0.778993 0.447194
O O10 0.257508 0.990810 0.268525
O O11 0.272044 0.086737 0.495247
O O12 0.159206 0.055888 0.983733
O O13 0.491908 0.148023 0.180262
O O14 0.500000 0.500000 0.500000
O O15 0.084618 0.617075 0.471431
O O16 0.218895 0.165419 0.754275
O O17 0.500000 0.000000 0.000000
#
# Coordination Sequence:
#
# PCOD9033046 Si02
#       8
#     2   2   2   2   2   2   2   2
#     4  11  24  40  66  95 128 172 219 268 335 389
#     4  10  22  44  65  88 131 180 223 252 336 398
#     4  11  20  40  69  96 120 169 228 264 326 385
#     4  11  23  40  66  95 136 170 210 276 334 392
#     4  11  23  41  68  95 129 173 221 275 320 399
#     4  11  26  45  62  94 136 176 217 271 327 401
#     4  12  23  41  66 104 131 162 225 282 324 375
#     4  11  22  40  72  90 129 174 214 275 328 384
#
# _framework density 24.001038999999999
#
# number of rings (size 3 to 8) (size 9 to 14) (size 15 to 20)
#    0.000    1.000    6.250    1.125    0.000    5.500 
#    0.000    1.250    0.000    0.000    0.000    0.000 
#    0.000    0.000    0.000    0.000    0.000    0.000 
#
# Total GULP energy -89455.028270 kJ/mol
# GULP energy per Si atom -5590.939267 kJ/mol
# Density = 2.394641 g / cm^3
# Si number density = 24.001039 Si / 1000 Ang^3
#
#
#
# Elastic Constant Matrix: (Units=GPa)
#
#
# Indices 1 2 3 4 5 6 
#
# 1 93.6865 12.8162 35.8267 7.2283 -13.6432 -23.5063
# 2 12.8162 34.8070 16.7928 6.0672 -2.9217 -15.4799
# 3 35.8267 16.7928 97.0714 0.3560 -24.8484 -22.2240
# 4 7.2283 6.0672 0.3560 33.9684 -11.1694 -8.1655
# 5 -13.6432 -2.9217 -24.8484 -11.1694 56.5868 9.0114
# 6 -23.5063 -15.4799 -22.2240 -8.1655 9.0114 39.5794
#
#
#
# Elastic Compliance Matrix: (Units=1/GPa)
#
#
# Indices 1 2 3 4 5 6 
#
# 1 0.013669 -0.000619 -0.003520 -0.001241 0.000596 0.005508
# 2 -0.000619 0.036563 -0.004222 -0.004573 -0.002811 0.011259
# 3 -0.003520 -0.004222 0.014672 0.004156 0.005545 0.004092
# 4 -0.001241 -0.004573 0.004156 0.034092 0.007190 0.005204
# 5 0.000596 -0.002811 0.005545 0.007190 0.021698 -0.001089
# 6 0.005508 0.011259 0.004092 0.005204 -0.001089 0.036559
#
#
# Mechanical properties :
#
#
# Convention : Reuss Voigt Hill
#
# Bulk Modulus (GPa) = 20.75431 39.60402 30.17917
# Shear Modulus (GPa) = 26.31095 36.70220 31.50658
#
# Velocity S-wave (km/s) = 3.31455 3.91473 3.62707
# Velocity P-wave (km/s) = 4.82849 6.08032 5.49020
#
# Compressibility (1/GPa) = 0.04818275
#
# Stress axis : x y z
#
# Youngs Moduli (GPa) = 73.15794 27.35022 68.15676
#
# Poissons Ratio (x) = 0.01693 0.23989
# Poissons Ratio (y) = 0.04528 0.28775
# Poissons Ratio (z) = 0.25750 0.11547
#
# Static dielectric constant tensor:
#      x y z
#    x 1.938520 -0.027860 0.002040 
#    y -0.027860 2.052950 0.105730 
#    z 0.002040 0.105730 1.947560 
# 
# From -- ./inp_files/206327.got.cif
#   From: 2010.05.17/outbox.cif.g08.bks.cpg/sg2_104_cif.got.tgz:206327.got - 2010.06.03 11:33:40.
