data_PCOD9033063
_publ_section_title
;
Structure prediction by ZEFSAII (Michael W. Deem and Ramdas Pophale) SiO2 
 PCOD9033063
Probable space group: P -1
;
_chemical_formula_sum "Si O2"
_cell_formula_units_Z 14
_cell_length_a 14.246557
_cell_length_b 10.581029
_cell_length_c 17.829756
_cell_angle_alpha 29.364560
_cell_angle_beta 26.286441
_cell_angle_gamma 30.637378
_cell_volume 543.664171
_symmetry_space_group_name_H-M "P -1"
_symmetry_group_IT_number 2
_symmetry_cell_setting 'triclinic'
loop_
_space_group_symop_operation_xyz
x,y,z
-x,-y,-z
loop_
_atom_site_type_symbol
_atom_site_label
_atom_site_fract_x
_atom_site_fract_y
_atom_site_fract_z
Si Si1 0.547740 0.411595 0.384125
Si Si2 0.316319 0.477273 0.927059
Si Si3 0.163674 0.194822 0.901685
Si Si4 0.071762 0.410447 0.379478
Si Si5 0.237242 0.738308 0.199297
Si Si6 0.319076 0.848326 0.428082
Si Si7 0.728810 0.945011 0.268019
O O1 0.627973 0.547804 0.187755
O O2 0.325256 0.650029 0.456734
O O3 0.716478 0.277980 0.401179
O O4 0.483329 0.156728 0.532601
O O5 0.523315 0.269982 0.933818
O O6 0.319908 0.771963 0.800815
O O7 0.052104 0.521754 0.100883
O O8 0.414891 0.188790 0.739797
O O9 0.193273 0.040000 0.880788
O O10 0.118410 0.021438 0.092625
O O11 0.256418 0.491943 0.253398
O O12 0.916521 0.312294 0.598388
O O13 0.913990 0.691276 0.308942
O O14 0.177246 0.170274 0.367604
#
# Coordination Sequence:
#
# PCOD9033063 Si02
#       7
#     2   2   2   2   2   2   2
#     4  10  22  44  65  94 126 181 217 266 314 386
#     4  12  23  41  69  97 135 163 218 270 325 391
#     4  11  25  42  65 100 134 171 207 274 328 382
#     4  11  23  41  67  99 131 167 222 266 318 395
#     4  11  24  40  67 102 130 170 212 272 331 370
#     4  10  24  42  67  92 133 176 220 258 325 385
#     4  11  23  40  68 100 127 169 216 270 329 369
#
# _framework density 25.751189
#
# number of rings (size 3 to 8) (size 9 to 14) (size 15 to 20)
#    0.000    1.143    2.857    3.429    4.000    2.286 
#    0.000    2.143    0.000    0.000    0.000    0.000 
#    0.000    0.000    0.000    0.000    0.000    0.000 
#
# Total GULP energy -78337.874879 kJ/mol
# GULP energy per Si atom -5595.562491 kJ/mol
# Density = 2.569258 g / cm^3
# Si number density = 25.751189 Si / 1000 Ang^3
#
#
#
# Elastic Constant Matrix: (Units=GPa)
#
#
# Indices 1 2 3 4 5 6 
#
# 1 82.4423 19.5364 37.2767 8.7366 5.2508 -18.1550
# 2 19.5364 67.7604 -7.6151 2.3332 6.6384 -5.7454
# 3 37.2767 -7.6151 65.6610 10.8115 21.1249 -7.5111
# 4 8.7366 2.3332 10.8115 27.2938 1.1759 1.7901
# 5 5.2508 6.6384 21.1249 1.1759 47.0460 -0.3202
# 6 -18.1550 -5.7454 -7.5111 1.7901 -0.3202 39.4760
#
#
#
# Elastic Compliance Matrix: (Units=1/GPa)
#
#
# Indices 1 2 3 4 5 6 
#
# 1 0.021261 -0.007558 -0.013573 -0.001399 0.004865 0.006198
# 2 -0.007558 0.018650 0.008798 -0.002480 -0.005670 0.000979
# 3 -0.013573 0.008798 0.029396 -0.007560 -0.012731 0.000871
# 4 -0.001399 -0.002480 -0.007560 0.040449 0.002861 -0.004254
# 5 0.004865 -0.005670 -0.012731 0.002861 0.027152 -0.000920
# 6 0.006198 0.000979 0.000871 -0.004254 -0.000920 0.028676
#
#
# Mechanical properties :
#
#
# Convention : Reuss Voigt Hill
#
# Bulk Modulus (GPa) = 22.40044 34.91773 28.65908
# Shear Modulus (GPa) = 24.37491 33.87419 29.12455
#
# Velocity S-wave (km/s) = 3.07995 3.63084 3.36668
# Velocity P-wave (km/s) = 4.62232 5.58269 5.12505
#
# Compressibility (1/GPa) = 0.04464198
#
# Stress axis : x y z
#
# Youngs Moduli (GPa) = 47.03439 53.62028 34.01823
#
# Poissons Ratio (x) = 0.40527 0.46171
# Poissons Ratio (y) = 0.35549 -0.29930
# Poissons Ratio (z) = 0.63838 -0.47177
#
# Static dielectric constant tensor:
#      x y z
#    x 2.087300 0.020650 -0.071930 
#    y 0.020650 2.018330 -0.014510 
#    z -0.071930 -0.014510 2.069170 
# 
# From -- ./inp_files/304746.got.cif
#   From: 2010.05.17/outbox.cif.g08.bks.cpg/sg2_153_cif.got.tgz:304746.got - 2010.06.03 11:33:40.
