data_PCOD9033677
_publ_section_title
;
Structure prediction by ZEFSAII (Michael W. Deem and Ramdas Pophale) SiO2 
 PCOD9033677
Probable space group: P -1
;
_chemical_formula_sum "Si O2"
_cell_formula_units_Z 15
_cell_length_a 17.930027
_cell_length_b 8.981705
_cell_length_c 7.002246
_cell_angle_alpha 124.645379
_cell_angle_beta 65.616798
_cell_angle_gamma 135.949828
_cell_volume 645.006650
_symmetry_space_group_name_H-M "P -1"
_symmetry_group_IT_number 2
_symmetry_cell_setting 'triclinic'
loop_
_space_group_symop_operation_xyz
x,y,z
-x,-y,-z
loop_
_atom_site_type_symbol
_atom_site_label
_atom_site_fract_x
_atom_site_fract_y
_atom_site_fract_z
Si Si1 0.576207 0.318929 0.980125
Si Si2 0.007422 0.615314 0.874420
Si Si3 0.731475 0.888491 0.675693
Si Si4 0.176154 0.783697 0.504982
Si Si5 0.500000 0.500000 0.500000
Si Si6 0.078674 0.062842 0.291928
Si Si7 0.738838 0.436406 0.605654
Si Si8 0.346629 0.839445 0.886563
O O1 0.656837 0.448515 0.812065
O O2 0.462762 0.069748 0.853505
O O3 0.547995 0.454961 0.230886
O O4 0.628176 0.252421 0.027801
O O5 0.115569 0.726866 0.725548
O O6 0.910465 0.414817 0.698431
O O7 0.000000 0.500000 0.000000
O O8 0.011216 0.834806 0.063232
O O9 0.614701 0.637761 0.593762
O O10 0.820016 0.907388 0.713589
O O11 0.775866 0.975725 0.476478
O O12 0.714232 0.066037 0.910959
O O13 0.267954 0.769099 0.436896
O O14 0.138744 0.320159 0.327179
O O15 0.000000 0.000000 0.500000
O O16 0.713695 0.360856 0.356931
#
# Coordination Sequence:
#
# PCOD9033677 Si02
#       8
#     2   2   2   2   1   2   2   2
#     4  10  22  44  69 105 139 190 232 282 357 413
#     4  11  24  47  69  95 136 183 238 290 343 420
#     4  11  23  47  71 102 140 193 231 286 355 415
#     4  11  25  42  75  98 129 190 242 279 350 423
#     4  10  24  42  72 104 150 174 226 296 348 414
#     4  12  28  44  70 104 146 184 230 299 356 401
#     4  12  25  42  69 107 136 180 237 294 346 417
#     4  10  22  45  71  98 141 188 235 288 340 421
#
# _framework density 23.255576999999999
#
# number of rings (size 3 to 8) (size 9 to 14) (size 15 to 20)
#    0.000    1.067    2.667    2.800    5.600    1.600 
#    2.400    3.333    0.000    0.000    0.000    0.000 
#    0.000    0.000    0.000    0.000    0.000    0.000 
#
# Total GULP energy -83639.119451 kJ/mol
# GULP energy per Si atom -5575.941297 kJ/mol
# Density = 2.320265 g / cm^3
# Si number density = 23.255577 Si / 1000 Ang^3
#
#
#
# Elastic Constant Matrix: (Units=GPa)
#
#
# Indices 1 2 3 4 5 6 
#
# 1 75.6758 -9.1253 7.5361 -12.9704 -3.6017 7.5258
# 2 -9.1253 45.9977 16.6691 -13.2593 3.7454 8.1444
# 3 7.5361 16.6691 119.5368 -8.3967 -16.9868 14.6022
# 4 -12.9704 -13.2593 -8.3967 37.3822 6.9927 -0.5075
# 5 -3.6017 3.7454 -16.9868 6.9927 31.5072 -8.3719
# 6 7.5258 8.1444 14.6022 -0.5075 -8.3719 30.0397
#
#
#
# Elastic Compliance Matrix: (Units=1/GPa)
#
#
# Indices 1 2 3 4 5 6 
#
# 1 0.016152 0.007440 -0.001150 0.008500 -0.003207 -0.006255
# 2 0.007440 0.032018 -0.004116 0.015021 -0.011568 -0.011514
# 3 -0.001150 -0.004116 0.009967 -0.000649 0.005355 -0.001959
# 4 0.008500 0.015021 -0.000649 0.036940 -0.011621 -0.008501
# 5 -0.003207 -0.011568 0.005355 -0.011621 0.041597 0.012733
# 6 -0.006255 -0.011514 -0.001959 -0.008501 0.012733 0.042335
#
#
# Mechanical properties :
#
#
# Convention : Reuss Voigt Hill
#
# Bulk Modulus (GPa) = 16.00405 30.15221 23.07813
# Shear Modulus (GPa) = 25.57657 34.86119 30.21888
#
# Velocity S-wave (km/s) = 3.31993 3.87595 3.60866
# Velocity P-wave (km/s) = 4.64679 5.74669 5.22576
#
# Compressibility (1/GPa) = 0.06248419
#
# Stress axis : x y z
#
# Youngs Moduli (GPa) = 61.91128 31.23200 100.33260
#
# Poissons Ratio (x) = -0.23236 0.11542
# Poissons Ratio (y) = -0.46061 0.41298
# Poissons Ratio (z) = 0.07122 0.12856
#
# Static dielectric constant tensor:
#      x y z
#    x 1.857120 -0.024980 -0.038500 
#    y -0.024980 1.912590 -0.000400 
#    z -0.038500 -0.000400 1.854490 
# 
# From -- ./inp_files/104986.got.cif
#   From: 2010.05.17/outbox.cif.g08.bks.cpg/sg2_53_cif.got.tgz:104986.got - 2010.06.03 11:33:40.
