data_PCOD9033728
_publ_section_title
;
Structure prediction by ZEFSAII (Michael W. Deem and Ramdas Pophale) SiO2 
 PCOD9033728
Probable space group: P -1
;
_chemical_formula_sum "Si O2"
_cell_formula_units_Z 15
_cell_length_a 18.899000
_cell_length_b 8.899897
_cell_length_c 10.707784
_cell_angle_alpha 39.101004
_cell_angle_beta 142.633371
_cell_angle_gamma 126.892854
_cell_volume 688.753944
_symmetry_space_group_name_H-M "P -1"
_symmetry_group_IT_number 2
_symmetry_cell_setting 'triclinic'
loop_
_space_group_symop_operation_xyz
x,y,z
-x,-y,-z
loop_
_atom_site_type_symbol
_atom_site_label
_atom_site_fract_x
_atom_site_fract_y
_atom_site_fract_z
Si Si1 0.500000 0.000000 0.500000
Si Si2 0.315897 0.374148 0.130764
Si Si3 0.224846 0.311862 0.323488
Si Si4 0.376491 0.904484 0.929593
Si Si5 0.078164 0.173107 0.575433
Si Si6 0.964737 0.307528 0.860072
Si Si7 0.921119 0.801743 0.171471
Si Si8 0.697132 0.165114 0.850687
O O1 0.585062 0.797503 0.678200
O O2 0.385062 0.887935 0.344749
O O3 0.286897 0.302599 0.279658
O O4 0.352265 0.647250 0.003405
O O5 0.194519 0.344456 0.906804
O O6 0.251901 0.572047 0.246920
O O7 0.278098 0.099946 0.620318
O O8 0.087487 0.291411 0.117011
O O9 0.373667 0.864384 0.100001
O O10 0.500000 0.000000 0.000000
O O11 0.090570 0.430267 0.365486
O O12 0.019070 0.226574 0.592498
O O13 0.000000 0.000000 0.500000
O O14 0.198944 0.034044 0.862072
O O15 0.996860 0.265061 0.786895
O O16 0.889938 0.084901 0.933855
#
# Coordination Sequence:
#
# PCOD9033728 Si02
#       8
#     1   2   2   2   2   2   2   2
#     4  12  22  46  66  92 134 172 214 276 334 380
#     4  10  23  43  69  95 132 173 217 277 334 387
#     4  10  22  44  69  95 131 176 222 270 326 399
#     4  11  24  45  70  97 124 178 232 270 322 401
#     4  12  24  42  66 101 140 174 217 273 337 392
#     4  10  23  41  69  99 132 178 224 264 326 404
#     4  10  23  43  66  97 131 181 216 271 327 396
#     4  11  25  44  68  99 135 177 216 276 335 390
#
# _framework density 21.778459000000002
#
# number of rings (size 3 to 8) (size 9 to 14) (size 15 to 20)
#    0.000    1.333    2.667    2.000    1.867    6.933 
#    2.400    3.333    0.000    0.000    0.000    0.000 
#    0.000    0.000    0.000    0.000    0.000    0.000 
#
# Total GULP energy -83674.615008 kJ/mol
# GULP energy per Si atom -5578.307667 kJ/mol
# Density = 2.172889 g / cm^3
# Si number density = 21.778459 Si / 1000 Ang^3
#
#
#
# Elastic Constant Matrix: (Units=GPa)
#
#
# Indices 1 2 3 4 5 6 
#
# 1 47.7310 41.4448 15.7420 -0.9334 4.8591 10.9227
# 2 41.4448 182.4313 45.0417 -6.2283 -1.0247 -0.6216
# 3 15.7420 45.0417 65.0309 -8.5885 14.9724 -7.9069
# 4 -0.9334 -6.2283 -8.5885 50.1155 -3.7682 0.5639
# 5 4.8591 -1.0247 14.9724 -3.7682 31.4474 2.1493
# 6 10.9227 -0.6216 -7.9069 0.5639 2.1493 28.8365
#
#
#
# Elastic Compliance Matrix: (Units=1/GPa)
#
#
# Indices 1 2 3 4 5 6 
#
# 1 0.030743 -0.005950 -0.004545 -0.000953 -0.002016 -0.012851
# 2 -0.005950 0.008046 -0.004777 0.000319 0.003436 0.000855
# 3 -0.004545 -0.004777 0.023743 0.002458 -0.011072 0.008906
# 4 -0.000953 0.000319 0.002458 0.020497 0.001407 0.000536
# 5 -0.002016 0.003436 -0.011072 0.001407 0.038008 -0.005059
# 6 -0.012851 0.000855 0.008906 0.000536 -0.005059 0.042373
#
#
# Mechanical properties :
#
#
# Convention : Reuss Voigt Hill
#
# Bulk Modulus (GPa) = 31.26232 55.51668 43.38950
# Shear Modulus (GPa) = 24.43586 34.94417 29.69001
#
# Velocity S-wave (km/s) = 3.35329 4.01000 3.69626
# Velocity P-wave (km/s) = 5.42020 6.85471 6.17923
#
# Compressibility (1/GPa) = 0.03198739
#
# Stress axis : x y z
#
# Youngs Moduli (GPa) = 32.52753 124.28834 42.11743
#
# Poissons Ratio (x) = 0.73948 0.19143
# Poissons Ratio (y) = 0.19353 0.20121
# Poissons Ratio (z) = 0.14785 0.59378
#
# Static dielectric constant tensor:
#      x y z
#    x 1.854510 -0.027060 -0.024770 
#    y -0.027060 1.759540 -0.018500 
#    z -0.024770 -0.018500 1.786980 
# 
# From -- ./inp_files/257791.got.cif
#   From: 2010.05.17/outbox.cif.g08.bks.cpg/sg2_129_cif.got.tgz:257791.got - 2010.06.03 11:33:40.
