data_PCOD9033602
_publ_section_title
;
Structure prediction by ZEFSAII (Michael W. Deem and Ramdas Pophale) SiO2 
 PCOD9033602
Probable space group: P -1
;
_chemical_formula_sum "Si O2"
_cell_formula_units_Z 12
_cell_length_a 13.011864
_cell_length_b 12.045750
_cell_length_c 9.579570
_cell_angle_alpha 54.598354
_cell_angle_beta 35.310642
_cell_angle_gamma 39.051931
_cell_volume 540.642371
_symmetry_space_group_name_H-M "P -1"
_symmetry_group_IT_number 2
_symmetry_cell_setting 'triclinic'
loop_
_space_group_symop_operation_xyz
x,y,z
-x,-y,-z
loop_
_atom_site_type_symbol
_atom_site_label
_atom_site_fract_x
_atom_site_fract_y
_atom_site_fract_z
Si Si1 0.935808 0.008509 0.725041
Si Si2 0.196857 0.223918 0.536715
Si Si3 0.739683 0.319322 0.919138
Si Si4 0.448782 0.683885 0.424000
Si Si5 0.518510 0.862109 0.975831
Si Si6 0.489250 0.802176 0.564877
O O1 0.172706 0.834918 0.651776
O O2 0.868682 0.181162 0.748612
O O3 0.000000 0.000000 0.500000
O O4 0.705932 0.029428 0.958400
O O5 0.265205 0.239060 0.294508
O O6 0.306008 0.265336 0.504230
O O7 0.922833 0.333720 0.769831
O O8 0.332137 0.013084 0.559856
O O9 0.500000 0.500000 0.000000
O O10 0.672040 0.233153 0.162158
O O11 0.500000 0.500000 0.500000
O O12 0.576070 0.700547 0.395649
O O13 0.505695 0.734189 0.180083
O O14 0.500000 0.000000 0.000000
#
# Coordination Sequence:
#
# PCOD9033602 Si02
#       6
#     2   2   2   2   2   2
#     4  10  22  44  68  98 142 196 231 287 365 432
#     4  11  23  45  74 102 138 195 242 296 359 428
#     4  12  26  44  72 106 145 189 240 300 363 430
#     4  11  25  44  73 107 144 189 238 298 369 432
#     4  11  21  45  70 101 141 191 244 292 355 435
#     4  11  24  43  71 106 145 180 246 294 366 420
#
# _framework density 22.195817999999999
#
# number of rings (size 3 to 8) (size 9 to 14) (size 15 to 20)
#    0.000    1.000    5.000    1.500    4.667    0.667 
#    0.000    2.500    0.000    0.000    0.000    0.000 
#    0.000    0.000    0.000    0.000    0.000    0.000 
#
# Total GULP energy -67145.283105 kJ/mol
# GULP energy per Si atom -5595.440259 kJ/mol
# Density = 2.214530 g / cm^3
# Si number density = 22.195818 Si / 1000 Ang^3
#
#
#
# Elastic Constant Matrix: (Units=GPa)
#
#
# Indices 1 2 3 4 5 6 
#
# 1 156.9672 42.0370 50.5659 4.9169 -14.4021 -7.7948
# 2 42.0370 123.0067 44.8067 -1.3697 2.3670 1.4575
# 3 50.5659 44.8067 113.5329 -16.8600 -17.3653 -16.1153
# 4 4.9169 -1.3697 -16.8600 35.0413 -5.1094 1.1376
# 5 -14.4021 2.3670 -17.3653 -5.1094 43.9490 -1.7310
# 6 -7.7948 1.4575 -16.1153 1.1376 -1.7310 13.2148
#
#
#
# Elastic Compliance Matrix: (Units=1/GPa)
#
#
# Indices 1 2 3 4 5 6 
#
# 1 0.008042 -0.001854 -0.002674 -0.002338 0.001489 0.002084
# 2 -0.001854 0.011122 -0.006003 -0.002490 -0.004261 -0.009984
# 3 -0.002674 -0.006003 0.018124 0.009410 0.008549 0.021497
# 4 -0.002338 -0.002490 0.009410 0.034099 0.007381 0.008402
# 5 0.001489 -0.004261 0.008549 0.007381 0.028292 0.014844
# 6 0.002084 -0.009984 0.021497 0.008402 0.014844 0.105439
#
#
# Mechanical properties :
#
#
# Convention : Reuss Voigt Hill
#
# Bulk Modulus (GPa) = 61.62203 74.25843 67.94023
# Shear Modulus (GPa) = 21.59008 35.51417 28.55213
#
# Velocity S-wave (km/s) = 3.12221 4.00439 3.59050
# Velocity P-wave (km/s) = 6.38911 7.41005 6.91844
#
# Compressibility (1/GPa) = 0.01622796
#
# Stress axis : x y z
#
# Youngs Moduli (GPa) = 124.34936 89.91033 55.17494
#
# Poissons Ratio (x) = 0.16666 0.14753
# Poissons Ratio (y) = 0.23050 0.33119
# Poissons Ratio (z) = 0.33250 0.53970
#
# Static dielectric constant tensor:
#      x y z
#    x 1.863930 -0.011600 -0.022290 
#    y -0.011600 1.789950 0.010440 
#    z -0.022290 0.010440 1.846590 
# 
# From -- ./inp_files/147612.got.cif
#   From: 2010.05.17/outbox.cif.g08.bks.cpg/sg2_74_cif.got.tgz:147612.got - 2010.06.03 11:33:40.
