data_PCOD9033754
_publ_section_title
;
Structure prediction by ZEFSAII (Michael W. Deem and Ramdas Pophale) SiO2 
 PCOD9033754
Probable space group: P -1
;
_chemical_formula_sum "Si O2"
_cell_formula_units_Z 15
_cell_length_a 9.230623
_cell_length_b 15.402970
_cell_length_c 11.773696
_cell_angle_alpha 35.795877
_cell_angle_beta 117.972527
_cell_angle_gamma 134.003081
_cell_volume 686.305972
_symmetry_space_group_name_H-M "P -1"
_symmetry_group_IT_number 2
_symmetry_cell_setting 'triclinic'
loop_
_space_group_symop_operation_xyz
x,y,z
-x,-y,-z
loop_
_atom_site_type_symbol
_atom_site_label
_atom_site_fract_x
_atom_site_fract_y
_atom_site_fract_z
Si Si1 0.841737 0.014556 0.853894
Si Si2 0.551727 0.647602 0.496785
Si Si3 0.000000 0.500000 0.000000
Si Si4 0.172010 0.405998 0.464427
Si Si5 0.521564 0.365767 0.269086
Si Si6 0.998281 0.367132 0.897194
Si Si7 0.526316 0.311053 0.085907
Si Si8 0.693501 0.005645 0.040254
O O1 0.662916 0.830849 0.916197
O O2 0.973282 0.193883 0.631418
O O3 0.739950 0.052820 0.875760
O O4 0.000000 0.000000 0.000000
O O5 0.322991 0.476599 0.553520
O O6 0.698137 0.584317 0.605608
O O7 0.545305 0.721700 0.537555
O O8 0.636154 0.806929 0.263723
O O9 0.741161 0.353494 0.083117
O O10 0.016640 0.623758 0.982907
O O11 0.109275 0.540865 0.283726
O O12 0.456652 0.239639 0.266922
O O13 0.768867 0.505404 0.198315
O O14 0.444631 0.494220 0.104814
O O15 0.882695 0.163356 0.019079
O O16 0.500000 0.000000 0.000000
#
# Coordination Sequence:
#
# PCOD9033754 Si02
#       8
#     2   2   1   2   2   2   2   2
#     4  12  24  43  67  99 135 173 216 275 330 395
#     4  11  23  41  63  99 132 177 217 274 326 393
#     4  10  22  44  70  92 132 180 218 262 324 402
#     4  11  24  40  65  94 134 174 223 266 334 389
#     4  10  23  41  68  92 132 170 222 269 329 393
#     4  11  23  42  64  97 127 179 218 271 329 387
#     4  10  22  44  69  97 131 179 220 267 331 390
#     4  12  24  38  64  98 133 167 223 276 328 381
#
# _framework density 21.856141999999998
#
# number of rings (size 3 to 8) (size 9 to 14) (size 15 to 20)
#    0.000    1.067    2.667    4.000    3.733    1.067 
#    2.400    2.000    0.000    0.000    0.000    0.000 
#    0.000    0.000    0.000    0.000    0.000    0.000 
#
# Total GULP energy -83547.386784 kJ/mol
# GULP energy per Si atom -5569.825786 kJ/mol
# Density = 2.180640 g / cm^3
# Si number density = 21.856142 Si / 1000 Ang^3
#
#
#
# Elastic Constant Matrix: (Units=GPa)
#
#
# Indices 1 2 3 4 5 6 
#
# 1 140.0331 25.8857 8.3190 12.3492 -18.0024 -2.4031
# 2 25.8857 147.1249 7.3537 -2.4181 -21.9807 -9.6617
# 3 8.3190 7.3537 25.8589 -6.6477 -1.6870 2.4332
# 4 12.3492 -2.4181 -6.6477 22.8608 -9.7019 -8.4848
# 5 -18.0024 -21.9807 -1.6870 -9.7019 24.5264 5.0523
# 6 -2.4031 -9.6617 2.4332 -8.4848 5.0523 28.3032
#
#
#
# Elastic Compliance Matrix: (Units=1/GPa)
#
#
# Indices 1 2 3 4 5 6 
#
# 1 0.008338 -0.000939 -0.003225 -0.004532 0.003537 -0.001325
# 2 -0.000939 0.008607 -0.000256 0.006273 0.008832 0.003184
# 3 -0.003225 -0.000256 0.044910 0.017935 0.007630 -0.000207
# 4 -0.004532 0.006273 0.017935 0.069898 0.027842 0.016199
# 5 0.003537 0.008832 0.007630 0.027842 0.062867 -0.000216
# 6 -0.001325 0.003184 -0.000207 0.016199 -0.000216 0.041219
#
#
# Mechanical properties :
#
#
# Convention : Reuss Voigt Hill
#
# Bulk Modulus (GPa) = 18.86293 44.01488 31.43890
# Shear Modulus (GPa) = 19.05850 33.23530 26.14690
#
# Velocity S-wave (km/s) = 2.95616 3.90377 3.46254
# Velocity P-wave (km/s) = 4.50567 6.36407 5.51373
#
# Compressibility (1/GPa) = 0.05301404
#
# Stress axis : x y z
#
# Youngs Moduli (GPa) = 119.93344 116.18862 22.26691
#
# Poissons Ratio (x) = 0.10909 0.07181
# Poissons Ratio (y) = 0.11260 0.00571
# Poissons Ratio (z) = 0.38678 0.02978
#
# Static dielectric constant tensor:
#      x y z
#    x 1.308360 0.230850 0.096200 
#    y 0.230850 1.729680 0.023270 
#    z 0.096200 0.023270 1.825910 
# 
# From -- ./inp_files/175934.got.cif
#   From: 2010.05.17/outbox.cif.g08.bks.cpg/sg2_88_cif.got.tgz:175934.got - 2010.06.03 11:33:40.
