data_PCOD9033548
_publ_section_title
;
Structure prediction by ZEFSAII (Michael W. Deem and Ramdas Pophale) SiO2 
 PCOD9033548
Probable space group: P -1
;
_chemical_formula_sum "Si O2"
_cell_formula_units_Z 13
_cell_length_a 6.842255
_cell_length_b 14.505739
_cell_length_c 6.906795
_cell_angle_alpha 64.500507
_cell_angle_beta 91.289871
_cell_angle_gamma 56.105069
_cell_volume 481.010339
_symmetry_space_group_name_H-M "P -1"
_symmetry_group_IT_number 2
_symmetry_cell_setting 'triclinic'
loop_
_space_group_symop_operation_xyz
x,y,z
-x,-y,-z
loop_
_atom_site_type_symbol
_atom_site_label
_atom_site_fract_x
_atom_site_fract_y
_atom_site_fract_z
Si Si1 0.500000 0.000000 0.500000
Si Si2 0.016468 0.596011 0.283989
Si Si3 0.169455 0.869279 0.358852
Si Si4 0.682843 0.585969 0.032395
Si Si5 0.432233 0.587037 0.636863
Si Si6 0.292810 0.866365 0.795168
Si Si7 0.622841 0.867492 0.243790
O O1 0.474150 0.895868 0.695311
O O2 0.692600 0.890363 0.434120
O O3 0.912001 0.587746 0.082229
O O4 0.829972 0.740911 0.238055
O O5 0.000000 0.500000 0.500000
O O6 0.307696 0.532610 0.351770
O O7 0.240369 0.733162 0.415676
O O8 0.159365 0.868097 0.596102
O O9 0.400059 0.863633 0.301647
O O10 0.915728 0.015552 0.179985
O O11 0.707468 0.464724 0.229295
O O12 0.569573 0.606539 0.798269
O O13 0.455416 0.721096 0.014378
O O14 0.500000 0.000000 0.000000
#
# Coordination Sequence:
#
# PCOD9033548 Si02
#       7
#     1   2   2   2   2   2   2
#     4  10  22  44  68  96 134 178 228 284 352 408
#     4  12  25  44  66 100 143 182 229 286 347 422
#     4   9  19  40  64  95 137 170 223 282 345 409
#     4  10  23  43  69 103 133 182 237 284 343 418
#     4  10  22  45  69  99 140 182 229 283 356 412
#     4   9  19  39  67  97 127 175 228 285 337 406
#     4  11  24  43  67 101 133 180 234 285 346 413
#
# _framework density 27.026444000000001
#
# number of rings (size 3 to 8) (size 9 to 14) (size 15 to 20)
#    0.000    1.846    1.538    1.385    2.154    1.846 
#   16.615    1.538    0.000    0.000    0.000    0.000 
#    0.000    0.000    0.000    0.000    0.000    0.000 
#
# Total GULP energy -72440.978328 kJ/mol
# GULP energy per Si atom -5572.382948 kJ/mol
# Density = 2.696493 g / cm^3
# Si number density = 27.026444 Si / 1000 Ang^3
#
#
#
# Elastic Constant Matrix: (Units=GPa)
#
#
# Indices 1 2 3 4 5 6 
#
# 1 122.0593 25.4129 10.6350 -15.2285 3.8040 2.5222
# 2 25.4129 188.0166 37.9669 -37.4221 -0.7120 -10.3131
# 3 10.6350 37.9669 48.4625 -32.6407 -13.2529 6.6421
# 4 -15.2285 -37.4221 -32.6407 73.7362 13.0143 4.3838
# 5 3.8040 -0.7120 -13.2529 13.0143 39.6633 0.0475
# 6 2.5222 -10.3131 6.6421 4.3838 0.0475 39.1948
#
#
#
# Elastic Compliance Matrix: (Units=1/GPa)
#
#
# Indices 1 2 3 4 5 6 
#
# 1 0.008657 -0.000816 -0.000602 0.001423 -0.001512 -0.000827
# 2 -0.000816 0.006871 -0.005326 0.001149 -0.001958 0.002637
# 3 -0.000602 -0.005326 0.036899 0.012602 0.008167 -0.009035
# 4 0.001423 0.001149 0.012602 0.020748 -0.002708 -0.004242
# 5 -0.001512 -0.001958 0.008167 -0.002708 0.028941 -0.001534
# 6 -0.000827 0.002637 -0.009035 -0.004242 -0.001534 0.028268
#
#
# Mechanical properties :
#
#
# Convention : Reuss Voigt Hill
#
# Bulk Modulus (GPa) = 25.68188 56.28532 40.98360
# Shear Modulus (GPa) = 31.87732 49.48711 40.68222
#
# Velocity S-wave (km/s) = 3.43809 4.28373 3.88400
# Velocity P-wave (km/s) = 5.02830 6.73338 5.94231
#
# Compressibility (1/GPa) = 0.03893797
#
# Stress axis : x y z
#
# Youngs Moduli (GPa) = 115.51447 145.54863 27.10109
#
# Poissons Ratio (x) = 0.11883 0.01630
# Poissons Ratio (y) = 0.09431 0.14434
# Poissons Ratio (z) = 0.06949 0.77522
#
# Static dielectric constant tensor:
#      x y z
#    x 2.198770 0.062540 0.117400 
#    y 0.062540 2.284020 0.057400 
#    z 0.117400 0.057400 2.178440 
# 
# From -- ./inp_files/205881.got.cif
#   From: 2010.05.17/outbox.cif.g08.bks.cpg/sg2_103_cif.got.tgz:205881.got - 2010.06.03 11:33:40.
