data_PCOD9033061
_publ_section_title
;
Structure prediction by ZEFSAII (Michael W. Deem and Ramdas Pophale) SiO2 
 PCOD9033061
Probable space group: P -1
;
_chemical_formula_sum "Si O2"
_cell_formula_units_Z 8
_cell_length_a 4.881806
_cell_length_b 16.652917
_cell_length_c 7.049200
_cell_angle_alpha 137.500311
_cell_angle_beta 109.162312
_cell_angle_gamma 66.815959
_cell_volume 355.229232
_symmetry_space_group_name_H-M "P -1"
_symmetry_group_IT_number 2
_symmetry_cell_setting 'triclinic'
loop_
_space_group_symop_operation_xyz
x,y,z
-x,-y,-z
loop_
_atom_site_type_symbol
_atom_site_label
_atom_site_fract_x
_atom_site_fract_y
_atom_site_fract_z
Si Si1 0.277653 0.641162 0.827658
Si Si2 0.146193 0.116321 0.691933
Si Si3 0.318414 0.004887 0.159678
Si Si4 0.930807 0.507762 0.777034
O O1 0.633226 0.615097 0.857797
O O2 0.148970 0.611304 0.543367
O O3 0.199393 0.539675 0.775538
O O4 0.099280 0.768348 0.092081
O O5 0.456921 0.098575 0.845820
O O6 0.234992 0.113572 0.485716
O O7 0.000000 0.000000 0.500000
O O8 0.500000 0.000000 0.000000
O O9 0.000000 0.000000 0.000000
O O10 0.000000 0.500000 0.000000
#
# Coordination Sequence:
#
# PCOD9033061 Si02
#       4
#     2   2   2   2
#     4  10  24  40  67  93 129 165 216 265 320 382
#     4  11  25  42  67  99 138 173 213 270 329 394
#     4  11  24  42  61  91 133 177 219 257 316 390
#     4  10  22  44  65  94 123 168 218 269 319 373
#
# _framework density 22.520665999999999
#
# number of rings (size 3 to 8) (size 9 to 14) (size 15 to 20)
#    0.000    1.500    2.500    0.750    7.000    4.000 
#    0.000    0.000    0.000    0.000    0.000    0.000 
#    0.000    0.000    0.000    0.000    0.000    0.000 
#
# Total GULP energy -44670.634204 kJ/mol
# GULP energy per Si atom -5583.829275 kJ/mol
# Density = 2.246941 g / cm^3
# Si number density = 22.520666 Si / 1000 Ang^3
#
#
#
# Elastic Constant Matrix: (Units=GPa)
#
#
# Indices 1 2 3 4 5 6 
#
# 1 133.7370 17.8985 32.8239 -13.8353 -20.2185 -13.9663
# 2 17.8985 44.8040 67.5368 -18.2863 1.1055 -13.6314
# 3 32.8239 67.5368 190.2499 -23.3845 -41.2594 -7.0153
# 4 -13.8353 -18.2863 -23.3845 65.6794 -8.9220 -9.7099
# 5 -20.2185 1.1055 -41.2594 -8.9220 45.0381 -2.1431
# 6 -13.9663 -13.6314 -7.0153 -9.7099 -2.1431 33.0182
#
#
#
# Elastic Compliance Matrix: (Units=1/GPa)
#
#
# Indices 1 2 3 4 5 6 
#
# 1 0.009338 -0.004621 0.002024 0.002898 0.006913 0.003773
# 2 -0.004621 0.101244 -0.040611 0.012419 -0.037760 0.032416
# 3 0.002024 -0.040611 0.023948 -0.000594 0.023275 -0.009486
# 4 0.002898 0.012419 -0.000594 0.021728 0.005373 0.012965
# 5 0.006913 -0.037760 0.023275 0.005373 0.048478 -0.002993
# 6 0.003773 0.032416 -0.009486 0.012965 -0.002993 0.046868
#
#
# Mechanical properties :
#
#
# Convention : Reuss Voigt Hill
#
# Bulk Modulus (GPa) = 20.78368 67.25656 44.02012
# Shear Modulus (GPa) = 14.12196 45.44925 29.78560
#
# Velocity S-wave (km/s) = 2.50685 4.49721 3.64069
# Velocity P-wave (km/s) = 4.19855 7.54293 6.10424
#
# Compressibility (1/GPa) = 0.04811469
#
# Stress axis : x y z
#
# Youngs Moduli (GPa) = 107.08889 9.87714 41.75680
#
# Poissons Ratio (x) = 0.04564 -0.08451
# Poissons Ratio (y) = 0.49487 1.69576
# Poissons Ratio (z) = -0.21674 0.40112
#
# Static dielectric constant tensor:
#      x y z
#    x 1.830790 0.061130 0.031790 
#    y 0.061130 1.846580 0.009160 
#    z 0.031790 0.009160 1.872050 
# 
# From -- ./inp_files/1780.got.cif
#   From: 2010.05.17/outbox.cif.g08.bks.cpg/sg2_1_cif.got.tgz:1780.got - 2010.06.03 11:33:40.
