data_PCOD9033981
_publ_section_title
;
Structure prediction by ZEFSAII (Michael W. Deem and Ramdas Pophale) SiO2 
 PCOD9033981
Probable space group: P -1
;
_chemical_formula_sum "Si O2"
_cell_formula_units_Z 15
_cell_length_a 17.796462
_cell_length_b 12.352307
_cell_length_c 9.123367
_cell_angle_alpha 144.242322
_cell_angle_beta 140.135010
_cell_angle_gamma 33.685085
_cell_volume 623.082918
_symmetry_space_group_name_H-M "P -1"
_symmetry_group_IT_number 2
_symmetry_cell_setting 'triclinic'
loop_
_space_group_symop_operation_xyz
x,y,z
-x,-y,-z
loop_
_atom_site_type_symbol
_atom_site_label
_atom_site_fract_x
_atom_site_fract_y
_atom_site_fract_z
Si Si1 0.203551 0.157731 0.157034
Si Si2 0.378029 0.657439 0.177490
Si Si3 0.366266 0.366514 0.603166
Si Si4 0.856191 0.044091 0.401038
Si Si5 0.064312 0.368335 0.733340
Si Si6 0.899128 0.913453 0.770958
Si Si7 0.297201 0.451341 0.255870
Si Si8 0.500000 0.500000 0.500000
O O1 0.329492 0.191609 0.406779
O O2 0.139214 0.110947 0.148992
O O3 0.072561 0.397579 0.165156
O O4 0.233865 0.977521 0.883153
O O5 0.475558 0.707156 0.279751
O O6 0.460379 0.498450 0.262922
O O7 0.249813 0.890700 0.303224
O O8 0.319397 0.551826 0.862401
O O9 0.293488 0.450019 0.425185
O O10 0.758685 0.293149 0.593359
O O11 0.906748 0.842997 0.365950
O O12 0.000000 0.000000 0.500000
O O13 0.041403 0.314223 0.476343
O O14 0.197230 0.385525 0.968393
O O15 0.000000 0.000000 0.000000
O O16 0.453021 0.326636 0.286902
#
# Coordination Sequence:
#
# PCOD9033981 Si02
#       8
#     2   2   2   2   2   2   2   1
#     4  12  24  42  67 100 135 183 225 284 340 397
#     4  10  23  46  70  99 134 180 228 277 341 404
#     4  10  22  44  70  98 136 177 227 283 338 400
#     4  12  22  40  69  96 136 177 228 283 329 402
#     4  12  25  42  66 102 142 178 227 281 337 410
#     4  12  27  44  67 102 138 182 226 278 345 411
#     4  11  23  44  66 102 137 180 229 275 343 398
#     4  10  24  42  74  94 134 186 214 282 340 398
#
# _framework density 24.073841999999999
#
# number of rings (size 3 to 8) (size 9 to 14) (size 15 to 20)
#    0.000    0.800    2.667    4.800    3.733    0.533 
#    2.400    2.000    0.000    0.000    0.000    0.000 
#    0.000    0.000    0.000    0.000    0.000    0.000 
#
# Total GULP energy -83698.657740 kJ/mol
# GULP energy per Si atom -5579.910516 kJ/mol
# Density = 2.401905 g / cm^3
# Si number density = 24.073842 Si / 1000 Ang^3
#
#
#
# Elastic Constant Matrix: (Units=GPa)
#
#
# Indices 1 2 3 4 5 6 
#
# 1 112.6118 17.9738 45.9187 3.9436 19.2561 36.5661
# 2 17.9738 53.9128 10.8694 8.4548 3.6114 23.3119
# 3 45.9187 10.8694 132.0276 9.1603 33.2875 7.3047
# 4 3.9436 8.4548 9.1603 27.9850 -1.5384 1.4362
# 5 19.2561 3.6114 33.2875 -1.5384 45.2769 0.2352
# 6 36.5661 23.3119 7.3047 1.4362 0.2352 44.1463
#
#
#
# Elastic Compliance Matrix: (Units=1/GPa)
#
#
# Indices 1 2 3 4 5 6 
#
# 1 0.014807 0.001571 -0.003575 -0.000959 -0.003762 -0.012451
# 2 0.001571 0.025730 -0.000785 -0.007120 -0.002310 -0.014514
# 3 -0.003575 -0.000785 0.010600 -0.003167 -0.006326 0.001759
# 4 -0.000959 -0.007120 -0.003167 0.039116 0.004613 0.003781
# 5 -0.003762 -0.002310 -0.006326 0.004613 0.028652 0.005080
# 6 -0.012451 -0.014514 0.001759 0.003781 0.005080 0.040188
#
#
# Mechanical properties :
#
#
# Convention : Reuss Voigt Hill
#
# Bulk Modulus (GPa) = 21.95032 49.78623 35.86827
# Shear Modulus (GPa) = 27.79953 38.40100 33.10026
#
# Velocity S-wave (km/s) = 3.40186 3.99825 3.71205
# Velocity P-wave (km/s) = 4.95661 6.48384 5.77097
#
# Compressibility (1/GPa) = 0.04555742
#
# Stress axis : x y z
#
# Youngs Moduli (GPa) = 67.53510 38.86449 94.34205
#
# Poissons Ratio (x) = -0.06104 0.33730
# Poissons Ratio (y) = -0.10607 0.07408
# Poissons Ratio (z) = 0.24145 0.03052
#
# Static dielectric constant tensor:
#      x y z
#    x 1.851230 0.082670 -0.041420 
#    y 0.082670 1.888020 -0.031200 
#    z -0.041420 -0.031200 1.920630 
# 
# From -- ./inp_files/280091.got.cif
#   From: 2010.05.17/outbox.cif.g08.bks.cpg/sg2_141_cif.got.tgz:280091.got - 2010.06.03 11:33:40.
