data_PCOD9033783
_publ_section_title
;
Structure prediction by ZEFSAII (Michael W. Deem and Ramdas Pophale) SiO2 
 PCOD9033783
Probable space group: P -1
;
_chemical_formula_sum "Si O2"
_cell_formula_units_Z 16
_cell_length_a 10.244437
_cell_length_b 9.205044
_cell_length_c 9.881227
_cell_angle_alpha 55.970083
_cell_angle_beta 95.117765
_cell_angle_gamma 117.530138
_cell_volume 666.332758
_symmetry_space_group_name_H-M "P -1"
_symmetry_group_IT_number 2
_symmetry_cell_setting 'triclinic'
loop_
_space_group_symop_operation_xyz
x,y,z
-x,-y,-z
loop_
_atom_site_type_symbol
_atom_site_label
_atom_site_fract_x
_atom_site_fract_y
_atom_site_fract_z
Si Si1 0.579492 0.851669 0.330129
Si Si2 0.825690 0.479861 0.867874
Si Si3 0.780675 0.671302 0.509701
Si Si4 0.372322 0.748916 0.772309
Si Si5 0.801024 0.073558 0.004334
Si Si6 0.991476 0.895906 0.758857
Si Si7 0.252915 0.638347 0.526550
Si Si8 0.730474 0.967098 0.742481
O O1 0.639189 0.698952 0.446057
O O2 0.402249 0.742514 0.390782
O O3 0.642050 0.047724 0.331892
O O4 0.646147 0.949943 0.140521
O O5 0.753129 0.542740 0.707879
O O6 0.855156 0.309899 0.895892
O O7 0.976226 0.686695 0.816079
O O8 0.719006 0.385119 0.037902
O O9 0.834038 0.577665 0.441652
O O10 0.907517 0.903585 0.420958
O O11 0.305522 0.633301 0.686202
O O12 0.552519 0.835446 0.759235
O O13 0.761839 0.996552 0.890061
O O14 0.926235 0.051637 0.114000
O O15 0.824128 0.861880 0.760415
O O16 0.200683 0.804819 0.429415
#
# Coordination Sequence:
#
# PCOD9033783 Si02
#       8
#     2   2   2   2   2   2   2   2
#     4   9  21  40  69  96 133 167 214 269 324 387
#     4  11  24  45  69  98 129 171 225 274 320 383
#     4  11  24  44  69  97 129 179 220 265 322 390
#     4  10  25  43  70  98 134 170 211 274 335 380
#     4  10  22  44  69  99 128 175 217 272 325 382
#     4  11  26  44  64  95 136 175 217 270 323 388
#     4  11  23  43  67 101 134 172 213 269 333 387
#     4  11  23  43  69  99 135 171 216 265 333 393
#
# _framework density 24.012024
#
# number of rings (size 3 to 8) (size 9 to 14) (size 15 to 20)
#    0.000    1.500    1.250    3.000    5.250    5.500 
#    4.500    0.000    0.000    0.000    0.000    0.000 
#    0.000    0.000    0.000    0.000    0.000    0.000 
#
# Total GULP energy -89507.758696 kJ/mol
# GULP energy per Si atom -5594.234918 kJ/mol
# Density = 2.395737 g / cm^3
# Si number density = 24.012024 Si / 1000 Ang^3
#
#
#
# Elastic Constant Matrix: (Units=GPa)
#
#
# Indices 1 2 3 4 5 6 
#
# 1 45.1126 18.4034 16.8515 -4.4211 0.0144 -5.9098
# 2 18.4034 107.6191 57.7693 12.3826 -4.2539 7.0440
# 3 16.8515 57.7693 98.9307 7.6111 18.8313 -3.8282
# 4 -4.4211 12.3826 7.6111 43.9655 -4.8205 0.5664
# 5 0.0144 -4.2539 18.8313 -4.8205 19.0990 -6.5429
# 6 -5.9098 7.0440 -3.8282 0.5664 -6.5429 23.0974
#
#
#
# Elastic Compliance Matrix: (Units=1/GPa)
#
#
# Indices 1 2 3 4 5 6 
#
# 1 0.026745 -0.003174 -0.004236 0.005062 0.007885 0.009219
# 2 -0.003174 0.017564 -0.012519 -0.001458 0.014484 -0.004105
# 3 -0.004236 -0.012519 0.023631 -0.003986 -0.027442 -0.001025
# 4 0.005062 -0.001458 -0.003986 0.025547 0.011302 0.003654
# 5 0.007885 0.014484 -0.027442 0.011302 0.091936 0.018818
# 6 0.009219 -0.004105 -0.001025 0.003654 0.018818 0.051977
#
#
# Mechanical properties :
#
#
# Convention : Reuss Voigt Hill
#
# Bulk Modulus (GPa) = 35.61091 48.63453 42.12272
# Shear Modulus (GPa) = 17.44480 27.80826 22.62653
#
# Velocity S-wave (km/s) = 2.69830 3.40677 3.07302
# Velocity P-wave (km/s) = 4.95685 5.98106 5.49288
#
# Compressibility (1/GPa) = 0.02808129
#
# Stress axis : x y z
#
# Youngs Moduli (GPa) = 37.39006 56.93438 42.31756
#
# Poissons Ratio (x) = 0.18070 0.17926
# Poissons Ratio (y) = 0.11867 0.52979
# Poissons Ratio (z) = 0.15839 0.71279
#
# Static dielectric constant tensor:
#      x y z
#    x 1.929310 0.009390 0.004290 
#    y 0.009390 1.993960 -0.002900 
#    z 0.004290 -0.002900 1.891330 
# 
# From -- ./inp_files/242591.got.cif
#   From: 2010.05.17/outbox.cif.g08.bks.cpg/sg2_122_cif.got.tgz:242591.got - 2010.06.03 11:33:40.
