data_PCOD9033434
_publ_section_title
;
Structure prediction by ZEFSAII (Michael W. Deem and Ramdas Pophale) SiO2 
 PCOD9033434
Probable space group: P -1
;
_chemical_formula_sum "Si O2"
_cell_formula_units_Z 16
_cell_length_a 6.069671
_cell_length_b 11.743886
_cell_length_c 13.205210
_cell_angle_alpha 123.935963
_cell_angle_beta 91.098244
_cell_angle_gamma 70.995240
_cell_volume 722.339211
_symmetry_space_group_name_H-M "P -1"
_symmetry_group_IT_number 2
_symmetry_cell_setting 'triclinic'
loop_
_space_group_symop_operation_xyz
x,y,z
-x,-y,-z
loop_
_atom_site_type_symbol
_atom_site_label
_atom_site_fract_x
_atom_site_fract_y
_atom_site_fract_z
Si Si1 0.214210 0.080462 0.446754
Si Si2 0.814609 0.214894 0.343548
Si Si3 0.752833 0.491998 0.944632
Si Si4 0.465718 0.286149 0.546734
Si Si5 0.970042 0.443617 0.359395
Si Si6 0.667820 0.735256 0.892488
Si Si7 0.158351 0.788630 0.320925
Si Si8 0.205616 0.993772 0.923062
O O1 0.436984 0.128864 0.472405
O O2 0.029766 0.174917 0.405888
O O3 0.082387 0.126114 0.576292
O O4 0.251046 0.912222 0.341310
O O5 0.571702 0.294818 0.442241
O O6 0.825349 0.064804 0.216636
O O7 0.849607 0.324187 0.315768
O O8 0.662311 0.621953 0.923193
O O9 0.855160 0.328366 0.816006
O O10 0.500000 0.500000 0.000000
O O11 0.000000 0.500000 0.000000
O O12 0.648657 0.297522 0.635566
O O13 0.211144 0.412121 0.625779
O O14 0.194874 0.363479 0.251061
O O15 0.000000 0.500000 0.500000
O O16 0.433341 0.860929 0.905824
O O17 0.787535 0.843556 0.995094
O O18 0.000000 0.000000 0.000000
#
# Coordination Sequence:
#
# PCOD9033434 Si02
#       8
#     2   2   2   2   2   2   2   2
#     4  10  22  44  68 100 142 181 244 307 373 440
#     4  11  24  38  67 104 137 184 237 295 372 451
#     4  12  32  52  77 112 150 207 260 312 374 450
#     4  11  23  40  69 103 144 184 236 307 373 449
#     4  12  23  42  70 104 147 181 236 300 379 448
#     4  11  28  48  74 104 146 197 249 313 376 447
#     4  10  25  44  71 100 137 194 245 310 371 430
#     4  11  25  46  73 101 144 191 247 308 375 451
#
# _framework density 22.150258999999998
#
# number of rings (size 3 to 8) (size 9 to 14) (size 15 to 20)
#    0.000    1.000    2.500    2.250   10.500    1.000 
#    0.000    0.000    0.000    0.000    0.000    0.000 
#    0.000    0.000    0.000    0.000    0.000    0.000 
#
# Total GULP energy -89352.690535 kJ/mol
# GULP energy per Si atom -5584.543158 kJ/mol
# Density = 2.209984 g / cm^3
# Si number density = 22.150259 Si / 1000 Ang^3
#
#
#
# Elastic Constant Matrix: (Units=GPa)
#
#
# Indices 1 2 3 4 5 6 
#
# 1 94.6227 26.9347 57.0531 -4.4131 1.5038 8.3730
# 2 26.9347 86.3806 31.8837 14.1430 -9.5569 19.9073
# 3 57.0531 31.8837 138.1484 18.5537 14.4450 3.2621
# 4 -4.4131 14.1430 18.5537 25.5474 -0.8470 -0.5597
# 5 1.5038 -9.5569 14.4450 -0.8470 38.7960 3.9662
# 6 8.3730 19.9073 3.2621 -0.5597 3.9662 40.7623
#
#
#
# Elastic Compliance Matrix: (Units=1/GPa)
#
#
# Indices 1 2 3 4 5 6 
#
# 1 0.016788 -0.003728 -0.007632 0.010537 0.001608 -0.001029
# 2 -0.003728 0.017362 -0.001651 -0.009049 0.005683 -0.008259
# 3 -0.007632 -0.001651 0.012570 -0.009667 -0.005180 0.001739
# 4 0.010537 -0.009049 -0.009667 0.053130 0.001755 0.003587
# 5 0.001608 0.005683 -0.005180 0.001755 0.029648 -0.005552
# 6 -0.001029 -0.008259 0.001739 0.003587 -0.005552 0.029227
#
#
# Mechanical properties :
#
#
# Convention : Reuss Voigt Hill
#
# Bulk Modulus (GPa) = 48.31327 61.21053 54.76190
# Shear Modulus (GPa) = 26.08951 34.57316 30.33133
#
# Velocity S-wave (km/s) = 3.43569 3.95504 3.70448
# Velocity P-wave (km/s) = 6.13169 6.96783 6.56309
#
# Compressibility (1/GPa) = 0.02069825
#
# Stress axis : x y z
#
# Youngs Moduli (GPa) = 59.56638 57.59611 79.55205
#
# Poissons Ratio (x) = 0.21472 0.60712
# Poissons Ratio (y) = 0.22207 0.13137
# Poissons Ratio (z) = 0.45459 0.09511
#
# Static dielectric constant tensor:
#      x y z
#    x 1.972420 -0.001620 -0.026160 
#    y -0.001620 1.830410 -0.006860 
#    z -0.026160 -0.006860 1.817320 
# 
# From -- ./inp_files/483030.got.cif
#   From: 2010.05.17/outbox.cif.g08.bks.cpg/sg2_242_cif.got.tgz:483030.got - 2010.06.03 11:33:40.
