data_PCOD9033293
_publ_section_title
;
Structure prediction by ZEFSAII (Michael W. Deem and Ramdas Pophale) SiO2 
 PCOD9033293
Probable space group: P -1
;
_chemical_formula_sum "Si O2"
_cell_formula_units_Z 12
_cell_length_a 14.705607
_cell_length_b 6.414992
_cell_length_c 14.474953
_cell_angle_alpha 98.755079
_cell_angle_beta 138.808686
_cell_angle_gamma 49.771851
_cell_volume 513.480541
_symmetry_space_group_name_H-M "P -1"
_symmetry_group_IT_number 2
_symmetry_cell_setting 'triclinic'
loop_
_space_group_symop_operation_xyz
x,y,z
-x,-y,-z
loop_
_atom_site_type_symbol
_atom_site_label
_atom_site_fract_x
_atom_site_fract_y
_atom_site_fract_z
Si Si1 0.402518 0.283811 0.067011
Si Si2 0.588491 0.177716 0.495267
Si Si3 0.776202 0.528192 0.385119
Si Si4 0.751395 0.794502 0.775921
Si Si5 0.449562 0.538678 0.692868
Si Si6 0.868297 0.619012 0.274687
O O1 0.372857 0.533779 0.117959
O O2 0.521636 0.962270 0.204047
O O3 0.612848 0.050217 0.134668
O O4 0.181937 0.458857 0.857647
O O5 0.500000 0.500000 0.500000
O O6 0.373160 0.279514 0.320951
O O7 0.760396 0.848033 0.678041
O O8 0.667575 0.166828 0.454955
O O9 0.727765 0.351335 0.363418
O O10 0.900793 0.428984 0.376530
O O11 0.931288 0.452711 0.576102
O O12 0.579458 0.184008 0.717301
O O13 0.000000 0.500000 0.000000
#
# Coordination Sequence:
#
# PCOD9033293 Si02
#       6
#     2   2   2   2   2   2
#     4   9  18  37  56  83 124 159 205 239 289 348
#     4   9  21  42  64  87 116 155 193 252 309 358
#     4   9  18  37  57  84 122 161 199 244 292 348
#     4  10  22  44  67  83 122 160 194 246 312 362
#     4  11  21  35  63  94 121 155 202 255 289 356
#     4   8  18  38  58  79 125 173 188 243 297 342
#
# _framework density 23.369921999999999
#
# number of rings (size 3 to 8) (size 9 to 14) (size 15 to 20)
#    1.000    1.667    0.000    1.000    0.000    4.000 
#    0.000   21.667    0.000    0.000    0.000    0.000 
#    0.000    0.000    0.000    0.000    0.000    0.000 
#
# Total GULP energy -66975.376916 kJ/mol
# GULP energy per Si atom -5581.281410 kJ/mol
# Density = 2.331673 g / cm^3
# Si number density = 23.369922 Si / 1000 Ang^3
#
#
#
# Elastic Constant Matrix: (Units=GPa)
#
#
# Indices 1 2 3 4 5 6 
#
# 1 114.1920 30.3465 44.1304 12.1544 -10.8726 28.3042
# 2 30.3465 113.1068 46.7272 32.4544 4.0271 18.6246
# 3 44.1304 46.7272 184.9311 40.9060 5.3816 30.6481
# 4 12.1544 32.4544 40.9060 45.2290 -6.8584 -0.5482
# 5 -10.8726 4.0271 5.3816 -6.8584 16.0084 0.7052
# 6 28.3042 18.6246 30.6481 -0.5482 0.7052 36.5351
#
#
#
# Elastic Compliance Matrix: (Units=1/GPa)
#
#
# Indices 1 2 3 4 5 6 
#
# 1 0.012787 -0.002230 -0.001900 0.001434 0.010823 -0.007363
# 2 -0.002230 0.013775 0.000948 -0.011742 -0.010062 -0.006071
# 3 -0.001900 0.000948 0.009144 -0.009811 -0.008512 -0.006665
# 4 0.001434 -0.011742 -0.009811 0.042983 0.025057 0.013266
# 5 0.010823 -0.010062 -0.008512 0.025057 0.085831 0.002604
# 6 -0.007363 -0.006071 -0.006665 0.013266 0.002604 0.041910
#
#
# Mechanical properties :
#
#
# Convention : Reuss Voigt Hill
#
# Bulk Modulus (GPa) = 34.08219 72.73759 53.40989
# Shear Modulus (GPa) = 22.46442 38.95620 30.71031
#
# Velocity S-wave (km/s) = 3.10377 4.08724 3.62898
# Velocity P-wave (km/s) = 5.24023 7.31205 6.36106
#
# Compressibility (1/GPa) = 0.02934084
#
# Stress axis : x y z
#
# Youngs Moduli (GPa) = 78.20459 72.59476 109.36612
#
# Poissons Ratio (x) = 0.16192 0.20778
# Poissons Ratio (y) = 0.17443 -0.10366
# Poissons Ratio (z) = 0.14858 -0.06881
#
# Static dielectric constant tensor:
#      x y z
#    x 1.957420 -0.095310 -0.000640 
#    y -0.095310 1.883460 -0.032610 
#    z -0.000640 -0.032610 1.860140 
# 
# From -- ./inp_files/576734.got.cif
#   From: 2010.05.17/outbox.cif.g08.bks.cpg/sg2_289_cif.got.tgz:576734.got - 2010.06.03 11:33:40.
