data_PCOD9033561
_publ_section_title
;
Structure prediction by ZEFSAII (Michael W. Deem and Ramdas Pophale) SiO2 
 PCOD9033561
Probable space group: P -1
;
_chemical_formula_sum "Si O2"
_cell_formula_units_Z 16
_cell_length_a 16.188698
_cell_length_b 15.145978
_cell_length_c 11.919387
_cell_angle_alpha 123.568902
_cell_angle_beta 37.584772
_cell_angle_gamma 152.561908
_cell_volume 693.941491
_symmetry_space_group_name_H-M "P -1"
_symmetry_group_IT_number 2
_symmetry_cell_setting 'triclinic'
loop_
_space_group_symop_operation_xyz
x,y,z
-x,-y,-z
loop_
_atom_site_type_symbol
_atom_site_label
_atom_site_fract_x
_atom_site_fract_y
_atom_site_fract_z
Si Si1 0.387787 0.552759 0.889332
Si Si2 0.985294 0.514576 0.724808
Si Si3 0.322717 0.902238 0.509143
Si Si4 0.111680 0.489989 0.783926
Si Si5 0.069893 0.929610 0.908811
Si Si6 0.242971 0.096720 0.068412
Si Si7 0.604089 0.694227 0.521725
Si Si8 0.601426 0.010383 0.069906
O O1 0.607722 0.722914 0.670905
O O2 0.530598 0.679472 0.944568
O O3 0.133172 0.460229 0.071387
O O4 0.227837 0.329716 0.906825
O O5 0.178836 0.586140 0.657120
O O6 0.701808 0.247444 0.825004
O O7 0.107485 0.651615 0.575556
O O8 0.508511 0.021113 0.280848
O O9 0.170852 0.910885 0.697132
O O10 0.500000 0.000000 0.500000
O O11 0.374326 0.605764 0.637566
O O12 0.000000 0.500000 0.000000
O O13 0.821807 0.217434 0.893549
O O14 0.303615 0.106933 0.881864
O O15 0.000000 0.000000 0.000000
O O16 0.928027 0.931940 0.294723
O O17 0.223419 0.969620 0.059365
O O18 0.500000 0.500000 0.500000
#
# Coordination Sequence:
#
# PCOD9033561 Si02
#       8
#     2   2   2   2   2   2   2   2
#     4  10  22  44  68  97 132 174 224 272 332 402
#     4  10  23  41  67 100 131 171 224 283 331 391
#     4  11  22  42  69  93 128 178 225 266 337 400
#     4  12  23  40  68  97 132 171 219 276 335 391
#     4  11  24  43  66  97 136 176 221 274 330 392
#     4  11  23  42  70  96 131 180 220 272 335 397
#     4  12  22  42  68  95 132 175 217 265 340 398
#     4  11  22  42  66  98 135 172 224 279 331 394
#
# _framework density 23.056698000000001
#
# number of rings (size 3 to 8) (size 9 to 14) (size 15 to 20)
#    0.000    1.000    5.000    1.875    0.000    2.500 
#    0.000    1.250    0.000    0.000    0.000    0.000 
#    0.000    0.000    0.000    0.000    0.000    0.000 
#
# Total GULP energy -89321.589484 kJ/mol
# GULP energy per Si atom -5582.599343 kJ/mol
# Density = 2.300422 g / cm^3
# Si number density = 23.056698 Si / 1000 Ang^3
#
#
#
# Elastic Constant Matrix: (Units=GPa)
#
#
# Indices 1 2 3 4 5 6 
#
# 1 115.3637 53.9750 41.0952 5.2143 -15.3969 -12.3169
# 2 53.9750 111.9468 22.7092 0.2335 -9.8862 -2.0515
# 3 41.0952 22.7092 95.1291 -4.5282 -8.5316 -3.9270
# 4 5.2143 0.2335 -4.5282 31.2362 -1.1378 -3.2212
# 5 -15.3969 -9.8862 -8.5316 -1.1378 40.5738 -2.3328
# 6 -12.3169 -2.0515 -3.9270 -3.2212 -2.3328 28.2852
#
#
#
# Elastic Compliance Matrix: (Units=1/GPa)
#
#
# Indices 1 2 3 4 5 6 
#
# 1 0.013788 -0.005397 -0.004276 -0.002244 0.003244 0.005031
# 2 -0.005397 0.011649 -0.000422 0.000627 0.000636 -0.001440
# 3 -0.004276 -0.000422 0.012688 0.002620 0.001030 0.000252
# 4 -0.002244 0.000627 0.002620 0.033138 0.000970 0.003286
# 5 0.003244 0.000636 0.001030 0.000970 0.026501 0.003898
# 6 0.005031 -0.001440 0.000252 0.003286 0.003898 0.038171
#
#
# Mechanical properties :
#
#
# Convention : Reuss Voigt Hill
#
# Bulk Modulus (GPa) = 55.75833 61.99984 58.87909
# Shear Modulus (GPa) = 30.84452 33.66307 32.25379
#
# Velocity S-wave (km/s) = 3.66152 3.82516 3.74423
# Velocity P-wave (km/s) = 6.48932 6.81598 6.65466
#
# Compressibility (1/GPa) = 0.01793454
#
# Stress axis : x y z
#
# Youngs Moduli (GPa) = 72.52544 85.84340 78.81747
#
# Poissons Ratio (x) = 0.46331 0.33704
# Poissons Ratio (y) = 0.39143 0.03325
# Poissons Ratio (z) = 0.31013 0.03621
#
# Static dielectric constant tensor:
#      x y z
#    x 1.897530 0.003700 0.043550 
#    y 0.003700 1.955040 -0.025170 
#    z 0.043550 -0.025170 1.936260 
# 
# From -- ./inp_files/455794.got.cif
#   From: 2010.05.17/outbox.cif.g08.bks.cpg/sg2_228_cif.got.tgz:455794.got - 2010.06.03 11:33:40.
