data_PCOD9033482
_publ_section_title
;
Structure prediction by ZEFSAII (Michael W. Deem and Ramdas Pophale) SiO2 
 PCOD9033482
Probable space group: P -1
;
_chemical_formula_sum "Si O2"
_cell_formula_units_Z 14
_cell_length_a 11.678086
_cell_length_b 13.925010
_cell_length_c 5.130671
_cell_angle_alpha 63.446205
_cell_angle_beta 54.871765
_cell_angle_gamma 52.082329
_cell_volume 532.648398
_symmetry_space_group_name_H-M "P -1"
_symmetry_group_IT_number 2
_symmetry_cell_setting 'triclinic'
loop_
_space_group_symop_operation_xyz
x,y,z
-x,-y,-z
loop_
_atom_site_type_symbol
_atom_site_label
_atom_site_fract_x
_atom_site_fract_y
_atom_site_fract_z
Si Si1 0.846919 0.275580 0.606941
Si Si2 0.304995 0.962771 0.786189
Si Si3 0.387952 0.152274 0.155639
Si Si4 0.711039 0.225477 0.358502
Si Si5 0.605593 0.544218 0.637070
Si Si6 0.165930 0.377383 0.459061
Si Si7 0.836849 0.831049 0.953404
O O1 0.791216 0.206025 0.558357
O O2 0.742743 0.418559 0.480864
O O3 0.035444 0.216020 0.389685
O O4 0.802203 0.265959 0.974318
O O5 0.444646 0.873451 0.910889
O O6 0.654254 0.936831 0.512629
O O7 0.157017 0.057433 0.042898
O O8 0.260585 0.296152 0.184856
O O9 0.346120 0.124276 0.958428
O O10 0.712200 0.112786 0.337296
O O11 0.529572 0.339504 0.482960
O O12 0.705569 0.593341 0.608767
O O13 0.500000 0.500000 0.000000
O O14 0.000000 0.500000 0.500000
O O15 0.123709 0.286524 0.784965
#
# Coordination Sequence:
#
# PCOD9033482 Si02
#       7
#     2   2   2   2   2   2   2
#     4  11  27  44  72 105 147 192 245 299 364 436
#     4  10  23  43  72 101 142 189 245 299 356 437
#     4  10  22  44  68 104 140 184 246 296 365 428
#     4  11  25  47  71 106 142 198 243 296 365 436
#     4  10  23  46  70 103 143 191 243 300 362 436
#     4  11  24  43  73 105 144 185 242 301 372 432
#     4  11  26  43  71 105 145 192 236 310 360 437
#
# _framework density 26.283754999999999
#
# number of rings (size 3 to 8) (size 9 to 14) (size 15 to 20)
#    0.000    1.429    1.429    1.714   10.000    4.571 
#    0.000    0.000    0.000    0.000    0.000    0.000 
#    0.000    0.000    0.000    0.000    0.000    0.000 
#
# Total GULP energy -78359.263899 kJ/mol
# GULP energy per Si atom -5597.090278 kJ/mol
# Density = 2.622393 g / cm^3
# Si number density = 26.283755 Si / 1000 Ang^3
#
#
#
# Elastic Constant Matrix: (Units=GPa)
#
#
# Indices 1 2 3 4 5 6 
#
# 1 132.4530 32.3375 -1.4322 -1.8981 -7.8918 8.7077
# 2 32.3375 151.6363 20.4898 5.9623 -5.6035 3.6486
# 3 -1.4322 20.4898 58.7461 10.2271 -5.6062 -4.0552
# 4 -1.8981 5.9623 10.2271 37.1145 -2.5940 -0.4905
# 5 -7.8918 -5.6035 -5.6062 -2.5940 40.0527 0.1669
# 6 8.7077 3.6486 -4.0552 -0.4905 0.1669 52.3370
#
#
#
# Elastic Compliance Matrix: (Units=1/GPa)
#
#
# Indices 1 2 3 4 5 6 
#
# 1 0.008170 -0.001787 0.000785 0.000579 0.001512 -0.001173
# 2 -0.001787 0.007358 -0.002512 -0.000566 0.000291 -0.000417
# 3 0.000785 -0.002512 0.019032 -0.004630 0.002161 0.001469
# 4 0.000579 -0.000566 -0.004630 0.028424 0.001228 -0.000153
# 5 0.001512 0.000291 0.002161 0.001228 0.025688 -0.000175
# 6 -0.001173 -0.000417 0.001469 -0.000153 -0.000175 0.019444
#
#
# Mechanical properties :
#
#
# Convention : Reuss Voigt Hill
#
# Bulk Modulus (GPa) = 36.32264 49.51396 42.91830
# Shear Modulus (GPa) = 40.21795 45.33019 42.77407
#
# Velocity S-wave (km/s) = 3.91595 4.15739 4.03848
# Velocity P-wave (km/s) = 5.85625 6.47490 6.17333
#
# Compressibility (1/GPa) = 0.02753104
#
# Stress axis : x y z
#
# Youngs Moduli (GPa) = 122.39669 135.89976 52.54435
#
# Poissons Ratio (x) = 0.24286 -0.04125
# Poissons Ratio (y) = 0.21873 0.13202
# Poissons Ratio (z) = -0.09609 0.34145
#
# Static dielectric constant tensor:
#      x y z
#    x 2.108270 0.026360 0.021920 
#    y 0.026360 2.061210 0.009100 
#    z 0.021920 0.009100 2.126280 
# 
# From -- ./inp_files/77069.got.cif
#   From: 2010.05.17/outbox.cif.g08.bks.cpg/sg2_39_cif.got.tgz:77069.got - 2010.06.03 11:33:40.
