data_PCOD9033337
_publ_section_title
;
Structure prediction by ZEFSAII (Michael W. Deem and Ramdas Pophale) SiO2 
 PCOD9033337
Probable space group: P -1
;
_chemical_formula_sum "Si O2"
_cell_formula_units_Z 14
_cell_length_a 24.094802
_cell_length_b 5.057639
_cell_length_c 5.324019
_cell_angle_alpha 80.385310
_cell_angle_beta 122.631541
_cell_angle_gamma 96.359799
_cell_volume 538.547962
_symmetry_space_group_name_H-M "P -1"
_symmetry_group_IT_number 2
_symmetry_cell_setting 'triclinic'
loop_
_space_group_symop_operation_xyz
x,y,z
-x,-y,-z
loop_
_atom_site_type_symbol
_atom_site_label
_atom_site_fract_x
_atom_site_fract_y
_atom_site_fract_z
Si Si1 0.167175 0.009644 0.627947
Si Si2 0.284082 0.583066 0.336024
Si Si3 0.147386 0.444870 0.902000
Si Si4 0.424721 0.601970 0.777541
Si Si5 0.043407 0.269529 0.025391
Si Si6 0.570103 0.099696 0.752016
Si Si7 0.301053 0.145990 0.048596
O O1 0.164067 0.160740 0.865179
O O2 0.112845 0.167801 0.320747
O O3 0.150074 0.696721 0.675193
O O4 0.243023 0.062078 0.725760
O O5 0.349007 0.487667 0.656457
O O6 0.287913 0.427802 0.101712
O O7 0.293833 0.901463 0.272629
O O8 0.207469 0.527023 0.226523
O O9 0.072984 0.401711 0.822801
O O10 0.418103 0.659684 0.454914
O O11 0.500000 0.500000 0.000000
O O12 0.428280 0.832328 0.962596
O O13 0.000000 0.500000 0.000000
O O14 0.000000 0.000000 0.000000
O O15 0.500000 0.000000 0.500000
O O16 0.625427 0.889870 0.859845
#
# Coordination Sequence:
#
# PCOD9033337 Si02
#       7
#     2   2   2   2   2   2   2
#     4  10  22  44  67  95 134 180 228 284 352 419
#     4   9  20  42  66  95 132 176 233 286 348 420
#     4  10  22  44  67  95 134 180 228 284 352 419
#     4  11  23  42  65 102 141 187 238 294 356 422
#     4  12  26  42  64 104 134 174 232 284 350 430
#     4  11  23  42  65 102 141 187 238 294 356 422
#     4   9  20  42  66  95 132 176 233 286 348 420
#
# _framework density 25.995829000000001
#
# number of rings (size 3 to 8) (size 9 to 14) (size 15 to 20)
#    0.000    1.714    0.000    3.429    0.000    5.714 
#   30.857    0.000    0.000    0.000    0.000    0.000 
#    0.000    0.000    0.000    0.000    0.000    0.000 
#
# Total GULP energy -78067.181885 kJ/mol
# GULP energy per Si atom -5576.227277 kJ/mol
# Density = 2.593666 g / cm^3
# Si number density = 25.995829 Si / 1000 Ang^3
#
#
#
# Elastic Constant Matrix: (Units=GPa)
#
#
# Indices 1 2 3 4 5 6 
#
# 1 134.8098 33.3164 19.2713 12.6736 37.7609 -5.0281
# 2 33.3164 113.4194 18.4347 -6.1589 0.1264 -8.6028
# 3 19.2713 18.4347 82.5206 -14.3193 36.4395 11.3421
# 4 12.6736 -6.1589 -14.3193 50.5536 -2.2815 14.4096
# 5 37.7609 0.1264 36.4395 -2.2815 47.7990 4.6822
# 6 -5.0281 -8.6028 11.3421 14.4096 4.6822 42.7121
#
#
#
# Elastic Compliance Matrix: (Units=1/GPa)
#
#
# Indices 1 2 3 4 5 6 
#
# 1 0.011683 -0.003756 0.001960 -0.004108 -0.011176 0.002709
# 2 -0.003756 0.010817 -0.004392 0.000726 0.006127 0.001986
# 3 0.001960 -0.004392 0.022561 0.006530 -0.017748 -0.006902
# 4 -0.004108 0.000726 0.006530 0.025870 0.000564 -0.010861
# 5 -0.011176 0.006127 -0.017748 0.000564 0.043321 -0.000308
# 6 0.002709 0.001986 -0.006902 -0.010861 -0.000308 0.029662
#
#
# Mechanical properties :
#
#
# Convention : Reuss Voigt Hill
#
# Bulk Modulus (GPa) = 30.59336 52.53273 41.56305
# Shear Modulus (GPa) = 29.90697 45.52808 37.71753
#
# Velocity S-wave (km/s) = 3.39551 4.18947 3.81321
# Velocity P-wave (km/s) = 5.21218 6.60713 5.95067
#
# Compressibility (1/GPa) = 0.03268683
#
# Stress axis : x y z
#
# Youngs Moduli (GPa) = 85.59094 92.44578 44.32491
#
# Poissons Ratio (x) = 0.34720 -0.08689
# Poissons Ratio (y) = 0.32146 0.19467
# Poissons Ratio (z) = -0.16779 0.40602
#
# Static dielectric constant tensor:
#      x y z
#    x 3.194390 0.085010 0.128200 
#    y 0.085010 2.028920 -0.049670 
#    z 0.128200 -0.049670 2.095020 
# 
# From -- ./inp_files/121597.got.cif
#   From: 2010.05.17/outbox.cif.g08.bks.cpg/sg2_61_cif.got.tgz:121597.got - 2010.06.03 11:33:40.
