data_PCOD9033343
_publ_section_title
;
Structure prediction by ZEFSAII (Michael W. Deem and Ramdas Pophale) SiO2 
 PCOD9033343
Probable space group: P -1
;
_chemical_formula_sum "Si O2"
_cell_formula_units_Z 16
_cell_length_a 5.314827
_cell_length_b 14.872388
_cell_length_c 10.221478
_cell_angle_alpha 119.761309
_cell_angle_beta 77.781578
_cell_angle_gamma 115.191537
_cell_volume 634.672140
_symmetry_space_group_name_H-M "P -1"
_symmetry_group_IT_number 2
_symmetry_cell_setting 'triclinic'
loop_
_space_group_symop_operation_xyz
x,y,z
-x,-y,-z
loop_
_atom_site_type_symbol
_atom_site_label
_atom_site_fract_x
_atom_site_fract_y
_atom_site_fract_z
Si Si1 0.147385 0.779067 0.251766
Si Si2 0.764859 0.380042 0.686627
Si Si3 0.276669 0.205823 0.473125
Si Si4 0.769378 0.490113 0.405166
Si Si5 0.431264 0.004327 0.236247
Si Si6 0.825653 0.560397 0.980788
Si Si7 0.850603 0.118491 0.065149
Si Si8 0.572298 0.753197 0.806927
O O1 0.303379 0.705514 0.247654
O O2 0.356263 0.892136 0.246886
O O3 0.969030 0.808825 0.407283
O O4 0.948925 0.689561 0.102955
O O5 0.536546 0.316591 0.563562
O O6 0.814166 0.509240 0.800380
O O7 0.074311 0.400994 0.621607
O O8 0.261215 0.222951 0.332135
O O9 0.375124 0.100270 0.392600
O O10 0.500000 0.500000 0.500000
O O11 0.631682 0.375321 0.256513
O O12 0.000000 0.500000 0.500000
O O13 0.730361 0.051767 0.165664
O O14 0.220026 0.967106 0.109053
O O15 0.500000 0.500000 0.000000
O O16 0.000000 0.500000 0.000000
O O17 0.642787 0.184424 0.118642
O O18 0.172133 0.198438 0.087245
#
# Coordination Sequence:
#
# PCOD9033343 Si02
#       8
#     2   2   2   2   2   2   2   2
#     4  11  24  46  69 104 145 188 237 295 364 431
#     4  11  25  44  69 106 147 189 235 300 362 437
#     4  11  23  43  72 103 145 187 236 301 360 430
#     4  12  25  42  72 110 142 189 240 294 366 431
#     4  10  25  46  73 103 143 188 250 294 365 422
#     4  10  22  44  67  95 139 185 230 284 350 428
#     4  10  25  51  70 105 137 193 240 305 351 427
#     4  11  24  46  75 101 146 184 242 299 361 421
#
# _framework density 25.209866000000002
#
# number of rings (size 3 to 8) (size 9 to 14) (size 15 to 20)
#    0.000    1.250    2.500    1.875    7.000    5.000 
#   11.250    0.000    0.000    0.000    0.000    0.000 
#    0.000    0.000    0.000    0.000    0.000    0.000 
#
# Total GULP energy -89402.396408 kJ/mol
# GULP energy per Si atom -5587.649776 kJ/mol
# Density = 2.515249 g / cm^3
# Si number density = 25.209866 Si / 1000 Ang^3
#
#
#
# Elastic Constant Matrix: (Units=GPa)
#
#
# Indices 1 2 3 4 5 6 
#
# 1 114.5407 42.0366 28.3343 20.3627 6.5879 27.1436
# 2 42.0366 113.1071 3.4670 2.7567 7.6947 7.4142
# 3 28.3343 3.4670 103.8329 13.7908 4.2661 1.9688
# 4 20.3627 2.7567 13.7908 32.7836 11.2048 1.9512
# 5 6.5879 7.6947 4.2661 11.2048 38.5919 11.5655
# 6 27.1436 7.4142 1.9688 1.9512 11.5655 35.8385
#
#
#
# Elastic Compliance Matrix: (Units=1/GPa)
#
#
# Indices 1 2 3 4 5 6 
#
# 1 0.015220 -0.004927 -0.002799 -0.008774 0.004651 -0.011377
# 2 -0.004927 0.010629 0.000704 0.002699 -0.002816 0.002256
# 3 -0.002799 0.000704 0.010726 -0.002741 -0.000567 0.001717
# 4 -0.008774 0.002699 -0.002741 0.040855 -0.013065 0.008230
# 5 0.004651 -0.002816 -0.000567 -0.013065 0.033427 -0.012985
# 6 -0.011377 0.002256 0.001717 0.008230 -0.012985 0.039701
#
#
# Mechanical properties :
#
#
# Convention : Reuss Voigt Hill
#
# Bulk Modulus (GPa) = 44.38426 53.23963 48.81194
# Shear Modulus (GPa) = 29.05095 38.61899 33.83497
#
# Velocity S-wave (km/s) = 3.39833 3.91820 3.66749
# Velocity P-wave (km/s) = 5.74825 6.45245 6.11050
#
# Compressibility (1/GPa) = 0.02253051
#
# Stress axis : x y z
#
# Youngs Moduli (GPa) = 65.70427 94.08427 93.23241
#
# Poissons Ratio (x) = 0.46359 0.26093
# Poissons Ratio (y) = 0.32375 -0.06566
# Poissons Ratio (z) = 0.18389 -0.06625
#
# Static dielectric constant tensor:
#      x y z
#    x 2.159380 0.050170 -0.326170 
#    y 0.050170 2.165870 -0.311810 
#    z -0.326170 -0.311810 2.647280 
# 
# From -- ./inp_files/369490.got.cif
#   From: 2010.05.17/outbox.cif.g08.bks.cpg/sg2_185_cif.got.tgz:369490.got - 2010.06.03 11:33:40.
