data_PCOD9033344
_publ_section_title
;
Structure prediction by ZEFSAII (Michael W. Deem and Ramdas Pophale) SiO2 
 PCOD9033344
Probable space group: P -1
;
_chemical_formula_sum "Si O2"
_cell_formula_units_Z 16
_cell_length_a 17.262111
_cell_length_b 9.220457
_cell_length_c 8.374026
_cell_angle_alpha 119.292734
_cell_angle_beta 51.006563
_cell_angle_gamma 85.360006
_cell_volume 740.094042
_symmetry_space_group_name_H-M "P -1"
_symmetry_group_IT_number 2
_symmetry_cell_setting 'triclinic'
loop_
_space_group_symop_operation_xyz
x,y,z
-x,-y,-z
loop_
_atom_site_type_symbol
_atom_site_label
_atom_site_fract_x
_atom_site_fract_y
_atom_site_fract_z
Si Si1 0.503352 0.738151 0.976550
Si Si2 0.625118 0.277664 0.557501
Si Si3 0.313801 0.154653 0.273211
Si Si4 0.228125 0.981338 0.049775
Si Si5 0.890543 0.211217 0.832731
Si Si6 0.113093 0.416914 0.929908
Si Si7 0.022764 0.310234 0.275335
Si Si8 0.877687 0.215615 0.231430
O O1 0.545074 0.515937 0.745225
O O2 0.618780 0.751227 0.838236
O O3 0.440731 0.763709 0.242153
O O4 0.410944 0.924207 0.082132
O O5 0.752989 0.236005 0.430972
O O6 0.661252 0.134879 0.280258
O O7 0.234172 0.286500 0.598083
O O8 0.232646 0.132499 0.240888
O O9 0.105631 0.115225 0.174720
O O10 0.220638 0.811030 0.057859
O O11 0.889841 0.401631 0.878618
O O12 0.889640 0.244183 0.043589
O O13 0.000000 0.000000 0.500000
O O14 0.101501 0.282925 0.002541
O O15 0.000000 0.500000 0.000000
O O16 0.000000 0.500000 0.500000
O O17 0.897177 0.354072 0.396035
O O18 0.000000 0.000000 0.000000
#
# Coordination Sequence:
#
# PCOD9033344 Si02
#       8
#     2   2   2   2   2   2   2   2
#     4  10  24  45  70  87 125 177 225 262 327 373
#     4  10  22  44  67  96 124 173 218 267 318 389
#     4  11  24  44  67  95 127 174 215 277 323 374
#     4  11  24  40  64  94 134 165 222 267 318 393
#     4  11  22  38  58  95 135 172 204 253 321 396
#     4  12  24  39  66  96 135 170 209 266 329 385
#     4  12  24  39  60 102 137 172 205 257 332 399
#     4  11  22  39  68  94 136 168 205 264 325 394
#
# _framework density 21.618873000000001
#
# number of rings (size 3 to 8) (size 9 to 14) (size 15 to 20)
#    0.000    1.000    3.750    4.500    1.750    1.000 
#    0.000    0.000    0.000    0.000    0.000    0.000 
#    0.000    0.000    0.000    0.000    0.000    0.000 
#
# Total GULP energy -89369.723183 kJ/mol
# GULP energy per Si atom -5585.607699 kJ/mol
# Density = 2.156967 g / cm^3
# Si number density = 21.618873 Si / 1000 Ang^3
#
#
#
# Elastic Constant Matrix: (Units=GPa)
#
#
# Indices 1 2 3 4 5 6 
#
# 1 66.1674 16.7145 11.3397 -3.9758 6.1975 16.5202
# 2 16.7145 106.2375 15.8815 -12.8258 -6.4442 12.9473
# 3 11.3397 15.8815 99.3294 -9.7538 3.0223 8.2084
# 4 -3.9758 -12.8258 -9.7538 42.7065 8.2032 -4.5649
# 5 6.1975 -6.4442 3.0223 8.2032 32.3942 6.3972
# 6 16.5202 12.9473 8.2084 -4.5649 6.3972 25.5710
#
#
#
# Elastic Compliance Matrix: (Units=1/GPa)
#
#
# Indices 1 2 3 4 5 6 
#
# 1 0.018429 -0.001581 -0.000918 0.000272 -0.001786 -0.010316
# 2 -0.001581 0.010770 -0.001084 0.001784 0.002985 -0.004512
# 3 -0.000918 -0.001084 0.010724 0.002107 -0.001256 -0.001610
# 4 0.000272 0.001784 0.002107 0.026425 -0.007543 0.004849
# 5 -0.001786 0.002985 -0.001256 -0.007543 0.035861 -0.010272
# 6 -0.010316 -0.004512 -0.001610 0.004849 -0.010272 0.052008
#
#
# Mechanical properties :
#
#
# Convention : Reuss Voigt Hill
#
# Bulk Modulus (GPa) = 30.52720 39.95621 35.24170
# Shear Modulus (GPa) = 29.01879 35.32091 32.16985
#
# Velocity S-wave (km/s) = 3.66770 4.04641 3.86170
# Velocity P-wave (km/s) = 5.66457 6.35244 6.01834
#
# Compressibility (1/GPa) = 0.03275767
#
# Stress axis : x y z
#
# Youngs Moduli (GPa) = 54.26240 92.85031 93.25005
#
# Poissons Ratio (x) = 0.14676 0.08557
# Poissons Ratio (y) = 0.08577 0.10111
# Poissons Ratio (z) = 0.04979 0.10068
#
# Static dielectric constant tensor:
#      x y z
#    x 1.796690 0.025740 0.011170 
#    y 0.025740 1.851990 0.031800 
#    z 0.011170 0.031800 1.810880 
# 
# From -- ./inp_files/245519.got.cif
#   From: 2010.05.17/outbox.cif.g08.bks.cpg/sg2_123_cif.got.tgz:245519.got - 2010.06.03 11:33:40.
