data_PCOD9033523
_publ_section_title
;
Structure prediction by ZEFSAII (Michael W. Deem and Ramdas Pophale) SiO2 
 PCOD9033523
Probable space group: P -1
;
_chemical_formula_sum "Si O2"
_cell_formula_units_Z 14
_cell_length_a 14.091779
_cell_length_b 9.060716
_cell_length_c 14.584755
_cell_angle_alpha 121.417768
_cell_angle_beta 28.504085
_cell_angle_gamma 102.758555
_cell_volume 616.421952
_symmetry_space_group_name_H-M "P -1"
_symmetry_group_IT_number 2
_symmetry_cell_setting 'triclinic'
loop_
_space_group_symop_operation_xyz
x,y,z
-x,-y,-z
loop_
_atom_site_type_symbol
_atom_site_label
_atom_site_fract_x
_atom_site_fract_y
_atom_site_fract_z
Si Si1 0.549282 0.248612 0.070394
Si Si2 0.330982 0.754706 0.724580
Si Si3 0.892829 0.359845 0.374038
Si Si4 0.603608 0.902524 0.201730
Si Si5 0.855904 0.769277 0.684278
Si Si6 0.325652 0.500355 0.074319
Si Si7 0.223404 0.951858 0.676467
O O1 0.337943 0.403374 0.372027
O O2 0.383945 0.228191 0.128577
O O3 0.657617 0.374093 0.983538
O O4 0.757261 0.014015 0.848410
O O5 0.500000 0.500000 0.500000
O O6 0.304096 0.846302 0.674237
O O7 0.418319 0.887254 0.746182
O O8 0.056200 0.840763 0.015863
O O9 0.796371 0.215745 0.416711
O O10 0.011607 0.332063 0.364552
O O11 0.101339 0.260727 0.087584
O O12 0.420040 0.968490 0.462855
O O13 0.578921 0.741033 0.108489
O O14 0.053050 0.648718 0.396269
O O15 0.500000 0.500000 0.000000
#
# Coordination Sequence:
#
# PCOD9033523 Si02
#       7
#     2   2   2   2   2   2   2
#     4  11  22  37  60  87 127 174 221 264 307 367
#     4  10  24  45  72  94 123 160 211 270 327 391
#     4  11  21  39  63  89 129 170 214 261 317 378
#     4  11  22  39  67  95 127 169 210 259 324 379
#     4  11  23  38  59  90 131 175 221 262 309 367
#     4  12  21  38  65  90 132 177 215 258 313 378
#     4  10  22  44  68  93 126 162 206 267 332 383
#
# _framework density 22.711715000000002
#
# number of rings (size 3 to 8) (size 9 to 14) (size 15 to 20)
#    0.000    1.143    4.286    2.143    0.000    2.857 
#    0.000    1.429    6.286    0.000    0.000    0.000 
#    0.000    0.000    0.000    0.000    0.000    0.000 
#
# Total GULP energy -78078.995023 kJ/mol
# GULP energy per Si atom -5577.071073 kJ/mol
# Density = 2.266002 g / cm^3
# Si number density = 22.711715 Si / 1000 Ang^3
#
#
#
# Elastic Constant Matrix: (Units=GPa)
#
#
# Indices 1 2 3 4 5 6 
#
# 1 39.8113 34.7979 25.6900 3.0201 1.8719 9.8940
# 2 34.7979 136.6264 103.7162 11.4163 -1.0832 19.4849
# 3 25.6900 103.7162 207.5881 7.8146 8.2503 -10.4947
# 4 3.0201 11.4163 7.8146 66.5632 0.6307 2.4970
# 5 1.8719 -1.0832 8.2503 0.6307 20.2539 3.6491
# 6 9.8940 19.4849 -10.4947 2.4970 3.6491 32.5126
#
#
#
# Elastic Compliance Matrix: (Units=1/GPa)
#
#
# Indices 1 2 3 4 5 6 
#
# 1 0.033389 -0.007026 -0.000845 0.000034 -0.002038 -0.005996
# 2 -0.007026 0.017692 -0.008824 -0.001298 0.007400 -0.012044
# 3 -0.000845 -0.008824 0.010053 0.000075 -0.006199 0.009481
# 4 0.000034 -0.001298 0.000075 0.015253 -0.000520 -0.000321
# 5 -0.002038 0.007400 -0.006199 -0.000520 0.054644 -0.011909
# 6 -0.005996 -0.012044 0.009481 -0.000321 -0.011909 0.044222
#
#
# Mechanical properties :
#
#
# Convention : Reuss Voigt Hill
#
# Bulk Modulus (GPa) = 36.04421 79.15933 57.60177
# Shear Modulus (GPa) = 22.94727 38.52073 30.73400
#
# Velocity S-wave (km/s) = 3.18208 4.12281 3.68261
# Velocity P-wave (km/s) = 5.42270 7.58901 6.59540
#
# Compressibility (1/GPa) = 0.02774371
#
# Stress axis : x y z
#
# Youngs Moduli (GPa) = 29.95022 56.52264 99.46949
#
# Poissons Ratio (x) = 0.39715 0.08404
# Poissons Ratio (y) = 0.21044 0.87772
# Poissons Ratio (z) = 0.02530 0.49875
#
# Static dielectric constant tensor:
#      x y z
#    x 1.953570 0.064480 0.059430 
#    y 0.064480 1.878110 -0.011800 
#    z 0.059430 -0.011800 1.876480 
# 
# From -- ./inp_files/528873.got.cif
#   From: 2010.05.17/outbox.cif.g08.bks.cpg/sg2_265_cif.got.tgz:528873.got - 2010.06.03 11:33:40.
