data_PCOD9033203
_publ_section_title
;
Structure prediction by ZEFSAII (Michael W. Deem and Ramdas Pophale) SiO2 
 PCOD9033203
Probable space group: P -1
;
_chemical_formula_sum "Si O2"
_cell_formula_units_Z 16
_cell_length_a 19.326029
_cell_length_b 8.097348
_cell_length_c 11.739938
_cell_angle_alpha 56.067565
_cell_angle_beta 42.325884
_cell_angle_gamma 32.632480
_cell_volume 656.502801
_symmetry_space_group_name_H-M "P -1"
_symmetry_group_IT_number 2
_symmetry_cell_setting 'triclinic'
loop_
_space_group_symop_operation_xyz
x,y,z
-x,-y,-z
loop_
_atom_site_type_symbol
_atom_site_label
_atom_site_fract_x
_atom_site_fract_y
_atom_site_fract_z
Si Si1 0.092769 0.533713 0.041122
Si Si2 0.203576 0.662384 0.287758
Si Si3 0.427760 0.033833 0.909238
Si Si4 0.619564 0.289004 0.827951
Si Si5 0.674735 0.491009 0.485252
Si Si6 0.849718 0.567931 0.389164
Si Si7 0.472414 0.770778 0.411453
Si Si8 0.005154 0.951982 0.192324
O O1 0.071100 0.690195 0.125199
O O2 0.983124 0.502274 0.192152
O O3 0.282304 0.200375 0.934114
O O4 0.031196 0.784256 0.927404
O O5 0.223002 0.840574 0.262231
O O6 0.101188 0.653080 0.484145
O O7 0.130874 0.794891 0.201274
O O8 0.385463 0.301704 0.208259
O O9 0.442885 0.250020 0.792143
O O10 0.378771 0.951688 0.100777
O O11 0.585966 0.472766 0.687392
O O12 0.500000 0.500000 0.000000
O O13 0.755019 0.558466 0.424705
O O14 0.559369 0.731672 0.432341
O O15 0.831081 0.146479 0.376832
O O16 0.715577 0.911604 0.472976
O O17 0.500000 0.500000 0.500000
#
# Coordination Sequence:
#
# PCOD9033203 Si02
#       8
#     2   2   2   2   2   2   2   2
#     4  11  25  44  65  98 141 177 227 284 332 406
#     4   9  22  43  66  97 134 178 225 282 337 401
#     4  10  22  44  66  96 135 176 225 276 333 397
#     4   9  21  42  66  97 134 169 222 284 330 394
#     4  11  23  43  69 101 134 180 225 279 343 402
#     4  10  24  40  70  99 131 177 229 282 334 405
#     4  11  23  45  69  98 141 179 223 275 346 404
#     4  11  25  42  65  95 141 177 228 276 347 390
#
# _framework density 24.371565
#
# number of rings (size 3 to 8) (size 9 to 14) (size 15 to 20)
#    0.000    1.750    1.250    1.875    5.250    5.500 
#    4.500    0.000    0.000    0.000    0.000    0.000 
#    0.000    0.000    0.000    0.000    0.000    0.000 
#
# Total GULP energy -89274.821657 kJ/mol
# GULP energy per Si atom -5579.676354 kJ/mol
# Density = 2.431609 g / cm^3
# Si number density = 24.371565 Si / 1000 Ang^3
#
#
#
# Elastic Constant Matrix: (Units=GPa)
#
#
# Indices 1 2 3 4 5 6 
#
# 1 75.3190 23.0563 32.1367 -11.1712 -3.7464 -14.3937
# 2 23.0563 103.1367 48.9426 8.8044 -20.5644 -14.6909
# 3 32.1367 48.9426 145.2742 -13.6027 -31.4318 -4.4723
# 4 -11.1712 8.8044 -13.6027 38.0430 4.9490 -8.7941
# 5 -3.7464 -20.5644 -31.4318 4.9490 38.5486 -5.9756
# 6 -14.3937 -14.6909 -4.4723 -8.7941 -5.9756 35.5254
#
#
#
# Elastic Compliance Matrix: (Units=1/GPa)
#
#
# Indices 1 2 3 4 5 6 
#
# 1 0.017373 -0.002567 -0.002449 0.006641 -0.001434 0.007072
# 2 -0.002567 0.013964 -0.003207 -0.004948 0.005854 0.004090
# 3 -0.002449 -0.003207 0.010113 0.003021 0.006020 0.000715
# 4 0.006641 -0.004948 0.003021 0.032793 -0.002386 0.008741
# 5 -0.001434 0.005854 0.006020 -0.002386 0.035373 0.007957
# 6 0.007072 0.004090 0.000715 0.008741 0.007957 0.036298
#
#
# Mechanical properties :
#
#
# Convention : Reuss Voigt Hill
#
# Bulk Modulus (GPa) = 39.99535 59.11124 49.55329
# Shear Modulus (GPa) = 29.29191 37.06301 33.17746
#
# Velocity S-wave (km/s) = 3.47059 3.90391 3.69361
# Velocity P-wave (km/s) = 5.70143 6.68038 6.21022
#
# Compressibility (1/GPa) = 0.02500291
#
# Stress axis : x y z
#
# Youngs Moduli (GPa) = 57.56149 71.61206 98.87953
#
# Poissons Ratio (x) = 0.18384 0.24216
# Poissons Ratio (y) = 0.14777 0.31715
# Poissons Ratio (z) = 0.14097 0.22969
#
# Static dielectric constant tensor:
#      x y z
#    x 1.989680 0.074960 0.026350 
#    y 0.074960 1.999820 0.019140 
#    z 0.026350 0.019140 1.982080 
# 
# From -- ./inp_files/469829.got.cif
#   From: 2010.05.17/outbox.cif.g08.bks.cpg/sg2_235_cif.got.tgz:469829.got - 2010.06.03 11:33:40.
