data_PCOD9033868
_publ_section_title
;
Structure prediction by ZEFSAII (Michael W. Deem and Ramdas Pophale) SiO2 
 PCOD9033868
Probable space group: P -1
;
_chemical_formula_sum "Si O2"
_cell_formula_units_Z 8
_cell_length_a 12.498197
_cell_length_b 5.503386
_cell_length_c 5.503385
_cell_angle_alpha 56.845163
_cell_angle_beta 94.569809
_cell_angle_gamma 118.600741
_cell_volume 269.561724
_symmetry_space_group_name_H-M "P -1"
_symmetry_group_IT_number 2
_symmetry_cell_setting 'triclinic'
loop_
_space_group_symop_operation_xyz
x,y,z
-x,-y,-z
loop_
_atom_site_type_symbol
_atom_site_label
_atom_site_fract_x
_atom_site_fract_y
_atom_site_fract_z
Si Si1 0.330526 0.176664 0.937793
Si Si2 0.830527 0.598848 0.515612
Si Si3 0.102429 0.418860 0.960327
Si Si4 0.397571 0.834813 0.785999
O O1 0.267562 0.310032 0.662283
O O2 0.377761 0.458599 0.002392
O O3 0.428977 0.112572 0.849042
O O4 0.232438 0.802591 0.225091
O O5 0.928977 0.706996 0.254619
O O6 0.877762 0.757916 0.703078
O O7 0.250000 0.720350 0.779648
O O8 0.000000 0.500000 0.000000
O O9 0.500000 0.000000 0.500000
#
# Coordination Sequence:
#
# PCOD9033868 Si02
#       4
#     2   2   2   2
#     4  10  23  44  71 106 143 188 239 298 359 428
#     4  10  23  44  71 106 143 188 239 298 359 428
#     4  10  22  44  70 104 142 188 238 296 358 428
#     4  10  22  44  70 104 142 188 238 296 358 428
#
# _framework density 29.677803000000001
#
# number of rings (size 3 to 8) (size 9 to 14) (size 15 to 20)
#    0.000    2.000    0.000    1.500    0.000   18.000 
#    0.000   82.500    0.000    0.000    0.000    0.000 
#    0.000    0.000    0.000    0.000    0.000    0.000 
#
# Total GULP energy -44674.596201 kJ/mol
# GULP energy per Si atom -5584.324525 kJ/mol
# Density = 2.961026 g / cm^3
# Si number density = 29.677803 Si / 1000 Ang^3
#
#
#
# Elastic Constant Matrix: (Units=GPa)
#
#
# Indices 1 2 3 4 5 6 
#
# 1 216.0641 58.6770 65.2122 15.4228 -2.8319 -40.7664
# 2 58.6770 263.1599 87.6327 23.9905 -3.4325 -26.2985
# 3 65.2122 87.6327 223.9744 21.4112 -24.4785 -1.8855
# 4 15.4228 23.9905 21.4112 84.9028 0.0190 -9.9682
# 5 -2.8319 -3.4325 -24.4785 0.0190 89.9915 10.0781
# 6 -40.7664 -26.2985 -1.8855 -9.9682 10.0781 72.4027
#
#
#
# Elastic Compliance Matrix: (Units=1/GPa)
#
#
# Indices 1 2 3 4 5 6 
#
# 1 0.005811 -0.000465 -0.001533 -0.000171 -0.000602 0.003123
# 2 -0.000465 0.004644 -0.001656 -0.000651 -0.000439 0.001353
# 3 -0.001533 -0.001656 0.005814 -0.000916 0.001657 -0.001670
# 4 -0.000171 -0.000651 -0.000916 0.012390 -0.000440 0.001411
# 5 -0.000602 -0.000439 0.001657 -0.000440 0.011769 -0.002154
# 6 0.003123 0.001353 -0.001670 0.001411 -0.002154 0.016512
#
#
# Mechanical properties :
#
#
# Convention : Reuss Voigt Hill
#
# Bulk Modulus (GPa) = 111.60592 125.13802 118.37197
# Shear Modulus (GPa) = 74.36684 82.23785 78.30235
#
# Velocity S-wave (km/s) = 5.01123 5.26976 5.14212
# Velocity P-wave (km/s) = 8.43628 8.90417 8.67338
#
# Compressibility (1/GPa) = 0.00896010
#
# Stress axis : x y z
#
# Youngs Moduli (GPa) = 172.09144 215.33107 172.00862
#
# Poissons Ratio (x) = 0.10021 0.26368
# Poissons Ratio (y) = 0.08009 0.28483
# Poissons Ratio (z) = 0.26381 0.35657
#
# Static dielectric constant tensor:
#      x y z
#    x 2.355660 0.197880 0.025910 
#    y 0.197880 2.683440 0.113870 
#    z 0.025910 0.113870 2.256800 
# 
# From -- ./inp_files/6042.got.cif
#   From: 2010.05.17/outbox.cif.g08.bks.cpg/sg2_4_cif.got.tgz:6042.got - 2010.06.03 11:33:40.
