data_PCOD9033770
_publ_section_title
;
Structure prediction by ZEFSAII (Michael W. Deem and Ramdas Pophale) SiO2 
 PCOD9033770
Probable space group: P -1
;
_chemical_formula_sum "Si O2"
_cell_formula_units_Z 16
_cell_length_a 14.665192
_cell_length_b 9.469784
_cell_length_c 22.496282
_cell_angle_alpha 45.587773
_cell_angle_beta 150.082862
_cell_angle_gamma 151.946174
_cell_volume 704.031376
_symmetry_space_group_name_H-M "P -1"
_symmetry_group_IT_number 2
_symmetry_cell_setting 'triclinic'
loop_
_space_group_symop_operation_xyz
x,y,z
-x,-y,-z
loop_
_atom_site_type_symbol
_atom_site_label
_atom_site_fract_x
_atom_site_fract_y
_atom_site_fract_z
Si Si1 0.270472 0.332344 0.473059
Si Si2 0.859987 0.689449 0.263647
Si Si3 0.811899 0.361989 0.076496
Si Si4 0.225841 0.368506 0.634132
Si Si5 0.773135 0.602336 0.742395
Si Si6 0.845967 0.685997 0.889519
Si Si7 0.787261 0.732548 0.009815
Si Si8 0.795861 0.366247 0.568709
O O1 0.500000 0.500000 0.500000
O O2 0.435307 0.343430 0.614136
O O3 0.225622 0.511053 0.422382
O O4 0.974215 0.988172 0.386602
O O5 0.856211 0.617702 0.351535
O O6 0.541394 0.497553 0.124571
O O7 0.956321 0.590932 0.305462
O O8 0.083812 0.059876 0.278607
O O9 0.059167 0.403781 0.204927
O O10 0.850562 0.530222 0.990193
O O11 0.825974 0.529404 0.089138
O O12 0.500000 0.000000 0.000000
O O13 0.556610 0.575531 0.763072
O O14 0.174378 0.472118 0.520286
O O15 0.832856 0.578297 0.849479
O O16 0.111676 0.061054 0.936566
O O17 0.000000 0.000000 0.000000
O O18 0.500000 0.000000 0.500000
#
# Coordination Sequence:
#
# PCOD9033770 Si02
#       8
#     2   2   2   2   2   2   2   2
#     4  12  26  47  72 101 140 185 234 288 352 416
#     4  12  23  46  71 101 143 181 230 291 344 415
#     4  11  22  44  71  99 134 184 230 280 349 407
#     4  12  23  46  72  98 143 181 227 294 342 414
#     4  12  24  46  68 100 144 178 233 290 342 416
#     4  11  24  45  69  99 143 179 230 290 341 412
#     4  10  22  44  69  98 136 177 235 279 346 409
#     4  12  25  46  70 106 140 183 233 285 357 416
#
# _framework density 22.726258999999999
#
# number of rings (size 3 to 8) (size 9 to 14) (size 15 to 20)
#    0.000    0.500    7.500    1.125    0.000    2.500 
#    9.000    0.000    0.000    0.000    0.000    0.000 
#    0.000    0.000    0.000    0.000    0.000    0.000 
#
# Total GULP energy -89552.552337 kJ/mol
# GULP energy per Si atom -5597.034521 kJ/mol
# Density = 2.267453 g / cm^3
# Si number density = 22.726259 Si / 1000 Ang^3
#
#
#
# Elastic Constant Matrix: (Units=GPa)
#
#
# Indices 1 2 3 4 5 6 
#
# 1 113.8699 31.0153 18.2277 -9.7701 7.5197 -28.6488
# 2 31.0153 87.3572 8.5296 -0.0281 1.8859 -19.2140
# 3 18.2277 8.5296 65.0592 0.2841 11.8529 -20.3780
# 4 -9.7701 -0.0281 0.2841 41.5188 -8.9833 -0.9693
# 5 7.5197 1.8859 11.8529 -8.9833 44.0742 -10.3225
# 6 -28.6488 -19.2140 -20.3780 -0.9693 -10.3225 43.0086
#
#
#
# Elastic Compliance Matrix: (Units=1/GPa)
#
#
# Indices 1 2 3 4 5 6 
#
# 1 0.011423 -0.002616 -0.001037 0.002940 0.000477 0.006130
# 2 -0.002616 0.013327 0.000257 -0.000330 0.000798 0.004517
# 3 -0.001037 0.000257 0.018547 -0.000906 -0.003272 0.007406
# 4 0.002940 -0.000330 -0.000906 0.026133 0.005874 0.003380
# 5 0.000477 0.000798 -0.003272 0.005874 0.025934 0.005480
# 6 0.006130 0.004517 0.007406 0.003380 0.005480 0.034253
#
#
# Mechanical properties :
#
#
# Convention : Reuss Voigt Hill
#
# Bulk Modulus (GPa) = 27.39325 42.42574 34.90949
# Shear Modulus (GPa) = 33.65206 39.62124 36.63665
#
# Velocity S-wave (km/s) = 3.85223 4.17995 4.01943
# Velocity P-wave (km/s) = 5.64500 6.48110 6.07744
#
# Compressibility (1/GPa) = 0.03650535
#
# Stress axis : x y z
#
# Youngs Moduli (GPa) = 87.53947 75.03550 53.91599
#
# Poissons Ratio (x) = 0.19626 0.05592
# Poissons Ratio (y) = 0.22896 -0.01383
# Poissons Ratio (z) = 0.09080 -0.01925
#
# Static dielectric constant tensor:
#      x y z
#    x 1.920950 0.005780 -0.040150 
#    y 0.005780 1.822700 -0.020070 
#    z -0.040150 -0.020070 1.819180 
# 
# From -- ./inp_files/240952.got.cif
#   From: 2010.05.17/outbox.cif.g08.bks.cpg/sg2_121_cif.got.tgz:240952.got - 2010.06.03 11:33:40.
