data_PCOD9033629
_publ_section_title
;
Structure prediction by ZEFSAII (Michael W. Deem and Ramdas Pophale) SiO2 
 PCOD9033629
Probable space group: P -1
;
_chemical_formula_sum "Si O2"
_cell_formula_units_Z 16
_cell_length_a 13.551378
_cell_length_b 5.590445
_cell_length_c 17.412046
_cell_angle_alpha 85.697092
_cell_angle_beta 148.748662
_cell_angle_gamma 104.836620
_cell_volume 633.716864
_symmetry_space_group_name_H-M "P -1"
_symmetry_group_IT_number 2
_symmetry_cell_setting 'triclinic'
loop_
_space_group_symop_operation_xyz
x,y,z
-x,-y,-z
loop_
_atom_site_type_symbol
_atom_site_label
_atom_site_fract_x
_atom_site_fract_y
_atom_site_fract_z
Si Si1 0.713345 0.051935 0.999189
Si Si2 0.455174 0.503126 0.670863
Si Si3 0.091246 0.955440 0.429522
Si Si4 0.585706 0.780312 0.590233
Si Si5 0.121552 0.544944 0.003465
Si Si6 0.739672 0.177362 0.170855
Si Si7 0.980472 0.185307 0.780478
Si Si8 0.727190 0.271102 0.319644
O O1 0.794491 0.259574 0.117105
O O2 0.792586 0.825977 0.077442
O O3 0.813870 0.159725 0.983583
O O4 0.475612 0.976481 0.828571
O O5 0.291533 0.220681 0.545582
O O6 0.523042 0.705101 0.639683
O O7 0.667889 0.497254 0.843450
O O8 0.344714 0.576842 0.667965
O O9 0.086157 0.793715 0.351982
O O10 0.889569 0.027749 0.295522
O O11 0.115277 0.822382 0.528169
O O12 0.500000 0.500000 0.500000
O O13 0.820946 0.912911 0.715011
O O14 0.500000 0.000000 0.500000
O O15 0.000000 0.500000 0.000000
O O16 0.987659 0.374717 0.849882
O O17 0.772174 0.371187 0.259300
O O18 0.500000 0.000000 0.000000
#
# Coordination Sequence:
#
# PCOD9033629 Si02
#       8
#     2   2   2   2   2   2   2   2
#     4  10  22  44  69 100 146 185 241 305 374 451
#     4  12  26  43  69 106 142 192 248 307 373 447
#     4  11  23  44  74 101 143 185 238 301 381 448
#     4  12  28  46  70 108 152 200 256 313 380 454
#     4  12  27  43  72 105 144 193 252 307 374 448
#     4   9  22  43  72 104 138 188 238 299 379 456
#     4  11  25  44  70 100 142 196 242 307 373 447
#     4  11  22  44  70 101 145 184 240 311 373 446
#
# _framework density 25.247865999999998
#
# number of rings (size 3 to 8) (size 9 to 14) (size 15 to 20)
#    0.000    1.000    3.750    1.875    5.250    3.500 
#    0.000    3.125    0.000    0.000    0.000    0.000 
#    0.000    0.000    0.000    0.000    0.000    0.000 
#
# Total GULP energy -89330.066798 kJ/mol
# GULP energy per Si atom -5583.129175 kJ/mol
# Density = 2.519040 g / cm^3
# Si number density = 25.247866 Si / 1000 Ang^3
#
#
#
# Elastic Constant Matrix: (Units=GPa)
#
#
# Indices 1 2 3 4 5 6 
#
# 1 128.0357 5.4619 36.5546 18.0665 -33.7389 -8.3462
# 2 5.4619 46.5954 32.5225 5.2922 -12.2298 -6.0122
# 3 36.5546 32.5225 150.3701 8.9311 -6.4878 -12.4647
# 4 18.0665 5.2922 8.9311 30.3460 -10.7900 0.5046
# 5 -33.7389 -12.2298 -6.4878 -10.7900 59.0865 2.5497
# 6 -8.3462 -6.0122 -12.4647 0.5046 2.5497 33.5966
#
#
#
# Elastic Compliance Matrix: (Units=1/GPa)
#
#
# Indices 1 2 3 4 5 6 
#
# 1 0.010551 0.002649 -0.002509 -0.004089 0.005472 0.001810
# 2 0.002649 0.027539 -0.005945 -0.002558 0.005965 0.002966
# 3 -0.002509 -0.005945 0.008645 -0.000724 -0.001918 0.001677
# 4 -0.004089 -0.002558 -0.000724 0.037520 0.004020 -0.002611
# 5 0.005472 0.005965 -0.001918 0.004020 0.021807 0.000000
# 6 0.001810 0.002966 0.001677 -0.002611 0.000000 0.031407
#
#
# Mechanical properties :
#
#
# Convention : Reuss Voigt Hill
#
# Bulk Modulus (GPa) = 28.46980 52.67547 40.57264
# Shear Modulus (GPa) = 31.09701 41.30328 36.20014
#
# Velocity S-wave (km/s) = 3.51332 4.04903 3.79065
# Velocity P-wave (km/s) = 5.26863 6.53974 5.93829
#
# Compressibility (1/GPa) = 0.03512493
#
# Stress axis : x y z
#
# Youngs Moduli (GPa) = 94.78126 36.31193 115.67210
#
# Poissons Ratio (x) = -0.09617 0.29018
# Poissons Ratio (y) = -0.25104 0.68766
# Poissons Ratio (z) = 0.23777 0.21587
#
# Static dielectric constant tensor:
#      x y z
#    x 2.075090 0.010400 0.037910 
#    y 0.010400 1.977610 0.001230 
#    z 0.037910 0.001230 1.967660 
# 
# From -- ./inp_files/46213.got.cif
#   From: 2010.05.17/outbox.cif.g08.bks.cpg/sg2_24_cif.got.tgz:46213.got - 2010.06.03 11:33:40.
