data_PCOD9033705
_publ_section_title
;
Structure prediction by ZEFSAII (Michael W. Deem and Ramdas Pophale) SiO2 
 PCOD9033705
Probable space group: P -1
;
_chemical_formula_sum "Si O2"
_cell_formula_units_Z 16
_cell_length_a 11.810116
_cell_length_b 6.772401
_cell_length_c 14.481484
_cell_angle_alpha 92.125963
_cell_angle_beta 134.503860
_cell_angle_gamma 104.342291
_cell_volume 762.206680
_symmetry_space_group_name_H-M "P -1"
_symmetry_group_IT_number 2
_symmetry_cell_setting 'triclinic'
loop_
_space_group_symop_operation_xyz
x,y,z
-x,-y,-z
loop_
_atom_site_type_symbol
_atom_site_label
_atom_site_fract_x
_atom_site_fract_y
_atom_site_fract_z
Si Si1 0.487766 0.612798 0.750641
Si Si2 0.844658 0.315692 0.856393
Si Si3 0.496957 0.674356 0.076334
Si Si4 0.881365 0.930211 0.296951
Si Si5 0.685986 0.070688 0.940026
Si Si6 0.977585 0.013302 0.811434
Si Si7 0.664826 0.585330 0.662268
Si Si8 0.097283 0.352976 0.521682
O O1 0.514023 0.447245 0.834911
O O2 0.606802 0.645112 0.729653
O O3 0.289460 0.503239 0.605152
O O4 0.536457 0.836879 0.836263
O O5 0.713522 0.184866 0.858334
O O6 0.749079 0.413773 0.731533
O O7 0.927701 0.166590 0.852491
O O8 0.000000 0.500000 0.000000
O O9 0.679250 0.869531 0.170202
O O10 0.356481 0.780285 0.006729
O O11 0.500000 0.500000 0.000000
O O12 0.893582 0.787643 0.387234
O O13 0.961816 0.875407 0.250485
O O14 0.988401 0.178920 0.382165
O O15 0.860760 0.036981 0.061479
O O16 0.812029 0.793804 0.707492
O O17 0.500000 0.500000 0.500000
O O18 0.000000 0.500000 0.500000
#
# Coordination Sequence:
#
# PCOD9033705 Si02
#       8
#     2   2   2   2   2   2   2   2
#     4  11  23  43  67  98 138 178 232 292 348 413
#     4  12  25  46  72  99 139 192 232 287 355 417
#     4  11  25  42  68 102 137 179 234 293 350 415
#     4  10  24  42  63 100 135 176 227 285 343 419
#     4  12  24  43  73 100 138 183 233 290 354 419
#     4  12  26  43  71 105 142 176 237 288 350 427
#     4  12  26  45  69 105 140 187 235 287 353 421
#     4  10  22  44  69  90 134 184 230 276 350 411
#
# _framework density 20.991681
#
# number of rings (size 3 to 8) (size 9 to 14) (size 15 to 20)
#    0.000    0.750    3.750    3.375    1.750    6.500 
#    2.250    0.000    0.000    0.000    0.000    0.000 
#    0.000    0.000    0.000    0.000    0.000    0.000 
#
# Total GULP energy -89476.255469 kJ/mol
# GULP energy per Si atom -5592.265967 kJ/mol
# Density = 2.094390 g / cm^3
# Si number density = 20.991681 Si / 1000 Ang^3
#
#
#
# Elastic Constant Matrix: (Units=GPa)
#
#
# Indices 1 2 3 4 5 6 
#
# 1 132.2640 41.0730 27.1882 3.6206 -0.5240 -20.4149
# 2 41.0730 85.7169 41.1248 19.2888 18.4123 -15.0429
# 3 27.1882 41.1248 101.8770 11.7740 15.0591 -15.1687
# 4 3.6206 19.2888 11.7740 29.7578 2.9310 2.2545
# 5 -0.5240 18.4123 15.0591 2.9310 32.8011 -0.3598
# 6 -20.4149 -15.0429 -15.1687 2.2545 -0.3598 56.2566
#
#
#
# Elastic Compliance Matrix: (Units=1/GPa)
#
#
# Indices 1 2 3 4 5 6 
#
# 1 0.009525 -0.004895 -0.000994 0.001954 0.003202 0.001822
# 2 -0.004895 0.020818 -0.004098 -0.010632 -0.008899 0.003054
# 3 -0.000994 -0.004098 0.012783 -0.002103 -0.003373 0.002053
# 4 0.001954 -0.010632 -0.002103 0.041099 0.003245 -0.004327
# 5 0.003202 -0.008899 -0.003373 0.003245 0.036770 -0.002022
# 6 0.001822 0.003054 0.002053 -0.004327 -0.002022 0.019968
#
#
# Mechanical properties :
#
#
# Convention : Reuss Voigt Hill
#
# Bulk Modulus (GPa) = 43.19324 59.84776 51.52050
# Shear Modulus (GPa) = 29.64626 37.79455 33.72041
#
# Velocity S-wave (km/s) = 3.76212 4.24778 4.01230
# Velocity P-wave (km/s) = 6.28430 7.25467 6.78685
#
# Compressibility (1/GPa) = 0.02315177
#
# Stress axis : x y z
#
# Youngs Moduli (GPa) = 104.98155 48.03449 78.23008
#
# Poissons Ratio (x) = 0.23514 0.07775
# Poissons Ratio (y) = 0.51390 0.32062
# Poissons Ratio (z) = 0.10434 0.19687
#
# Static dielectric constant tensor:
#      x y z
#    x 1.748260 0.003810 -0.028010 
#    y 0.003810 1.752010 -0.002490 
#    z -0.028010 -0.002490 1.796960 
# 
# From -- ./inp_files/511036.got.cif
#   From: 2010.05.17/outbox.cif.g08.bks.cpg/sg2_256_cif.got.tgz:511036.got - 2010.06.03 11:33:40.
