data_PCOD9033732
_publ_section_title
;
Structure prediction by ZEFSAII (Michael W. Deem and Ramdas Pophale) SiO2 
 PCOD9033732
Probable space group: P -1
;
_chemical_formula_sum "Si O2"
_cell_formula_units_Z 14
_cell_length_a 16.854463
_cell_length_b 11.742573
_cell_length_c 6.352145
_cell_angle_alpha 73.752403
_cell_angle_beta 70.753725
_cell_angle_gamma 30.981674
_cell_volume 610.973245
_symmetry_space_group_name_H-M "P -1"
_symmetry_group_IT_number 2
_symmetry_cell_setting 'triclinic'
loop_
_space_group_symop_operation_xyz
x,y,z
-x,-y,-z
loop_
_atom_site_type_symbol
_atom_site_label
_atom_site_fract_x
_atom_site_fract_y
_atom_site_fract_z
Si Si1 0.211338 0.463566 0.041361
Si Si2 0.382105 0.629088 0.227776
Si Si3 0.412345 0.782432 0.460830
Si Si4 0.069741 0.182875 0.602871
Si Si5 0.369748 0.100552 0.409715
Si Si6 0.087522 0.478368 0.767428
Si Si7 0.877564 0.203631 0.844795
O O1 0.327449 0.240245 0.184574
O O2 0.234012 0.573594 0.035720
O O3 0.038898 0.645604 0.199445
O O4 0.189902 0.452375 0.825257
O O5 0.382989 0.752680 0.281745
O O6 0.448209 0.450522 0.422467
O O7 0.218718 0.778052 0.205347
O O8 0.500000 0.500000 0.000000
O O9 0.247008 0.953628 0.633493
O O10 0.427506 0.905014 0.376390
O O11 0.045642 0.300988 0.371350
O O12 0.980959 0.167015 0.626992
O O13 0.212064 0.273403 0.600818
O O14 0.500000 0.000000 0.500000
O O15 0.000000 0.500000 0.000000
O O16 0.000000 0.000000 0.000000
#
# Coordination Sequence:
#
# PCOD9033732 Si02
#       7
#     2   2   2   2   2   2   2
#     4   9  22  41  63 103 129 171 227 278 339 409
#     4  11  26  44  63  98 134 177 232 282 335 416
#     4  11  24  42  68  94 135 181 222 278 352 400
#     4   9  22  41  66  99 133 173 231 279 343 403
#     4  11  24  43  68 100 142 179 225 289 354 414
#     4  11  22  39  69  99 137 177 230 283 339 413
#     4  10  22  44  69  95 136 177 231 281 339 409
#
# _framework density 22.914259999999999
#
# number of rings (size 3 to 8) (size 9 to 14) (size 15 to 20)
#    0.857    0.857    0.000    3.429    2.000    6.857 
#    2.571    0.000    0.000    0.000    0.000    0.000 
#    0.000    0.000    0.000    0.000    0.000    0.000 
#
# Total GULP energy -78242.884960 kJ/mol
# GULP energy per Si atom -5588.777497 kJ/mol
# Density = 2.286211 g / cm^3
# Si number density = 22.914260 Si / 1000 Ang^3
#
#
#
# Elastic Constant Matrix: (Units=GPa)
#
#
# Indices 1 2 3 4 5 6 
#
# 1 140.3828 53.7495 28.8513 -11.8800 30.9430 13.9169
# 2 53.7495 94.8483 20.5759 -10.8462 18.3219 14.3618
# 3 28.8513 20.5759 54.5550 -7.2765 14.7084 15.9188
# 4 -11.8800 -10.8462 -7.2765 18.0561 -2.0309 7.0239
# 5 30.9430 18.3219 14.7084 -2.0309 44.1989 4.6582
# 6 13.9169 14.3618 15.9188 7.0239 4.6582 50.5241
#
#
#
# Elastic Compliance Matrix: (Units=1/GPa)
#
#
# Indices 1 2 3 4 5 6 
#
# 1 0.010547 -0.004031 -0.001921 0.003684 -0.004775 -0.001226
# 2 -0.004031 0.014811 -0.000833 0.007047 -0.002337 -0.003601
# 3 -0.001921 -0.000833 0.024877 0.010820 -0.005238 -0.008093
# 4 0.003684 0.007047 0.010820 0.072199 -0.004088 -0.016087
# 5 -0.004775 -0.002337 -0.005238 -0.004088 0.028325 0.001587
# 6 -0.001226 -0.003601 -0.008093 -0.016087 0.001587 0.025794
#
#
# Mechanical properties :
#
#
# Convention : Reuss Voigt Hill
#
# Bulk Modulus (GPa) = 27.27426 55.12662 41.20044
# Shear Modulus (GPa) = 24.71013 34.99643 29.85328
#
# Velocity S-wave (km/s) = 3.28742 3.91228 3.61338
# Velocity P-wave (km/s) = 5.13207 6.67217 5.95214
#
# Compressibility (1/GPa) = 0.03666461
#
# Stress axis : x y z
#
# Youngs Moduli (GPa) = 94.80953 67.51806 40.19706
#
# Poissons Ratio (x) = 0.27217 0.07722
# Poissons Ratio (y) = 0.38218 0.03350
# Poissons Ratio (z) = 0.18214 0.05627
#
# Static dielectric constant tensor:
#      x y z
#    x 1.925250 0.030040 -0.027850 
#    y 0.030040 1.882850 0.030680 
#    z -0.027850 0.030680 1.841440 
# 
# From -- ./inp_files/109669.got.cif
#   From: 2010.05.17/outbox.cif.g08.bks.cpg/sg2_55_cif.got.tgz:109669.got - 2010.06.03 11:33:40.
