data_PCOD9033841
_publ_section_title
;
Structure prediction by ZEFSAII (Michael W. Deem and Ramdas Pophale) SiO2 
 PCOD9033841
Probable space group: P -1
;
_chemical_formula_sum "Si O2"
_cell_formula_units_Z 14
_cell_length_a 15.203148
_cell_length_b 7.391664
_cell_length_c 8.466311
_cell_angle_alpha 127.446234
_cell_angle_beta 86.138474
_cell_angle_gamma 61.784035
_cell_volume 573.636690
_symmetry_space_group_name_H-M "P -1"
_symmetry_group_IT_number 2
_symmetry_cell_setting 'triclinic'
loop_
_space_group_symop_operation_xyz
x,y,z
-x,-y,-z
loop_
_atom_site_type_symbol
_atom_site_label
_atom_site_fract_x
_atom_site_fract_y
_atom_site_fract_z
Si Si1 0.903679 0.112994 0.444090
Si Si2 0.175429 0.376677 0.529441
Si Si3 0.320965 0.390741 0.106987
Si Si4 0.520882 0.483720 0.799506
Si Si5 0.035391 0.192615 0.033214
Si Si6 0.632473 0.849895 0.374524
Si Si7 0.726786 0.028469 0.971701
O O1 0.876517 0.373585 0.469073
O O2 0.785886 0.279487 0.643147
O O3 0.951679 0.844578 0.175369
O O4 0.000000 0.000000 0.500000
O O5 0.272362 0.345062 0.603812
O O6 0.238710 0.067702 0.266044
O O7 0.068757 0.483927 0.710460
O O8 0.433297 0.336003 0.126385
O O9 0.301324 0.173937 0.064509
O O10 0.326319 0.336980 0.890433
O O11 0.613913 0.155338 0.539338
O O12 0.500000 0.500000 0.000000
O O13 0.395767 0.642308 0.823184
O O14 0.160827 0.053810 0.006457
O O15 0.000000 0.000000 0.000000
O O16 0.500000 0.000000 0.500000
#
# Coordination Sequence:
#
# PCOD9033841 Si02
#       7
#     2   2   2   2   2   2   2
#     4  10  23  44  69 101 141 183 232 295 352 416
#     4  10  22  44  70 102 140 182 236 286 348 423
#     4  11  26  47  68 105 146 184 235 299 350 416
#     4  12  25  44  72 105 142 189 242 285 350 428
#     4  10  23  42  72 104 135 187 237 286 352 423
#     4  12  25  44  74 106 142 190 235 289 352 427
#     4  11  24  46  70 105 146 186 231 300 356 410
#
# _framework density 24.405691999999998
#
# number of rings (size 3 to 8) (size 9 to 14) (size 15 to 20)
#    0.000    1.143    2.857    1.714    6.000    4.000 
#    5.143    3.571    0.000    0.000    0.000    0.000 
#    0.000    0.000    0.000    0.000    0.000    0.000 
#
# Total GULP energy -78300.642441 kJ/mol
# GULP energy per Si atom -5592.903032 kJ/mol
# Density = 2.435014 g / cm^3
# Si number density = 24.405692 Si / 1000 Ang^3
#
#
#
# Elastic Constant Matrix: (Units=GPa)
#
#
# Indices 1 2 3 4 5 6 
#
# 1 183.8734 64.6362 41.2342 -5.3725 -5.7042 -31.2540
# 2 64.6362 94.0034 45.7199 -1.1832 -10.7597 -27.1347
# 3 41.2342 45.7199 170.2038 -22.8406 -12.5307 -19.6536
# 4 -5.3725 -1.1832 -22.8406 36.0338 -4.0045 5.2745
# 5 -5.7042 -10.7597 -12.5307 -4.0045 38.7067 3.5022
# 6 -31.2540 -27.1347 -19.6536 5.2745 3.5022 57.1276
#
#
#
# Elastic Compliance Matrix: (Units=1/GPa)
#
#
# Indices 1 2 3 4 5 6 
#
# 1 0.007379 -0.004414 -0.000366 0.000418 -0.000378 0.001799
# 2 -0.004414 0.016708 -0.003049 -0.002449 0.002341 0.004555
# 3 -0.000366 -0.003049 0.007630 0.004849 0.002034 0.000404
# 4 0.000418 -0.002449 0.004849 0.031662 0.004449 -0.002462
# 5 -0.000378 0.002341 0.002034 0.004449 0.027594 -0.000497
# 6 0.001799 0.004555 0.000404 -0.002462 -0.000497 0.021049
#
#
# Mechanical properties :
#
#
# Convention : Reuss Voigt Hill
#
# Bulk Modulus (GPa) = 62.27248 83.47348 72.87298
# Shear Modulus (GPa) = 37.58483 46.13963 41.86223
#
# Velocity S-wave (km/s) = 3.92854 4.35274 4.14607
# Velocity P-wave (km/s) = 6.79330 7.71612 7.26937
#
# Compressibility (1/GPa) = 0.01605846
#
# Stress axis : x y z
#
# Youngs Moduli (GPa) = 135.52848 59.85177 131.06163
#
# Poissons Ratio (x) = 0.26420 0.04794
# Poissons Ratio (y) = 0.59826 0.39960
# Poissons Ratio (z) = 0.04958 0.18248
#
# Static dielectric constant tensor:
#      x y z
#    x 1.958890 0.090460 0.047770 
#    y 0.090460 2.063400 0.129130 
#    z 0.047770 0.129130 2.057060 
# 
# From -- ./inp_files/296765.got.cif
#   From: 2010.05.17/outbox.cif.g08.bks.cpg/sg2_149_cif.got.tgz:296765.got - 2010.06.03 11:33:40.
