data_PCOD9033791
_publ_section_title
;
Structure prediction by ZEFSAII (Michael W. Deem and Ramdas Pophale) SiO2 
 PCOD9033791
Probable space group: P -1
;
_chemical_formula_sum "Si O2"
_cell_formula_units_Z 16
_cell_length_a 9.511342
_cell_length_b 7.555362
_cell_length_c 14.972651
_cell_angle_alpha 143.011760
_cell_angle_beta 108.494019
_cell_angle_gamma 75.350523
_cell_volume 613.920436
_symmetry_space_group_name_H-M "P -1"
_symmetry_group_IT_number 2
_symmetry_cell_setting 'triclinic'
loop_
_space_group_symop_operation_xyz
x,y,z
-x,-y,-z
loop_
_atom_site_type_symbol
_atom_site_label
_atom_site_fract_x
_atom_site_fract_y
_atom_site_fract_z
Si Si1 0.285044 0.814498 0.832872
Si Si2 0.431743 0.363688 0.268836
Si Si3 0.634336 0.023551 0.437662
Si Si4 0.828852 0.932131 0.603803
Si Si5 0.169296 0.879889 0.645302
Si Si6 0.148828 0.360562 0.107396
Si Si7 0.378396 0.960925 0.245703
Si Si8 0.807110 0.413819 0.082270
O O1 0.459580 0.764638 0.835058
O O2 0.234544 0.662798 0.854313
O O3 0.222323 0.731904 0.688533
O O4 0.223370 0.148283 0.964579
O O5 0.449171 0.709302 0.422567
O O6 0.258390 0.302602 0.189166
O O7 0.466349 0.191888 0.296189
O O8 0.737475 0.875306 0.472384
O O9 0.743120 0.185458 0.454255
O O10 0.506899 0.838381 0.287376
O O11 0.837313 0.290530 0.763062
O O12 0.741176 0.862054 0.648137
O O13 0.994521 0.823259 0.581253
O O14 0.190095 0.236833 0.792900
O O15 0.975277 0.298005 0.055610
O O16 0.302210 0.732793 0.071174
#
# Coordination Sequence:
#
# PCOD9033791 Si02
#       8
#     2   2   2   2   2   2   2   2
#     4  12  23  42  70 103 140 181 217 283 350 400
#     4  11  25  43  67  98 139 179 230 277 336 408
#     4  11  25  48  66  93 143 184 228 286 332 401
#     4  10  24  44  72  98 134 182 228 283 344 401
#     4  11  25  46  71 104 137 177 230 285 341 409
#     4  10  22  44  69  99 140 173 218 287 345 403
#     4  12  23  42  68 101 136 177 227 280 339 409
#     4  11  26  43  72 108 137 173 230 282 347 413
#
# _framework density 26.062007999999999
#
# number of rings (size 3 to 8) (size 9 to 14) (size 15 to 20)
#    0.000    1.000    2.500    3.375    1.750    5.500 
#    0.000    0.625    0.000    0.000    0.000    0.000 
#    0.000    0.000    0.000    0.000    0.000    0.000 
#
# Total GULP energy -89618.244087 kJ/mol
# GULP energy per Si atom -5601.140255 kJ/mol
# Density = 2.600269 g / cm^3
# Si number density = 26.062008 Si / 1000 Ang^3
#
#
#
# Elastic Constant Matrix: (Units=GPa)
#
#
# Indices 1 2 3 4 5 6 
#
# 1 186.1030 49.7179 72.9750 -27.1065 0.7157 -0.1280
# 2 49.7179 139.9201 49.8601 -25.3628 7.2712 7.8680
# 3 72.9750 49.8601 128.3932 -23.9522 5.1873 -2.9669
# 4 -27.1065 -25.3628 -23.9522 44.0707 -2.6642 -11.5778
# 5 0.7157 7.2712 5.1873 -2.6642 44.9158 -2.5814
# 6 -0.1280 7.8680 -2.9669 -11.5778 -2.5814 32.3342
#
#
#
# Elastic Compliance Matrix: (Units=1/GPa)
#
#
# Indices 1 2 3 4 5 6 
#
# 1 0.007292 -0.001074 -0.003295 0.002345 0.000628 0.000877
# 2 -0.001074 0.009016 -0.002363 0.002783 -0.001091 -0.001506
# 3 -0.003295 -0.002363 0.011311 0.003466 -0.000505 0.002800
# 4 0.002345 0.002783 0.003466 0.030523 0.001537 0.010702
# 5 0.000628 -0.001091 -0.000505 0.001537 0.022729 0.002587
# 6 0.000877 -0.001506 0.002800 0.010702 0.002587 0.035592
#
#
# Mechanical properties :
#
#
# Convention : Reuss Voigt Hill
#
# Bulk Modulus (GPa) = 70.64331 88.83581 79.73956
# Shear Modulus (GPa) = 37.13480 43.05503 40.09491
#
# Velocity S-wave (km/s) = 3.77883 4.06892 3.92655
# Velocity P-wave (km/s) = 6.79736 7.49901 7.15679
#
# Compressibility (1/GPa) = 0.01415562
#
# Stress axis : x y z
#
# Youngs Moduli (GPa) = 137.13498 110.91162 88.41181
#
# Poissons Ratio (x) = 0.11909 0.29134
# Poissons Ratio (y) = 0.14725 0.20888
# Poissons Ratio (z) = 0.45190 0.26204
#
# Static dielectric constant tensor:
#      x y z
#    x 2.001910 0.021080 0.001990 
#    y 0.021080 2.028060 0.038300 
#    z 0.001990 0.038300 2.095950 
# 
# From -- ./inp_files/495932.got.cif
#   From: 2010.05.17/outbox.cif.g08.bks.cpg/sg2_248_cif.got.tgz:495932.got - 2010.06.03 11:33:40.
