data_PCOD9033442
_publ_section_title
;
Structure prediction by ZEFSAII (Michael W. Deem and Ramdas Pophale) SiO2 
 PCOD9033442
Probable space group: P -1
;
_chemical_formula_sum "Si O2"
_cell_formula_units_Z 14
_cell_length_a 7.183785
_cell_length_b 22.566388
_cell_length_c 5.019298
_cell_angle_alpha 83.707598
_cell_angle_beta 109.568637
_cell_angle_gamma 56.149241
_cell_volume 589.362441
_symmetry_space_group_name_H-M "P -1"
_symmetry_group_IT_number 2
_symmetry_cell_setting 'triclinic'
loop_
_space_group_symop_operation_xyz
x,y,z
-x,-y,-z
loop_
_atom_site_type_symbol
_atom_site_label
_atom_site_fract_x
_atom_site_fract_y
_atom_site_fract_z
Si Si1 0.579657 0.904388 0.438828
Si Si2 0.980403 0.778206 0.320226
Si Si3 0.046503 0.861606 0.921958
Si Si4 0.046508 0.345969 0.737397
Si Si5 0.710944 0.416499 0.020851
Si Si6 0.730498 0.061731 0.199814
Si Si7 0.581411 0.308695 0.062338
O O1 0.461726 0.902845 0.659081
O O2 0.768124 0.819865 0.431800
O O3 0.779883 0.917987 0.606060
O O4 0.372835 0.958687 0.084160
O O5 0.915582 0.731822 0.142556
O O6 0.276884 0.713720 0.573893
O O7 0.966307 0.848371 0.169275
O O8 0.218204 0.886212 0.958596
O O9 0.220756 0.773899 0.942984
O O10 0.935934 0.368719 0.373763
O O11 0.837978 0.411767 0.808304
O O12 0.306698 0.331935 0.905501
O O13 0.589313 0.374665 0.933453
O O14 0.500000 0.500000 0.000000
O O15 0.000000 0.000000 0.500000
#
# Coordination Sequence:
#
# PCOD9033442 Si02
#       7
#     2   2   2   2   2   2   2
#     4  11  25  46  67  96 135 171 217 274 335 386
#     4  10  22  44  68 101 133 168 222 279 328 390
#     4  11  24  43  71  97 132 172 219 275 332 391
#     4  11  24  41  68  95 132 171 216 270 324 379
#     4  11  25  44  63  96 136 172 218 264 316 392
#     4  12  28  45  67  98 133 176 223 268 328 399
#     4  10  24  39  69  98 128 170 218 267 332 382
#
# _framework density 23.754484000000001
#
# number of rings (size 3 to 8) (size 9 to 14) (size 15 to 20)
#    0.000    1.143    2.857    1.714    6.000    2.286 
#    0.000    0.000    0.000    0.000    0.000    0.000 
#    0.000    0.000    0.000    0.000    0.000    0.000 
#
# Total GULP energy -78203.604245 kJ/mol
# GULP energy per Si atom -5585.971732 kJ/mol
# Density = 2.370042 g / cm^3
# Si number density = 23.754484 Si / 1000 Ang^3
#
#
#
# Elastic Constant Matrix: (Units=GPa)
#
#
# Indices 1 2 3 4 5 6 
#
# 1 169.3033 43.3929 51.6221 13.4245 30.8165 -7.0622
# 2 43.3929 79.9825 5.6435 8.0714 8.5118 -7.3588
# 3 51.6221 5.6435 90.1737 13.4033 16.9087 -2.1680
# 4 13.4245 8.0714 13.4033 33.4502 -5.3667 -7.9392
# 5 30.8165 8.5118 16.9087 -5.3667 41.5698 7.0854
# 6 -7.0622 -7.3588 -2.1680 -7.9392 7.0854 33.6721
#
#
#
# Elastic Compliance Matrix: (Units=1/GPa)
#
#
# Indices 1 2 3 4 5 6 
#
# 1 0.009138 -0.003866 -0.003788 -0.001655 -0.004906 0.001470
# 2 -0.003866 0.015136 0.002059 -0.002651 -0.001820 0.002387
# 3 -0.003788 0.002059 0.014781 -0.005549 -0.004379 0.000220
# 4 -0.001655 -0.002651 -0.005549 0.035985 0.007722 0.005576
# 5 -0.004906 -0.001820 -0.004379 0.007722 0.031971 -0.006615
# 6 0.001470 0.002387 0.000220 0.005576 -0.006615 0.033249
#
#
# Mechanical properties :
#
#
# Convention : Reuss Voigt Hill
#
# Bulk Modulus (GPa) = 35.88936 60.08628 47.98782
# Shear Modulus (GPa) = 31.10643 37.65848 34.38246
#
# Velocity S-wave (km/s) = 3.62262 3.98593 3.80861
# Velocity P-wave (km/s) = 5.71307 6.82152 6.29175
#
# Compressibility (1/GPa) = 0.02786342
#
# Stress axis : x y z
#
# Youngs Moduli (GPa) = 109.43391 66.06891 67.65542
#
# Poissons Ratio (x) = 0.25542 0.25628
# Poissons Ratio (y) = 0.42307 -0.13927
# Poissons Ratio (z) = 0.41454 -0.13601
#
# Static dielectric constant tensor:
#      x y z
#    x 1.891430 -0.018790 -0.073390 
#    y -0.018790 1.915270 -0.004250 
#    z -0.073390 -0.004250 2.044280 
# 
# From -- ./inp_files/12243.got.cif
#   From: 2010.05.17/outbox.cif.g08.bks.cpg/sg2_7_cif.got.tgz:12243.got - 2010.06.03 11:33:40.
