data_PCOD9033750
_publ_section_title
;
Structure prediction by ZEFSAII (Michael W. Deem and Ramdas Pophale) SiO2 
 PCOD9033750
Probable space group: P -1
;
_chemical_formula_sum "Si O2"
_cell_formula_units_Z 14
_cell_length_a 10.913629
_cell_length_b 22.100355
_cell_length_c 9.631225
_cell_angle_alpha 147.303228
_cell_angle_beta 126.213352
_cell_angle_gamma 30.771954
_cell_volume 563.721688
_symmetry_space_group_name_H-M "P -1"
_symmetry_group_IT_number 2
_symmetry_cell_setting 'triclinic'
loop_
_space_group_symop_operation_xyz
x,y,z
-x,-y,-z
loop_
_atom_site_type_symbol
_atom_site_label
_atom_site_fract_x
_atom_site_fract_y
_atom_site_fract_z
Si Si1 0.933425 0.255177 0.722035
Si Si2 0.234023 0.145616 0.196776
Si Si3 0.549683 0.115520 0.516327
Si Si4 0.086746 0.780382 0.678625
Si Si5 0.539157 0.666878 0.865449
Si Si6 0.797258 0.541286 0.522905
Si Si7 0.561332 0.293522 0.654681
O O1 0.802097 0.233997 0.681650
O O2 0.984612 0.184215 0.462325
O O3 0.697713 0.492957 0.026145
O O4 0.215337 0.111611 0.709694
O O5 0.283510 0.212515 0.474623
O O6 0.166409 0.079189 0.114631
O O7 0.980809 0.322901 0.268652
O O8 0.500000 0.000000 0.000000
O O9 0.642615 0.132934 0.480695
O O10 0.501751 0.230446 0.831529
O O11 0.273928 0.555023 0.398110
O O12 0.735181 0.221695 0.163773
O O13 0.677406 0.651315 0.802757
O O14 0.562557 0.652310 0.474839
O O15 0.000000 0.500000 0.500000
#
# Coordination Sequence:
#
# PCOD9033750 Si02
#       7
#     2   2   2   2   2   2   2
#     4  11  24  41  71 100 136 183 223 287 343 402
#     4  11  26  43  67 103 138 179 229 288 344 409
#     4  12  25  43  70 104 136 178 231 284 342 409
#     4  10  22  44  69  96 141 183 227 281 345 405
#     4  10  23  43  70 100 133 183 234 278 338 413
#     4  11  22  42  70  93 135 182 224 279 348 399
#     4  11  23  44  68 102 137 177 233 281 335 413
#
# _framework density 24.834952000000001
#
# number of rings (size 3 to 8) (size 9 to 14) (size 15 to 20)
#    0.000    1.143    4.286    1.286    0.000    8.000 
#    0.000    0.000    0.000    0.000    0.000    0.000 
#    0.000    0.000    0.000    0.000    0.000    0.000 
#
# Total GULP energy -78395.618760 kJ/mol
# GULP energy per Si atom -5599.687054 kJ/mol
# Density = 2.477843 g / cm^3
# Si number density = 24.834952 Si / 1000 Ang^3
#
#
#
# Elastic Constant Matrix: (Units=GPa)
#
#
# Indices 1 2 3 4 5 6 
#
# 1 101.4525 25.1540 24.5763 -0.2200 -11.8024 14.8372
# 2 25.1540 141.9688 34.8640 -8.6987 -7.8065 12.8478
# 3 24.5763 34.8640 79.5521 -11.8947 -15.0427 10.9236
# 4 -0.2200 -8.6987 -11.8947 38.5153 5.1902 -0.9281
# 5 -11.8024 -7.8065 -15.0427 5.1902 31.7075 -9.6633
# 6 14.8372 12.8478 10.9236 -0.9281 -9.6633 31.3414
#
#
#
# Elastic Compliance Matrix: (Units=1/GPa)
#
#
# Indices 1 2 3 4 5 6 
#
# 1 0.011455 -0.001089 -0.002386 -0.001271 0.001983 -0.003571
# 2 -0.001089 0.008162 -0.002932 0.000957 -0.000536 -0.001945
# 3 -0.002386 -0.002932 0.016320 0.003647 0.005017 -0.001702
# 4 -0.001271 0.000957 0.003647 0.027732 -0.003443 -0.001302
# 5 0.001983 -0.000536 0.005017 -0.003443 0.037863 0.009104
# 6 -0.003571 -0.001945 -0.001702 -0.001302 0.009104 0.037756
#
#
# Mechanical properties :
#
#
# Convention : Reuss Voigt Hill
#
# Bulk Modulus (GPa) = 43.24706 54.68469 48.96588
# Shear Modulus (GPa) = 31.28717 36.20478 33.74597
#
# Velocity S-wave (km/s) = 3.55322 3.82228 3.69020
# Velocity P-wave (km/s) = 5.85538 6.44568 6.15761
#
# Compressibility (1/GPa) = 0.02312296
#
# Stress axis : x y z
#
# Youngs Moduli (GPa) = 87.29705 122.51967 61.27436
#
# Poissons Ratio (x) = 0.13346 0.14621
# Poissons Ratio (y) = 0.09509 0.17964
# Poissons Ratio (z) = 0.20830 0.35919
#
# Static dielectric constant tensor:
#      x y z
#    x 1.926830 -0.013350 -0.016930 
#    y -0.013350 1.936220 0.035500 
#    z -0.016930 0.035500 2.052450 
# 
# From -- ./inp_files/283405.got.cif
#   From: 2010.05.17/outbox.cif.g08.bks.cpg/sg2_142_cif.got.tgz:283405.got - 2010.06.03 11:33:40.
