data_PCOD9033691
_publ_section_title
;
Structure prediction by ZEFSAII (Michael W. Deem and Ramdas Pophale) SiO2 
 PCOD9033691
Probable space group: P -1
;
_chemical_formula_sum "Si O2"
_cell_formula_units_Z 14
_cell_length_a 11.962715
_cell_length_b 8.054357
_cell_length_c 17.318263
_cell_angle_alpha 46.352831
_cell_angle_beta 141.291316
_cell_angle_gamma 146.589011
_cell_volume 570.931969
_symmetry_space_group_name_H-M "P -1"
_symmetry_group_IT_number 2
_symmetry_cell_setting 'triclinic'
loop_
_space_group_symop_operation_xyz
x,y,z
-x,-y,-z
loop_
_atom_site_type_symbol
_atom_site_label
_atom_site_fract_x
_atom_site_fract_y
_atom_site_fract_z
Si Si1 0.825345 0.455575 0.188828
Si Si2 0.691882 0.700245 0.648880
Si Si3 0.662446 0.199741 0.882447
Si Si4 0.796719 0.839040 0.503462
Si Si5 0.219667 0.653385 0.628814
Si Si6 0.108946 0.341489 0.010994
Si Si7 0.716067 0.987919 0.714995
O O1 0.789803 0.500971 0.245814
O O2 0.821148 0.595433 0.061543
O O3 0.610084 0.101315 0.171694
O O4 0.110877 0.656587 0.283347
O O5 0.699635 0.472270 0.772526
O O6 0.871094 0.835282 0.631164
O O7 0.429138 0.491827 0.539540
O O8 0.726218 0.944816 0.643556
O O9 0.835116 0.164955 0.942929
O O10 0.753999 0.336219 0.973987
O O11 0.730113 0.049013 0.408607
O O12 0.000000 0.000000 0.500000
O O13 0.448506 0.776085 0.665016
O O14 0.000000 0.500000 0.500000
O O15 0.181302 0.157821 0.143997
#
# Coordination Sequence:
#
# PCOD9033691 Si02
#       7
#     2   2   2   2   2   2   2
#     4  12  24  42  72 102 142 188 231 292 346 421
#     4  10  23  44  68  96 139 182 228 291 337 428
#     4  10  22  44  69 108 138 180 238 285 361 411
#     4  11  24  42  69  99 132 184 239 285 347 411
#     4  12  27  45  68 106 144 186 238 293 350 423
#     4  10  24  44  72 102 142 185 230 296 347 428
#     4  11  26  46  69 103 146 184 234 290 361 411
#
# _framework density 24.521311000000001
#
# number of rings (size 3 to 8) (size 9 to 14) (size 15 to 20)
#    0.000    1.143    1.429    3.429    2.000    5.714 
#    0.000    4.286    0.000    0.000    0.000    0.000 
#    0.000    0.000    0.000    0.000    0.000    0.000 
#
# Total GULP energy -78165.191148 kJ/mol
# GULP energy per Si atom -5583.227939 kJ/mol
# Density = 2.446550 g / cm^3
# Si number density = 24.521311 Si / 1000 Ang^3
#
#
#
# Elastic Constant Matrix: (Units=GPa)
#
#
# Indices 1 2 3 4 5 6 
#
# 1 137.3130 62.5713 61.5875 0.8609 -29.6162 20.0824
# 2 62.5713 110.1459 38.3954 28.8666 -13.6347 13.0573
# 3 61.5875 38.3954 95.6905 9.6969 -17.2563 12.8939
# 4 0.8609 28.8666 9.6969 34.9610 -1.6634 -6.4214
# 5 -29.6162 -13.6347 -17.2563 -1.6634 55.8794 -4.9929
# 6 20.0824 13.0573 12.8939 -6.4214 -4.9929 38.1063
#
#
#
# Elastic Compliance Matrix: (Units=1/GPa)
#
#
# Indices 1 2 3 4 5 6 
#
# 1 0.014387 -0.007301 -0.006182 0.007357 0.004045 -0.001219
# 2 -0.007301 0.017901 -0.000363 -0.015411 -0.000503 -0.004827
# 3 -0.006182 -0.000363 0.015531 -0.004254 0.001086 -0.002448
# 4 0.007357 -0.015411 -0.004254 0.044297 0.001077 0.010449
# 5 0.004045 -0.000503 0.001086 0.001077 0.020330 0.000519
# 6 -0.001219 -0.004827 -0.002448 0.010449 0.000519 0.031195
#
#
# Mechanical properties :
#
#
# Convention : Reuss Voigt Hill
#
# Bulk Modulus (GPa) = 49.68068 74.25089 61.96578
# Shear Modulus (GPa) = 28.08316 37.82900 32.95608
#
# Velocity S-wave (km/s) = 3.38783 3.93198 3.67001
# Velocity P-wave (km/s) = 5.96719 7.13862 6.57903
#
# Compressibility (1/GPa) = 0.02012855
#
# Stress axis : x y z
#
# Youngs Moduli (GPa) = 69.50881 55.86164 64.38559
#
# Poissons Ratio (x) = 0.40783 0.39803
# Poissons Ratio (y) = 0.50746 0.02336
# Poissons Ratio (z) = 0.42970 0.02027
#
# Static dielectric constant tensor:
#      x y z
#    x 1.787280 -0.207720 -0.097020 
#    y -0.207720 1.731920 -0.047510 
#    z -0.097020 -0.047510 2.001310 
# 
# From -- ./inp_files/116822.got.cif
#   From: 2010.05.17/outbox.cif.g08.bks.cpg/sg2_59_cif.got.tgz:116822.got - 2010.06.03 11:33:40.
