data_PCOD9033979
_publ_section_title
;
Structure prediction by ZEFSAII (Michael W. Deem and Ramdas Pophale) SiO2 
 PCOD9033979
Probable space group: P -1
;
_chemical_formula_sum "Si O2"
_cell_formula_units_Z 14
_cell_length_a 16.892199
_cell_length_b 7.860260
_cell_length_c 5.216131
_cell_angle_alpha 115.377452
_cell_angle_beta 117.866024
_cell_angle_gamma 63.247623
_cell_volume 525.438055
_symmetry_space_group_name_H-M "P -1"
_symmetry_group_IT_number 2
_symmetry_cell_setting 'triclinic'
loop_
_space_group_symop_operation_xyz
x,y,z
-x,-y,-z
loop_
_atom_site_type_symbol
_atom_site_label
_atom_site_fract_x
_atom_site_fract_y
_atom_site_fract_z
Si Si1 0.438819 0.370748 0.437928
Si Si2 0.874895 0.768440 0.101816
Si Si3 0.704220 0.071250 0.769438
Si Si4 0.962619 0.367112 0.163046
Si Si5 0.604490 0.795991 0.238125
Si Si6 0.136879 0.897847 0.344392
Si Si7 0.275420 0.590584 0.653800
O O1 0.500000 0.500000 0.500000
O O2 0.458363 0.270463 0.685410
O O3 0.335496 0.524280 0.443178
O O4 0.430085 0.217642 0.108275
O O5 0.876065 0.551393 0.042557
O O6 0.909679 0.893356 0.452041
O O7 0.771837 0.904011 0.950271
O O8 0.951919 0.723312 0.964203
O O9 0.623070 0.994954 0.482573
O O10 0.772537 0.079723 0.645810
O O11 0.678054 0.274940 0.017465
O O12 0.000000 0.500000 0.500000
O O13 0.918062 0.190170 0.003112
O O14 0.705528 0.617637 0.305960
O O15 0.172942 0.735040 0.520169
#
# Coordination Sequence:
#
# PCOD9033979 Si02
#       7
#     2   2   2   2   2   2   2
#     4  10  22  44  70  98 135 175 213 266 325 387
#     4  10  24  40  60  87 127 164 221 265 337 380
#     4  11  23  40  64  97 125 169 219 272 324 387
#     4  11  24  41  60  89 122 170 218 272 329 389
#     4  10  23  41  69  96 134 172 218 265 322 389
#     4  11  23  40  64  88 131 166 217 272 328 387
#     4   9  23  39  66  94 130 168 219 265 326 387
#
# _framework density 26.644435000000001
#
# number of rings (size 3 to 8) (size 9 to 14) (size 15 to 20)
#    0.857    0.857    0.000    3.429    4.000   10.286 
#    0.000    1.429    0.000    0.000    0.000    0.000 
#    0.000    0.000    0.000    0.000    0.000    0.000 
#
# Total GULP energy -78294.709908 kJ/mol
# GULP energy per Si atom -5592.479279 kJ/mol
# Density = 2.658379 g / cm^3
# Si number density = 26.644435 Si / 1000 Ang^3
#
#
#
# Elastic Constant Matrix: (Units=GPa)
#
#
# Indices 1 2 3 4 5 6 
#
# 1 86.9883 1.7250 54.5444 15.2444 -19.2578 3.9021
# 2 1.7250 69.0743 31.5056 20.1798 -0.6189 -16.8141
# 3 54.5444 31.5056 219.0911 41.1912 -19.3053 5.2535
# 4 15.2444 20.1798 41.1912 51.4065 -0.7526 -2.5135
# 5 -19.2578 -0.6189 -19.3053 -0.7526 42.5967 1.2612
# 6 3.9021 -16.8141 5.2535 -2.5135 1.2612 28.8368
#
#
#
# Elastic Compliance Matrix: (Units=1/GPa)
#
#
# Indices 1 2 3 4 5 6 
#
# 1 0.015047 0.001542 -0.002958 -0.002669 0.005469 -0.001070
# 2 0.001542 0.020054 -0.002511 -0.005766 -0.000591 0.011465
# 3 -0.002958 -0.002511 0.006517 -0.003464 0.001596 -0.002622
# 4 -0.002669 -0.005766 -0.003464 0.025245 -0.002412 -0.000064
# 5 0.005469 -0.000591 0.001596 -0.002412 0.026702 -0.002753
# 6 -0.001070 0.011465 -0.002622 -0.000064 -0.002753 0.042100
#
#
# Mechanical properties :
#
#
# Convention : Reuss Voigt Hill
#
# Bulk Modulus (GPa) = 29.61838 61.18929 45.40383
# Shear Modulus (GPa) = 32.30563 43.72659 38.01611
#
# Velocity S-wave (km/s) = 3.48583 4.05546 3.78139
# Velocity P-wave (km/s) = 5.22893 6.70403 6.01189
#
# Compressibility (1/GPa) = 0.03376282
#
# Stress axis : x y z
#
# Youngs Moduli (GPa) = 66.46014 49.86617 153.45581
#
# Poissons Ratio (x) = -0.07689 0.45398
# Poissons Ratio (y) = -0.10247 0.38526
# Poissons Ratio (z) = 0.19661 0.12519
#
# Static dielectric constant tensor:
#      x y z
#    x 2.032440 -0.031900 0.032680 
#    y -0.031900 2.191650 -0.141710 
#    z 0.032680 -0.141710 2.092410 
# 
# From -- ./inp_files/13854.got.cif
#   From: 2010.05.17/outbox.cif.g08.bks.cpg/sg2_7_cif.got.tgz:13854.got - 2010.06.03 11:33:40.
