data_PCOD9033026
_publ_section_title
;
Structure prediction by ZEFSAII (Michael W. Deem and Ramdas Pophale) SiO2 
 PCOD9033026
Probable space group: P -1
;
_chemical_formula_sum "Si O2"
_cell_formula_units_Z 16
_cell_length_a 21.470562
_cell_length_b 12.107385
_cell_length_c 5.294449
_cell_angle_alpha 130.115728
_cell_angle_beta 114.685195
_cell_angle_gamma 39.781416
_cell_volume 664.959365
_symmetry_space_group_name_H-M "P -1"
_symmetry_group_IT_number 2
_symmetry_cell_setting 'triclinic'
loop_
_space_group_symop_operation_xyz
x,y,z
-x,-y,-z
loop_
_atom_site_type_symbol
_atom_site_label
_atom_site_fract_x
_atom_site_fract_y
_atom_site_fract_z
Si Si1 0.181339 0.984112 0.306011
Si Si2 0.647166 0.189194 0.295044
Si Si3 0.143434 0.343423 0.620573
Si Si4 0.088671 0.874900 0.766766
Si Si5 0.004902 0.237592 0.775478
Si Si6 0.443897 0.142885 0.365922
Si Si7 0.249939 0.257366 0.199553
Si Si8 0.543545 0.554645 0.335367
O O1 0.158722 0.149236 0.319097
O O2 0.087792 0.145458 0.574688
O O3 0.282486 0.863652 0.440122
O O4 0.177971 0.823508 0.972653
O O5 0.636640 0.338042 0.305174
O O6 0.540155 0.303176 0.382008
O O7 0.693023 0.973594 0.950674
O O8 0.168061 0.393329 0.480654
O O9 0.037866 0.557567 0.858776
O O10 0.213494 0.276780 0.882380
O O11 0.089317 0.713932 0.416762
O O12 0.055223 0.043619 0.754768
O O13 0.000000 0.000000 0.000000
O O14 0.331664 0.256960 0.340317
O O15 0.443293 0.316514 0.596491
O O16 0.500000 0.000000 0.500000
O O17 0.500000 0.000000 0.000000
O O18 0.500000 0.500000 0.000000
#
# Coordination Sequence:
#
# PCOD9033026 Si02
#       8
#     2   2   2   2   2   2   2   2
#     4  10  23  41  72  98 134 189 231 292 353 414
#     4  10  24  45  69 106 142 180 241 294 354 422
#     4  11  26  43  71 102 142 178 244 292 342 422
#     4   9  21  41  64  92 135 182 228 287 358 409
#     4  10  22  44  65 100 137 186 233 287 350 419
#     4  12  25  47  77 102 143 189 235 287 366 428
#     4  11  25  47  69 105 143 190 229 298 356 418
#     4  11  25  45  74 105 140 186 234 296 354 430
#
# _framework density 24.061622
#
# number of rings (size 3 to 8) (size 9 to 14) (size 15 to 20)
#    0.000    1.500    1.250    1.875   14.000    0.500 
#    9.000    0.000    0.000    0.000    0.000    0.000 
#    0.000    0.000    0.000    0.000    0.000    0.000 
#
# Total GULP energy -89481.854193 kJ/mol
# GULP energy per Si atom -5592.615887 kJ/mol
# Density = 2.400686 g / cm^3
# Si number density = 24.061622 Si / 1000 Ang^3
#
#
#
# Elastic Constant Matrix: (Units=GPa)
#
#
# Indices 1 2 3 4 5 6 
#
# 1 127.9593 20.1113 16.4799 -6.5416 10.3926 26.6535
# 2 20.1113 91.5921 12.5555 -5.0005 23.3854 23.0164
# 3 16.4799 12.5555 70.1184 2.1234 12.8358 11.4770
# 4 -6.5416 -5.0005 2.1234 36.6148 0.7620 3.1006
# 5 10.3926 23.3854 12.8358 0.7620 46.3285 1.1800
# 6 26.6535 23.0164 11.4770 3.1006 1.1800 40.6494
#
#
#
# Elastic Compliance Matrix: (Units=1/GPa)
#
#
# Indices 1 2 3 4 5 6 
#
# 1 0.009463 0.000202 -0.000986 0.002336 -0.001833 -0.006166
# 2 0.000202 0.015149 -0.000052 0.003002 -0.007505 -0.008707
# 3 -0.000986 -0.000052 0.015858 -0.000711 -0.004042 -0.003630
# 4 0.002336 0.003002 -0.000711 0.028662 -0.002182 -0.005153
# 5 -0.001833 -0.007505 -0.004042 -0.002182 0.026788 0.005982
# 6 -0.006166 -0.008707 -0.003630 -0.005153 0.005982 0.034817
#
#
# Mechanical properties :
#
#
# Convention : Reuss Voigt Hill
#
# Bulk Modulus (GPa) = 25.77457 43.10702 34.44079
# Shear Modulus (GPa) = 34.40175 40.75340 37.57757
#
# Velocity S-wave (km/s) = 3.78529 4.11993 3.95615
# Velocity P-wave (km/s) = 5.46257 6.37071 5.93404
#
# Compressibility (1/GPa) = 0.03879793
#
# Stress axis : x y z
#
# Youngs Moduli (GPa) = 105.67703 66.01241 63.05847
#
# Poissons Ratio (x) = -0.01336 0.06219
# Poissons Ratio (y) = -0.02138 0.00328
# Poissons Ratio (z) = 0.10422 0.00343
#
# Static dielectric constant tensor:
#      x y z
#    x 2.385590 -0.073470 -0.022710 
#    y -0.073470 1.988640 -0.047070 
#    z -0.022710 -0.047070 1.980590 
# 
# From -- ./inp_files/118911.got.cif
#   From: 2010.05.17/outbox.cif.g08.bks.cpg/sg2_60_cif.got.tgz:118911.got - 2010.06.03 11:33:40.
