data_PCOD9033189
_publ_section_title
;
Structure prediction by ZEFSAII (Michael W. Deem and Ramdas Pophale) SiO2 
 PCOD9033189
Probable space group: P -1
;
_chemical_formula_sum "Si O2"
_cell_formula_units_Z 12
_cell_length_a 5.453509
_cell_length_b 16.940952
_cell_length_c 11.564812
_cell_angle_alpha 32.057327
_cell_angle_beta 94.612217
_cell_angle_gamma 74.104511
_cell_volume 431.241368
_symmetry_space_group_name_H-M "P -1"
_symmetry_group_IT_number 2
_symmetry_cell_setting 'triclinic'
loop_
_space_group_symop_operation_xyz
x,y,z
-x,-y,-z
loop_
_atom_site_type_symbol
_atom_site_label
_atom_site_fract_x
_atom_site_fract_y
_atom_site_fract_z
Si Si1 0.399441 0.274300 0.213868
Si Si2 0.486983 0.365988 0.752614
Si Si3 0.336371 0.117747 0.619631
Si Si4 0.693043 0.413888 0.322967
Si Si5 0.611952 0.170128 0.773237
Si Si6 0.869594 0.846783 0.810079
O O1 0.315125 0.276873 0.341339
O O2 0.134314 0.285120 0.117071
O O3 0.724117 0.049919 0.491642
O O4 0.446579 0.418303 0.985412
O O5 0.500000 0.500000 0.500000
O O6 0.215640 0.506895 0.664775
O O7 0.487934 0.236752 0.816729
O O8 0.813608 0.239392 0.998880
O O9 0.475309 0.098352 0.773960
O O10 0.971862 0.217968 0.507349
O O11 0.578775 0.925095 0.792537
O O12 0.528907 0.351010 0.470886
O O13 0.000000 0.000000 0.000000
#
# Coordination Sequence:
#
# PCOD9033189 Si02
#       6
#     2   2   2   2   2   2
#     4   9  21  43  66  98 129 165 223 258 326 385
#     4  10  23  43  60  97 128 168 222 258 316 378
#     4  10  22  44  66  95 133 166 211 277 314 386
#     4  11  25  39  68  99 123 178 211 262 337 370
#     4  11  23  45  64  93 135 168 221 269 308 388
#     4   9  20  44  68  85 140 168 202 282 307 379
#
# _framework density 27.826644000000002
#
# number of rings (size 3 to 8) (size 9 to 14) (size 15 to 20)
#    1.000    1.000    1.667    0.500    4.667    4.000 
#    6.000    0.000    0.000    0.000    0.000    0.000 
#    0.000    0.000    0.000    0.000    0.000    0.000 
#
# Total GULP energy -67051.246224 kJ/mol
# GULP energy per Si atom -5587.603852 kJ/mol
# Density = 2.776331 g / cm^3
# Si number density = 27.826644 Si / 1000 Ang^3
#
#
#
# Elastic Constant Matrix: (Units=GPa)
#
#
# Indices 1 2 3 4 5 6 
#
# 1 64.3919 30.4735 39.7649 15.5661 -6.4217 -8.0277
# 2 30.4735 199.2582 16.1226 15.2206 5.0865 6.3695
# 3 39.7649 16.1226 111.3642 27.8459 -7.8435 21.9508
# 4 15.5661 15.2206 27.8459 62.0779 -5.7493 -0.6014
# 5 -6.4217 5.0865 -7.8435 -5.7493 45.6640 5.6040
# 6 -8.0277 6.3695 21.9508 -0.6014 5.6040 55.6715
#
#
#
# Elastic Compliance Matrix: (Units=1/GPa)
#
#
# Indices 1 2 3 4 5 6 
#
# 1 0.023955 -0.003108 -0.009238 -0.000927 0.001112 0.007330
# 2 -0.003108 0.005576 0.000751 -0.001021 -0.000898 -0.001303
# 3 -0.009238 0.000751 0.014869 -0.004469 0.001527 -0.007483
# 4 -0.000927 -0.001021 -0.004469 0.018739 0.001353 0.001811
# 5 0.001112 -0.000898 0.001527 0.001353 0.022911 -0.002631
# 6 0.007330 -0.001303 -0.007483 0.001811 -0.002631 0.022403
#
#
# Mechanical properties :
#
#
# Convention : Reuss Voigt Hill
#
# Bulk Modulus (GPa) = 47.14848 60.85957 54.00403
# Shear Modulus (GPa) = 36.04578 51.92626 43.98602
#
# Velocity S-wave (km/s) = 3.60303 4.32448 3.98014
# Velocity P-wave (km/s) = 5.85573 6.84495 6.36957
#
# Compressibility (1/GPa) = 0.02120959
#
# Stress axis : x y z
#
# Youngs Moduli (GPa) = 41.74561 179.35132 67.25231
#
# Poissons Ratio (x) = 0.55741 0.62131
# Poissons Ratio (y) = 0.12974 -0.05053
# Poissons Ratio (z) = 0.38566 -0.13475
#
# Static dielectric constant tensor:
#      x y z
#    x 2.256650 0.032380 0.011170 
#    y 0.032380 2.151340 -0.123020 
#    z 0.011170 -0.123020 2.289330 
# 
# From -- ./inp_files/68016.got.cif
#   From: 2010.05.17/outbox.cif.g08.bks.cpg/sg2_35_cif.got.tgz:68016.got - 2010.06.03 11:33:40.
