data_PCOD9033209
_publ_section_title
;
Structure prediction by ZEFSAII (Michael W. Deem and Ramdas Pophale) SiO2 
 PCOD9033209
Probable space group: P -1
;
_chemical_formula_sum "Si O2"
_cell_formula_units_Z 16
_cell_length_a 15.222627
_cell_length_b 8.377544
_cell_length_c 26.709671
_cell_angle_alpha 34.588614
_cell_angle_beta 19.018933
_cell_angle_gamma 42.655993
_cell_volume 612.984083
_symmetry_space_group_name_H-M "P -1"
_symmetry_group_IT_number 2
_symmetry_cell_setting 'triclinic'
loop_
_space_group_symop_operation_xyz
x,y,z
-x,-y,-z
loop_
_atom_site_type_symbol
_atom_site_label
_atom_site_fract_x
_atom_site_fract_y
_atom_site_fract_z
Si Si1 0.364365 0.881520 0.228673
Si Si2 0.187386 0.946327 0.492315
Si Si3 0.667119 0.969109 0.502321
Si Si4 0.769551 0.234408 0.774584
Si Si5 0.862230 0.320878 0.811935
Si Si6 0.928726 0.275406 0.142313
Si Si7 0.401051 0.046968 0.814799
Si Si8 0.928376 0.565238 0.167370
O O1 0.068890 0.906565 0.401282
O O2 0.326283 0.688096 0.249101
O O3 0.516220 0.799231 0.216731
O O4 0.547678 0.196988 0.032324
O O5 0.389997 0.057759 0.400841
O O6 0.341329 0.005311 0.341713
O O7 0.053635 0.604050 0.659513
O O8 0.732002 0.306117 0.368345
O O9 0.404735 0.810633 0.653128
O O10 0.953252 0.877371 0.358989
O O11 0.851962 0.409061 0.736070
O O12 0.500000 0.000000 0.000000
O O13 0.980031 0.030256 0.830605
O O14 0.047889 0.430331 0.089487
O O15 0.000000 0.500000 0.000000
O O16 0.254468 0.231551 0.809685
O O17 0.174935 0.747515 0.020785
#
# Coordination Sequence:
#
# PCOD9033209 Si02
#       8
#     2   2   2   2   2   2   2   2
#     4  10  22  44  66  96 137 177 227 279 329 400
#     4  11  24  41  69  99 134 179 227 277 328 404
#     4  11  23  43  70  98 135 178 225 271 337 402
#     4   9  21  41  69  97 129 172 228 274 323 401
#     4  11  22  42  69  98 133 178 231 269 338 400
#     4  12  25  41  68 100 142 172 219 285 341 397
#     4  11  24  42  67 100 139 175 222 277 346 389
#     4  11  24  42  68  97 137 178 220 279 332 406
#
# _framework density 26.10182
#
# number of rings (size 3 to 8) (size 9 to 14) (size 15 to 20)
#    0.000    1.250    1.250    4.125    1.750    6.000 
#    0.000    0.625    0.000    0.000    0.000    0.000 
#    0.000    0.000    0.000    0.000    0.000    0.000 
#
# Total GULP energy -89605.881804 kJ/mol
# GULP energy per Si atom -5600.367613 kJ/mol
# Density = 2.604241 g / cm^3
# Si number density = 26.101820 Si / 1000 Ang^3
#
#
#
# Elastic Constant Matrix: (Units=GPa)
#
#
# Indices 1 2 3 4 5 6 
#
# 1 144.0434 17.6143 33.3877 3.0780 9.3940 1.5012
# 2 17.6143 73.7774 41.2548 -8.3381 -1.0372 -9.8395
# 3 33.3877 41.2548 115.5232 4.2834 -0.6598 -10.2119
# 4 3.0780 -8.3381 4.2834 37.1672 0.7508 9.1541
# 5 9.3940 -1.0372 -0.6598 0.7508 37.0555 1.1995
# 6 1.5012 -9.8395 -10.2119 9.1541 1.1995 18.9145
#
#
#
# Elastic Compliance Matrix: (Units=1/GPa)
#
#
# Indices 1 2 3 4 5 6 
#
# 1 0.007692 -0.000998 -0.002059 -0.000071 -0.001946 -0.002084
# 2 -0.000998 0.018130 -0.005925 0.003720 0.000435 0.004484
# 3 -0.002059 -0.005925 0.011992 -0.003881 0.000473 0.005404
# 4 -0.000071 0.003720 -0.003881 0.032052 -0.000089 -0.015662
# 5 -0.001946 0.000435 0.000473 -0.000089 0.027537 -0.001067
# 6 -0.002084 0.004484 0.005404 -0.015662 -0.001067 0.065933
#
#
# Mechanical properties :
#
#
# Convention : Reuss Voigt Hill
#
# Bulk Modulus (GPa) = 50.38131 57.53972 53.96052
# Shear Modulus (GPa) = 26.60752 34.69992 30.65372
#
# Velocity S-wave (km/s) = 3.19623 3.65006 3.43066
# Velocity P-wave (km/s) = 5.74151 6.31317 6.03411
#
# Compressibility (1/GPa) = 0.01984863
#
# Stress axis : x y z
#
# Youngs Moduli (GPa) = 130.00762 55.15618 83.39136
#
# Poissons Ratio (x) = 0.05506 0.17172
# Poissons Ratio (y) = 0.12978 0.49411
# Poissons Ratio (z) = 0.26772 0.32681
#
# Static dielectric constant tensor:
#      x y z
#    x 2.030090 -0.036410 0.021090 
#    y -0.036410 2.050730 0.008040 
#    z 0.021090 0.008040 1.995890 
# 
# From -- ./inp_files/619236.got.cif
#   From: 2010.05.17/outbox.cif.g08.bks.cpg/sg2_310_cif.got.tgz:619236.got - 2010.06.03 11:33:40.
