data_PCOD9033017
_publ_section_title
;
Structure prediction by ZEFSAII (Michael W. Deem and Ramdas Pophale) SiO2 
 PCOD9033017
Probable space group: P -1
;
_chemical_formula_sum "Si O2"
_cell_formula_units_Z 14
_cell_length_a 17.238403
_cell_length_b 5.165079
_cell_length_c 9.378588
_cell_angle_alpha 75.910339
_cell_angle_beta 40.184200
_cell_angle_gamma 73.665775
_cell_volume 516.513374
_symmetry_space_group_name_H-M "P -1"
_symmetry_group_IT_number 2
_symmetry_cell_setting 'triclinic'
loop_
_space_group_symop_operation_xyz
x,y,z
-x,-y,-z
loop_
_atom_site_type_symbol
_atom_site_label
_atom_site_fract_x
_atom_site_fract_y
_atom_site_fract_z
Si Si1 0.808104 0.499531 0.713981
Si Si2 0.501351 0.670452 0.645324
Si Si3 0.114076 0.560990 0.917790
Si Si4 0.686132 0.627908 0.140031
Si Si5 0.985686 0.156567 0.716438
Si Si6 0.215794 0.768061 0.482450
Si Si7 0.436710 0.948514 0.242460
O O1 0.916323 0.639552 0.476632
O O2 0.731443 0.389599 0.710302
O O3 0.878870 0.250008 0.742188
O O4 0.725224 0.695300 0.915565
O O5 0.584420 0.734469 0.386756
O O6 0.363878 0.659653 0.783481
O O7 0.533966 0.360880 0.700142
O O8 0.521529 0.861661 0.721089
O O9 0.188479 0.362543 0.953071
O O10 0.208615 0.594329 0.656808
O O11 0.000000 0.500000 0.000000
O O12 0.068780 0.811058 0.052568
O O13 0.076803 0.878821 0.618956
O O14 0.293733 0.990555 0.398134
O O15 0.500000 0.000000 0.000000
#
# Coordination Sequence:
#
# PCOD9033017 Si02
#       7
#     2   2   2   2   2   2   2
#     4  10  22  44  64  99 143 183 241 285 363 433
#     4  11  26  52  73 109 144 197 247 295 367 440
#     4  11  22  44  68 102 146 184 242 301 363 433
#     4  10  24  46  74  99 144 197 237 299 361 441
#     4  10  23  40  64  98 137 191 231 293 356 440
#     4  12  24  41  71 103 142 189 239 308 367 425
#     4  12  28  47  78 113 146 187 247 310 367 424
#
# _framework density 27.104814999999999
#
# number of rings (size 3 to 8) (size 9 to 14) (size 15 to 20)
#    0.000    1.143    2.857    2.143    6.000    2.286 
#    2.571    0.000    0.000    0.000    0.000    0.000 
#    0.000    0.000    0.000    0.000    0.000    0.000 
#
# Total GULP energy -78266.052477 kJ/mol
# GULP energy per Si atom -5590.432320 kJ/mol
# Density = 2.704312 g / cm^3
# Si number density = 27.104815 Si / 1000 Ang^3
#
#
#
# Elastic Constant Matrix: (Units=GPa)
#
#
# Indices 1 2 3 4 5 6 
#
# 1 166.1130 40.7827 73.7437 7.7595 27.1045 29.7130
# 2 40.7827 101.0251 25.0049 5.6767 26.9246 11.7691
# 3 73.7437 25.0049 106.5010 18.4362 24.7648 16.0346
# 4 7.7595 5.6767 18.4362 30.5470 9.2506 5.9339
# 5 27.1045 26.9246 24.7648 9.2506 70.7287 7.4558
# 6 29.7130 11.7691 16.0346 5.9339 7.4558 55.5103
#
#
#
# Elastic Compliance Matrix: (Units=1/GPa)
#
#
# Indices 1 2 3 4 5 6 
#
# 1 0.009797 -0.001990 -0.006052 0.002418 -0.000855 -0.003218
# 2 -0.001990 0.011845 -0.000431 -0.000221 -0.003479 -0.000831
# 3 -0.006052 -0.000431 0.015372 -0.007047 -0.001968 -0.000092
# 4 0.002418 -0.000221 -0.007047 0.037888 -0.003030 -0.002855
# 5 -0.000855 -0.003479 -0.001968 -0.003030 0.016895 -0.000182
# 6 -0.003218 -0.000831 -0.000092 -0.002855 -0.000182 0.020269
#
#
# Mechanical properties :
#
#
# Convention : Reuss Voigt Hill
#
# Bulk Modulus (GPa) = 49.82748 72.52239 61.17493
# Shear Modulus (GPa) = 36.84515 46.96439 41.90477
#
# Velocity S-wave (km/s) = 3.69095 4.16708 3.93622
# Velocity P-wave (km/s) = 6.04874 7.06874 6.57854
#
# Compressibility (1/GPa) = 0.02006925
#
# Stress axis : x y z
#
# Youngs Moduli (GPa) = 102.06733 84.42377 65.05125
#
# Poissons Ratio (x) = 0.16803 0.39369
# Poissons Ratio (y) = 0.20315 0.02801
# Poissons Ratio (z) = 0.61770 0.03635
#
# Static dielectric constant tensor:
#      x y z
#    x 2.123600 -0.088410 -0.040510 
#    y -0.088410 2.230320 0.052010 
#    z -0.040510 0.052010 2.140780 
# 
# From -- ./inp_files/47824.got.cif
#   From: 2010.05.17/outbox.cif.g08.bks.cpg/sg2_24_cif.got.tgz:47824.got - 2010.06.03 11:33:40.
