data_PCOD9033249
_publ_section_title
;
Structure prediction by ZEFSAII (Michael W. Deem and Ramdas Pophale) SiO2 
 PCOD9033249
Probable space group: P -1
;
_chemical_formula_sum "Si O2"
_cell_formula_units_Z 14
_cell_length_a 13.664852
_cell_length_b 13.101246
_cell_length_c 9.573405
_cell_angle_alpha 68.878584
_cell_angle_beta 134.445465
_cell_angle_gamma 146.840891
_cell_volume 545.951181
_symmetry_space_group_name_H-M "P -1"
_symmetry_group_IT_number 2
_symmetry_cell_setting 'triclinic'
loop_
_space_group_symop_operation_xyz
x,y,z
-x,-y,-z
loop_
_atom_site_type_symbol
_atom_site_label
_atom_site_fract_x
_atom_site_fract_y
_atom_site_fract_z
Si Si1 0.665227 0.339810 0.511045
Si Si2 0.275179 0.986166 0.692972
Si Si3 0.614132 0.628882 0.696707
Si Si4 0.199252 0.447054 0.732725
Si Si5 0.670743 0.761697 0.245769
Si Si6 0.885619 0.171689 0.832119
Si Si7 0.811952 0.227536 0.025707
O O1 0.937191 0.518722 0.793162
O O2 0.484374 0.317033 0.401861
O O3 0.438075 0.084900 0.403052
O O4 0.503451 0.066685 0.809679
O O5 0.990223 0.783665 0.412353
O O6 0.194758 0.878211 0.816785
O O7 0.429340 0.208667 0.768684
O O8 0.500000 0.500000 0.500000
O O9 0.202918 0.540367 0.569283
O O10 0.442262 0.434672 0.729071
O O11 0.937672 0.817079 0.960222
O O12 0.041428 0.344067 0.775732
O O13 0.535109 0.679700 0.997531
O O14 0.000000 0.000000 0.500000
O O15 0.883882 0.233828 0.944010
#
# Coordination Sequence:
#
# PCOD9033249 Si02
#       7
#     2   2   2   2   2   2   2
#     4  11  23  44  70  95 138 179 219 275 338 389
#     4  10  23  43  70  95 138 176 219 276 337 388
#     4  11  24  41  64  98 134 169 224 270 329 405
#     4  10  25  42  64 102 130 169 228 270 323 407
#     4  11  24  41  68  98 132 172 217 273 335 389
#     4  11  24  41  68  99 134 174 223 277 337 388
#     4  10  22  44  67 100 131 178 226 271 328 408
#
# _framework density 25.643317
#
# number of rings (size 3 to 8) (size 9 to 14) (size 15 to 20)
#    0.000    1.429    1.429    3.000    4.000    6.857 
#    0.000    9.286    0.000    0.000    0.000    0.000 
#    0.000    0.000    0.000    0.000    0.000    0.000 
#
# Total GULP energy -78325.225160 kJ/mol
# GULP energy per Si atom -5594.658940 kJ/mol
# Density = 2.558495 g / cm^3
# Si number density = 25.643317 Si / 1000 Ang^3
#
#
#
# Elastic Constant Matrix: (Units=GPa)
#
#
# Indices 1 2 3 4 5 6 
#
# 1 114.2638 39.0700 47.8108 -12.7880 -16.6192 20.5375
# 2 39.0700 82.3743 52.5294 17.2394 -12.6795 16.6611
# 3 47.8108 52.5294 172.4867 25.1153 -31.9250 8.4922
# 4 -12.7880 17.2394 25.1153 50.2077 1.1739 -10.6123
# 5 -16.6192 -12.6795 -31.9250 1.1739 35.5462 -5.5623
# 6 20.5375 16.6611 8.4922 -10.6123 -5.5623 40.5737
#
#
#
# Elastic Compliance Matrix: (Units=1/GPa)
#
#
# Indices 1 2 3 4 5 6 
#
# 1 0.012729 -0.004995 -0.002465 0.005693 0.001425 -0.002192
# 2 -0.004995 0.019586 -0.002827 -0.008062 0.001306 -0.006852
# 3 -0.002465 -0.002827 0.009104 -0.004308 0.006194 0.000225
# 4 0.005693 -0.008062 -0.004308 0.028105 -0.003733 0.008170
# 5 0.001425 0.001306 0.006194 -0.003733 0.035152 0.001289
# 6 -0.002192 -0.006852 0.000225 0.008170 0.001289 0.030836
#
#
# Mechanical properties :
#
#
# Convention : Reuss Voigt Hill
#
# Bulk Modulus (GPa) = 47.97029 71.99390 59.98210
# Shear Modulus (GPa) = 30.66849 40.57982 35.62415
#
# Velocity S-wave (km/s) = 3.46202 3.98234 3.73126
# Velocity P-wave (km/s) = 5.89306 7.02008 6.48111
#
# Compressibility (1/GPa) = 0.02084624
#
# Stress axis : x y z
#
# Youngs Moduli (GPa) = 78.56001 51.05762 109.83794
#
# Poissons Ratio (x) = 0.25501 0.27070
# Poissons Ratio (y) = 0.39237 0.31055
# Poissons Ratio (z) = 0.19362 0.14436
#
# Static dielectric constant tensor:
#      x y z
#    x 2.122190 0.081870 -0.044150 
#    y 0.081870 2.095960 -0.160330 
#    z -0.044150 -0.160330 2.272200 
# 
# From -- ./inp_files/315002.got.cif
#   From: 2010.05.17/outbox.cif.g08.bks.cpg/sg2_158_cif.got.tgz:315002.got - 2010.06.03 11:33:40.
