data_PCOD9033845
_publ_section_title
;
Structure prediction by ZEFSAII (Michael W. Deem and Ramdas Pophale) SiO2 
 PCOD9033845
Probable space group: P -1
;
_chemical_formula_sum "Si O2"
_cell_formula_units_Z 15
_cell_length_a 8.273931
_cell_length_b 10.987965
_cell_length_c 17.812033
_cell_angle_alpha 135.293298
_cell_angle_beta 35.038860
_cell_angle_gamma 112.408290
_cell_volume 567.570260
_symmetry_space_group_name_H-M "P -1"
_symmetry_group_IT_number 2
_symmetry_cell_setting 'triclinic'
loop_
_space_group_symop_operation_xyz
x,y,z
-x,-y,-z
loop_
_atom_site_type_symbol
_atom_site_label
_atom_site_fract_x
_atom_site_fract_y
_atom_site_fract_z
Si Si1 0.339341 0.511423 0.645601
Si Si2 0.194196 0.450452 0.240246
Si Si3 0.163679 0.004110 0.562617
Si Si4 0.500000 0.000000 0.000000
Si Si5 0.311940 0.911670 0.628351
Si Si6 0.688536 0.869222 0.696801
Si Si7 0.089748 0.145568 0.951012
Si Si8 0.670868 0.609479 0.128052
O O1 0.500000 0.500000 0.500000
O O2 0.586239 0.315641 0.510679
O O3 0.999057 0.535772 0.756771
O O4 0.243452 0.695959 0.816530
O O5 0.326851 0.233626 0.131902
O O6 0.497481 0.483514 0.119080
O O7 0.931481 0.642187 0.475250
O O8 0.175386 0.038942 0.661575
O O9 0.422503 0.773817 0.351524
O O10 0.837345 0.007610 0.669242
O O11 0.336497 0.105507 0.496830
O O12 0.347908 0.095986 0.184893
O O13 0.052987 0.027235 0.842408
O O14 0.339171 0.977687 0.837508
O O15 0.248312 0.273456 0.914436
O O16 0.000000 0.500000 0.000000
#
# Coordination Sequence:
#
# PCOD9033845 Si02
#       8
#     2   2   2   1   2   2   2   2
#     4  12  27  46  67 103 148 193 246 297 355 435
#     4  11  26  49  74 104 146 194 237 304 363 430
#     4   9  22  41  72 105 143 185 230 302 381 419
#     4  12  26  46  70 102 148 194 250 284 364 434
#     4  10  22  44  70 102 144 185 238 302 364 429
#     4  11  24  46  72 106 143 189 242 304 362 435
#     4  11  24  45  75 109 139 189 248 300 369 435
#     4  10  23  46  75 113 144 184 245 307 369 432
#
# _framework density 26.428445
#
# number of rings (size 3 to 8) (size 9 to 14) (size 15 to 20)
#    0.000    1.333    2.667    1.200    3.733    6.933 
#    4.800    0.000    0.000    0.000    0.000    0.000 
#    0.000    0.000    0.000    0.000    0.000    0.000 
#
# Total GULP energy -83695.707397 kJ/mol
# GULP energy per Si atom -5579.713826 kJ/mol
# Density = 2.636829 g / cm^3
# Si number density = 26.428445 Si / 1000 Ang^3
#
#
#
# Elastic Constant Matrix: (Units=GPa)
#
#
# Indices 1 2 3 4 5 6 
#
# 1 42.8671 1.1561 24.7128 11.3863 3.0285 -5.5879
# 2 1.1561 110.7891 46.3141 25.8405 0.7976 1.0224
# 3 24.7128 46.3141 163.4246 22.6237 23.1655 -12.0068
# 4 11.3863 25.8405 22.6237 43.5470 -1.5650 -2.9156
# 5 3.0285 0.7976 23.1655 -1.5650 49.2486 -6.8615
# 6 -5.5879 1.0224 -12.0068 -2.9156 -6.8615 37.2391
#
#
#
# Elastic Compliance Matrix: (Units=1/GPa)
#
#
# Indices 1 2 3 4 5 6 
#
# 1 0.027585 0.002899 -0.003921 -0.006734 0.000208 0.002307
# 2 0.002899 0.011739 -0.003105 -0.006167 0.000724 -0.001238
# 3 -0.003921 -0.003105 0.008407 -0.001530 -0.003511 0.001441
# 4 -0.006734 -0.006167 -0.001530 0.029358 0.002361 0.001399
# 5 0.000208 0.000724 -0.003511 0.002361 0.022453 0.003201
# 6 0.002307 -0.001238 0.001441 0.001399 0.003201 0.028398
#
#
# Mechanical properties :
#
#
# Convention : Reuss Voigt Hill
#
# Bulk Modulus (GPa) = 25.33092 51.27186 38.30139
# Shear Modulus (GPa) = 33.47823 42.33346 37.90584
#
# Velocity S-wave (km/s) = 3.56300 4.00661 3.79130
# Velocity P-wave (km/s) = 5.15094 6.39111 5.80424
#
# Compressibility (1/GPa) = 0.03947744
#
# Stress axis : x y z
#
# Youngs Moduli (GPa) = 36.25198 85.18946 118.94646
#
# Poissons Ratio (x) = -0.24697 0.46636
# Poissons Ratio (y) = -0.10510 0.36930
# Poissons Ratio (z) = 0.14213 0.26450
#
# Static dielectric constant tensor:
#      x y z
#    x 2.315420 0.156940 -0.007330 
#    y 0.156940 2.156410 -0.069030 
#    z -0.007330 -0.069030 2.069710 
# 
# From -- ./inp_files/559903.got.cif
#   From: 2010.05.17/outbox.cif.g08.bks.cpg/sg2_280_cif.got.tgz:559903.got - 2010.06.03 11:33:40.
