data_PCOD9033662
_publ_section_title
;
Structure prediction by ZEFSAII (Michael W. Deem and Ramdas Pophale) SiO2 
 PCOD9033662
Probable space group: P -1
;
_chemical_formula_sum "Si O2"
_cell_formula_units_Z 14
_cell_length_a 11.961565
_cell_length_b 6.586596
_cell_length_c 15.007242
_cell_angle_alpha 86.136245
_cell_angle_beta 45.894808
_cell_angle_gamma 58.137539
_cell_volume 627.796548
_symmetry_space_group_name_H-M "P -1"
_symmetry_group_IT_number 2
_symmetry_cell_setting 'triclinic'
loop_
_space_group_symop_operation_xyz
x,y,z
-x,-y,-z
loop_
_atom_site_type_symbol
_atom_site_label
_atom_site_fract_x
_atom_site_fract_y
_atom_site_fract_z
Si Si1 0.650518 0.859374 0.640494
Si Si2 0.117477 0.622125 0.991327
Si Si3 0.434283 0.678506 0.868601
Si Si4 0.238985 0.331156 0.756954
Si Si5 0.691244 0.849396 0.964421
Si Si6 0.164203 0.956548 0.341521
Si Si7 0.917576 0.448218 0.348073
O O1 0.543126 0.753135 0.744061
O O2 0.825679 0.635688 0.479841
O O3 0.471018 0.122722 0.673337
O O4 0.744348 0.923531 0.662279
O O5 0.241600 0.721584 0.932805
O O6 0.109815 0.582945 0.891427
O O7 0.273545 0.322082 0.963318
O O8 0.889228 0.770565 0.156073
O O9 0.632632 0.356090 0.788205
O O10 0.329127 0.901406 0.998758
O O11 0.236221 0.415905 0.655519
O O12 0.884764 0.613557 0.802754
O O13 0.500000 0.000000 0.000000
O O14 0.000000 0.000000 0.500000
O O15 0.019939 0.147932 0.332735
#
# Coordination Sequence:
#
# PCOD9033662 Si02
#       7
#     2   2   2   2   2   2   2
#     4  12  24  47  72 101 139 185 232 290 349 410
#     4  10  22  44  69 103 138 188 226 282 352 409
#     4  12  23  44  76  99 138 186 235 278 352 417
#     4  10  22  46  70 100 146 179 233 287 340 416
#     4  11  24  43  70 104 142 176 235 292 340 411
#     4  12  26  45  72 103 138 183 233 285 357 414
#     4  11  25  44  69 103 141 179 228 293 345 404
#
# _framework density 22.300218999999998
#
# number of rings (size 3 to 8) (size 9 to 14) (size 15 to 20)
#    0.000    0.857    4.286    2.571    2.000    2.857 
#    2.571    2.857    0.000    0.000    0.000    0.000 
#    0.000    0.000    0.000    0.000    0.000    0.000 
#
# Total GULP energy -78128.922752 kJ/mol
# GULP energy per Si atom -5580.637339 kJ/mol
# Density = 2.224946 g / cm^3
# Si number density = 22.300219 Si / 1000 Ang^3
#
#
#
# Elastic Constant Matrix: (Units=GPa)
#
#
# Indices 1 2 3 4 5 6 
#
# 1 98.3816 43.4677 20.3266 -3.6081 -3.2457 11.1487
# 2 43.4677 81.4205 16.7660 -5.3122 10.0292 -10.0209
# 3 20.3266 16.7660 99.0924 4.9261 3.2569 8.4694
# 4 -3.6081 -5.3122 4.9261 27.6369 -5.9793 -6.9938
# 5 -3.2457 10.0292 3.2569 -5.9793 31.9129 -3.7901
# 6 11.1487 -10.0209 8.4694 -6.9938 -3.7901 45.7755
#
#
#
# Elastic Compliance Matrix: (Units=1/GPa)
#
#
# Indices 1 2 3 4 5 6 
#
# 1 0.015044 -0.008859 -0.001286 0.000050 0.003856 -0.005039
# 2 -0.008859 0.019135 -0.002002 0.003466 -0.005252 0.006812
# 3 -0.001286 -0.002002 0.011176 -0.003636 -0.001666 -0.002886
# 4 0.000050 0.003466 -0.003636 0.041370 0.008036 0.008405
# 5 0.003856 -0.005252 -0.001666 0.008036 0.035335 0.002373
# 6 -0.005039 0.006812 -0.002886 0.008405 0.002373 0.026579
#
#
# Mechanical properties :
#
#
# Convention : Reuss Voigt Hill
#
# Bulk Modulus (GPa) = 47.47860 48.89057 48.18458
# Shear Modulus (GPa) = 27.78493 34.28736 31.03614
#
# Velocity S-wave (km/s) = 3.53363 3.92539 3.73465
# Velocity P-wave (km/s) = 6.16324 6.52046 6.34437
#
# Compressibility (1/GPa) = 0.02106212
#
# Stress axis : x y z
#
# Youngs Moduli (GPa) = 66.47089 52.26031 89.47505
#
# Poissons Ratio (x) = 0.46296 0.11504
# Poissons Ratio (y) = 0.58885 0.17915
# Poissons Ratio (z) = 0.08546 0.10464
#
# Static dielectric constant tensor:
#      x y z
#    x 1.856740 -0.037430 0.004190 
#    y -0.037430 1.930910 -0.029780 
#    z 0.004190 -0.029780 1.883720 
# 
# From -- ./inp_files/364401.got.cif
#   From: 2010.05.17/outbox.cif.g08.bks.cpg/sg2_183_cif.got.tgz:364401.got - 2010.06.03 11:33:40.
