data_PCOD9033297
_publ_section_title
;
Structure prediction by ZEFSAII (Michael W. Deem and Ramdas Pophale) SiO2 
 PCOD9033297
Probable space group: P -1
;
_chemical_formula_sum "Si O2"
_cell_formula_units_Z 10
_cell_length_a 14.244032
_cell_length_b 14.386812
_cell_length_c 11.000534
_cell_angle_alpha 40.202522
_cell_angle_beta 149.254484
_cell_angle_gamma 159.104264
_cell_volume 401.455989
_symmetry_space_group_name_H-M "P -1"
_symmetry_group_IT_number 2
_symmetry_cell_setting 'triclinic'
loop_
_space_group_symop_operation_xyz
x,y,z
-x,-y,-z
loop_
_atom_site_type_symbol
_atom_site_label
_atom_site_fract_x
_atom_site_fract_y
_atom_site_fract_z
Si Si1 0.804186 0.125495 0.137075
Si Si2 0.685561 0.892707 0.726180
Si Si3 0.262165 0.557334 0.006550
Si Si4 0.993748 0.640381 0.461453
Si Si5 0.366677 0.475208 0.617433
O O1 0.962248 0.321712 0.004899
O O2 0.132730 0.324183 0.389908
O O3 0.617275 0.854773 0.159614
O O4 0.500000 0.000000 0.000000
O O5 0.366645 0.647288 0.704111
O O6 0.543663 0.741789 0.588102
O O7 0.768018 0.113845 0.605375
O O8 0.000000 0.000000 0.000000
O O9 0.363076 0.473238 0.141862
O O10 0.141019 0.607046 0.736008
O O11 0.885953 0.699309 0.374869
#
# Coordination Sequence:
#
# PCOD9033297 Si02
#       5
#     2   2   2   2   2
#     4  12  24  40  64  93 133 172 205 253 311 372
#     4  10  22  44  67  89 124 164 207 264 320 365
#     4  12  25  41  64  95 131 167 211 254 308 377
#     4  10  23  40  66  88 129 159 212 254 318 364
#     4  10  26  39  67  92 129 166 217 251 312 371
#
# _framework density 24.909331000000002
#
# number of rings (size 3 to 8) (size 9 to 14) (size 15 to 20)
#    1.200    0.000    2.000    3.600    5.600    0.000 
#    0.000    2.000    0.000    0.000    0.000    0.000 
#    0.000    0.000    0.000    0.000    0.000    0.000 
#
# Total GULP energy -55844.225768 kJ/mol
# GULP energy per Si atom -5584.422577 kJ/mol
# Density = 2.485264 g / cm^3
# Si number density = 24.909331 Si / 1000 Ang^3
#
#
#
# Elastic Constant Matrix: (Units=GPa)
#
#
# Indices 1 2 3 4 5 6 
#
# 1 101.2359 49.5431 52.7796 -13.5947 22.0751 11.4054
# 2 49.5431 222.2793 49.1500 -0.0999 8.8152 20.6228
# 3 52.7796 49.1500 139.5175 2.0158 23.4201 17.9811
# 4 -13.5947 -0.0999 2.0158 37.7968 -8.7250 -5.7570
# 5 22.0751 8.8152 23.4201 -8.7250 22.4705 -0.7412
# 6 11.4054 20.6228 17.9811 -5.7570 -0.7412 23.2102
#
#
#
# Elastic Compliance Matrix: (Units=1/GPa)
#
#
# Indices 1 2 3 4 5 6 
#
# 1 0.015425 -0.002084 -0.003068 0.002926 -0.010099 -0.002948
# 2 -0.002084 0.005442 -0.000637 -0.001262 -0.000034 -0.003632
# 3 -0.003068 -0.000637 0.011677 -0.005694 -0.011406 -0.008750
# 4 0.002926 -0.001262 -0.005694 0.033735 0.017083 0.013008
# 5 -0.010099 -0.000034 -0.011406 0.017083 0.073632 0.020418
# 6 -0.002948 -0.003632 -0.008750 0.013008 0.020418 0.058417
#
#
# Mechanical properties :
#
#
# Convention : Reuss Voigt Hill
#
# Bulk Modulus (GPa) = 47.69664 85.10868 66.40266
# Shear Modulus (GPa) = 23.05276 37.46616 30.25946
#
# Velocity S-wave (km/s) = 3.04545 3.88248 3.48916
# Velocity P-wave (km/s) = 5.61747 7.37155 6.55346
#
# Compressibility (1/GPa) = 0.02096584
#
# Stress axis : x y z
#
# Youngs Moduli (GPa) = 64.83181 183.75898 85.63794
#
# Poissons Ratio (x) = 0.38299 0.26273
# Poissons Ratio (y) = 0.13512 0.05452
# Poissons Ratio (z) = 0.19890 0.11699
#
# Static dielectric constant tensor:
#      x y z
#    x 2.078450 0.033100 0.005860 
#    y 0.033100 2.082590 0.014850 
#    z 0.005860 0.014850 1.939510 
# 
# From -- ./inp_files/78749.got.cif
#   From: 2010.05.17/outbox.cif.g08.bks.cpg/sg2_40_cif.got.tgz:78749.got - 2010.06.03 11:33:40.
