data_PCOD9033794
_publ_section_title
;
Structure prediction by ZEFSAII (Michael W. Deem and Ramdas Pophale) SiO2 
 PCOD9033794
Probable space group: P -1
;
_chemical_formula_sum "Si O2"
_cell_formula_units_Z 13
_cell_length_a 12.397521
_cell_length_b 8.396896
_cell_length_c 8.060928
_cell_angle_alpha 121.261395
_cell_angle_beta 70.781753
_cell_angle_gamma 73.029822
_cell_volume 555.006932
_symmetry_space_group_name_H-M "P -1"
_symmetry_group_IT_number 2
_symmetry_cell_setting 'triclinic'
loop_
_space_group_symop_operation_xyz
x,y,z
-x,-y,-z
loop_
_atom_site_type_symbol
_atom_site_label
_atom_site_fract_x
_atom_site_fract_y
_atom_site_fract_z
Si Si1 0.548843 0.247744 0.373143
Si Si2 0.108848 0.563101 0.944938
Si Si3 0.322211 0.191738 0.375298
Si Si4 0.812535 0.940393 0.867328
Si Si5 0.161570 0.798383 0.290972
Si Si6 0.407293 0.740516 0.269781
Si Si7 0.000000 0.000000 0.000000
O O1 0.500000 0.500000 0.500000
O O2 0.450410 0.209562 0.291117
O O3 0.536216 0.242270 0.573563
O O4 0.707814 0.070177 0.142848
O O5 0.227666 0.373884 0.662685
O O6 0.168665 0.583191 0.101267
O O7 0.000000 0.500000 0.000000
O O8 0.043416 0.804962 0.017448
O O9 0.224084 0.219655 0.288093
O O10 0.389592 0.943072 0.282398
O O11 0.778470 0.127157 0.846152
O O12 0.961768 0.859167 0.816846
O O13 0.256845 0.775256 0.383524
O O14 0.000000 0.000000 0.500000
O O15 0.500000 0.500000 0.000000
#
# Coordination Sequence:
#
# PCOD9033794 Si02
#       7
#     2   2   2   2   2   2   1
#     4  12  24  42  68 102 142 182 235 303 360 426
#     4  11  23  43  72 101 144 187 243 299 362 438
#     4  11  24  46  67 102 141 185 242 296 359 440
#     4  10  23  40  69  96 140 181 234 296 363 421
#     4  10  22  44  69  99 144 183 240 297 358 439
#     4  11  24  44  72 100 137 194 240 292 366 431
#     4  10  24  44  66 100 146 180 244 290 368 424
#
# _framework density 23.423128999999999
#
# number of rings (size 3 to 8) (size 9 to 14) (size 15 to 20)
#    0.000    1.231    0.000    7.385    6.462    0.615 
#    2.769    0.000    0.000    0.000    0.000    0.000 
#    0.000    0.000    0.000    0.000    0.000    0.000 
#
# Total GULP energy -72370.216295 kJ/mol
# GULP energy per Si atom -5566.939715 kJ/mol
# Density = 2.336982 g / cm^3
# Si number density = 23.423129 Si / 1000 Ang^3
#
#
#
# Elastic Constant Matrix: (Units=GPa)
#
#
# Indices 1 2 3 4 5 6 
#
# 1 128.3593 22.2758 0.1936 6.8881 41.3206 5.1185
# 2 22.2758 63.7661 3.0488 10.0356 7.5064 11.5085
# 3 0.1936 3.0488 107.1189 10.7412 8.5947 1.7765
# 4 6.8881 10.0356 10.7412 25.9304 -1.5256 9.6000
# 5 41.3206 7.5064 8.5947 -1.5256 50.4731 -4.0181
# 6 5.1185 11.5085 1.7765 9.6000 -4.0181 31.0651
#
#
#
# Elastic Compliance Matrix: (Units=1/GPa)
#
#
# Indices 1 2 3 4 5 6 
#
# 1 0.011399 -0.002247 0.001082 -0.002596 -0.009381 -0.001519
# 2 -0.002247 0.018306 0.000161 -0.004735 -0.001463 -0.005147
# 3 0.001082 0.000161 0.010022 -0.004777 -0.002736 0.000312
# 4 -0.002596 -0.004735 -0.004777 0.047654 0.004149 -0.011735
# 5 -0.009381 -0.001463 -0.002736 0.004149 0.028673 0.004671
# 6 -0.001519 -0.005147 0.000312 -0.011735 0.004671 0.038560
#
#
# Mechanical properties :
#
#
# Convention : Reuss Voigt Hill
#
# Bulk Modulus (GPa) = 26.51269 38.92007 32.71638
# Shear Modulus (GPa) = 29.55151 39.74213 34.64682
#
# Velocity S-wave (km/s) = 3.55581 4.12358 3.85017
# Velocity P-wave (km/s) = 5.31055 6.27088 5.81059
#
# Compressibility (1/GPa) = 0.03771779
#
# Stress axis : x y z
#
# Youngs Moduli (GPa) = 87.72946 54.62742 99.77795
#
# Poissons Ratio (x) = 0.12273 -0.10791
# Poissons Ratio (y) = 0.19710 -0.01603
# Poissons Ratio (z) = -0.09488 -0.00877
#
# Static dielectric constant tensor:
#      x y z
#    x 1.979560 -0.007600 -0.019910 
#    y -0.007600 1.846900 -0.045320 
#    z -0.019910 -0.045320 1.902950 
# 
# From -- ./inp_files/175691.got.cif
#   From: 2010.05.17/outbox.cif.g08.bks.cpg/sg2_88_cif.got.tgz:175691.got - 2010.06.03 11:33:40.
