data_PCOD9033207
_publ_section_title
;
Structure prediction by ZEFSAII (Michael W. Deem and Ramdas Pophale) SiO2 
 PCOD9033207
Probable space group: P -1
;
_chemical_formula_sum "Si O2"
_cell_formula_units_Z 14
_cell_length_a 15.031506
_cell_length_b 11.829848
_cell_length_c 21.428210
_cell_angle_alpha 29.378325
_cell_angle_beta 18.134011
_cell_angle_gamma 28.010507
_cell_volume 543.113259
_symmetry_space_group_name_H-M "P -1"
_symmetry_group_IT_number 2
_symmetry_cell_setting 'triclinic'
loop_
_space_group_symop_operation_xyz
x,y,z
-x,-y,-z
loop_
_atom_site_type_symbol
_atom_site_label
_atom_site_fract_x
_atom_site_fract_y
_atom_site_fract_z
Si Si1 0.462444 0.663134 0.636347
Si Si2 0.742074 0.174291 0.001328
Si Si3 0.826368 0.392521 0.259841
Si Si4 0.278420 0.897604 0.413620
Si Si5 0.645765 0.471396 0.812064
Si Si6 0.375352 0.914963 0.707576
Si Si7 0.496306 0.270826 0.883112
O O1 0.175598 0.687759 0.772040
O O2 0.408188 0.809812 0.666600
O O3 0.631908 0.383651 0.681727
O O4 0.619437 0.813158 0.417449
O O5 0.635668 0.388578 0.020839
O O6 0.462903 0.083734 0.212947
O O7 0.857821 0.283017 0.810803
O O8 0.031624 0.943265 0.941055
O O9 0.530184 0.640292 0.344817
O O10 0.819573 0.188616 0.413340
O O11 0.137144 0.438778 0.042044
O O12 0.000000 0.000000 0.500000
O O13 0.656140 0.716785 0.653428
O O14 0.613989 0.309518 0.853379
O O15 0.500000 0.000000 0.000000
#
# Coordination Sequence:
#
# PCOD9033207 Si02
#       7
#     2   2   2   2   2   2   2
#     4  10  23  42  66  98 134 179 228 278 341 412
#     4  11  23  41  71  95 134 177 220 285 341 404
#     4  11  25  43  67  99 136 182 227 280 349 401
#     4  11  25  43  69 103 138 176 229 286 343 409
#     4  10  23  41  64 100 126 176 229 269 338 399
#     4  10  22  44  66  96 137 174 225 281 339 405
#     4  11  25  44  69 101 140 184 228 285 337 408
#
# _framework density 25.777312999999999
#
# number of rings (size 3 to 8) (size 9 to 14) (size 15 to 20)
#    0.000    1.429    0.000    4.286    6.000    5.714 
#    2.571    2.143    0.000    0.000    0.000    0.000 
#    0.000    0.000    0.000    0.000    0.000    0.000 
#
# Total GULP energy -78141.734756 kJ/mol
# GULP energy per Si atom -5581.552483 kJ/mol
# Density = 2.571864 g / cm^3
# Si number density = 25.777313 Si / 1000 Ang^3
#
#
#
# Elastic Constant Matrix: (Units=GPa)
#
#
# Indices 1 2 3 4 5 6 
#
# 1 129.1245 41.6600 18.9116 -18.1045 25.4836 -17.6845
# 2 41.6600 133.1891 39.8102 -38.1707 -3.1019 -18.2919
# 3 18.9116 39.8102 74.3559 -25.9197 -6.7461 -4.0282
# 4 -18.1045 -38.1707 -25.9197 47.3724 -4.7345 -6.3465
# 5 25.4836 -3.1019 -6.7461 -4.7345 31.8128 0.5557
# 6 -17.6845 -18.2919 -4.0282 -6.3465 0.5557 34.4089
#
#
#
# Elastic Compliance Matrix: (Units=1/GPa)
#
#
# Indices 1 2 3 4 5 6 
#
# 1 0.011512 -0.002227 -0.001925 0.001232 -0.009749 0.004892
# 2 -0.002227 0.012606 -0.002166 0.009440 0.003837 0.006982
# 3 -0.001925 -0.002166 0.018803 0.008673 0.006582 0.001554
# 4 0.001232 0.009440 0.008673 0.036405 0.006959 0.013270
# 5 -0.009749 0.003837 0.006582 0.006959 0.042077 -0.001596
# 6 0.004892 0.006982 0.001554 0.013270 -0.001596 0.037943
#
#
# Mechanical properties :
#
#
# Convention : Reuss Voigt Hill
#
# Bulk Modulus (GPa) = 33.02069 59.71476 46.36772
# Shear Modulus (GPa) = 27.46095 38.47134 32.96615
#
# Velocity S-wave (km/s) = 3.26746 3.86741 3.58003
# Velocity P-wave (km/s) = 5.20316 6.56951 5.92584
#
# Compressibility (1/GPa) = 0.03028405
#
# Stress axis : x y z
#
# Youngs Moduli (GPa) = 86.86694 79.32867 53.18393
#
# Poissons Ratio (x) = 0.17669 0.10239
# Poissons Ratio (y) = 0.19348 0.11517
# Poissons Ratio (z) = 0.16724 0.17179
#
# Static dielectric constant tensor:
#      x y z
#    x 2.021690 -0.053500 0.081850 
#    y -0.053500 2.068060 -0.077080 
#    z 0.081850 -0.077080 2.149430 
# 
# From -- ./inp_files/284523.got.cif
#   From: 2010.05.17/outbox.cif.g08.bks.cpg/sg2_143_cif.got.tgz:284523.got - 2010.06.03 11:33:40.
