data_PCOD9033273
_publ_section_title
;
Structure prediction by ZEFSAII (Michael W. Deem and Ramdas Pophale) SiO2 
 PCOD9033273
Probable space group: P -1
;
_chemical_formula_sum "Si O2"
_cell_formula_units_Z 16
_cell_length_a 8.399344
_cell_length_b 8.469199
_cell_length_c 12.113326
_cell_angle_alpha 83.402478
_cell_angle_beta 86.038191
_cell_angle_gamma 122.895806
_cell_volume 709.747777
_symmetry_space_group_name_H-M "P -1"
_symmetry_group_IT_number 2
_symmetry_cell_setting 'triclinic'
loop_
_space_group_symop_operation_xyz
x,y,z
-x,-y,-z
loop_
_atom_site_type_symbol
_atom_site_label
_atom_site_fract_x
_atom_site_fract_y
_atom_site_fract_z
Si Si1 0.198711 0.704781 0.488093
Si Si2 0.330378 0.762247 0.230188
Si Si3 0.612456 0.158156 0.115688
Si Si4 0.220748 0.080466 0.495627
Si Si5 0.951277 0.085525 0.097539
Si Si6 0.688583 0.748711 0.284670
Si Si7 0.835409 0.489528 0.933430
Si Si8 0.421488 0.669643 0.674950
O O1 0.269382 0.771355 0.355026
O O2 0.328903 0.671098 0.563693
O O3 0.000000 0.500000 0.500000
O O4 0.214392 0.887036 0.527183
O O5 0.508289 0.741000 0.240960
O O6 0.166423 0.585811 0.182057
O O7 0.408752 0.957235 0.143674
O O8 0.772684 0.110731 0.090000
O O9 0.633274 0.241512 0.231035
O O10 0.643037 0.318796 0.015846
O O11 0.303980 0.214667 0.588247
O O12 0.351793 0.200419 0.374800
O O13 0.000000 0.000000 0.500000
O O14 0.128061 0.303469 0.091217
O O15 0.881682 0.931840 0.210823
O O16 0.000000 0.000000 0.000000
O O17 0.658558 0.548120 0.276474
O O18 0.000000 0.500000 0.000000
#
# Coordination Sequence:
#
# PCOD9033273 Si02
#       8
#     2   2   2   2   2   2   2   2
#     4  12  26  41  72 106 145 190 239 287 357 427
#     4  11  23  44  68 103 139 188 235 292 355 423
#     4  10  22  44  70 100 133 186 232 289 353 425
#     4  12  26  46  67 108 145 188 239 290 356 422
#     4  10  22  44  67 102 136 177 230 296 353 415
#     4  11  25  43  70 100 147 188 235 295 352 420
#     4  10  23  42  71  99 137 179 238 290 350 427
#     4  12  24  47  73 102 147 191 239 291 356 423
#
# _framework density 22.543219000000001
#
# number of rings (size 3 to 8) (size 9 to 14) (size 15 to 20)
#    0.000    1.000    2.500    4.125    7.000    0.000 
#    4.500    9.375    0.000    0.000    0.000    0.000 
#    0.000    0.000    0.000    0.000    0.000    0.000 
#
# Total GULP energy -89443.522910 kJ/mol
# GULP energy per Si atom -5590.220182 kJ/mol
# Density = 2.249191 g / cm^3
# Si number density = 22.543219 Si / 1000 Ang^3
#
#
#
# Elastic Constant Matrix: (Units=GPa)
#
#
# Indices 1 2 3 4 5 6 
#
# 1 50.5472 28.6476 24.8081 3.0541 -7.9644 -1.3031
# 2 28.6476 159.1443 24.7409 -5.8346 -10.7556 -22.9112
# 3 24.8081 24.7409 85.6810 7.0765 -18.5737 -5.0151
# 4 3.0541 -5.8346 7.0765 58.8711 0.6691 6.1231
# 5 -7.9644 -10.7556 -18.5737 0.6691 29.6522 7.8635
# 6 -1.3031 -22.9112 -5.0151 6.1231 7.8635 24.8222
#
#
#
# Elastic Compliance Matrix: (Units=1/GPa)
#
#
# Indices 1 2 3 4 5 6 
#
# 1 0.025308 -0.004128 -0.005714 -0.000610 0.002903 -0.004405
# 2 -0.004128 0.008185 -0.000916 0.000387 -0.000648 0.007263
# 3 -0.005714 -0.000916 0.015432 -0.001729 0.007863 -0.000092
# 4 -0.000610 0.000387 -0.001729 0.017713 -0.000372 -0.004275
# 5 0.002903 -0.000648 0.007863 -0.000372 0.042441 -0.012210
# 6 -0.004405 0.007263 -0.000092 -0.004275 -0.012210 0.051663
#
#
# Mechanical properties :
#
#
# Convention : Reuss Voigt Hill
#
# Bulk Modulus (GPa) = 36.48269 50.19619 43.33944
# Shear Modulus (GPa) = 26.12425 37.14750 31.63587
#
# Velocity S-wave (km/s) = 3.40788 4.06376 3.75019
# Velocity P-wave (km/s) = 5.63058 6.65836 6.16593
#
# Compressibility (1/GPa) = 0.02741026
#
# Stress axis : x y z
#
# Youngs Moduli (GPa) = 39.51332 122.17465 64.80071
#
# Poissons Ratio (x) = 0.50430 0.37026
# Poissons Ratio (y) = 0.16310 0.05934
# Poissons Ratio (z) = 0.22577 0.11188
#
# Static dielectric constant tensor:
#      x y z
#    x 1.856820 0.060230 -0.026370 
#    y 0.060230 1.785260 -0.031090 
#    z -0.026370 -0.031090 1.843440 
# 
# From -- ./inp_files/382288.got.cif
#   From: 2010.05.17/outbox.cif.g08.bks.cpg/sg2_192_cif.got.tgz:382288.got - 2010.06.03 11:33:40.
