data_PCOD9033738
_publ_section_title
;
Structure prediction by ZEFSAII (Michael W. Deem and Ramdas Pophale) SiO2 
 PCOD9033738
Probable space group: P -1
;
_chemical_formula_sum "Si O2"
_cell_formula_units_Z 10
_cell_length_a 5.234865
_cell_length_b 9.628508
_cell_length_c 11.350627
_cell_angle_alpha 58.004235
_cell_angle_beta 65.517880
_cell_angle_gamma 75.223717
_cell_volume 441.113648
_symmetry_space_group_name_H-M "P -1"
_symmetry_group_IT_number 2
_symmetry_cell_setting 'triclinic'
loop_
_space_group_symop_operation_xyz
x,y,z
-x,-y,-z
loop_
_atom_site_type_symbol
_atom_site_label
_atom_site_fract_x
_atom_site_fract_y
_atom_site_fract_z
Si Si1 0.699582 0.536280 0.602409
Si Si2 0.769652 0.566087 0.852234
Si Si3 0.442267 0.230213 0.675806
Si Si4 0.643385 0.882282 0.866199
Si Si5 0.002828 0.774441 0.059701
O O1 0.721564 0.573462 0.718363
O O2 0.544398 0.370327 0.680960
O O3 0.555169 0.687399 0.489595
O O4 0.000000 0.500000 0.500000
O O5 0.809100 0.745202 0.816368
O O6 0.500000 0.500000 0.000000
O O7 0.999702 0.417536 0.891396
O O8 0.619886 0.061381 0.732746
O O9 0.127476 0.204930 0.794851
O O10 0.322458 0.827083 0.967492
O O11 0.800880 0.875615 0.963663
#
# Coordination Sequence:
#
# PCOD9033738 Si02
#       5
#     2   2   2   2   2
#     4  11  24  44  67  93 136 181 218 268 335 400
#     4  10  22  44  69  96 133 175 220 270 332 394
#     4  11  24  41  68  97 133 177 225 270 329 396
#     4  11  25  40  70 103 132 170 224 281 323 384
#     4  11  22  42  69 100 135 175 218 271 332 397
#
# _framework density 22.669896999999999
#
# number of rings (size 3 to 8) (size 9 to 14) (size 15 to 20)
#    0.000    1.200    2.000    4.200    2.800    2.400 
#    0.000    1.000    0.000    0.000    0.000    0.000 
#    0.000    0.000    0.000    0.000    0.000    0.000 
#
# Total GULP energy -55966.601541 kJ/mol
# GULP energy per Si atom -5596.660154 kJ/mol
# Density = 2.261830 g / cm^3
# Si number density = 22.669897 Si / 1000 Ang^3
#
#
#
# Elastic Constant Matrix: (Units=GPa)
#
#
# Indices 1 2 3 4 5 6 
#
# 1 86.9130 12.2066 27.0475 -10.7891 3.6451 -4.4934
# 2 12.2066 138.0039 72.1200 -32.1531 14.2440 -15.4270
# 3 27.0475 72.1200 112.1491 -11.2792 29.1704 4.1898
# 4 -10.7891 -32.1531 -11.2792 54.5414 -10.5190 11.7924
# 5 3.6451 14.2440 29.1704 -10.5190 37.2473 -3.9935
# 6 -4.4934 -15.4270 4.1898 11.7924 -3.9935 32.2851
#
#
#
# Elastic Compliance Matrix: (Units=1/GPa)
#
#
# Indices 1 2 3 4 5 6 
#
# 1 0.013197 0.002242 -0.005252 0.002802 0.003071 0.002946
# 2 0.002242 0.014353 -0.010765 0.006180 0.005214 0.006955
# 3 -0.005252 -0.010765 0.020561 -0.003831 -0.013499 -0.008814
# 4 0.002802 0.006180 -0.003831 0.023907 0.006678 -0.004066
# 5 0.003071 0.005214 -0.013499 0.006678 0.037751 0.006901
# 6 0.002946 0.006955 -0.008814 -0.004066 0.006901 0.038190
#
#
# Mechanical properties :
#
#
# Convention : Reuss Voigt Hill
#
# Bulk Modulus (GPa) = 48.63448 62.20157 55.41802
# Shear Modulus (GPa) = 27.41812 39.86088 33.63950
#
# Velocity S-wave (km/s) = 3.48149 4.19778 3.85630
# Velocity P-wave (km/s) = 6.13685 7.14091 6.65784
#
# Compressibility (1/GPa) = 0.02056155
#
# Stress axis : x y z
#
# Youngs Moduli (GPa) = 75.77764 69.67235 48.63554
#
# Poissons Ratio (x) = -0.15624 0.25543
# Poissons Ratio (y) = -0.16993 0.52357
# Poissons Ratio (z) = 0.39797 0.75003
#
# Static dielectric constant tensor:
#      x y z
#    x 1.759320 0.029930 0.099600 
#    y 0.029930 1.864030 -0.067650 
#    z 0.099600 -0.067650 1.712040 
# 
# From -- ./inp_files/62466.got.cif
#   From: 2010.05.17/outbox.cif.g08.bks.cpg/sg2_32_cif.got.tgz:62466.got - 2010.06.03 11:33:40.
