data_PCOD9033842
_publ_section_title
;
Structure prediction by ZEFSAII (Michael W. Deem and Ramdas Pophale) SiO2 
 PCOD9033842
Probable space group: P -1
;
_chemical_formula_sum "Si O2"
_cell_formula_units_Z 13
_cell_length_a 8.161704
_cell_length_b 13.065457
_cell_length_c 17.553151
_cell_angle_alpha 22.256843
_cell_angle_beta 71.762554
_cell_angle_gamma 84.153752
_cell_volume 574.332292
_symmetry_space_group_name_H-M "P -1"
_symmetry_group_IT_number 2
_symmetry_cell_setting 'triclinic'
loop_
_space_group_symop_operation_xyz
x,y,z
-x,-y,-z
loop_
_atom_site_type_symbol
_atom_site_label
_atom_site_fract_x
_atom_site_fract_y
_atom_site_fract_z
Si Si1 0.537987 0.252147 0.622803
Si Si2 0.032842 0.566561 0.540378
Si Si3 0.000000 0.000000 0.500000
Si Si4 0.610499 0.238218 0.889604
Si Si5 0.086270 0.182837 0.180938
Si Si6 0.645317 0.904268 0.405803
Si Si7 0.472344 0.291052 0.223033
O O1 0.500000 0.500000 0.500000
O O2 0.776900 0.431725 0.454133
O O3 0.404831 0.121274 0.658094
O O4 0.483165 0.955173 0.887856
O O5 0.000000 0.500000 0.500000
O O6 0.838592 0.329597 0.780618
O O7 0.063073 0.905586 0.320417
O O8 0.935694 0.920975 0.655212
O O9 0.752427 0.832121 0.628595
O O10 0.608008 0.559941 0.667743
O O11 0.500000 0.000000 0.000000
O O12 0.310491 0.476034 0.928513
O O13 0.879664 0.180216 0.195098
O O14 0.494219 0.991603 0.406629
O O15 0.500000 0.500000 0.000000
#
# Coordination Sequence:
#
# PCOD9033842 Si02
#       7
#     2   2   1   2   2   2   2
#     4  12  23  43  71 100 146 189 237 297 360 426
#     4  11  23  43  72 105 143 188 240 294 361 431
#     4  10  22  44  70 102 140 188 244 290 354 424
#     4  11  23  46  68 101 143 186 240 296 354 426
#     4  10  23  43  71 101 142 187 238 298 357 423
#     4  11  24  44  71 108 140 191 244 295 366 429
#     4  10  22  44  70  98 142 184 237 297 354 419
#
# _framework density 22.634979999999999
#
# number of rings (size 3 to 8) (size 9 to 14) (size 15 to 20)
#    0.000    1.231    3.077    3.231    0.000    8.615 
#    0.000    7.692    0.000    0.000    0.000    0.000 
#    0.000    0.000    0.000    0.000    0.000    0.000 
#
# Total GULP energy -72383.513605 kJ/mol
# GULP energy per Si atom -5567.962585 kJ/mol
# Density = 2.258346 g / cm^3
# Si number density = 22.634980 Si / 1000 Ang^3
#
#
#
# Elastic Constant Matrix: (Units=GPa)
#
#
# Indices 1 2 3 4 5 6 
#
# 1 140.9775 32.8480 62.0028 -5.4664 -35.9452 2.6606
# 2 32.8480 112.0669 43.3055 -1.3636 -5.4637 19.7723
# 3 62.0028 43.3055 116.9562 -6.1444 -27.1137 -7.6703
# 4 -5.4664 -1.3636 -6.1444 29.1807 1.6714 -2.9074
# 5 -35.9452 -5.4637 -27.1137 1.6714 49.7273 4.7236
# 6 2.6606 19.7723 -7.6703 -2.9074 4.7236 48.4702
#
#
#
# Elastic Compliance Matrix: (Units=1/GPa)
#
#
# Indices 1 2 3 4 5 6 
#
# 1 0.010519 -0.001049 -0.003982 0.000646 0.005416 -0.001269
# 2 -0.001049 0.011879 -0.004579 -0.001068 -0.001397 -0.005441
# 3 -0.003982 -0.004579 0.013554 0.002090 0.003558 0.004010
# 4 0.000646 -0.001068 0.002090 0.035060 0.000042 0.002830
# 5 0.005416 -0.001397 0.003558 0.000042 0.025970 -0.001693
# 6 -0.001269 -0.005441 0.004010 0.002830 -0.001693 0.023890
#
#
# Mechanical properties :
#
#
# Convention : Reuss Voigt Hill
#
# Bulk Modulus (GPa) = 59.76366 71.81257 65.78811
# Shear Modulus (GPa) = 34.32433 40.93191 37.62812
#
# Velocity S-wave (km/s) = 3.89836 4.25708 4.08166
# Velocity P-wave (km/s) = 6.83546 7.48057 7.16528
#
# Compressibility (1/GPa) = 0.01673258
#
# Stress axis : x y z
#
# Youngs Moduli (GPa) = 95.06756 84.18210 73.77758
#
# Poissons Ratio (x) = 0.08829 0.29376
# Poissons Ratio (y) = 0.09970 0.33785
# Poissons Ratio (z) = 0.37854 0.38549
#
# Static dielectric constant tensor:
#      x y z
#    x 2.029260 -0.003230 -0.012560 
#    y -0.003230 1.876790 -0.012210 
#    z -0.012560 -0.012210 1.810090 
# 
# From -- ./inp_files/309732.got.cif
#   From: 2010.05.17/outbox.cif.g08.bks.cpg/sg2_155_cif.got.tgz:309732.got - 2010.06.03 11:33:40.
