data_PCOD9033365
_publ_section_title
;
Structure prediction by ZEFSAII (Michael W. Deem and Ramdas Pophale) SiO2 
 PCOD9033365
Probable space group: P -1
;
_chemical_formula_sum "Si O2"
_cell_formula_units_Z 16
_cell_length_a 15.595707
_cell_length_b 14.891970
_cell_length_c 8.857043
_cell_angle_alpha 101.875664
_cell_angle_beta 85.487853
_cell_angle_gamma 26.737975
_cell_volume 727.177565
_symmetry_space_group_name_H-M "P -1"
_symmetry_group_IT_number 2
_symmetry_cell_setting 'triclinic'
loop_
_space_group_symop_operation_xyz
x,y,z
-x,-y,-z
loop_
_atom_site_type_symbol
_atom_site_label
_atom_site_fract_x
_atom_site_fract_y
_atom_site_fract_z
Si Si1 0.317996 0.988255 0.892103
Si Si2 0.270659 0.277952 0.300195
Si Si3 0.060372 0.517991 0.722830
Si Si4 0.268413 0.756553 0.524551
Si Si5 0.218229 0.024441 0.577572
Si Si6 0.254973 0.704524 0.169671
Si Si7 0.698285 0.542325 0.880395
Si Si8 0.481345 0.142291 0.737442
O O1 0.503639 0.888194 0.833503
O O2 0.257755 0.020132 0.741941
O O3 0.467964 0.762639 0.882246
O O4 0.091959 0.248325 0.105118
O O5 0.143874 0.453570 0.518400
O O6 0.091731 0.424578 0.244748
O O7 0.354726 0.096784 0.292495
O O8 0.290843 0.278622 0.709826
O O9 0.500000 0.500000 0.500000
O O10 0.270057 0.863605 0.517012
O O11 0.268508 0.700956 0.348310
O O12 0.012115 0.993001 0.723261
O O13 0.379076 0.923776 0.408414
O O14 0.941370 0.316014 0.677704
O O15 0.256258 0.596964 0.087038
O O16 0.500000 0.500000 0.000000
O O17 0.647226 0.673195 0.050037
#
# Coordination Sequence:
#
# PCOD9033365 Si02
#       8
#     2   2   2   2   2   2   2   2
#     4  12  24  42  62  92 125 166 210 258 308 363
#     4  11  26  41  60  90 125 170 209 256 314 359
#     4  11  24  41  60  90 123 162 218 257 306 367
#     4  10  22  44  67  97 129 166 208 257 320 385
#     4  11  25  41  65  93 128 162 206 258 311 370
#     4  10  22  44  67  97 129 166 208 257 320 385
#     4  11  25  41  65  93 128 162 206 258 311 370
#     4  12  24  42  62  92 125 166 210 258 308 363
#
# _framework density 22.002880000000001
#
# number of rings (size 3 to 8) (size 9 to 14) (size 15 to 20)
#    0.000    1.000    3.750    2.250    3.500    1.000 
#    2.250    0.000    0.000    0.000    0.000    0.000 
#    0.000    0.000    0.000    0.000    0.000    0.000 
#
# Total GULP energy -89470.370741 kJ/mol
# GULP energy per Si atom -5591.898171 kJ/mol
# Density = 2.195280 g / cm^3
# Si number density = 22.002880 Si / 1000 Ang^3
#
#
#
# Elastic Constant Matrix: (Units=GPa)
#
#
# Indices 1 2 3 4 5 6 
#
# 1 75.4117 10.9556 27.4092 6.5886 -2.1703 -4.9504
# 2 10.9556 80.8567 34.7734 23.1962 -4.6667 -14.5628
# 3 27.4092 34.7734 98.7463 21.3366 2.3167 9.1510
# 4 6.5886 23.1962 21.3366 30.0786 -11.4732 2.6844
# 5 -2.1703 -4.6667 2.3167 -11.4732 30.4973 3.9931
# 6 -4.9504 -14.5628 9.1510 2.6844 3.9931 29.5966
#
#
#
# Elastic Compliance Matrix: (Units=1/GPa)
#
#
# Indices 1 2 3 4 5 6 
#
# 1 0.015276 0.001183 -0.004901 -0.000937 0.000679 0.004646
# 2 0.001183 0.021568 -0.005816 -0.015565 -0.003935 0.014551
# 3 -0.004901 -0.005816 0.015694 -0.006382 -0.003858 -0.007434
# 4 -0.000937 -0.015565 -0.006382 0.059804 0.022406 -0.014289
# 5 0.000679 -0.003935 -0.003858 0.022406 0.042050 -0.008335
# 6 0.004646 0.014551 -0.007434 -0.014289 -0.008335 0.046443
#
#
# Mechanical properties :
#
#
# Convention : Reuss Voigt Hill
#
# Bulk Modulus (GPa) = 29.87808 44.58789 37.23298
# Shear Modulus (GPa) = 21.63942 30.15960 25.89951
#
# Velocity S-wave (km/s) = 3.13945 3.70633 3.43461
# Velocity P-wave (km/s) = 5.17206 6.21485 5.71728
#
# Compressibility (1/GPa) = 0.03346936
#
# Stress axis : x y z
#
# Youngs Moduli (GPa) = 65.46073 46.36588 63.71916
#
# Poissons Ratio (x) = -0.05483 0.31226
# Poissons Ratio (y) = -0.07741 0.37060
# Poissons Ratio (z) = 0.32080 0.26967
#
# Static dielectric constant tensor:
#      x y z
#    x 1.807850 0.001560 -0.021560 
#    y 0.001560 1.832090 0.028370 
#    z -0.021560 0.028370 1.796950 
# 
# From -- ./inp_files/315600.got.cif
#   From: 2010.05.17/outbox.cif.g08.bks.cpg/sg2_158_cif.got.tgz:315600.got - 2010.06.03 11:33:40.
