data_PCOD9033650
_publ_section_title
;
Structure prediction by ZEFSAII (Michael W. Deem and Ramdas Pophale) SiO2 
 PCOD9033650
Probable space group: P -1
;
_chemical_formula_sum "Si O2"
_cell_formula_units_Z 16
_cell_length_a 8.878817
_cell_length_b 15.520430
_cell_length_c 8.264314
_cell_angle_alpha 40.874822
_cell_angle_beta 77.155330
_cell_angle_gamma 95.888046
_cell_volume 657.991263
_symmetry_space_group_name_H-M "P -1"
_symmetry_group_IT_number 2
_symmetry_cell_setting 'triclinic'
loop_
_space_group_symop_operation_xyz
x,y,z
-x,-y,-z
loop_
_atom_site_type_symbol
_atom_site_label
_atom_site_fract_x
_atom_site_fract_y
_atom_site_fract_z
Si Si1 0.029977 0.790190 0.357430
Si Si2 0.281445 0.883618 0.630484
Si Si3 0.354397 0.041229 0.049071
Si Si4 0.627665 0.845763 0.618461
Si Si5 0.036628 0.377897 0.068508
Si Si6 0.838959 0.425119 0.526082
Si Si7 0.668382 0.714659 0.455941
Si Si8 0.515973 0.414710 0.773894
O O1 0.941827 0.716529 0.654983
O O2 0.133932 0.704092 0.384512
O O3 0.870894 0.764908 0.317920
O O4 0.173441 0.949632 0.133202
O O5 0.444453 0.851713 0.668580
O O6 0.124760 0.735514 0.830644
O O7 0.328001 0.986854 0.315068
O O8 0.246569 0.984160 0.629214
O O9 0.398356 0.209040 0.773240
O O10 0.500000 0.000000 0.000000
O O11 0.637978 0.782082 0.532986
O O12 0.631958 0.731370 0.913007
O O13 0.000000 0.500000 0.000000
O O14 0.166253 0.467668 0.769187
O O15 0.674356 0.378983 0.740248
O O16 0.000000 0.500000 0.500000
O O17 0.575948 0.541083 0.716719
O O18 0.500000 0.500000 0.500000
#
# Coordination Sequence:
#
# PCOD9033650 Si02
#       8
#     2   2   2   2   2   2   2   2
#     4  10  24  42  68  98 134 183 225 281 348 414
#     4  10  22  44  69 102 130 182 236 279 344 423
#     4  11  23  44  69  99 135 177 229 286 348 416
#     4  11  25  43  69  98 142 181 230 287 349 409
#     4   9  21  40  69  97 132 175 230 279 341 412
#     4  11  22  43  68  97 135 176 228 283 340 411
#     4  12  25  45  66 100 140 184 232 288 351 413
#     4  12  28  43  68 105 140 182 233 293 350 408
#
# _framework density 24.316428999999999
#
# number of rings (size 3 to 8) (size 9 to 14) (size 15 to 20)
#    0.000    1.250    2.500    2.250    7.000    2.000 
#    2.250    1.250    0.000    0.000    0.000    0.000 
#    0.000    0.000    0.000    0.000    0.000    0.000 
#
# Total GULP energy -89502.479845 kJ/mol
# GULP energy per Si atom -5593.904990 kJ/mol
# Density = 2.426108 g / cm^3
# Si number density = 24.316429 Si / 1000 Ang^3
#
#
#
# Elastic Constant Matrix: (Units=GPa)
#
#
# Indices 1 2 3 4 5 6 
#
# 1 52.4144 6.5999 10.7231 -18.4338 9.6085 -4.5552
# 2 6.5999 133.3981 34.5950 -20.1177 -13.7715 -3.9022
# 3 10.7231 34.5950 108.8896 -8.3600 5.4283 -12.8857
# 4 -18.4338 -20.1177 -8.3600 42.7632 4.5058 -3.8292
# 5 9.6085 -13.7715 5.4283 4.5058 29.1648 -0.5096
# 6 -4.5552 -3.9022 -12.8857 -3.8292 -0.5096 34.0373
#
#
#
# Elastic Compliance Matrix: (Units=1/GPa)
#
#
# Indices 1 2 3 4 5 6 
#
# 1 0.025881 -0.000220 -0.000471 0.012459 -0.010389 0.004506
# 2 -0.000220 0.009201 -0.002828 0.003247 0.004449 0.000386
# 3 -0.000471 -0.002828 0.010844 0.001278 -0.003330 0.003812
# 4 0.012459 0.003247 0.001278 0.031873 -0.007629 0.005995
# 5 -0.010389 0.004449 -0.003330 -0.007629 0.041568 -0.002377
# 6 0.004506 0.000386 0.003812 0.005995 -0.002377 0.032109
#
#
# Mechanical properties :
#
#
# Convention : Reuss Voigt Hill
#
# Bulk Modulus (GPa) = 25.71592 44.28200 34.99896
# Shear Modulus (GPa) = 29.15856 37.37867 33.26861
#
# Velocity S-wave (km/s) = 3.46660 3.92494 3.70287
# Velocity P-wave (km/s) = 5.15961 6.22820 5.71892
#
# Compressibility (1/GPa) = 0.03888642
#
# Stress axis : x y z
#
# Youngs Moduli (GPa) = 38.63903 108.68473 92.21863
#
# Poissons Ratio (x) = 0.02392 0.04344
# Poissons Ratio (y) = 0.00850 0.26082
# Poissons Ratio (z) = 0.01820 0.30739
#
# Static dielectric constant tensor:
#      x y z
#    x 1.925630 0.043790 0.015870 
#    y 0.043790 1.969000 -0.013290 
#    z 0.015870 -0.013290 1.956740 
# 
# From -- ./inp_files/205194.got.cif
#   From: 2010.05.17/outbox.cif.g08.bks.cpg/sg2_103_cif.got.tgz:205194.got - 2010.06.03 11:33:40.
