data_PCOD9033953
_publ_section_title
;
Structure prediction by ZEFSAII (Michael W. Deem and Ramdas Pophale) SiO2 
 PCOD9033953
Probable space group: P -1
;
_chemical_formula_sum "Si O2"
_cell_formula_units_Z 16
_cell_length_a 16.127065
_cell_length_b 6.088811
_cell_length_c 22.651921
_cell_angle_alpha 63.374470
_cell_angle_beta 22.377537
_cell_angle_gamma 74.023510
_cell_volume 690.826338
_symmetry_space_group_name_H-M "P -1"
_symmetry_group_IT_number 2
_symmetry_cell_setting 'triclinic'
loop_
_space_group_symop_operation_xyz
x,y,z
-x,-y,-z
loop_
_atom_site_type_symbol
_atom_site_label
_atom_site_fract_x
_atom_site_fract_y
_atom_site_fract_z
Si Si1 0.425871 0.682121 0.940142
Si Si2 0.137267 0.212019 0.547444
Si Si3 0.805163 0.332581 0.224680
Si Si4 0.232814 0.583234 0.208776
Si Si5 0.572902 0.416624 0.585645
Si Si6 0.194585 0.883141 0.872129
Si Si7 0.086839 0.680846 0.713872
Si Si8 0.178438 0.974707 0.433904
O O1 0.580867 0.501811 0.868559
O O2 0.585890 0.957708 0.768191
O O3 0.346265 0.708162 0.056299
O O4 0.188077 0.524095 0.079077
O O5 0.319209 0.447070 0.440062
O O6 0.883361 0.234693 0.705589
O O7 0.099384 0.943848 0.640210
O O8 0.234059 0.196782 0.421132
O O9 0.612317 0.460494 0.328019
O O10 0.761624 0.120152 0.226419
O O11 0.802646 0.237008 0.304112
O O12 0.069102 0.572656 0.011151
O O13 0.994252 0.307049 0.388782
O O14 0.771775 0.458809 0.400096
O O15 0.432186 0.092148 0.721286
O O16 0.000000 0.000000 0.000000
O O17 0.000000 0.000000 0.500000
#
# Coordination Sequence:
#
# PCOD9033953 Si02
#       8
#     2   2   2   2   2   2   2   2
#     4  10  22  44  70  96 135 177 226 288 344 408
#     4  12  24  42  69  98 140 182 228 284 361 408
#     4  10  23  42  70  97 134 181 229 279 352 403
#     4  10  22  47  67  97 138 176 226 292 348 410
#     4  11  23  42  68  95 135 184 224 293 339 405
#     4   9  21  43  67  96 133 178 225 290 339 408
#     4  12  25  42  63 101 136 177 235 282 340 421
#     4  10  23  45  71 100 136 179 230 291 347 416
#
# _framework density 23.160668999999999
#
# number of rings (size 3 to 8) (size 9 to 14) (size 15 to 20)
#    0.000    1.500    2.500    1.125    0.000   11.500 
#    2.250    0.000    2.750    0.000    0.000    0.000 
#    0.000    0.000    0.000    0.000    0.000    0.000 
#
# Total GULP energy -89433.649838 kJ/mol
# GULP energy per Si atom -5589.603115 kJ/mol
# Density = 2.310795 g / cm^3
# Si number density = 23.160669 Si / 1000 Ang^3
#
#
#
# Elastic Constant Matrix: (Units=GPa)
#
#
# Indices 1 2 3 4 5 6 
#
# 1 97.4056 24.2771 28.3064 5.4513 10.7532 14.5311
# 2 24.2771 62.6888 28.4874 13.0996 -0.4485 14.2763
# 3 28.3064 28.4874 138.6001 2.2930 1.4251 11.3080
# 4 5.4513 13.0996 2.2930 34.9630 3.4383 -13.7674
# 5 10.7532 -0.4485 1.4251 3.4383 39.2880 6.5850
# 6 14.5311 14.2763 11.3080 -13.7674 6.5850 29.0922
#
#
#
# Elastic Compliance Matrix: (Units=1/GPa)
#
#
# Indices 1 2 3 4 5 6 
#
# 1 0.012508 -0.002338 -0.001569 -0.002848 -0.002251 -0.005328
# 2 -0.002338 0.026913 -0.003107 -0.018358 0.006172 -0.020916
# 3 -0.001569 -0.003107 0.008214 0.000607 0.000149 -0.000631
# 4 -0.002848 -0.018358 0.000607 0.051367 -0.010114 0.036793
# 5 -0.002251 0.006172 0.000149 -0.010114 0.029261 -0.013372
# 6 -0.005328 -0.020916 -0.000631 0.036793 -0.013372 0.067983
#
#
# Mechanical properties :
#
#
# Convention : Reuss Voigt Hill
#
# Bulk Modulus (GPa) = 29.75692 51.20402 40.48047
# Shear Modulus (GPa) = 22.57579 35.17686 28.87633
#
# Velocity S-wave (km/s) = 3.12548 3.90143 3.53481
# Velocity P-wave (km/s) = 5.08928 6.51545 5.84602
#
# Compressibility (1/GPa) = 0.03360563
#
# Stress axis : x y z
#
# Youngs Moduli (GPa) = 79.94965 37.15667 121.74415
#
# Poissons Ratio (x) = 0.08689 0.19100
# Poissons Ratio (y) = 0.18696 0.37830
# Poissons Ratio (z) = 0.12543 0.11546
#
# Static dielectric constant tensor:
#      x y z
#    x 1.853450 -0.031610 -0.006300 
#    y -0.031610 1.924900 -0.045140 
#    z -0.006300 -0.045140 1.907980 
# 
# From -- ./inp_files/612624.got.cif
#   From: 2010.05.17/outbox.cif.g08.bks.cpg/sg2_307_cif.got.tgz:612624.got - 2010.06.03 11:33:40.
