data_PCOD9033258
_publ_section_title
;
Structure prediction by ZEFSAII (Michael W. Deem and Ramdas Pophale) SiO2 
 PCOD9033258
Probable space group: P -1
;
_chemical_formula_sum "Si O2"
_cell_formula_units_Z 16
_cell_length_a 9.310962
_cell_length_b 12.253475
_cell_length_c 20.974141
_cell_angle_alpha 27.831222
_cell_angle_beta 46.806245
_cell_angle_gamma 37.480619
_cell_volume 678.549760
_symmetry_space_group_name_H-M "P -1"
_symmetry_group_IT_number 2
_symmetry_cell_setting 'triclinic'
loop_
_space_group_symop_operation_xyz
x,y,z
-x,-y,-z
loop_
_atom_site_type_symbol
_atom_site_label
_atom_site_fract_x
_atom_site_fract_y
_atom_site_fract_z
Si Si1 0.281195 0.626795 0.049117
Si Si2 0.223253 0.469605 0.913341
Si Si3 0.769503 0.582493 0.588291
Si Si4 0.283518 0.925271 0.363900
Si Si5 0.408240 0.012837 0.862286
Si Si6 0.458385 0.771758 0.708042
Si Si7 0.235303 0.551716 0.474693
Si Si8 0.101296 0.484506 0.798059
O O1 0.377386 0.396806 0.195092
O O2 0.052501 0.652007 0.077878
O O3 0.500000 0.500000 0.000000
O O4 0.243208 0.916228 0.935048
O O5 0.247786 0.722365 0.796439
O O6 0.214123 0.457095 0.846609
O O7 0.000000 0.500000 0.000000
O O8 0.452179 0.191368 0.015825
O O9 0.614903 0.619072 0.676795
O O10 0.772092 0.397343 0.625243
O O11 0.034260 0.484481 0.578617
O O12 0.645658 0.900091 0.433704
O O13 0.404189 0.035289 0.223069
O O14 0.184201 0.792341 0.415398
O O15 0.499661 0.697132 0.458893
O O16 0.075955 0.185735 0.330350
O O17 0.271987 0.325503 0.769131
#
# Coordination Sequence:
#
# PCOD9033258 Si02
#       8
#     2   2   2   2   2   2   2   2
#     4  11  22  44  66 101 140 178 219 281 343 405
#     4  11  22  44  66 101 140 178 219 281 343 405
#     4  10  22  44  67 101 131 182 230 279 334 402
#     4  11  23  45  67  97 137 172 225 284 342 400
#     4  11  25  41  65 101 132 177 223 268 348 411
#     4  10  23  41  70 101 138 173 233 277 334 412
#     4  10  24  44  66  96 132 180 228 284 344 396
#     4  12  23  41  67  95 134 176 217 278 337 406
#
# _framework density 23.579699999999999
#
# number of rings (size 3 to 8) (size 9 to 14) (size 15 to 20)
#    0.000    1.250    2.500    3.000    3.500    0.000 
#    0.000    1.250    0.000    0.000    0.000    0.000 
#    0.000    0.000    0.000    0.000    0.000    0.000 
#
# Total GULP energy -89589.649887 kJ/mol
# GULP energy per Si atom -5599.353118 kJ/mol
# Density = 2.352603 g / cm^3
# Si number density = 23.579700 Si / 1000 Ang^3
#
#
#
# Elastic Constant Matrix: (Units=GPa)
#
#
# Indices 1 2 3 4 5 6 
#
# 1 116.8235 2.1219 11.2949 -8.6759 -14.4666 12.2115
# 2 2.1219 98.1432 10.0267 -16.7473 0.4489 14.6460
# 3 11.2949 10.0267 55.4340 -0.6104 3.0402 5.4374
# 4 -8.6759 -16.7473 -0.6104 39.0011 1.1101 -6.7826
# 5 -14.4666 0.4489 3.0402 1.1101 19.3440 -2.0827
# 6 12.2115 14.6460 5.4374 -6.7826 -2.0827 25.3202
#
#
#
# Elastic Compliance Matrix: (Units=1/GPa)
#
#
# Indices 1 2 3 4 5 6 
#
# 1 0.010216 0.000843 -0.002246 0.001716 0.007460 -0.003859
# 2 0.000843 0.011946 -0.001700 0.004285 -0.000252 -0.005825
# 3 -0.002246 -0.001700 0.019338 -0.001280 -0.004911 -0.002833
# 4 0.001716 0.004285 -0.001280 0.028646 0.000243 0.004662
# 5 0.007460 -0.000252 -0.004911 0.000243 0.058304 0.002464
# 6 -0.003859 -0.005825 -0.002833 0.004662 0.002464 0.046784
#
#
# Mechanical properties :
#
#
# Convention : Reuss Voigt Hill
#
# Bulk Modulus (GPa) = 28.33297 35.25419 31.79358
# Shear Modulus (GPa) = 25.87930 33.19688 29.53809
#
# Velocity S-wave (km/s) = 3.31648 3.75621 3.54318
# Velocity P-wave (km/s) = 5.16792 5.81341 5.50014
#
# Compressibility (1/GPa) = 0.03529457
#
# Stress axis : x y z
#
# Youngs Moduli (GPa) = 97.88215 83.70862 51.71242
#
# Poissons Ratio (x) = -0.07058 0.11614
# Poissons Ratio (y) = -0.08253 0.08792
# Poissons Ratio (z) = 0.21982 0.14232
#
# Static dielectric constant tensor:
#      x y z
#    x 1.871040 -0.008720 -0.009740 
#    y -0.008720 1.893740 -0.042470 
#    z -0.009740 -0.042470 1.905940 
# 
# From -- ./inp_files/566458.got.cif
#   From: 2010.05.17/outbox.cif.g08.bks.cpg/sg2_284_cif.got.tgz:566458.got - 2010.06.03 11:33:40.
