data_PCOD9033878
_publ_section_title
;
Structure prediction by ZEFSAII (Michael W. Deem and Ramdas Pophale) SiO2 
 PCOD9033878
Probable space group: P -1
;
_chemical_formula_sum "Si O2"
_cell_formula_units_Z 16
_cell_length_a 21.667313
_cell_length_b 14.287326
_cell_length_c 8.918507
_cell_angle_alpha 125.519008
_cell_angle_beta 145.484855
_cell_angle_gamma 30.976616
_cell_volume 726.821395
_symmetry_space_group_name_H-M "P -1"
_symmetry_group_IT_number 2
_symmetry_cell_setting 'triclinic'
loop_
_space_group_symop_operation_xyz
x,y,z
-x,-y,-z
loop_
_atom_site_type_symbol
_atom_site_label
_atom_site_fract_x
_atom_site_fract_y
_atom_site_fract_z
Si Si1 0.815600 0.014834 0.095234
Si Si2 0.284290 0.401340 0.637693
Si Si3 0.015659 0.360676 0.474437
Si Si4 0.545314 0.834917 0.501641
Si Si5 0.814676 0.272535 0.239711
Si Si6 0.562081 0.969988 0.927873
Si Si7 0.967185 0.859480 0.923958
Si Si8 0.723854 0.274179 0.732474
O O1 0.980178 0.868548 0.413964
O O2 0.762700 0.195251 0.136473
O O3 0.911211 0.892207 0.014976
O O4 0.629101 0.099206 0.821383
O O5 0.119351 0.536608 0.556989
O O6 0.268798 0.372838 0.407292
O O7 0.329242 0.497609 0.807986
O O8 0.433974 0.181505 0.799428
O O9 0.990909 0.290615 0.226324
O O10 0.000000 0.500000 0.500000
O O11 0.226496 0.166606 0.778221
O O12 0.558139 0.853220 0.719448
O O13 0.500000 0.000000 0.500000
O O14 0.816696 0.248609 0.044387
O O15 0.500000 0.000000 0.000000
O O16 0.157881 0.772388 0.209899
O O17 0.789670 0.084429 0.703010
O O18 0.500000 0.500000 0.500000
#
# Coordination Sequence:
#
# PCOD9033878 Si02
#       8
#     2   2   2   2   2   2   2   2
#     4  10  23  48  71  96 145 183 233 298 339 428
#     4  11  25  44  67 103 134 185 236 283 358 419
#     4  12  25  42  70 101 140 184 230 292 353 421
#     4  10  25  45  68 102 138 184 236 289 356 407
#     4  10  23  46  68 102 135 185 234 274 367 405
#     4  11  24  46  70 101 139 183 236 294 345 421
#     4  10  23  43  70 101 138 183 231 290 355 410
#     4  10  22  44  70 105 138 177 232 294 350 424
#
# _framework density 22.013662
#
# number of rings (size 3 to 8) (size 9 to 14) (size 15 to 20)
#    0.000    1.500    2.500    0.750    7.000    2.000 
#   15.750    0.000    0.000    0.000    0.000    0.000 
#    0.000    0.000    0.000    0.000    0.000    0.000 
#
# Total GULP energy -89322.217445 kJ/mol
# GULP energy per Si atom -5582.638590 kJ/mol
# Density = 2.196356 g / cm^3
# Si number density = 22.013662 Si / 1000 Ang^3
#
#
#
# Elastic Constant Matrix: (Units=GPa)
#
#
# Indices 1 2 3 4 5 6 
#
# 1 115.5516 61.4145 45.8431 9.2378 -1.3809 -18.2088
# 2 61.4145 144.2857 26.3670 19.7674 -7.6832 -15.6448
# 3 45.8431 26.3670 82.6973 7.5489 -1.7960 -15.5492
# 4 9.2378 19.7674 7.5489 42.8556 -8.1462 0.7619
# 5 -1.3809 -7.6832 -1.7960 -8.1462 27.7776 4.5950
# 6 -18.2088 -15.6448 -15.5492 0.7619 4.5950 42.5405
#
#
#
# Elastic Compliance Matrix: (Units=1/GPa)
#
#
# Indices 1 2 3 4 5 6 
#
# 1 0.013725 -0.004607 -0.005738 -0.000122 -0.001368 0.002233
# 2 -0.004607 0.009540 0.000116 -0.003222 0.001224 0.001504
# 3 -0.005738 0.000116 0.016052 -0.001767 -0.000316 0.003520
# 4 -0.000122 -0.003222 -0.001767 0.026604 0.007311 -0.003149
# 5 -0.001368 0.001224 -0.000316 0.007311 0.039157 -0.004612
# 6 0.002233 0.001504 0.003520 -0.003149 -0.004612 0.026857
#
#
# Mechanical properties :
#
#
# Convention : Reuss Voigt Hill
#
# Bulk Modulus (GPa) = 53.02671 67.75377 60.39024
# Shear Modulus (GPa) = 31.50994 36.56209 34.03601
#
# Velocity S-wave (km/s) = 3.78746 4.07981 3.93635
# Velocity P-wave (km/s) = 6.57776 7.28272 6.93920
#
# Compressibility (1/GPa) = 0.01885842
#
# Stress axis : x y z
#
# Youngs Moduli (GPa) = 72.86209 104.81895 62.29592
#
# Poissons Ratio (x) = 0.48292 0.35745
# Poissons Ratio (y) = 0.33569 -0.00721
# Poissons Ratio (z) = 0.41808 -0.01213
#
# Static dielectric constant tensor:
#      x y z
#    x 1.887940 0.005160 -0.039770 
#    y 0.005160 1.801690 -0.016220 
#    z -0.039770 -0.016220 1.798500 
# 
# From -- ./inp_files/354603.got.cif
#   From: 2010.05.17/outbox.cif.g08.bks.cpg/sg2_178_cif.got.tgz:354603.got - 2010.06.03 11:33:40.
