data_PCOD9034695
_publ_section_title
;
Structure prediction by ZEFSAII (Michael W. Deem and Ramdas Pophale) SiO2 
 PCOD9034695
Probable space group: P -1
;
_chemical_formula_sum "Si O2"
_cell_formula_units_Z 14
_cell_length_a 6.188753
_cell_length_b 18.894524
_cell_length_c 14.010020
_cell_angle_alpha 155.555139
_cell_angle_beta 80.647438
_cell_angle_gamma 112.010892
_cell_volume 556.195511
_symmetry_space_group_name_H-M "P -1"
_symmetry_group_IT_number 2
_symmetry_cell_setting 'triclinic'
loop_
_space_group_symop_operation_xyz
x,y,z
-x,-y,-z
loop_
_atom_site_type_symbol
_atom_site_label
_atom_site_fract_x
_atom_site_fract_y
_atom_site_fract_z
Si Si1 0.182810 0.650536 0.477751
Si Si2 0.539282 0.723905 0.141300
Si Si3 0.668843 0.439696 0.354583
Si Si4 0.465688 0.013398 0.386499
Si Si5 0.207906 0.263220 0.038633
Si Si6 0.295333 0.927540 0.075801
Si Si7 0.009877 0.375028 0.755465
O O1 0.199723 0.464551 0.284329
O O2 0.093060 0.609747 0.322686
O O3 0.946029 0.630121 0.530513
O O4 0.461518 0.865704 0.731260
O O5 0.601400 0.832207 0.371927
O O6 0.390316 0.823420 0.226124
O O7 0.784805 0.783827 0.131183
O O8 0.323555 0.478443 0.854015
O O9 0.500000 0.500000 0.500000
O O10 0.489338 0.327664 0.137069
O O11 0.704243 0.271857 0.197272
O O12 0.784835 0.140340 0.508333
O O13 0.342047 0.948583 0.212740
O O14 0.993737 0.113760 0.949808
O O15 0.000000 0.500000 0.000000
#
# Coordination Sequence:
#
# PCOD9034695 Si02
#       7
#     2   2   2   2   2   2   2
#     4  10  22  40  62  90 127 156 197 254 297 350
#     4  10  17  32  57  83 117 163 197 236 288 347
#     4  11  24  44  67  86 115 161 204 250 312 362
#     4   9  18  32  55  84 117 159 200 234 287 352
#     4  11  22  38  62  91 121 156 204 250 299 356
#     4  10  22  40  59  91 126 152 196 252 298 361
#     4   9  17  33  56  82 117 161 195 232 285 349
#
# _framework density 25.171005999999998
#
# number of rings (size 3 to 8) (size 9 to 14) (size 15 to 20)
#    0.000    2.000    2.857    0.857    0.000    5.714 
#    0.000    7.857    0.000    0.000    0.000    0.000 
#    0.000    0.000    0.000    0.000    0.000    0.000 
#
# Total GULP energy -78192.769481 kJ/mol
# GULP energy per Si atom -5585.197820 kJ/mol
# Density = 2.511372 g / cm^3
# Si number density = 25.171006 Si / 1000 Ang^3
#
#
#
# Elastic Constant Matrix: (Units=GPa)
#
#
# Indices 1 2 3 4 5 6 
#
# 1 46.9300 40.1147 12.0742 6.0406 4.8204 27.5607
# 2 40.1147 113.3307 37.0016 11.0840 9.9726 32.7721
# 3 12.0742 37.0016 71.1048 11.0711 14.7513 19.8835
# 4 6.0406 11.0840 11.0711 52.1672 10.6564 12.6627
# 5 4.8204 9.9726 14.7513 10.6564 24.2668 0.3548
# 6 27.5607 32.7721 19.8835 12.6627 0.3548 54.1912
#
#
#
# Elastic Compliance Matrix: (Units=1/GPa)
#
#
# Indices 1 2 3 4 5 6 
#
# 1 0.038258 -0.010067 0.004074 0.001886 -0.006544 -0.015262
# 2 -0.010067 0.014706 -0.005259 -0.000268 -0.000703 -0.001777
# 3 0.004074 -0.005259 0.020070 0.000100 -0.010801 -0.006208
# 4 0.001886 -0.000268 0.000100 0.022518 -0.010126 -0.006029
# 5 -0.006544 -0.000703 -0.010801 -0.010126 0.053668 0.009731
# 6 -0.015262 -0.001777 -0.006208 -0.006029 0.009731 0.030912
#
#
# Mechanical properties :
#
#
# Convention : Reuss Voigt Hill
#
# Bulk Modulus (GPa) = 19.79043 45.52739 32.65891
# Shear Modulus (GPa) = 22.78126 35.60337 29.19232
#
# Velocity S-wave (km/s) = 3.01168 3.76501 3.40922
# Velocity P-wave (km/s) = 4.46913 6.08497 5.33854
#
# Compressibility (1/GPa) = 0.05052948
#
# Stress axis : x y z
#
# Youngs Moduli (GPa) = 26.13864 67.99976 49.82601
#
# Poissons Ratio (x) = 0.68457 -0.20299
# Poissons Ratio (y) = 0.26314 0.26202
# Poissons Ratio (z) = -0.10649 0.35759
#
# Static dielectric constant tensor:
#      x y z
#    x 2.051430 0.056150 0.072260 
#    y 0.056150 2.053690 -0.036650 
#    z 0.072260 -0.036650 2.037030 
# 
# From -- ./inp_files/51603.got.cif
#   From: 2010.05.17/outbox.cif.g08.bks.cpg/sg2_26_cif.got.tgz:51603.got - 2010.06.03 11:33:40.
