data_PCOD9034133
_publ_section_title
;
Structure prediction by ZEFSAII (Michael W. Deem and Ramdas Pophale) SiO2 
 PCOD9034133
Probable space group: P -1
;
_chemical_formula_sum "Si O2"
_cell_formula_units_Z 16
_cell_length_a 7.993453
_cell_length_b 11.661058
_cell_length_c 14.514461
_cell_angle_alpha 137.341354
_cell_angle_beta 77.266218
_cell_angle_gamma 120.028276
_cell_volume 768.200149
_symmetry_space_group_name_H-M "P -1"
_symmetry_group_IT_number 2
_symmetry_cell_setting 'triclinic'
loop_
_space_group_symop_operation_xyz
x,y,z
-x,-y,-z
loop_
_atom_site_type_symbol
_atom_site_label
_atom_site_fract_x
_atom_site_fract_y
_atom_site_fract_z
Si Si1 0.974686 0.615754 0.155012
Si Si2 0.963260 0.612092 0.846832
Si Si3 0.419207 0.455214 0.586348
Si Si4 0.958164 0.970118 0.596042
Si Si5 0.198575 0.114205 0.978406
Si Si6 0.633670 0.310097 0.124144
Si Si7 0.870079 0.163379 0.349682
Si Si8 0.802508 0.487783 0.595376
O O1 0.746548 0.495718 0.149497
O O2 0.091836 0.585875 0.207741
O O3 0.042337 0.837498 0.255557
O O4 0.000000 0.500000 0.000000
O O5 0.826747 0.702939 0.941661
O O6 0.940992 0.562406 0.712380
O O7 0.198750 0.754579 0.930258
O O8 0.500000 0.500000 0.500000
O O9 0.247866 0.231665 0.484613
O O10 0.358043 0.602318 0.724130
O O11 0.606790 0.492126 0.646426
O O12 0.109544 0.936568 0.619855
O O13 0.000000 0.000000 0.500000
O O14 0.407042 0.174866 0.039513
O O15 0.184820 0.983479 0.815512
O O16 0.000000 0.000000 0.000000
O O17 0.743177 0.268506 0.444051
O O18 0.081021 0.357418 0.409063
#
# Coordination Sequence:
#
# PCOD9034133 Si02
#       8
#     2   2   2   2   2   2   2   2
#     4  10  23  45  69  98 142 193 236 283 357 426
#     4  10  22  44  71  95 144 182 229 298 349 414
#     4  12  23  41  72 107 138 184 243 293 359 424
#     4  12  23  45  72  98 138 187 236 289 351 420
#     4  12  23  43  67 107 143 181 239 291 357 434
#     4  10  24  44  70 101 144 190 222 302 359 406
#     4  11  24  40  66 100 140 177 230 296 345 422
#     4  11  22  43  65 101 141 175 230 300 357 401
#
# _framework density 20.827905000000001
#
# number of rings (size 3 to 8) (size 9 to 14) (size 15 to 20)
#    0.750    0.250    5.000    2.250    1.750    1.500 
#    0.000    7.500    0.000    0.000    0.000    0.000 
#    0.000    0.000    0.000    0.000    0.000    0.000 
#
# Total GULP energy -89206.763242 kJ/mol
# GULP energy per Si atom -5575.422703 kJ/mol
# Density = 2.078050 g / cm^3
# Si number density = 20.827905 Si / 1000 Ang^3
#
#
#
# Elastic Constant Matrix: (Units=GPa)
#
#
# Indices 1 2 3 4 5 6 
#
# 1 81.8456 0.3513 27.3632 -3.2091 13.5903 -8.8955
# 2 0.3513 96.3844 33.4639 -11.0989 9.3366 -15.3491
# 3 27.3632 33.4639 111.9684 -12.7837 -9.9716 -9.5231
# 4 -3.2091 -11.0989 -12.7837 31.3094 -0.3414 -6.2784
# 5 13.5903 9.3366 -9.9716 -0.3414 34.3453 6.6759
# 6 -8.8955 -15.3491 -9.5231 -6.2784 6.6759 29.6481
#
#
#
# Elastic Compliance Matrix: (Units=1/GPa)
#
#
# Indices 1 2 3 4 5 6 
#
# 1 0.016976 0.004670 -0.005470 0.002822 -0.011275 0.008891
# 2 0.004670 0.015527 -0.004982 0.006111 -0.009653 0.011307
# 3 -0.005470 -0.004982 0.012614 0.002646 0.007458 -0.001288
# 4 0.002822 0.006111 0.002646 0.038222 -0.004337 0.013931
# 5 -0.011275 -0.009653 0.007458 -0.004337 0.041481 -0.016244
# 6 0.008891 0.011307 -0.001288 0.013931 -0.016244 0.048444
#
#
# Mechanical properties :
#
#
# Convention : Reuss Voigt Hill
#
# Bulk Modulus (GPa) = 29.80374 45.83945 37.82160
# Shear Modulus (GPa) = 25.50856 34.32857 29.91857
#
# Velocity S-wave (km/s) = 3.50341 4.06421 3.79419
# Velocity P-wave (km/s) = 5.54128 6.63929 6.11498
#
# Compressibility (1/GPa) = 0.03355283
#
# Stress axis : x y z
#
# Youngs Moduli (GPa) = 58.90622 64.40296 79.27848
#
# Poissons Ratio (x) = -0.30079 0.43368
# Poissons Ratio (y) = -0.27511 0.39498
# Poissons Ratio (z) = 0.32223 0.32087
#
# Static dielectric constant tensor:
#      x y z
#    x 1.809620 -0.031960 0.007910 
#    y -0.031960 1.776740 0.007000 
#    z 0.007910 0.007000 1.760960 
# 
# From -- ./inp_files/500985.got.cif
#   From: 2010.05.17/outbox.cif.g08.bks.cpg/sg2_251_cif.got.tgz:500985.got - 2010.06.03 11:33:40.
