data_PCOD9034068
_publ_section_title
;
Structure prediction by ZEFSAII (Michael W. Deem and Ramdas Pophale) SiO2 
 PCOD9034068
Probable space group: P -1
;
_chemical_formula_sum "Si O2"
_cell_formula_units_Z 16
_cell_length_a 5.627605
_cell_length_b 14.352828
_cell_length_c 23.346673
_cell_angle_alpha 21.198633
_cell_angle_beta 86.458091
_cell_angle_gamma 85.630166
_cell_volume 679.688162
_symmetry_space_group_name_H-M "P -1"
_symmetry_group_IT_number 2
_symmetry_cell_setting 'triclinic'
loop_
_space_group_symop_operation_xyz
x,y,z
-x,-y,-z
loop_
_atom_site_type_symbol
_atom_site_label
_atom_site_fract_x
_atom_site_fract_y
_atom_site_fract_z
Si Si1 0.789328 0.709590 0.986898
Si Si2 0.725642 0.811993 0.586413
Si Si3 0.807816 0.816671 0.132497
Si Si4 0.260261 0.314392 0.561081
Si Si5 0.020016 0.154860 0.315347
Si Si6 0.505333 0.698668 0.107527
Si Si7 0.975185 0.797666 0.260361
Si Si8 0.766244 0.058734 0.675867
O O1 0.739245 0.847115 0.848155
O O2 0.573244 0.671117 0.056091
O O3 0.954412 0.906503 0.906524
O O4 0.907192 0.425986 0.139456
O O5 0.883926 0.801734 0.647221
O O6 0.668088 0.517275 0.747012
O O7 0.500000 0.000000 0.500000
O O8 0.835792 0.935409 0.457690
O O9 0.723234 0.650520 0.176326
O O10 0.914983 0.694381 0.258124
O O11 0.593064 0.009648 0.048151
O O12 0.000000 0.000000 0.000000
O O13 0.237802 0.240955 0.670292
O O14 0.520623 0.232512 0.581729
O O15 0.198472 0.618345 0.381795
O O16 0.024050 0.181546 0.614734
O O17 0.208400 0.057866 0.321006
#
# Coordination Sequence:
#
# PCOD9034068 Si02
#       8
#     2   2   2   2   2   2   2   2
#     4  11  22  46  73 103 141 189 238 301 359 434
#     4  11  25  46  70  97 142 193 235 302 355 433
#     4  11  23  41  65 108 140 184 235 298 357 437
#     4  10  25  46  72 107 148 191 241 298 370 435
#     4  11  26  47  70 105 140 191 247 298 366 427
#     4  11  24  41  70 104 142 188 241 289 369 429
#     4  10  22  44  71 102 148 191 235 293 368 434
#     4  11  26  47  75 110 144 190 244 308 361 433
#
# _framework density 23.540209000000001
#
# number of rings (size 3 to 8) (size 9 to 14) (size 15 to 20)
#    0.000    1.250    2.500    1.875    1.750    8.500 
#    0.000    3.750    0.000    0.000    0.000    0.000 
#    0.000    0.000    0.000    0.000    0.000    0.000 
#
# Total GULP energy -89473.656999 kJ/mol
# GULP energy per Si atom -5592.103562 kJ/mol
# Density = 2.348663 g / cm^3
# Si number density = 23.540209 Si / 1000 Ang^3
#
#
#
# Elastic Constant Matrix: (Units=GPa)
#
#
# Indices 1 2 3 4 5 6 
#
# 1 76.1549 25.5152 24.4923 -0.2239 -7.2021 -15.6357
# 2 25.5152 95.3317 33.6662 16.5024 -4.8103 -23.5651
# 3 24.4923 33.6662 113.5018 5.7796 -12.7337 -5.7267
# 4 -0.2239 16.5024 5.7796 24.8777 -2.8601 4.3340
# 5 -7.2021 -4.8103 -12.7337 -2.8601 20.5184 -9.1796
# 6 -15.6357 -23.5651 -5.7267 4.3340 -9.1796 44.2989
#
#
#
# Elastic Compliance Matrix: (Units=1/GPa)
#
#
# Indices 1 2 3 4 5 6 
#
# 1 0.016284 -0.002343 -0.001891 0.001961 0.006707 0.005454
# 2 -0.002343 0.016775 -0.002938 -0.011695 0.003991 0.009688
# 3 -0.001891 -0.002938 0.010711 0.000019 0.005421 0.000276
# 4 0.001961 -0.011695 0.000019 0.049801 0.000273 -0.010342
# 5 0.006707 0.003991 0.005421 0.000273 0.063639 0.018351
# 6 0.005454 0.009688 0.000276 -0.010342 0.018351 0.034503
#
#
# Mechanical properties :
#
#
# Convention : Reuss Voigt Hill
#
# Bulk Modulus (GPa) = 33.98425 50.25953 42.12189
# Shear Modulus (GPa) = 23.16248 31.35998 27.26123
#
# Velocity S-wave (km/s) = 3.14021 3.65387 3.40674
# Velocity P-wave (km/s) = 5.25508 6.26082 5.77987
#
# Compressibility (1/GPa) = 0.02942540
#
# Stress axis : x y z
#
# Youngs Moduli (GPa) = 61.40848 59.61240 93.36142
#
# Poissons Ratio (x) = 0.13970 0.17656
# Poissons Ratio (y) = 0.14391 0.27429
# Poissons Ratio (z) = 0.11613 0.17514
#
# Static dielectric constant tensor:
#      x y z
#    x 1.980620 0.053050 0.001580 
#    y 0.053050 1.892000 -0.016780 
#    z 0.001580 -0.016780 1.909160 
# 
# From -- ./inp_files/101060.got.cif
#   From: 2010.05.17/outbox.cif.g08.bks.cpg/sg2_51_cif.got.tgz:101060.got - 2010.06.03 11:33:40.
