data_PCOD9034337
_publ_section_title
;
Structure prediction by ZEFSAII (Michael W. Deem and Ramdas Pophale) SiO2 
 PCOD9034337
Probable space group: P -1
;
_chemical_formula_sum "Si O2"
_cell_formula_units_Z 16
_cell_length_a 19.726327
_cell_length_b 9.296054
_cell_length_c 8.187479
_cell_angle_alpha 79.473700
_cell_angle_beta 127.452768
_cell_angle_gamma 58.589080
_cell_volume 687.063803
_symmetry_space_group_name_H-M "P -1"
_symmetry_group_IT_number 2
_symmetry_cell_setting 'triclinic'
loop_
_space_group_symop_operation_xyz
x,y,z
-x,-y,-z
loop_
_atom_site_type_symbol
_atom_site_label
_atom_site_fract_x
_atom_site_fract_y
_atom_site_fract_z
Si Si1 0.414773 0.017655 0.038498
Si Si2 0.969683 0.205498 0.841340
Si Si3 0.047723 0.769266 0.574829
Si Si4 0.293727 0.273814 0.470205
Si Si5 0.368148 0.285172 0.185074
Si Si6 0.233313 0.044298 0.349057
Si Si7 0.521430 0.544353 0.699055
Si Si8 0.774137 0.984119 0.272753
O O1 0.585800 0.768195 0.385974
O O2 0.366063 0.235300 0.004485
O O3 0.304835 0.042764 0.927599
O O4 0.384245 0.067796 0.791350
O O5 0.930826 0.254442 0.583519
O O6 0.844781 0.454849 0.714642
O O7 0.000000 0.000000 0.000000
O O8 0.104959 0.129843 0.062563
O O9 0.198550 0.515788 0.938577
O O10 0.000000 0.000000 0.500000
O O11 0.917694 0.841967 0.422853
O O12 0.253130 0.191531 0.313676
O O13 0.419782 0.376327 0.259775
O O14 0.500000 0.000000 0.500000
O O15 0.379225 0.761047 0.558564
O O16 0.196060 0.089694 0.478415
O O17 0.500000 0.500000 0.500000
O O18 0.648625 0.279831 0.029143
#
# Coordination Sequence:
#
# PCOD9034337 Si02
#       8
#     2   2   2   2   2   2   2   2
#     4  10  22  44  73 105 136 189 243 304 371 434
#     4  12  27  44  76 110 145 195 250 307 373 444
#     4  12  26  50  73 106 155 194 244 310 373 442
#     4  10  22  46  71 101 146 184 244 307 365 443
#     4  12  26  46  76 107 146 194 247 303 376 447
#     4  11  25  45  72 108 144 199 244 307 375 440
#     4  12  25  47  73 106 150 189 252 307 371 440
#     4  11  25  45  75 106 147 194 245 308 373 448
#
# _framework density 23.287502
#
# number of rings (size 3 to 8) (size 9 to 14) (size 15 to 20)
#    0.000    0.750    3.750    3.000    1.750    2.500 
#    4.500    0.000    0.000    0.000    0.000    0.000 
#    0.000    0.000    0.000    0.000    0.000    0.000 
#
# Total GULP energy -89365.632361 kJ/mol
# GULP energy per Si atom -5585.352023 kJ/mol
# Density = 2.323450 g / cm^3
# Si number density = 23.287502 Si / 1000 Ang^3
#
#
#
# Elastic Constant Matrix: (Units=GPa)
#
#
# Indices 1 2 3 4 5 6 
#
# 1 114.1102 38.9139 50.0111 1.9438 32.8902 8.3661
# 2 38.9139 130.5851 43.9231 3.1509 20.6320 15.9006
# 3 50.0111 43.9231 125.3741 -12.2704 36.3126 14.3763
# 4 1.9438 3.1509 -12.2704 36.8253 -6.8355 13.0933
# 5 32.8902 20.6320 36.3126 -6.8355 55.1795 1.7527
# 6 8.3661 15.9006 14.3763 13.0933 1.7527 47.8379
#
#
#
# Elastic Compliance Matrix: (Units=1/GPa)
#
#
# Indices 1 2 3 4 5 6 
#
# 1 0.012151 -0.001785 -0.003090 -0.002514 -0.004862 0.000263
# 2 -0.001785 0.009323 -0.002121 -0.000955 -0.001086 -0.001848
# 3 -0.003090 -0.002121 0.012184 0.004802 -0.004675 -0.003559
# 4 -0.002514 -0.000955 0.004802 0.033046 0.003102 -0.009844
# 5 -0.004862 -0.001086 -0.004675 0.003102 0.024860 0.000856
# 6 0.000263 -0.001848 -0.003559 -0.009844 0.000856 0.025205
#
#
# Mechanical properties :
#
#
# Convention : Reuss Voigt Hill
#
# Bulk Modulus (GPa) = 50.84891 70.64064 60.74477
# Shear Modulus (GPa) = 36.41231 43.78328 40.09780
#
# Velocity S-wave (km/s) = 3.95853 4.34074 4.15403
# Velocity P-wave (km/s) = 6.54033 7.45135 7.01066
#
# Compressibility (1/GPa) = 0.01966611
#
# Stress axis : x y z
#
# Youngs Moduli (GPa) = 82.29626 107.26368 82.07484
#
# Poissons Ratio (x) = 0.19146 0.25359
# Poissons Ratio (y) = 0.14690 0.17410
# Poissons Ratio (z) = 0.25428 0.22753
#
# Static dielectric constant tensor:
#      x y z
#    x 2.022670 -0.090970 -0.067140 
#    y -0.090970 2.097290 0.098600 
#    z -0.067140 0.098600 1.963110 
# 
# From -- ./inp_files/343567.got.cif
#   From: 2010.05.17/outbox.cif.g08.bks.cpg/sg2_172_cif.got.tgz:343567.got - 2010.06.03 11:33:40.
