data_PCOD9034613
_publ_section_title
;
Structure prediction by ZEFSAII (Michael W. Deem and Ramdas Pophale) SiO2 
 PCOD9034613
Probable space group: P -1
;
_chemical_formula_sum "Si O2"
_cell_formula_units_Z 16
_cell_length_a 12.219720
_cell_length_b 16.722189
_cell_length_c 5.505447
_cell_angle_alpha 66.989885
_cell_angle_beta 103.299632
_cell_angle_gamma 137.880789
_cell_volume 691.191624
_symmetry_space_group_name_H-M "P -1"
_symmetry_group_IT_number 2
_symmetry_cell_setting 'triclinic'
loop_
_space_group_symop_operation_xyz
x,y,z
-x,-y,-z
loop_
_atom_site_type_symbol
_atom_site_label
_atom_site_fract_x
_atom_site_fract_y
_atom_site_fract_z
Si Si1 0.887974 0.737492 0.767690
Si Si2 0.267492 0.934354 0.858849
Si Si3 0.519725 0.212088 0.427386
Si Si4 0.872459 0.387343 0.383011
Si Si5 0.498854 0.926357 0.792400
Si Si6 0.558131 0.400315 0.511444
Si Si7 0.859410 0.537815 0.830915
Si Si8 0.711397 0.674346 0.236973
O O1 0.832986 0.605957 0.904694
O O2 0.831162 0.731090 0.470372
O O3 0.081982 0.843604 0.793016
O O4 0.802871 0.739092 0.949718
O O5 0.347263 0.883832 0.910692
O O6 0.375423 0.072421 0.629820
O O7 0.320743 0.973722 0.118298
O O8 0.694782 0.274266 0.537428
O O9 0.528607 0.185762 0.184921
O O10 0.509168 0.306118 0.386332
O O11 0.000000 0.500000 0.500000
O O12 0.964130 0.358855 0.335729
O O13 0.850794 0.448294 0.094712
O O14 0.500000 0.000000 0.500000
O O15 0.722907 0.459226 0.649530
O O16 0.603778 0.525391 0.319520
O O17 0.416536 0.326528 0.730269
#
# Coordination Sequence:
#
# PCOD9034613 Si02
#       8
#     2   2   2   2   2   2   2   2
#     4  11  24  44  70  93 129 175 230 272 332 381
#     4  10  23  41  61  94 131 175 218 266 323 399
#     4  11  22  37  64  95 129 172 205 273 329 400
#     4  11  22  36  58  97 135 161 210 260 332 405
#     4   9  21  39  60  89 124 178 216 259 311 400
#     4  10  22  45  65  99 130 167 224 272 349 383
#     4  10  23  38  62  94 129 175 206 279 325 409
#     4  10  25  45  72  98 126 175 226 289 325 397
#
# _framework density 23.148430999999999
#
# number of rings (size 3 to 8) (size 9 to 14) (size 15 to 20)
#    0.000    1.750    1.250    1.500    7.000    8.500 
#    0.000    1.250    0.000    0.000    0.000    0.000 
#    0.000    0.000    0.000    0.000    0.000    0.000 
#
# Total GULP energy -89244.088266 kJ/mol
# GULP energy per Si atom -5577.755517 kJ/mol
# Density = 2.309574 g / cm^3
# Si number density = 23.148431 Si / 1000 Ang^3
#
#
#
# Elastic Constant Matrix: (Units=GPa)
#
#
# Indices 1 2 3 4 5 6 
#
# 1 106.1637 38.0119 15.5661 16.3749 -22.9034 -2.3586
# 2 38.0119 109.0541 27.1915 21.8607 -12.8743 -1.0326
# 3 15.5661 27.1915 38.0389 9.1242 -12.3222 -5.1236
# 4 16.3749 21.8607 9.1242 29.2194 -3.8695 -11.6304
# 5 -22.9034 -12.8743 -12.3222 -3.8695 34.9725 5.3291
# 6 -2.3586 -1.0326 -5.1236 -11.6304 5.3291 29.8736
#
#
#
# Elastic Compliance Matrix: (Units=1/GPa)
#
#
# Indices 1 2 3 4 5 6 
#
# 1 0.012609 -0.002510 -0.000161 -0.005151 0.007070 -0.002385
# 2 -0.002510 0.013435 -0.007025 -0.008035 0.000573 -0.004169
# 3 -0.000161 -0.007025 0.035496 -0.003389 0.008997 0.002908
# 4 -0.005151 -0.008035 -0.003389 0.051335 -0.004829 0.019581
# 5 0.007070 0.000573 0.008997 -0.004829 0.037041 -0.006367
# 6 -0.002385 -0.004169 0.002908 0.019581 -0.006367 0.042400
#
#
# Mechanical properties :
#
#
# Convention : Reuss Voigt Hill
#
# Bulk Modulus (GPa) = 23.72666 46.08843 34.90755
# Shear Modulus (GPa) = 22.14780 30.31225 26.23003
#
# Velocity S-wave (km/s) = 3.09653 3.62259 3.36984
# Velocity P-wave (km/s) = 4.80174 6.11970 5.50034
#
# Compressibility (1/GPa) = 0.04214668
#
# Stress axis : x y z
#
# Youngs Moduli (GPa) = 79.31143 74.43141 28.17248
#
# Poissons Ratio (x) = 0.18683 0.00453
# Poissons Ratio (y) = 0.19908 0.19792
# Poissons Ratio (z) = 0.01275 0.52292
#
# Static dielectric constant tensor:
#      x y z
#    x 1.922030 0.003910 -0.079420 
#    y 0.003910 1.879460 0.013460 
#    z -0.079420 0.013460 1.983560 
# 
# From -- ./inp_files/80502.got.cif
#   From: 2010.05.17/outbox.cif.g08.bks.cpg/sg2_41_cif.got.tgz:80502.got - 2010.06.03 11:33:40.
