data_PCOD9034037
_publ_section_title
;
Structure prediction by ZEFSAII (Michael W. Deem and Ramdas Pophale) SiO2 
 PCOD9034037
Probable space group: P -1
;
_chemical_formula_sum "Si O2"
_cell_formula_units_Z 14
_cell_length_a 16.189037
_cell_length_b 9.124238
_cell_length_c 8.146093
_cell_angle_alpha 70.907926
_cell_angle_beta 123.685361
_cell_angle_gamma 144.567621
_cell_volume 560.693523
_symmetry_space_group_name_H-M "P -1"
_symmetry_group_IT_number 2
_symmetry_cell_setting 'triclinic'
loop_
_space_group_symop_operation_xyz
x,y,z
-x,-y,-z
loop_
_atom_site_type_symbol
_atom_site_label
_atom_site_fract_x
_atom_site_fract_y
_atom_site_fract_z
Si Si1 0.607992 0.291729 0.005335
Si Si2 0.377563 0.051670 0.335595
Si Si3 0.279270 0.500513 0.598340
Si Si4 0.152024 0.557845 0.033244
Si Si5 0.064970 0.119441 0.254956
Si Si6 0.896812 0.406346 0.584837
Si Si7 0.271059 0.267452 0.126887
O O1 0.614632 0.370142 0.166254
O O2 0.772374 0.426857 0.051656
O O3 0.586145 0.420676 0.825895
O O4 0.500000 0.000000 0.000000
O O5 0.576594 0.278246 0.458685
O O6 0.341261 0.185871 0.208605
O O7 0.286507 0.828668 0.181489
O O8 0.286166 0.898028 0.464496
O O9 0.166810 0.224734 0.496167
O O10 0.146298 0.467858 0.502753
O O11 0.091732 0.333790 0.152950
O O12 0.007204 0.485393 0.830100
O O13 0.158744 0.134427 0.216325
O O14 0.865915 0.853924 0.117978
O O15 0.000000 0.500000 0.500000
#
# Coordination Sequence:
#
# PCOD9034037 Si02
#       7
#     2   2   2   2   2   2   2
#     4  11  24  46  71 105 144 186 235 301 357 413
#     4  12  24  43  72 104 143 193 235 288 360 425
#     4  12  25  42  71 108 144 184 240 299 348 422
#     4  11  21  43  72  98 140 192 237 278 356 436
#     4  10  22  44  71 100 139 193 238 287 352 429
#     4  12  24  39  68 107 139 181 240 294 340 421
#     4  10  24  44  72  98 143 197 236 287 357 427
#
# _framework density 24.969076000000001
#
# number of rings (size 3 to 8) (size 9 to 14) (size 15 to 20)
#    0.000    0.857    5.714    1.714    0.000    1.714 
#    0.000    1.429    0.000    0.000    0.000    0.000 
#    0.000    0.000    0.000    0.000    0.000    0.000 
#
# Total GULP energy -78199.053233 kJ/mol
# GULP energy per Si atom -5585.646660 kJ/mol
# Density = 2.491225 g / cm^3
# Si number density = 24.969076 Si / 1000 Ang^3
#
#
#
# Elastic Constant Matrix: (Units=GPa)
#
#
# Indices 1 2 3 4 5 6 
#
# 1 137.2760 35.5773 32.0199 2.7227 -0.5337 3.2919
# 2 35.5773 125.2819 14.8837 16.2640 -11.0727 1.2754
# 3 32.0199 14.8837 57.5003 14.0011 -16.6342 -0.1935
# 4 2.7227 16.2640 14.0011 29.1646 -4.8736 -3.4103
# 5 -0.5337 -11.0727 -16.6342 -4.8736 39.4075 -10.3564
# 6 3.2919 1.2754 -0.1935 -3.4103 -10.3564 52.0329
#
#
#
# Elastic Compliance Matrix: (Units=1/GPa)
#
#
# Indices 1 2 3 4 5 6 
#
# 1 0.009331 -0.002556 -0.006127 0.002867 -0.003080 -0.000976
# 2 -0.002556 0.009470 0.000900 -0.005064 0.002401 0.000079
# 3 -0.006127 0.000900 0.026145 -0.010531 0.010387 0.001840
# 4 0.002867 -0.005064 -0.010531 0.042232 0.000101 0.002692
# 5 -0.003080 0.002401 0.010387 0.000101 0.032134 0.006577
# 6 -0.000976 0.000079 0.001840 0.002692 0.006577 0.020771
#
#
# Mechanical properties :
#
#
# Convention : Reuss Voigt Hill
#
# Bulk Modulus (GPa) = 34.03666 53.89112 43.96389
# Shear Modulus (GPa) = 30.22223 39.95948 35.09086
#
# Velocity S-wave (km/s) = 3.48284 4.00479 3.75290
# Velocity P-wave (km/s) = 5.46211 6.55854 6.03527
#
# Compressibility (1/GPa) = 0.02938009
#
# Stress axis : x y z
#
# Youngs Moduli (GPa) = 107.17307 105.59907 38.24801
#
# Poissons Ratio (x) = 0.26995 0.23433
# Poissons Ratio (y) = 0.27397 -0.03443
# Poissons Ratio (z) = 0.65660 -0.09505
#
# Static dielectric constant tensor:
#      x y z
#    x 1.955900 0.027190 -0.082320 
#    y 0.027190 2.047370 -0.022790 
#    z -0.082320 -0.022790 2.156270 
# 
# From -- ./inp_files/167427.got.cif
#   From: 2010.05.17/outbox.cif.g08.bks.cpg/sg2_84_cif.got.tgz:167427.got - 2010.06.03 11:33:40.
