data_PCOD9034440
_publ_section_title
;
Structure prediction by ZEFSAII (Michael W. Deem and Ramdas Pophale) SiO2 
 PCOD9034440
Probable space group: P -1
;
_chemical_formula_sum "Si O2"
_cell_formula_units_Z 16
_cell_length_a 8.464320
_cell_length_b 21.614362
_cell_length_c 10.927092
_cell_angle_alpha 141.755016
_cell_angle_beta 135.901073
_cell_angle_gamma 30.985839
_cell_volume 630.761499
_symmetry_space_group_name_H-M "P -1"
_symmetry_group_IT_number 2
_symmetry_cell_setting 'triclinic'
loop_
_space_group_symop_operation_xyz
x,y,z
-x,-y,-z
loop_
_atom_site_type_symbol
_atom_site_label
_atom_site_fract_x
_atom_site_fract_y
_atom_site_fract_z
Si Si1 0.360663 0.967933 0.473803
Si Si2 0.260067 0.507815 0.660166
Si Si3 0.737006 0.713141 0.403020
Si Si4 0.413824 0.999054 0.090142
Si Si5 0.891338 0.571416 0.919981
Si Si6 0.203261 0.707450 0.747301
Si Si7 0.971339 0.720204 0.038493
Si Si8 0.297865 0.782241 0.458536
O O1 0.990639 0.074708 0.421172
O O2 0.500000 0.000000 0.500000
O O3 0.505440 0.814035 0.322854
O O4 0.457898 0.982614 0.685648
O O5 0.251151 0.598849 0.697301
O O6 0.562005 0.347578 0.583313
O O7 0.000000 0.500000 0.500000
O O8 0.189558 0.591188 0.872371
O O9 0.562191 0.771253 0.527530
O O10 0.880103 0.561366 0.243939
O O11 0.022466 0.704152 0.533877
O O12 0.045296 0.133089 0.102120
O O13 0.500000 0.000000 0.000000
O O14 0.623596 0.835986 0.970997
O O15 0.537782 0.650219 0.818179
O O16 0.936768 0.672972 0.073683
O O17 0.000000 0.500000 0.000000
O O18 0.144937 0.771683 0.240020
#
# Coordination Sequence:
#
# PCOD9034440 Si02
#       8
#     2   2   2   2   2   2   2   2
#     4  10  25  44  69 105 141 183 232 293 358 414
#     4  12  22  40  69 102 130 177 239 290 338 415
#     4  11  24  45  67  99 136 185 233 282 354 419
#     4  10  22  44  74  98 139 186 234 290 342 423
#     4  12  27  42  68 100 143 183 227 295 355 415
#     4  11  24  44  67  99 140 180 232 290 353 409
#     4  11  24  44  68 100 137 177 239 283 352 415
#     4  11  23  43  72  97 137 182 233 292 341 427
#
# _framework density 25.366166
#
# number of rings (size 3 to 8) (size 9 to 14) (size 15 to 20)
#    0.000    1.000    3.750    1.875    7.000    0.500 
#    2.250    1.250    0.000    0.000    0.000    0.000 
#    0.000    0.000    0.000    0.000    0.000    0.000 
#
# Total GULP energy -89348.065266 kJ/mol
# GULP energy per Si atom -5584.254079 kJ/mol
# Density = 2.530843 g / cm^3
# Si number density = 25.366166 Si / 1000 Ang^3
#
#
#
# Elastic Constant Matrix: (Units=GPa)
#
#
# Indices 1 2 3 4 5 6 
#
# 1 92.8427 47.7364 4.4597 -3.8924 5.3944 6.6031
# 2 47.7364 201.2439 1.4689 -1.4853 -0.7590 -16.6649
# 3 4.4597 1.4689 38.4319 -1.2257 1.6440 0.0021
# 4 -3.8924 -1.4853 -1.2257 23.4262 -3.6080 -4.1621
# 5 5.3944 -0.7590 1.6440 -3.6080 33.3050 -7.6838
# 6 6.6031 -16.6649 0.0021 -4.1621 -7.6838 43.2467
#
#
#
# Elastic Compliance Matrix: (Units=1/GPa)
#
#
# Indices 1 2 3 4 5 6 
#
# 1 0.013047 -0.003401 -0.001235 0.000774 -0.002910 -0.003745
# 2 -0.003401 0.006048 0.000120 0.000616 0.001481 0.003172
# 3 -0.001235 0.000120 0.026233 0.001060 -0.000938 0.000169
# 4 0.000774 0.000616 0.001060 0.044803 0.005956 0.005489
# 5 -0.002910 0.001481 -0.000938 0.005956 0.032939 0.007441
# 6 -0.003745 0.003172 0.000169 0.005489 0.007441 0.026768
#
#
# Mechanical properties :
#
#
# Convention : Reuss Voigt Hill
#
# Bulk Modulus (GPa) = 27.55196 48.87205 38.21200
# Shear Modulus (GPa) = 29.24525 38.58581 33.91553
#
# Velocity S-wave (km/s) = 3.39916 3.90443 3.66052
# Velocity P-wave (km/s) = 5.12747 6.29560 5.74132
#
# Compressibility (1/GPa) = 0.03629506
#
# Stress axis : x y z
#
# Youngs Moduli (GPa) = 76.64676 165.34815 38.12037
#
# Poissons Ratio (x) = 0.56238 0.04706
# Poissons Ratio (y) = 0.26069 -0.00456
# Poissons Ratio (z) = 0.09463 -0.01978
#
# Static dielectric constant tensor:
#      x y z
#    x 1.958610 -0.023440 -0.064330 
#    y -0.023440 2.115540 0.011440 
#    z -0.064330 0.011440 2.121600 
# 
# From -- ./inp_files/331750.got.cif
#   From: 2010.05.17/outbox.cif.g08.bks.cpg/sg2_166_cif.got.tgz:331750.got - 2010.06.03 11:33:40.
