data_PCOD9034096
_publ_section_title
;
Structure prediction by ZEFSAII (Michael W. Deem and Ramdas Pophale) SiO2 
 PCOD9034096
Probable space group: P -1
;
_chemical_formula_sum "Si O2"
_cell_formula_units_Z 14
_cell_length_a 15.375137
_cell_length_b 9.486282
_cell_length_c 22.798221
_cell_angle_alpha 26.330992
_cell_angle_beta 153.327566
_cell_angle_gamma 153.215166
_cell_volume 587.448287
_symmetry_space_group_name_H-M "P -1"
_symmetry_group_IT_number 2
_symmetry_cell_setting 'triclinic'
loop_
_space_group_symop_operation_xyz
x,y,z
-x,-y,-z
loop_
_atom_site_type_symbol
_atom_site_label
_atom_site_fract_x
_atom_site_fract_y
_atom_site_fract_z
Si Si1 0.357425 0.116484 0.026959
Si Si2 0.544876 0.239372 0.881074
Si Si3 0.969658 0.373337 0.790382
Si Si4 0.464406 0.116437 0.601524
Si Si5 0.001817 0.660039 0.053462
Si Si6 0.120314 0.527516 0.696135
Si Si7 0.328077 0.746713 0.539302
O O1 0.175646 0.192436 0.855629
O O2 0.500000 0.500000 0.000000
O O3 0.496160 0.015707 0.103730
O O4 0.233173 0.768219 0.122748
O O5 0.411679 0.462428 0.714851
O O6 0.804188 0.498682 0.948986
O O7 0.500000 0.000000 0.000000
O O8 0.706180 0.169914 0.711742
O O9 0.039541 0.546053 0.832767
O O10 0.059493 0.588788 0.703485
O O11 0.038212 0.058340 0.943009
O O12 0.500000 0.500000 0.500000
O O13 0.330525 0.843832 0.674371
O O14 0.332123 0.968512 0.516761
O O15 0.909100 0.437968 0.563526
O O16 0.500000 0.000000 0.500000
#
# Coordination Sequence:
#
# PCOD9034096 Si02
#       7
#     2   2   2   2   2   2   2
#     4  11  25  46  75 112 144 192 255 306 366 454
#     4  12  27  45  77 110 148 197 249 303 374 445
#     4  10  22  44  71 105 146 187 246 307 362 433
#     4  12  26  45  72 106 145 191 247 306 368 443
#     4  10  22  44  72  98 151 190 236 303 370 431
#     4  11  25  47  77 103 150 198 247 306 381 437
#     4  12  25  52  74 107 157 196 246 312 374 446
#
# _framework density 23.831885
#
# number of rings (size 3 to 8) (size 9 to 14) (size 15 to 20)
#    0.000    0.857    2.857    3.429    6.000    5.143 
#    0.000    0.000    0.000    0.000    0.000    0.000 
#    0.000    0.000    0.000    0.000    0.000    0.000 
#
# Total GULP energy -78305.475185 kJ/mol
# GULP energy per Si atom -5593.248227 kJ/mol
# Density = 2.377764 g / cm^3
# Si number density = 23.831885 Si / 1000 Ang^3
#
#
#
# Elastic Constant Matrix: (Units=GPa)
#
#
# Indices 1 2 3 4 5 6 
#
# 1 166.1146 46.3963 41.2914 -11.4944 -23.8358 11.6896
# 2 46.3963 85.7158 37.9800 11.1010 -8.5549 -5.5252
# 3 41.2914 37.9800 98.4894 7.7040 -14.0807 -4.1836
# 4 -11.4944 11.1010 7.7040 48.0038 4.4645 -2.7467
# 5 -23.8358 -8.5549 -14.0807 4.4645 32.1221 -1.1412
# 6 11.6896 -5.5252 -4.1836 -2.7467 -1.1412 57.1925
#
#
#
# Elastic Compliance Matrix: (Units=1/GPa)
#
#
# Indices 1 2 3 4 5 6 
#
# 1 0.008446 -0.003867 -0.001775 0.002713 0.004011 -0.002019
# 2 -0.003867 0.016290 -0.004243 -0.003926 0.000222 0.001870
# 3 -0.001775 -0.004243 0.013238 -0.001856 0.003646 0.000905
# 4 0.002713 -0.003926 -0.001856 0.022968 -0.003039 -0.000027
# 5 0.004011 0.000222 0.003646 -0.003039 0.036189 0.000044
# 6 -0.002019 0.001870 0.000905 -0.000027 0.000044 0.018144
#
#
# Mechanical properties :
#
#
# Convention : Reuss Voigt Hill
#
# Bulk Modulus (GPa) = 54.92349 66.85060 60.88705
# Shear Modulus (GPa) = 35.43254 42.44047 38.93650
#
# Velocity S-wave (km/s) = 3.86005 4.22456 4.04641
# Velocity P-wave (km/s) = 6.55461 7.20470 6.88733
#
# Compressibility (1/GPa) = 0.01820715
#
# Stress axis : x y z
#
# Youngs Moduli (GPa) = 118.39331 61.38575 75.53818
#
# Poissons Ratio (x) = 0.23737 0.13405
# Poissons Ratio (y) = 0.45780 0.32049
# Poissons Ratio (z) = 0.21009 0.26044
#
# Static dielectric constant tensor:
#      x y z
#    x 2.069660 0.075440 -0.035160 
#    y 0.075440 1.985370 0.048330 
#    z -0.035160 0.048330 1.913710 
# 
# From -- ./inp_files/597303.got.cif
#   From: 2010.05.17/outbox.cif.g08.bks.cpg/sg2_299_cif.got.tgz:597303.got - 2010.06.03 11:33:40.
