data_PCOD9034168
_publ_section_title
;
Structure prediction by ZEFSAII (Michael W. Deem and Ramdas Pophale) SiO2 
 PCOD9034168
Probable space group: P -1
;
_chemical_formula_sum "Si O2"
_cell_formula_units_Z 16
_cell_length_a 9.244867
_cell_length_b 11.345429
_cell_length_c 8.563697
_cell_angle_alpha 124.425052
_cell_angle_beta 100.518106
_cell_angle_gamma 83.868616
_cell_volume 728.455210
_symmetry_space_group_name_H-M "P -1"
_symmetry_group_IT_number 2
_symmetry_cell_setting 'triclinic'
loop_
_space_group_symop_operation_xyz
x,y,z
-x,-y,-z
loop_
_atom_site_type_symbol
_atom_site_label
_atom_site_fract_x
_atom_site_fract_y
_atom_site_fract_z
Si Si1 0.156481 0.420025 0.992598
Si Si2 0.252128 0.115007 0.785433
Si Si3 0.687293 0.582710 0.304359
Si Si4 0.228509 0.683431 0.684857
Si Si5 0.038327 0.927527 0.790684
Si Si6 0.270046 0.080827 0.414508
Si Si7 0.442884 0.900512 0.054959
Si Si8 0.390177 0.544334 0.364302
O O1 0.253614 0.459274 0.194870
O O2 0.140133 0.248068 0.855406
O O3 0.251767 0.451546 0.880151
O O4 0.000000 0.500000 0.000000
O O5 0.292007 0.048863 0.576594
O O6 0.407552 0.175875 0.919069
O O7 0.181727 0.000112 0.799846
O O8 0.767911 0.473977 0.358399
O O9 0.712698 0.748585 0.474473
O O10 0.511955 0.564301 0.270987
O O11 0.072887 0.760659 0.696225
O O12 0.307527 0.677299 0.527603
O O13 0.326397 0.784121 0.889967
O O14 0.899350 0.953331 0.675420
O O15 0.000000 0.000000 0.000000
O O16 0.371240 0.995897 0.249085
O O17 0.500000 0.000000 0.000000
O O18 0.500000 0.500000 0.500000
#
# Coordination Sequence:
#
# PCOD9034168 Si02
#       8
#     2   2   2   2   2   2   2   2
#     4  11  26  45  70 105 142 183 225 287 354 410
#     4  11  25  45  69  98 141 178 231 281 344 415
#     4  10  24  45  68 102 136 178 232 283 341 412
#     4  11  24  42  71 102 131 180 230 282 343 403
#     4  12  25  44  66  99 139 183 224 285 343 415
#     4  11  25  44  67 102 136 180 228 282 347 405
#     4  12  22  45  71 103 135 180 234 279 339 410
#     4  10  22  44  71  99 137 179 228 284 335 410
#
# _framework density 21.964289000000001
#
# number of rings (size 3 to 8) (size 9 to 14) (size 15 to 20)
#    0.000    1.000    2.500    3.375    5.250    4.500 
#    2.250    0.000    0.000    0.000    0.000    0.000 
#    0.000    0.000    0.000    0.000    0.000    0.000 
#
# Total GULP energy -89308.048379 kJ/mol
# GULP energy per Si atom -5581.753024 kJ/mol
# Density = 2.191430 g / cm^3
# Si number density = 21.964289 Si / 1000 Ang^3
#
#
#
# Elastic Constant Matrix: (Units=GPa)
#
#
# Indices 1 2 3 4 5 6 
#
# 1 90.1257 20.2159 47.8126 -0.2554 -8.3897 -11.4814
# 2 20.2159 60.3814 26.3846 -0.2999 -21.7353 5.3298
# 3 47.8126 26.3846 119.9831 -4.1531 -28.8834 -0.7479
# 4 -0.2554 -0.2999 -4.1531 25.2803 -8.1205 -4.0167
# 5 -8.3897 -21.7353 -28.8834 -8.1205 46.0833 2.9140
# 6 -11.4814 5.3298 -0.7479 -4.0167 2.9140 31.9538
#
#
#
# Elastic Compliance Matrix: (Units=1/GPa)
#
#
# Indices 1 2 3 4 5 6 
#
# 1 0.015903 -0.004532 -0.006243 -0.001089 -0.003760 0.006530
# 2 -0.004532 0.022593 -0.000652 0.002443 0.010235 -0.006038
# 3 -0.006243 -0.000652 0.012901 0.004140 0.007498 -0.001996
# 4 -0.001089 0.002443 0.004140 0.044447 0.011136 0.003870
# 5 -0.003760 0.010235 0.007498 0.011136 0.032787 -0.004473
# 6 0.006530 -0.006038 -0.001996 0.003870 -0.004473 0.035496
#
#
# Mechanical properties :
#
#
# Convention : Reuss Voigt Hill
#
# Bulk Modulus (GPa) = 35.03246 51.03515 43.03381
# Shear Modulus (GPa) = 25.44616 32.40195 28.92405
#
# Velocity S-wave (km/s) = 3.40740 3.84501 3.63280
# Velocity P-wave (km/s) = 5.60936 6.55730 6.10176
#
# Compressibility (1/GPa) = 0.02854495
#
# Stress axis : x y z
#
# Youngs Moduli (GPa) = 62.88258 44.26220 77.51153
#
# Poissons Ratio (x) = 0.20058 0.48388
# Poissons Ratio (y) = 0.28496 0.05051
# Poissons Ratio (z) = 0.39255 0.02884
#
# Static dielectric constant tensor:
#      x y z
#    x 1.902110 -0.020140 0.106830 
#    y -0.020140 1.922750 -0.039180 
#    z 0.106830 -0.039180 1.900530 
# 
# From -- ./inp_files/190807.got.cif
#   From: 2010.05.17/outbox.cif.g08.bks.cpg/sg2_96_cif.got.tgz:190807.got - 2010.06.03 11:33:40.
