data_PCOD9034217
_publ_section_title
;
Structure prediction by ZEFSAII (Michael W. Deem and Ramdas Pophale) SiO2 
 PCOD9034217
Probable space group: P -1
;
_chemical_formula_sum "Si O2"
_cell_formula_units_Z 14
_cell_length_a 15.326874
_cell_length_b 9.115305
_cell_length_c 5.543304
_cell_angle_alpha 67.583978
_cell_angle_beta 90.073424
_cell_angle_gamma 51.540408
_cell_volume 529.319198
_symmetry_space_group_name_H-M "P -1"
_symmetry_group_IT_number 2
_symmetry_cell_setting 'triclinic'
loop_
_space_group_symop_operation_xyz
x,y,z
-x,-y,-z
loop_
_atom_site_type_symbol
_atom_site_label
_atom_site_fract_x
_atom_site_fract_y
_atom_site_fract_z
Si Si1 0.441772 0.775598 0.054199
Si Si2 0.268182 0.050816 0.250533
Si Si3 0.020653 0.384377 0.821344
Si Si4 0.355973 0.518712 0.134609
Si Si5 0.935281 0.200076 0.704772
Si Si6 0.162755 0.894602 0.610501
Si Si7 0.368858 0.164950 0.500159
O O1 0.566856 0.628413 0.009183
O O2 0.399674 0.854906 0.277819
O O3 0.406482 0.631445 0.126862
O O4 0.373473 0.016900 0.790780
O O5 0.277818 0.210659 0.270956
O O6 0.239532 0.953051 0.509302
O O7 0.159437 0.165499 0.989817
O O8 0.000000 0.500000 0.500000
O O9 0.929103 0.356153 0.782796
O O10 0.000000 0.500000 0.000000
O O11 0.224085 0.722015 0.928571
O O12 0.350595 0.375569 0.406789
O O13 0.838957 0.220827 0.545060
O O14 0.033350 0.114733 0.546430
O O15 0.000000 0.000000 0.000000
O O16 0.500000 0.000000 0.500000
#
# Coordination Sequence:
#
# PCOD9034217 Si02
#       7
#     2   2   2   2   2   2   2
#     4  10  23  46  69 103 147 192 247 309 384 452
#     4  12  25  47  73 100 151 201 237 326 390 450
#     4  12  29  48  72 111 150 201 260 318 385 461
#     4  10  22  44  72 103 144 195 250 307 373 477
#     4  11  25  47  73 101 148 195 251 322 380 459
#     4  11  24  45  74 108 145 198 260 312 396 453
#     4  10  24  45  67 105 148 189 246 313 370 453
#
# _framework density 26.449069999999999
#
# number of rings (size 3 to 8) (size 9 to 14) (size 15 to 20)
#    0.000    1.143    2.857    1.714    6.000    2.857 
#    2.571    0.000    0.000    0.000    0.000    0.000 
#    0.000    0.000    0.000    0.000    0.000    0.000 
#
# Total GULP energy -78088.520273 kJ/mol
# GULP energy per Si atom -5577.751448 kJ/mol
# Density = 2.638887 g / cm^3
# Si number density = 26.449070 Si / 1000 Ang^3
#
#
#
# Elastic Constant Matrix: (Units=GPa)
#
#
# Indices 1 2 3 4 5 6 
#
# 1 132.7857 46.9562 26.0597 2.4063 -16.1856 32.2896
# 2 46.9562 145.0988 28.7337 11.5851 -8.1583 15.5263
# 3 26.0597 28.7337 76.3590 -18.0572 -15.6977 24.9770
# 4 2.4063 11.5851 -18.0572 49.6600 7.1983 -6.3685
# 5 -16.1856 -8.1583 -15.6977 7.1983 43.4365 -7.0250
# 6 32.2896 15.5263 24.9770 -6.3685 -7.0250 45.9927
#
#
#
# Elastic Compliance Matrix: (Units=1/GPa)
#
#
# Indices 1 2 3 4 5 6 
#
# 1 0.010211 -0.002345 -0.000450 -0.001226 0.002446 -0.005929
# 2 -0.002345 0.008506 -0.003111 -0.003009 0.000109 0.000064
# 3 -0.000450 -0.003111 0.019170 0.006176 0.003925 -0.007590
# 4 -0.001226 -0.003009 0.006176 0.023687 -0.002485 0.001423
# 5 0.002446 0.000109 0.003925 -0.002485 0.025736 -0.000299
# 6 -0.005929 0.000064 -0.007590 0.001423 -0.000299 0.030156
#
#
# Mechanical properties :
#
#
# Convention : Reuss Voigt Hill
#
# Bulk Modulus (GPa) = 38.35130 61.97141 50.16135
# Shear Modulus (GPa) = 36.23961 44.65075 40.44518
#
# Velocity S-wave (km/s) = 3.70559 4.11320 3.91471
# Velocity P-wave (km/s) = 5.73063 6.78522 6.28010
#
# Compressibility (1/GPa) = 0.02607474
#
# Stress axis : x y z
#
# Youngs Moduli (GPa) = 97.93700 117.55825 52.16418
#
# Poissons Ratio (x) = 0.27572 0.02347
# Poissons Ratio (y) = 0.22970 0.16228
# Poissons Ratio (z) = 0.04407 0.36571
#
# Static dielectric constant tensor:
#      x y z
#    x 2.092000 -0.046560 0.017260 
#    y -0.046560 2.112190 -0.022790 
#    z 0.017260 -0.022790 2.180120 
# 
# From -- ./inp_files/89785.got.cif
#   From: 2010.05.17/outbox.cif.g08.bks.cpg/sg2_45_cif.got.tgz:89785.got - 2010.06.03 11:33:40.
