data_PCOD9034870
_publ_section_title
;
Structure prediction by ZEFSAII (Michael W. Deem and Ramdas Pophale) SiO2 
 PCOD9034870
Probable space group: P -1
;
_chemical_formula_sum "Si O2"
_cell_formula_units_Z 14
_cell_length_a 12.906492
_cell_length_b 8.842661
_cell_length_c 11.215425
_cell_angle_alpha 141.463424
_cell_angle_beta 51.049195
_cell_angle_gamma 123.667562
_cell_volume 614.963769
_symmetry_space_group_name_H-M "P -1"
_symmetry_group_IT_number 2
_symmetry_cell_setting 'triclinic'
loop_
_space_group_symop_operation_xyz
x,y,z
-x,-y,-z
loop_
_atom_site_type_symbol
_atom_site_label
_atom_site_fract_x
_atom_site_fract_y
_atom_site_fract_z
Si Si1 0.524670 0.792603 0.174651
Si Si2 0.700293 0.121668 0.425980
Si Si3 0.423986 0.827925 0.830492
Si Si4 0.025021 0.759750 0.582483
Si Si5 0.125785 0.831179 0.073729
Si Si6 0.662673 0.567281 0.556531
Si Si7 0.948459 0.646104 0.311150
O O1 0.403022 0.884696 0.393680
O O2 0.652019 0.908074 0.234286
O O3 0.537740 0.924898 0.119689
O O4 0.500000 0.500000 0.000000
O O5 0.844291 0.098715 0.362953
O O6 0.694617 0.387370 0.530239
O O7 0.546814 0.741608 0.762100
O O8 0.391930 0.626177 0.624805
O O9 0.278768 0.818152 0.991266
O O10 0.000000 0.500000 0.500000
O O11 0.038156 0.708761 0.400964
O O12 0.898124 0.902150 0.785746
O O13 0.021848 0.771596 0.220725
O O14 0.083133 0.637689 0.879915
O O15 0.801365 0.711211 0.494173
#
# Coordination Sequence:
#
# PCOD9034870 Si02
#       7
#     2   2   2   2   2   2   2
#     4  10  23  43  67  97 133 174 228 283 337 401
#     4  10  23  44  65  99 135 177 223 277 342 407
#     4   9  20  40  69  98 131 174 226 286 333 394
#     4  12  25  42  70  98 141 186 219 278 349 412
#     4  10  24  44  67 104 134 178 234 281 335 407
#     4   9  18  41  69  96 133 176 222 278 341 397
#     4  10  22  45  69 100 136 179 230 278 341 409
#
# _framework density 22.765571000000001
#
# number of rings (size 3 to 8) (size 9 to 14) (size 15 to 20)
#    0.000    2.000    1.429    0.429    4.000    1.714 
#   10.286    1.429    0.000    0.000    0.000    0.000 
#    0.000    0.000    0.000    0.000    0.000    0.000 
#
# Total GULP energy -78239.540899 kJ/mol
# GULP energy per Si atom -5588.538636 kJ/mol
# Density = 2.271376 g / cm^3
# Si number density = 22.765571 Si / 1000 Ang^3
#
#
#
# Elastic Constant Matrix: (Units=GPa)
#
#
# Indices 1 2 3 4 5 6 
#
# 1 135.5670 30.2132 67.7912 0.2134 4.2992 8.9027
# 2 30.2132 84.6244 50.7848 4.3714 -5.4057 13.2160
# 3 67.7912 50.7848 109.2601 7.6838 -0.6567 3.5986
# 4 0.2134 4.3714 7.6838 44.6043 6.0037 4.3488
# 5 4.2992 -5.4057 -0.6567 6.0037 42.3522 -0.2634
# 6 8.9027 13.2160 3.5986 4.3488 -0.2634 21.6319
#
#
#
# Elastic Compliance Matrix: (Units=1/GPa)
#
#
# Indices 1 2 3 4 5 6 
#
# 1 0.011169 0.000910 -0.007341 0.001730 -0.001403 -0.004296
# 2 0.000910 0.018514 -0.008850 0.000438 0.002007 -0.010277
# 3 -0.007341 -0.008850 0.017821 -0.002799 0.000326 0.006030
# 4 0.001730 0.000438 -0.002799 0.023854 -0.003578 -0.005353
# 5 -0.001403 0.002007 0.000326 -0.003578 0.024524 0.000315
# 6 -0.004296 -0.010277 0.006030 -0.005353 0.000315 0.054351
#
#
# Mechanical properties :
#
#
# Convention : Reuss Voigt Hill
#
# Bulk Modulus (GPa) = 59.02894 69.66999 64.34946
# Shear Modulus (GPa) = 26.81791 33.76183 30.28987
#
# Velocity S-wave (km/s) = 3.43593 3.85518 3.65158
# Velocity P-wave (km/s) = 6.45958 7.10536 6.79015
#
# Compressibility (1/GPa) = 0.01694084
#
# Stress axis : x y z
#
# Youngs Moduli (GPa) = 89.53752 54.01381 56.11298
#
# Poissons Ratio (x) = -0.04915 0.41193
# Poissons Ratio (y) = -0.08148 0.49661
# Poissons Ratio (z) = 0.65731 0.47803
#
# Static dielectric constant tensor:
#      x y z
#    x 1.880180 0.020810 0.013930 
#    y 0.020810 1.870880 0.011500 
#    z 0.013930 0.011500 1.871160 
# 
# From -- ./inp_files/420160.got.cif
#   From: 2010.05.17/outbox.cif.g08.bks.cpg/sg2_211_cif.got.tgz:420160.got - 2010.06.03 11:33:40.
