data_PCOD9034574
_publ_section_title
;
Structure prediction by ZEFSAII (Michael W. Deem and Ramdas Pophale) SiO2 
 PCOD9034574
Probable space group: P -1
;
_chemical_formula_sum "Si O2"
_cell_formula_units_Z 12
_cell_length_a 15.208451
_cell_length_b 5.311664
_cell_length_c 11.611307
_cell_angle_alpha 114.506277
_cell_angle_beta 141.273411
_cell_angle_gamma 62.931745
_cell_volume 519.514679
_symmetry_space_group_name_H-M "P -1"
_symmetry_group_IT_number 2
_symmetry_cell_setting 'triclinic'
loop_
_space_group_symop_operation_xyz
x,y,z
-x,-y,-z
loop_
_atom_site_type_symbol
_atom_site_label
_atom_site_fract_x
_atom_site_fract_y
_atom_site_fract_z
Si Si1 0.568544 0.716849 0.727388
Si Si2 0.531019 0.808727 0.109290
Si Si3 0.364650 0.856134 0.352665
Si Si4 0.179897 0.195687 0.682997
Si Si5 0.888666 0.157779 0.248465
Si Si6 0.868260 0.768513 0.937761
O O1 0.415534 0.738632 0.509277
O O2 0.602907 0.401507 0.755844
O O3 0.719180 0.686287 0.807235
O O4 0.549400 0.998382 0.834725
O O5 0.700248 0.803010 0.291629
O O6 0.500000 0.500000 0.000000
O O7 0.500000 0.000000 0.000000
O O8 0.500000 0.000000 0.500000
O O9 0.201352 0.033595 0.204601
O O10 0.166376 0.512286 0.780659
O O11 0.039287 0.157047 0.464994
O O12 0.199878 0.967208 0.764855
O O13 0.904957 0.957808 0.115914
O O14 0.000000 0.500000 0.000000
#
# Coordination Sequence:
#
# PCOD9034574 Si02
#       6
#     2   2   2   2   2   2
#     4  10  23  44  67  97 137 177 227 291 340 412
#     4  12  26  41  72 105 135 179 231 285 349 415
#     4   9  22  43  67  91 133 177 225 282 344 395
#     4  10  22  45  65 100 134 179 221 279 349 404
#     4  10  23  43  69  95 140 175 223 284 338 416
#     4  11  24  42  67  98 132 179 231 282 344 407
#
# _framework density 23.098482000000001
#
# number of rings (size 3 to 8) (size 9 to 14) (size 15 to 20)
#    0.000    1.667    0.000    3.000    9.333    4.667 
#    9.000    0.000    0.000    0.000    0.000    0.000 
#    0.000    0.000    0.000    0.000    0.000    0.000 
#
# Total GULP energy -66808.976483 kJ/mol
# GULP energy per Si atom -5567.414707 kJ/mol
# Density = 2.304591 g / cm^3
# Si number density = 23.098482 Si / 1000 Ang^3
#
#
#
# Elastic Constant Matrix: (Units=GPa)
#
#
# Indices 1 2 3 4 5 6 
#
# 1 72.6754 47.9015 37.1687 3.5292 21.1747 -10.3160
# 2 47.9015 172.5877 79.4484 7.2085 4.5241 -14.5558
# 3 37.1687 79.4484 133.9982 9.7688 5.0832 -14.0057
# 4 3.5292 7.2085 9.7688 44.0207 2.6463 7.0889
# 5 21.1747 4.5241 5.0832 2.6463 29.5354 1.8970
# 6 -10.3160 -14.5558 -14.0057 7.0889 1.8970 44.7894
#
#
#
# Elastic Compliance Matrix: (Units=1/GPa)
#
#
# Indices 1 2 3 4 5 6 
#
# 1 0.023231 -0.004412 -0.002831 -0.000167 -0.015716 0.003724
# 2 -0.004412 0.008882 -0.004045 -0.000445 0.002502 0.000570
# 3 -0.002831 -0.004045 0.010930 -0.001861 0.000825 0.001711
# 4 -0.000167 -0.000445 -0.001861 0.024024 -0.001355 -0.004510
# 5 -0.015716 0.002502 0.000825 -0.001355 0.044994 -0.004240
# 6 0.003724 0.000570 0.001711 -0.004510 -0.004240 0.024798
#
#
# Mechanical properties :
#
#
# Convention : Reuss Voigt Hill
#
# Bulk Modulus (GPa) = 48.85818 78.69984 63.77901
# Shear Modulus (GPa) = 30.07422 37.98527 34.02975
#
# Velocity S-wave (km/s) = 3.61224 4.05963 3.84245
# Velocity P-wave (km/s) = 6.21255 7.49130 6.88169
#
# Compressibility (1/GPa) = 0.02046740
#
# Stress axis : x y z
#
# Youngs Moduli (GPa) = 43.04579 112.58866 91.49449
#
# Poissons Ratio (x) = 0.49671 0.25898
# Poissons Ratio (y) = 0.18991 0.37012
# Poissons Ratio (z) = 0.12184 0.45545
#
# Static dielectric constant tensor:
#      x y z
#    x 2.092210 0.155630 -0.082850 
#    y 0.155630 2.098510 -0.082540 
#    z -0.082850 -0.082540 1.951860 
# 
# From -- ./inp_files/441466.got.cif
#   From: 2010.05.17/outbox.cif.g08.bks.cpg/sg2_221_cif.got.tgz:441466.got - 2010.06.03 11:33:40.
