data_PCOD9034612
_publ_section_title
;
Structure prediction by ZEFSAII (Michael W. Deem and Ramdas Pophale) SiO2 
 PCOD9034612
Probable space group: P -1
;
_chemical_formula_sum "Si O2"
_cell_formula_units_Z 14
_cell_length_a 6.916305
_cell_length_b 9.280021
_cell_length_c 16.168925
_cell_angle_alpha 134.492193
_cell_angle_beta 117.252150
_cell_angle_gamma 63.987974
_cell_volume 646.696468
_symmetry_space_group_name_H-M "P -1"
_symmetry_group_IT_number 2
_symmetry_cell_setting 'triclinic'
loop_
_space_group_symop_operation_xyz
x,y,z
-x,-y,-z
loop_
_atom_site_type_symbol
_atom_site_label
_atom_site_fract_x
_atom_site_fract_y
_atom_site_fract_z
Si Si1 0.570113 0.171490 0.680867
Si Si2 0.890500 0.896245 0.512717
Si Si3 0.902983 0.717001 0.028423
Si Si4 0.517574 0.021896 0.110330
Si Si5 0.770778 0.962404 0.787485
Si Si6 0.251436 0.506804 0.418550
Si Si7 0.650742 0.561609 0.774953
O O1 0.340304 0.154977 0.586334
O O2 0.584538 0.408014 0.767345
O O3 0.793077 0.048015 0.629627
O O4 0.577964 0.073541 0.733202
O O5 0.067849 0.694059 0.491951
O O6 0.000000 0.000000 0.500000
O O7 0.699001 0.826303 0.088714
O O8 0.829671 0.665712 0.900773
O O9 0.311146 0.020604 0.127768
O O10 0.000000 0.500000 0.000000
O O11 0.551331 0.257136 0.219132
O O12 0.047519 0.895012 0.126876
O O13 0.500000 0.000000 0.000000
O O14 0.813541 0.719438 0.675720
O O15 0.500000 0.500000 0.500000
O O16 0.263091 0.543683 0.336245
#
# Coordination Sequence:
#
# PCOD9034612 Si02
#       7
#     2   2   2   2   2   2   2
#     4  11  24  42  69 104 135 185 233 278 357 407
#     4  11  24  44  69  98 142 184 228 290 346 413
#     4  11  23  44  68 102 137 178 231 283 346 408
#     4   9  23  43  64  93 135 178 222 283 336 405
#     4  11  25  43  70 103 137 180 234 280 344 417
#     4  11  25  45  71 101 139 183 232 288 346 409
#     4  10  22  45  65  98 141 176 228 286 337 418
#
# _framework density 21.648485999999998
#
# number of rings (size 3 to 8) (size 9 to 14) (size 15 to 20)
#    0.000    1.429    2.857    0.857    4.000   10.857 
#    2.571    0.000    0.000    0.000    0.000    0.000 
#    0.000    0.000    0.000    0.000    0.000    0.000 
#
# Total GULP energy -77997.930403 kJ/mol
# GULP energy per Si atom -5571.280743 kJ/mol
# Density = 2.159921 g / cm^3
# Si number density = 21.648486 Si / 1000 Ang^3
#
#
#
# Elastic Constant Matrix: (Units=GPa)
#
#
# Indices 1 2 3 4 5 6 
#
# 1 76.8104 27.4740 32.2208 15.9398 -5.8571 -15.1940
# 2 27.4740 114.3367 22.9973 18.5213 3.7587 -1.4982
# 3 32.2208 22.9973 80.0671 8.3748 12.4029 -5.8123
# 4 15.9398 18.5213 8.3748 44.9003 3.3908 -3.0889
# 5 -5.8571 3.7587 12.4029 3.3908 29.0114 3.2255
# 6 -15.1940 -1.4982 -5.8123 -3.0889 3.2255 37.3192
#
#
#
# Elastic Compliance Matrix: (Units=1/GPa)
#
#
# Indices 1 2 3 4 5 6 
#
# 1 0.019768 -0.002663 -0.007431 -0.004698 0.007422 0.005754
# 2 -0.002663 0.010184 -0.001505 -0.002994 -0.000742 -0.001093
# 3 -0.007431 -0.001505 0.017229 0.000739 -0.008804 0.000420
# 4 -0.004698 -0.002994 0.000739 0.025367 -0.003899 0.000519
# 5 0.007422 -0.000742 -0.008804 -0.003899 0.040529 -0.002205
# 6 0.005754 -0.001093 0.000420 0.000519 -0.002205 0.029393
#
#
# Mechanical properties :
#
#
# Convention : Reuss Voigt Hill
#
# Bulk Modulus (GPa) = 41.69507 48.51091 45.10299
# Shear Modulus (GPa) = 28.79191 34.81431 31.80311
#
# Velocity S-wave (km/s) = 3.65084 4.01454 3.83700
# Velocity P-wave (km/s) = 6.08879 6.62917 6.36471
#
# Compressibility (1/GPa) = 0.02398365
#
# Stress axis : x y z
#
# Youngs Moduli (GPa) = 50.58772 98.19646 58.04182
#
# Poissons Ratio (x) = 0.26150 0.43129
# Poissons Ratio (y) = 0.13471 0.08733
# Poissons Ratio (z) = 0.37590 0.14775
#
# Static dielectric constant tensor:
#      x y z
#    x 1.863200 -0.050310 -0.033090 
#    y -0.050310 1.860250 -0.016570 
#    z -0.033090 -0.016570 1.868530 
# 
# From -- ./inp_files/547604.got.cif
#   From: 2010.05.17/outbox.cif.g08.bks.cpg/sg2_274_cif.got.tgz:547604.got - 2010.06.03 11:33:40.
