data_PCOD9034785
_publ_section_title
;
Structure prediction by ZEFSAII (Michael W. Deem and Ramdas Pophale) SiO2 
 PCOD9034785
Probable space group: P -1
;
_chemical_formula_sum "Si O2"
_cell_formula_units_Z 12
_cell_length_a 18.743545
_cell_length_b 10.443969
_cell_length_c 12.786317
_cell_angle_alpha 147.833149
_cell_angle_beta 33.351219
_cell_angle_gamma 156.492183
_cell_volume 510.550031
_symmetry_space_group_name_H-M "P -1"
_symmetry_group_IT_number 2
_symmetry_cell_setting 'triclinic'
loop_
_space_group_symop_operation_xyz
x,y,z
-x,-y,-z
loop_
_atom_site_type_symbol
_atom_site_label
_atom_site_fract_x
_atom_site_fract_y
_atom_site_fract_z
Si Si1 0.305813 0.241188 0.499038
Si Si2 0.281962 0.744386 0.881578
Si Si3 0.003545 0.273832 0.084841
Si Si4 0.720473 0.799277 0.935480
Si Si5 0.098044 0.421165 0.430699
Si Si6 0.692264 0.283936 0.839714
O O1 0.500000 0.500000 0.500000
O O2 0.298740 0.500470 0.638233
O O3 0.316098 0.978798 0.265056
O O4 0.106474 0.960106 0.606978
O O5 0.232632 0.892803 0.967154
O O6 0.482584 0.067667 0.913772
O O7 0.122963 0.514387 0.004163
O O8 0.928178 0.386465 0.329621
O O9 0.167016 0.369207 0.022429
O O10 0.819186 0.920898 0.012152
O O11 0.500000 0.500000 0.000000
O O12 0.794750 0.651492 0.691698
O O13 0.206058 0.627613 0.335044
#
# Coordination Sequence:
#
# PCOD9034785 Si02
#       6
#     2   2   2   2   2   2
#     4   9  19  37  66  96 131 169 212 278 326 378
#     4  11  22  44  68  99 139 175 225 277 335 401
#     4  11  24  42  73  98 131 182 226 274 344 386
#     4  12  26  47  67  98 140 181 223 281 330 405
#     4  11  23  46  69 100 140 172 227 277 332 404
#     4  10  22  45  68 103 137 172 227 281 330 402
#
# _framework density 23.504062999999999
#
# number of rings (size 3 to 8) (size 9 to 14) (size 15 to 20)
#    0.000    1.333    3.333    3.000    0.000    2.000 
#    6.000    3.333    0.000    0.000    0.000    0.000 
#    0.000    0.000    0.000    0.000    0.000    0.000 
#
# Total GULP energy -66825.066920 kJ/mol
# GULP energy per Si atom -5568.755577 kJ/mol
# Density = 2.345057 g / cm^3
# Si number density = 23.504063 Si / 1000 Ang^3
#
#
#
# Elastic Constant Matrix: (Units=GPa)
#
#
# Indices 1 2 3 4 5 6 
#
# 1 122.4090 29.4998 40.3018 0.5808 -28.1836 5.6334
# 2 29.4998 130.2472 10.4382 -21.4860 10.2575 39.3792
# 3 40.3018 10.4382 63.6661 0.5665 -12.1867 4.6053
# 4 0.5808 -21.4860 0.5665 40.4114 2.1013 -8.8623
# 5 -28.1836 10.2575 -12.1867 2.1013 44.1295 6.9952
# 6 5.6334 39.3792 4.6053 -8.8623 6.9952 50.1958
#
#
#
# Elastic Compliance Matrix: (Units=1/GPa)
#
#
# Indices 1 2 3 4 5 6 
#
# 1 0.012658 -0.003449 -0.006073 -0.002210 0.007244 0.000443
# 2 -0.003449 0.011850 -0.000031 0.004919 -0.004015 -0.007479
# 3 -0.006073 -0.000031 0.020042 -0.000643 0.001934 -0.001516
# 4 -0.002210 0.004919 -0.000643 0.028072 -0.004389 0.002016
# 5 0.007244 -0.004015 0.001934 -0.004389 0.029393 -0.002712
# 6 0.000443 -0.007479 -0.001516 0.002016 -0.002712 0.026612
#
#
# Mechanical properties :
#
#
# Convention : Reuss Voigt Hill
#
# Bulk Modulus (GPa) = 39.30156 52.97798 46.13977
# Shear Modulus (GPa) = 32.00725 42.68618 37.34671
#
# Velocity S-wave (km/s) = 3.69423 4.26622 3.99048
# Velocity P-wave (km/s) = 5.91218 6.84517 6.39571
#
# Compressibility (1/GPa) = 0.02544428
#
# Stress axis : x y z
#
# Youngs Moduli (GPa) = 79.00171 84.38714 49.89530
#
# Poissons Ratio (x) = 0.29107 0.30302
# Poissons Ratio (y) = 0.27249 0.00153
# Poissons Ratio (z) = 0.47978 0.00259
#
# Static dielectric constant tensor:
#      x y z
#    x 1.884600 -0.016170 -0.036930 
#    y -0.016170 2.002340 0.090690 
#    z -0.036930 0.090690 1.975960 
# 
# From -- ./inp_files/296280.got.cif
#   From: 2010.05.17/outbox.cif.g08.bks.cpg/sg2_149_cif.got.tgz:296280.got - 2010.06.03 11:33:40.
