data_PCOD9034944
_publ_section_title
;
Structure prediction by ZEFSAII (Michael W. Deem and Ramdas Pophale) SiO2 
 PCOD9034944
Probable space group: P -1
;
_chemical_formula_sum "Si O2"
_cell_formula_units_Z 16
_cell_length_a 5.670106
_cell_length_b 21.924164
_cell_length_c 18.247502
_cell_angle_alpha 159.491046
_cell_angle_beta 123.478587
_cell_angle_gamma 65.706260
_cell_volume 618.400730
_symmetry_space_group_name_H-M "P -1"
_symmetry_group_IT_number 2
_symmetry_cell_setting 'triclinic'
loop_
_space_group_symop_operation_xyz
x,y,z
-x,-y,-z
loop_
_atom_site_type_symbol
_atom_site_label
_atom_site_fract_x
_atom_site_fract_y
_atom_site_fract_z
Si Si1 0.852959 0.034991 0.093626
Si Si2 0.512302 0.258006 0.029949
Si Si3 0.340697 0.346313 0.489431
Si Si4 0.713229 0.144900 0.408679
Si Si5 0.573428 0.847295 0.271233
Si Si6 0.180398 0.785081 0.329635
Si Si7 0.817869 0.663472 0.717731
Si Si8 0.786839 0.494314 0.086613
O O1 0.042812 0.253311 0.384275
O O2 0.500000 0.000000 0.000000
O O3 0.877734 0.884051 0.986050
O O4 0.000000 0.000000 0.000000
O O5 0.428990 0.442378 0.226156
O O6 0.874869 0.344985 0.205682
O O7 0.427680 0.182804 0.850043
O O8 0.365398 0.077412 0.853578
O O9 0.516319 0.210588 0.391369
O O10 0.211357 0.347747 0.387625
O O11 0.666243 0.198654 0.546172
O O12 0.044114 0.296253 0.621887
O O13 0.308761 0.663436 0.045928
O O14 0.884315 0.841315 0.352030
O O15 0.591007 0.061920 0.514562
O O16 0.060281 0.593393 0.048013
O O17 0.500000 0.500000 0.500000
O O18 0.500000 0.500000 0.000000
#
# Coordination Sequence:
#
# PCOD9034944 Si02
#       8
#     2   2   2   2   2   2   2   2
#     4  10  22  45  76 107 142 195 249 304 374 442
#     4  11  24  44  68 100 142 183 241 290 368 431
#     4  11  24  45  74  98 148 194 236 310 368 442
#     4  11  24  44  68 103 142 183 240 297 358 436
#     4  10  23  43  69  99 134 185 229 297 351 423
#     4  10  22  45  69  94 143 177 228 294 356 432
#     4  11  24  45  69 103 146 186 245 302 371 444
#     4  12  24  40  69  99 138 183 235 282 363 428
#
# _framework density 25.873187999999999
#
# number of rings (size 3 to 8) (size 9 to 14) (size 15 to 20)
#    0.000    1.250    2.500    2.625    3.500    1.000 
#    2.250    0.000    0.000    0.000    0.000    0.000 
#    0.000    0.000    0.000    0.000    0.000    0.000 
#
# Total GULP energy -89175.572838 kJ/mol
# GULP energy per Si atom -5573.473302 kJ/mol
# Density = 2.581430 g / cm^3
# Si number density = 25.873188 Si / 1000 Ang^3
#
#
#
# Elastic Constant Matrix: (Units=GPa)
#
#
# Indices 1 2 3 4 5 6 
#
# 1 59.0956 23.4245 24.7754 9.5674 21.7996 5.8364
# 2 23.4245 94.2548 40.8607 -6.4461 4.5185 -5.4453
# 3 24.7754 40.8607 198.6293 36.5139 34.3515 8.3678
# 4 9.5674 -6.4461 36.5139 64.1863 -3.5358 8.0095
# 5 21.7996 4.5185 34.3515 -3.5358 37.3670 2.4400
# 6 5.8364 -5.4453 8.3678 8.0095 2.4400 23.4843
#
#
#
# Elastic Compliance Matrix: (Units=1/GPa)
#
#
# Indices 1 2 3 4 5 6 
#
# 1 0.026966 -0.007810 0.002734 -0.006654 -0.017578 -0.005391
# 2 -0.007810 0.014700 -0.004348 0.004936 0.006950 0.004493
# 3 0.002734 -0.004348 0.008324 -0.005873 -0.009166 -0.001698
# 4 -0.006654 0.004936 -0.005873 0.021456 0.010947 -0.003564
# 5 -0.017578 0.006950 -0.009166 0.010947 0.045588 0.000776
# 6 -0.005391 0.004493 -0.001698 -0.003564 0.000776 0.046703
#
#
# Mechanical properties :
#
#
# Convention : Reuss Voigt Hill
#
# Bulk Modulus (GPa) = 32.11405 58.90010 45.50707
# Shear Modulus (GPa) = 25.91117 42.53548 34.22333
#
# Velocity S-wave (km/s) = 3.16803 4.05902 3.64089
# Velocity P-wave (km/s) = 5.08143 6.69193 5.94150
#
# Compressibility (1/GPa) = 0.03113902
#
# Stress axis : x y z
#
# Youngs Moduli (GPa) = 37.08437 68.02852 120.12768
#
# Poissons Ratio (x) = 0.53134 -0.32838
# Poissons Ratio (y) = 0.28965 0.52237
# Poissons Ratio (z) = -0.10137 0.29582
#
# Static dielectric constant tensor:
#      x y z
#    x 1.991710 0.047530 0.281920 
#    y 0.047530 2.023150 -0.036550 
#    z 0.281920 -0.036550 1.757310 
# 
# From -- ./inp_files/584457.got.cif
#   From: 2010.05.17/outbox.cif.g08.bks.cpg/sg2_293_cif.got.tgz:584457.got - 2010.06.03 11:33:40.
