data_PCOD9034748
_publ_section_title
;
Structure prediction by ZEFSAII (Michael W. Deem and Ramdas Pophale) SiO2 
 PCOD9034748
Probable space group: P -1
;
_chemical_formula_sum "Si O2"
_cell_formula_units_Z 16
_cell_length_a 19.768986
_cell_length_b 13.041191
_cell_length_c 9.488741
_cell_angle_alpha 47.962445
_cell_angle_beta 47.870815
_cell_angle_gamma 21.190483
_cell_volume 646.837687
_symmetry_space_group_name_H-M "P -1"
_symmetry_group_IT_number 2
_symmetry_cell_setting 'triclinic'
loop_
_space_group_symop_operation_xyz
x,y,z
-x,-y,-z
loop_
_atom_site_type_symbol
_atom_site_label
_atom_site_fract_x
_atom_site_fract_y
_atom_site_fract_z
Si Si1 0.475337 0.639552 0.107645
Si Si2 0.093752 0.023868 0.872335
Si Si3 0.206687 0.761347 0.491986
Si Si4 0.959779 0.807650 0.491074
Si Si5 0.301009 0.095225 0.131908
Si Si6 0.740060 0.981406 0.193035
Si Si7 0.541205 0.096376 0.615968
Si Si8 0.748689 0.701472 0.259386
O O1 0.679960 0.303596 0.158051
O O2 0.312435 0.744193 0.275673
O O3 0.443147 0.815720 0.090974
O O4 0.441172 0.724282 0.914165
O O5 0.998013 0.245590 0.682557
O O6 0.103624 0.106285 0.922626
O O7 0.000000 0.000000 0.000000
O O8 0.357168 0.438133 0.586924
O O9 0.160915 0.894229 0.582992
O O10 0.000000 0.000000 0.500000
O O11 0.136957 0.566100 0.569739
O O12 0.837661 0.838436 0.676740
O O13 0.383853 0.046493 0.204583
O O14 0.207498 0.325643 0.940622
O O15 0.795096 0.778738 0.207095
O O16 0.681407 0.997253 0.412011
O O17 0.467812 0.062789 0.661349
#
# Coordination Sequence:
#
# PCOD9034748 Si02
#       8
#     2   2   2   2   2   2   2   2
#     4  10  23  44  69  97 138 176 226 286 347 402
#     4  12  26  42  70 102 138 178 230 287 344 400
#     4  11  22  38  72 102 129 174 227 289 341 399
#     4  11  23  44  66  99 138 174 231 284 343 398
#     4  10  22  45  67  98 131 182 224 286 338 396
#     4  11  25  45  67  96 140 188 221 280 342 407
#     4  12  22  43  70  99 137 176 232 279 341 403
#     4  11  25  42  69  98 138 186 230 268 340 423
#
# _framework density 24.735726
#
# number of rings (size 3 to 8) (size 9 to 14) (size 15 to 20)
#    0.000    1.000    3.750    2.250    3.500    2.500 
#    0.000    0.000    0.000    0.000    0.000    0.000 
#    0.000    0.000    0.000    0.000    0.000    0.000 
#
# Total GULP energy -89388.132875 kJ/mol
# GULP energy per Si atom -5586.758305 kJ/mol
# Density = 2.467943 g / cm^3
# Si number density = 24.735726 Si / 1000 Ang^3
#
#
#
# Elastic Constant Matrix: (Units=GPa)
#
#
# Indices 1 2 3 4 5 6 
#
# 1 149.5715 20.5367 44.4166 -3.3264 8.4910 -23.6092
# 2 20.5367 45.4263 21.5162 -7.9780 9.2134 -9.4775
# 3 44.4166 21.5162 116.4754 -21.4033 23.7069 -20.9575
# 4 -3.3264 -7.9780 -21.4033 31.1363 -15.8198 -4.7846
# 5 8.4910 9.2134 23.7069 -15.8198 49.8154 -1.0793
# 6 -23.6092 -9.4775 -20.9575 -4.7846 -1.0793 31.3402
#
#
#
# Elastic Compliance Matrix: (Units=1/GPa)
#
#
# Indices 1 2 3 4 5 6 
#
# 1 0.008221 -0.001922 -0.002104 -0.000481 -0.000108 0.004128
# 2 -0.001922 0.026274 -0.001635 0.005378 -0.001913 0.006160
# 3 -0.002104 -0.001635 0.013196 0.008195 -0.002845 0.007898
# 4 -0.000481 0.005378 0.008195 0.046466 0.010251 0.014192
# 5 -0.000108 -0.001913 -0.002845 0.010251 0.025053 -0.000135
# 6 0.004128 0.006160 0.007898 0.014192 -0.000135 0.044324
#
#
# Mechanical properties :
#
#
# Convention : Reuss Voigt Hill
#
# Bulk Modulus (GPa) = 27.49422 53.82357 40.65890
# Shear Modulus (GPa) = 26.74098 37.45864 32.09981
#
# Velocity S-wave (km/s) = 3.29153 3.89569 3.60628
# Velocity P-wave (km/s) = 5.05815 6.48397 5.81493
#
# Compressibility (1/GPa) = 0.03637128
#
# Stress axis : x y z
#
# Youngs Moduli (GPa) = 121.63378 38.05995 75.78075
#
# Poissons Ratio (x) = 0.07313 0.15942
# Poissons Ratio (y) = 0.23373 0.12390
# Poissons Ratio (z) = 0.25588 0.06223
#
# Static dielectric constant tensor:
#      x y z
#    x 2.044480 0.010170 -0.035070 
#    y 0.010170 2.016530 -0.001370 
#    z -0.035070 -0.001370 1.981260 
# 
# From -- ./inp_files/347507.got.cif
#   From: 2010.05.17/outbox.cif.g08.bks.cpg/sg2_174_cif.got.tgz:347507.got - 2010.06.03 11:33:40.
