data_PCOD9034022
_publ_section_title
;
Structure prediction by ZEFSAII (Michael W. Deem and Ramdas Pophale) SiO2 
 PCOD9034022
Probable space group: P -1
;
_chemical_formula_sum "Si O2"
_cell_formula_units_Z 16
_cell_length_a 10.667441
_cell_length_b 12.298362
_cell_length_c 6.719185
_cell_angle_alpha 58.930537
_cell_angle_beta 109.328316
_cell_angle_gamma 112.616581
_cell_volume 687.122621
_symmetry_space_group_name_H-M "P -1"
_symmetry_group_IT_number 2
_symmetry_cell_setting 'triclinic'
loop_
_space_group_symop_operation_xyz
x,y,z
-x,-y,-z
loop_
_atom_site_type_symbol
_atom_site_label
_atom_site_fract_x
_atom_site_fract_y
_atom_site_fract_z
Si Si1 0.785363 0.912897 0.911317
Si Si2 0.719614 0.061552 0.125035
Si Si3 0.451993 0.119620 0.460467
Si Si4 0.053968 0.857478 0.515783
Si Si5 0.449967 0.738444 0.268838
Si Si6 0.045595 0.557002 0.686303
Si Si7 0.769132 0.754366 0.397478
Si Si8 0.221620 0.516582 0.148205
O O1 0.827031 0.796005 0.163019
O O2 0.750794 0.001830 0.989642
O O3 0.647820 0.842614 0.785688
O O4 0.882028 0.020201 0.714887
O O5 0.855696 0.136620 0.243393
O O6 0.644282 0.949460 0.344163
O O7 0.610336 0.145543 0.957032
O O8 0.557920 0.239285 0.515540
O O9 0.500000 0.000000 0.500000
O O10 0.053977 0.713547 0.559483
O O11 0.896366 0.857218 0.479613
O O12 0.607313 0.742475 0.302106
O O13 0.352343 0.614609 0.224808
O O14 0.000000 0.500000 0.500000
O O15 0.916070 0.470691 0.825729
O O16 0.184632 0.535925 0.880639
O O17 0.768801 0.625636 0.643921
#
# Coordination Sequence:
#
# PCOD9034022 Si02
#       8
#     2   2   2   2   2   2   2   2
#     4  11  23  42  67  99 139 175 228 276 332 401
#     4  11  22  41  70  98 126 182 228 278 331 388
#     4  11  22  38  64 102 136 172 226 279 332 392
#     4  10  24  42  70 100 130 176 230 279 334 395
#     4  12  22  43  71  95 138 180 219 277 339 396
#     4  10  22  44  71 100 128 170 230 283 323 393
#     4  11  24  46  64  99 144 178 216 275 345 405
#     4  10  24  44  70  97 132 179 223 272 335 404
#
# _framework density 23.285506999999999
#
# number of rings (size 3 to 8) (size 9 to 14) (size 15 to 20)
#    0.000    1.250    3.750    1.875    1.750    0.500 
#    9.000    0.625    0.000    0.000    0.000    0.000 
#    0.000    0.000    0.000    0.000    0.000    0.000 
#
# Total GULP energy -89141.836940 kJ/mol
# GULP energy per Si atom -5571.364809 kJ/mol
# Density = 2.323251 g / cm^3
# Si number density = 23.285507 Si / 1000 Ang^3
#
#
#
# Elastic Constant Matrix: (Units=GPa)
#
#
# Indices 1 2 3 4 5 6 
#
# 1 91.4026 36.5059 54.0951 15.3318 20.8988 22.1764
# 2 36.5059 106.1368 71.2185 26.4081 9.1847 12.5360
# 3 54.0951 71.2185 176.1460 22.0952 29.5816 4.6492
# 4 15.3318 26.4081 22.0952 52.6982 2.1783 12.0538
# 5 20.8988 9.1847 29.5816 2.1783 45.4418 11.3383
# 6 22.1764 12.5360 4.6492 12.0538 11.3383 25.3272
#
#
#
# Elastic Compliance Matrix: (Units=1/GPa)
#
#
# Indices 1 2 3 4 5 6 
#
# 1 0.017605 -0.001693 -0.004148 0.000581 -0.001763 -0.013303
# 2 -0.001693 0.014777 -0.005271 -0.003862 0.002435 -0.004117
# 3 -0.004148 -0.005271 0.010020 -0.001895 -0.005384 0.007713
# 4 0.000581 -0.003862 -0.001895 0.023950 0.003384 -0.011163
# 5 -0.001763 0.002435 -0.005384 0.003384 0.028975 -0.013255
# 6 -0.013303 -0.004117 0.007713 -0.011163 -0.013255 0.062999
#
#
# Mechanical properties :
#
#
# Convention : Reuss Voigt Hill
#
# Bulk Modulus (GPa) = 49.55528 77.48049 63.51788
# Shear Modulus (GPa) = 26.69877 38.81782 32.75829
#
# Velocity S-wave (km/s) = 3.38980 4.08737 3.75482
# Velocity P-wave (km/s) = 6.05382 7.45800 6.79229
#
# Compressibility (1/GPa) = 0.02017948
#
# Stress axis : x y z
#
# Youngs Moduli (GPa) = 56.80325 67.67284 99.79907
#
# Poissons Ratio (x) = 0.11456 0.41394
# Poissons Ratio (y) = 0.09616 0.52600
# Poissons Ratio (z) = 0.23561 0.35668
#
# Static dielectric constant tensor:
#      x y z
#    x 1.989420 -0.037670 0.031920 
#    y -0.037670 2.013120 0.042250 
#    z 0.031920 0.042250 1.966690 
# 
# From -- ./inp_files/77257.got.cif
#   From: 2010.05.17/outbox.cif.g08.bks.cpg/sg2_39_cif.got.tgz:77257.got - 2010.06.03 11:33:40.
