data_PCOD9034305
_publ_section_title
;
Structure prediction by ZEFSAII (Michael W. Deem and Ramdas Pophale) SiO2 
 PCOD9034305
Probable space group: P -1
;
_chemical_formula_sum "Si O2"
_cell_formula_units_Z 16
_cell_length_a 19.806143
_cell_length_b 5.333321
_cell_length_c 16.106161
_cell_angle_alpha 81.470606
_cell_angle_beta 159.832697
_cell_angle_gamma 100.192409
_cell_volume 576.506172
_symmetry_space_group_name_H-M "P -1"
_symmetry_group_IT_number 2
_symmetry_cell_setting 'triclinic'
loop_
_space_group_symop_operation_xyz
x,y,z
-x,-y,-z
loop_
_atom_site_type_symbol
_atom_site_label
_atom_site_fract_x
_atom_site_fract_y
_atom_site_fract_z
Si Si1 0.935352 0.228583 0.359786
Si Si2 0.015882 0.542869 0.752823
Si Si3 0.657677 0.155335 0.344044
Si Si4 0.327332 0.573393 0.411405
Si Si5 0.749465 0.185935 0.851601
Si Si6 0.348563 0.225602 0.111775
Si Si7 0.137437 0.027980 0.258460
Si Si8 0.686044 0.353627 0.200163
O O1 0.931657 0.210206 0.257253
O O2 0.725392 0.277525 0.154755
O O3 0.111952 0.459602 0.561293
O O4 0.000000 0.000000 0.500000
O O5 0.790425 0.427579 0.499043
O O6 0.105049 0.603475 0.942555
O O7 0.138040 0.328289 0.863364
O O8 0.445103 0.181383 0.136752
O O9 0.669267 0.124893 0.259832
O O10 0.765862 0.970300 0.537392
O O11 0.370030 0.693214 0.363803
O O12 0.513613 0.561535 0.686935
O O13 0.210411 0.295048 0.286546
O O14 0.205669 0.782088 0.304914
O O15 0.634282 0.017012 0.797055
O O16 0.903304 0.009964 0.998021
O O17 0.500000 0.500000 0.000000
#
# Coordination Sequence:
#
# PCOD9034305 Si02
#       8
#     2   2   2   2   2   2   2   2
#     4  10  24  43  68 107 138 179 238 296 356 432
#     4  11  25  44  70  99 142 186 234 294 359 432
#     4  10  23  46  67 102 140 186 235 296 357 428
#     4  11  27  45  71 104 146 188 242 303 354 421
#     4  12  25  42  71 100 138 189 239 293 358 422
#     4  11  25  44  67 103 138 183 243 290 353 422
#     4  11  24  46  71 104 143 189 240 296 360 425
#     4  10  22  44  72  99 142 185 233 294 363 435
#
# _framework density 27.753388999999999
#
# number of rings (size 3 to 8) (size 9 to 14) (size 15 to 20)
#    0.000    1.250    1.250    3.375    7.000    3.000 
#    0.000    0.000    0.000    0.000    0.000    0.000 
#    0.000    0.000    0.000    0.000    0.000    0.000 
#
# Total GULP energy -89708.128549 kJ/mol
# GULP energy per Si atom -5606.758034 kJ/mol
# Density = 2.769022 g / cm^3
# Si number density = 27.753389 Si / 1000 Ang^3
#
#
#
# Elastic Constant Matrix: (Units=GPa)
#
#
# Indices 1 2 3 4 5 6 
#
# 1 127.1777 55.0376 37.1869 -3.5014 6.8158 28.4051
# 2 55.0376 130.7175 16.6756 -8.0597 16.5374 20.2664
# 3 37.1869 16.6756 82.6274 -17.8953 26.3090 -5.9914
# 4 -3.5014 -8.0597 -17.8953 48.8213 0.1513 1.5626
# 5 6.8158 16.5374 26.3090 0.1513 53.3291 -1.0716
# 6 28.4051 20.2664 -5.9914 1.5626 -1.0716 54.8636
#
#
#
# Elastic Compliance Matrix: (Units=1/GPa)
#
#
# Indices 1 2 3 4 5 6 
#
# 1 0.012601 -0.004070 -0.006582 -0.002009 0.002791 -0.005627
# 2 -0.004070 0.009978 0.001103 0.001820 -0.003155 -0.001571
# 3 -0.006582 0.001103 0.019533 0.006746 -0.009061 0.004764
# 4 -0.002009 0.001820 0.006746 0.023111 -0.003693 0.000374
# 5 0.002791 -0.003155 -0.009061 -0.003693 0.023839 -0.000698
# 6 -0.005627 -0.001571 0.004764 0.000374 -0.000698 0.022217
#
#
# Mechanical properties :
#
#
# Convention : Reuss Voigt Hill
#
# Bulk Modulus (GPa) = 43.45174 62.03584 52.74379
# Shear Modulus (GPa) = 36.21870 46.84430 41.53150
#
# Velocity S-wave (km/s) = 3.61642 4.11283 3.87259
# Velocity P-wave (km/s) = 5.75573 6.70484 6.24833
#
# Compressibility (1/GPa) = 0.02301404
#
# Stress axis : x y z
#
# Youngs Moduli (GPa) = 79.35869 100.21849 51.19432
#
# Poissons Ratio (x) = 0.40794 0.33694
# Poissons Ratio (y) = 0.32303 -0.05646
# Poissons Ratio (z) = 0.52231 -0.11052
#
# Static dielectric constant tensor:
#      x y z
#    x 2.231290 -0.020540 -0.051290 
#    y -0.020540 2.129130 0.003960 
#    z -0.051290 0.003960 2.163870 
# 
# From -- ./inp_files/53336.got.cif
#   From: 2010.05.17/outbox.cif.g08.bks.cpg/sg2_27_cif.got.tgz:53336.got - 2010.06.03 11:33:40.
