data_PCOD9034953
_publ_section_title
;
Structure prediction by ZEFSAII (Michael W. Deem and Ramdas Pophale) SiO2 
 PCOD9034953
Probable space group: P -1
;
_chemical_formula_sum "Si O2"
_cell_formula_units_Z 12
_cell_length_a 8.740095
_cell_length_b 11.996622
_cell_length_c 12.478020
_cell_angle_alpha 32.721455
_cell_angle_beta 42.161089
_cell_angle_gamma 57.902128
_cell_volume 459.101722
_symmetry_space_group_name_H-M "P -1"
_symmetry_group_IT_number 2
_symmetry_cell_setting 'triclinic'
loop_
_space_group_symop_operation_xyz
x,y,z
-x,-y,-z
loop_
_atom_site_type_symbol
_atom_site_label
_atom_site_fract_x
_atom_site_fract_y
_atom_site_fract_z
Si Si1 0.338470 0.404211 0.762571
Si Si2 0.939024 0.843632 0.557521
Si Si3 0.440169 0.543129 0.828796
Si Si4 0.144699 0.698780 0.168157
Si Si5 0.807891 0.139343 0.212685
Si Si6 0.757608 0.275023 0.677460
O O1 0.500000 0.500000 0.500000
O O2 0.476685 0.227199 0.868073
O O3 0.380777 0.549246 0.728778
O O4 0.065295 0.306229 0.964688
O O5 0.760426 0.634976 0.863686
O O6 0.155998 0.784580 0.433047
O O7 0.829948 0.950335 0.431386
O O8 0.000000 0.000000 0.500000
O O9 0.671632 0.455051 0.800121
O O10 0.400507 0.760410 0.719774
O O11 0.160043 0.812833 0.183484
O O12 0.894652 0.527832 0.417488
O O13 0.206066 0.865173 0.905115
#
# Coordination Sequence:
#
# PCOD9034953 Si02
#       6
#     2   2   2   2   2   2
#     4  11  21  39  69  96 128 181 219 270 324 391
#     4  12  26  43  67 103 135 174 220 279 329 391
#     4  11  24  45  66  98 140 169 226 274 327 397
#     4  10  22  45  69  96 132 184 212 276 332 387
#     4  12  24  41  72  99 132 178 221 267 339 392
#     4  10  23  43  67  95 140 168 225 272 328 393
#
# _framework density 26.137996000000001
#
# number of rings (size 3 to 8) (size 9 to 14) (size 15 to 20)
#    0.000    1.000    5.000    1.000    2.333    2.000 
#    0.000    0.000    0.000    0.000    0.000    0.000 
#    0.000    0.000    0.000    0.000    0.000    0.000 
#
# Total GULP energy -67152.878206 kJ/mol
# GULP energy per Si atom -5596.073184 kJ/mol
# Density = 2.607851 g / cm^3
# Si number density = 26.137996 Si / 1000 Ang^3
#
#
#
# Elastic Constant Matrix: (Units=GPa)
#
#
# Indices 1 2 3 4 5 6 
#
# 1 118.3127 8.5433 26.8001 26.6518 9.8274 10.0673
# 2 8.5433 83.4862 11.7266 33.0875 2.8677 7.2716
# 3 26.8001 11.7266 83.9955 23.1015 20.3634 9.9226
# 4 26.6518 33.0875 23.1015 40.8440 -2.2269 15.5222
# 5 9.8274 2.8677 20.3634 -2.2269 66.0904 20.8296
# 6 10.0673 7.2716 9.9226 15.5222 20.8296 43.6741
#
#
#
# Elastic Compliance Matrix: (Units=1/GPa)
#
#
# Indices 1 2 3 4 5 6 
#
# 1 0.010611 0.002697 -0.000811 -0.009440 -0.002314 0.001748
# 2 0.002697 0.019455 0.002743 -0.021292 -0.004448 0.005205
# 3 -0.000811 0.002743 0.016479 -0.012790 -0.006678 0.003717
# 4 -0.009440 -0.021292 -0.012790 0.064078 0.015166 -0.021380
# 5 -0.002314 -0.004448 -0.006678 0.015166 0.022427 -0.013295
# 6 0.001748 0.005205 0.003717 -0.021380 -0.013295 0.034722
#
#
# Mechanical properties :
#
#
# Convention : Reuss Voigt Hill
#
# Bulk Modulus (GPa) = 17.92060 42.21492 30.06776
# Shear Modulus (GPa) = 28.23017 46.03667 37.13342
#
# Velocity S-wave (km/s) = 3.28997 4.20133 3.77326
# Velocity P-wave (km/s) = 4.61550 6.30244 5.52375
#
# Compressibility (1/GPa) = 0.05580171
#
# Stress axis : x y z
#
# Youngs Moduli (GPa) = 94.23945 51.40152 60.68365
#
# Poissons Ratio (x) = -0.13862 0.04923
# Poissons Ratio (y) = -0.25414 -0.16645
# Poissons Ratio (z) = 0.07646 -0.14099
#
# Static dielectric constant tensor:
#      x y z
#    x 2.139100 -0.063970 0.023840 
#    y -0.063970 2.161500 -0.060410 
#    z 0.023840 -0.060410 2.043570 
# 
# From -- ./inp_files/189101.got.cif
#   From: 2010.05.17/outbox.cif.g08.bks.cpg/sg2_95_cif.got.tgz:189101.got - 2010.06.03 11:33:40.
