data_PCOD9034762
_publ_section_title
;
Structure prediction by ZEFSAII (Michael W. Deem and Ramdas Pophale) SiO2 
 PCOD9034762
Probable space group: P -1
;
_chemical_formula_sum "Si O2"
_cell_formula_units_Z 16
_cell_length_a 12.347055
_cell_length_b 8.722967
_cell_length_c 8.959250
_cell_angle_alpha 125.340240
_cell_angle_beta 78.915136
_cell_angle_gamma 116.999926
_cell_volume 698.046606
_symmetry_space_group_name_H-M "P -1"
_symmetry_group_IT_number 2
_symmetry_cell_setting 'triclinic'
loop_
_space_group_symop_operation_xyz
x,y,z
-x,-y,-z
loop_
_atom_site_type_symbol
_atom_site_label
_atom_site_fract_x
_atom_site_fract_y
_atom_site_fract_z
Si Si1 0.736257 0.645199 0.246792
Si Si2 0.484792 0.766565 0.875148
Si Si3 0.074946 0.541995 0.352632
Si Si4 0.011498 0.711433 0.199873
Si Si5 0.918227 0.100754 0.006513
Si Si6 0.419921 0.168021 0.441125
Si Si7 0.676758 0.873566 0.128550
Si Si8 0.652806 0.206671 0.554694
O O1 0.653092 0.402818 0.163330
O O2 0.877011 0.696185 0.250733
O O3 0.681953 0.761586 0.438293
O O4 0.712544 0.722173 0.135074
O O5 0.539601 0.753353 0.691995
O O6 0.560784 0.748618 0.986063
O O7 0.500000 0.000000 0.000000
O O8 0.216567 0.598496 0.369727
O O9 0.000000 0.500000 0.500000
O O10 0.072465 0.725122 0.352353
O O11 0.996429 0.335869 0.168048
O O12 0.000000 0.500000 0.000000
O O13 0.084559 0.897013 0.170475
O O14 0.786666 0.002912 0.060641
O O15 0.000000 0.000000 0.000000
O O16 0.542113 0.260289 0.565108
O O17 0.373221 0.921776 0.354734
O O18 0.658483 0.041420 0.336579
#
# Coordination Sequence:
#
# PCOD9034762 Si02
#       8
#     2   2   2   2   2   2   2   2
#     4  11  25  48  68 100 141 179 230 287 347 405
#     4  12  26  41  73 104 133 183 229 281 349 403
#     4  11  24  42  73  96 134 185 225 277 348 414
#     4  10  25  44  69  99 136 180 228 289 337 414
#     4  11  23  45  66 102 133 175 228 284 342 398
#     4  10  24  45  70 100 137 180 225 289 333 411
#     4  11  23  45  69  99 142 175 228 288 336 420
#     4  10  22  45  68 100 139 178 227 273 351 406
#
# _framework density 22.921106000000002
#
# number of rings (size 3 to 8) (size 9 to 14) (size 15 to 20)
#    0.000    1.250    3.750    0.750    7.000    2.000 
#    2.250    3.125    0.000    0.000    0.000    0.000 
#    0.000    0.000    0.000    0.000    0.000    0.000 
#
# Total GULP energy -89469.074883 kJ/mol
# GULP energy per Si atom -5591.817180 kJ/mol
# Density = 2.286894 g / cm^3
# Si number density = 22.921106 Si / 1000 Ang^3
#
#
#
# Elastic Constant Matrix: (Units=GPa)
#
#
# Indices 1 2 3 4 5 6 
#
# 1 92.4056 7.1029 18.2221 -17.3887 -18.6257 9.1699
# 2 7.1029 105.7705 31.7580 -28.3400 -6.1537 16.7475
# 3 18.2221 31.7580 48.1241 -27.1416 -1.9850 -3.7562
# 4 -17.3887 -28.3400 -27.1416 34.2331 -2.6169 1.0894
# 5 -18.6257 -6.1537 -1.9850 -2.6169 26.4968 -4.6815
# 6 9.1699 16.7475 -3.7562 1.0894 -4.6815 46.8376
#
#
#
# Elastic Compliance Matrix: (Units=1/GPa)
#
#
# Indices 1 2 3 4 5 6 
#
# 1 0.015720 0.003665 -0.002450 0.010115 0.012078 -0.003612
# 2 0.003665 0.015013 -0.005680 0.010410 0.005565 -0.006227
# 3 -0.002450 -0.005680 0.041142 0.026776 0.003667 0.005554
# 4 0.010115 0.010410 0.026776 0.065635 0.017426 -0.003340
# 5 0.012078 0.005565 0.003667 0.017426 0.049606 0.000492
# 6 -0.003612 -0.006227 0.005554 -0.003340 0.000492 0.024856
#
#
# Mechanical properties :
#
#
# Convention : Reuss Voigt Hill
#
# Bulk Modulus (GPa) = 15.88725 40.05180 27.96953
# Shear Modulus (GPa) = 20.67114 34.12799 27.39957
#
# Velocity S-wave (km/s) = 3.00632 3.86286 3.46119
# Velocity P-wave (km/s) = 4.35855 6.11615 5.31056
#
# Compressibility (1/GPa) = 0.06294356
#
# Stress axis : x y z
#
# Youngs Moduli (GPa) = 63.61460 66.60979 24.30619
#
# Poissons Ratio (x) = -0.24411 0.05955
# Poissons Ratio (y) = -0.23313 0.13806
# Poissons Ratio (z) = 0.15585 0.37836
#
# Static dielectric constant tensor:
#      x y z
#    x 1.886680 -0.072820 0.034370 
#    y -0.072820 1.955890 -0.037380 
#    z 0.034370 -0.037380 1.919550 
# 
# From -- ./inp_files/245469.got.cif
#   From: 2010.05.17/outbox.cif.g08.bks.cpg/sg2_123_cif.got.tgz:245469.got - 2010.06.03 11:33:40.
