data_PCOD9034101
_publ_section_title
;
Structure prediction by ZEFSAII (Michael W. Deem and Ramdas Pophale) SiO2 
 PCOD9034101
Probable space group: P -1
;
_chemical_formula_sum "Si O2"
_cell_formula_units_Z 16
_cell_length_a 5.402865
_cell_length_b 9.810817
_cell_length_c 19.895501
_cell_angle_alpha 133.036812
_cell_angle_beta 89.516442
_cell_angle_gamma 99.190691
_cell_volume 753.494371
_symmetry_space_group_name_H-M "P -1"
_symmetry_group_IT_number 2
_symmetry_cell_setting 'triclinic'
loop_
_space_group_symop_operation_xyz
x,y,z
-x,-y,-z
loop_
_atom_site_type_symbol
_atom_site_label
_atom_site_fract_x
_atom_site_fract_y
_atom_site_fract_z
Si Si1 0.151358 0.373983 0.719851
Si Si2 0.860230 0.309153 0.399354
Si Si3 0.760858 0.563931 0.107422
Si Si4 0.098953 0.042541 0.378315
Si Si5 0.365601 0.169573 0.279870
Si Si6 0.455281 0.206579 0.550446
Si Si7 0.837480 0.562277 0.685258
Si Si8 0.682059 0.254591 0.891335
O O1 0.246764 0.455191 0.818869
O O2 0.350744 0.302873 0.647106
O O3 0.014385 0.515270 0.726405
O O4 0.958970 0.171958 0.667937
O O5 0.597873 0.312646 0.366586
O O6 0.000000 0.500000 0.500000
O O7 0.854549 0.128554 0.386943
O O8 0.041434 0.297550 0.329893
O O9 0.542127 0.674975 0.124313
O O10 0.041526 0.677394 0.121880
O O11 0.708734 0.367263 0.999953
O O12 0.243308 0.066231 0.315889
O O13 0.256056 0.175254 0.479728
O O14 0.355058 0.302413 0.256622
O O15 0.397278 0.971969 0.178668
O O16 0.708827 0.360134 0.585362
O O17 0.500000 0.000000 0.500000
#
# Coordination Sequence:
#
# PCOD9034101 Si02
#       8
#     2   2   2   2   2   2   2   2
#     4  12  24  40  63  95 133 170 219 275 346 400
#     4  11  23  39  61  86 129 170 225 273 325 391
#     4  10  23  42  73 105 136 169 223 293 341 402
#     4  11  23  37  61  92 118 173 218 269 324 392
#     4  11  23  41  67  93 131 177 224 274 341 398
#     4  12  26  39  61  91 132 174 224 278 333 406
#     4  11  25  41  57  92 131 175 215 275 335 403
#     4  10  22  44  71 107 134 169 228 286 344 402
#
# _framework density 21.234397999999999
#
# number of rings (size 3 to 8) (size 9 to 14) (size 15 to 20)
#    0.000    1.000    2.500    4.125    8.750    2.000 
#    0.000    0.625    0.000    3.000    0.000    0.000 
#    0.000    0.000    0.000    0.000    0.000    0.000 
#
# Total GULP energy -89144.851534 kJ/mol
# GULP energy per Si atom -5571.553221 kJ/mol
# Density = 2.118607 g / cm^3
# Si number density = 21.234398 Si / 1000 Ang^3
#
#
#
# Elastic Constant Matrix: (Units=GPa)
#
#
# Indices 1 2 3 4 5 6 
#
# 1 186.2247 68.1153 109.8750 11.4989 -53.8841 -48.4074
# 2 68.1153 134.8581 82.7062 7.2428 -17.7239 -36.6068
# 3 109.8750 82.7062 187.3551 3.0985 -35.1068 -45.1225
# 4 11.4989 7.2428 3.0985 35.7953 -15.7283 -0.6544
# 5 -53.8841 -17.7239 -35.1068 -15.7283 38.0681 10.1042
# 6 -48.4074 -36.6068 -45.1225 -0.6544 10.1042 45.5612
#
#
#
# Elastic Compliance Matrix: (Units=1/GPa)
#
#
# Indices 1 2 3 4 5 6 
#
# 1 0.013744 -0.001332 -0.002854 0.003057 0.015525 0.007307
# 2 -0.001332 0.011328 -0.003419 -0.002355 -0.001987 0.004707
# 3 -0.002854 -0.003419 0.009968 0.002425 0.003685 0.003311
# 4 0.003057 -0.002355 0.002425 0.036227 0.020506 -0.000270
# 5 0.015525 -0.001987 0.003685 0.020506 0.057578 0.006073
# 6 0.007307 0.004707 0.003311 -0.000270 0.006073 0.035421
#
#
# Mechanical properties :
#
#
# Convention : Reuss Voigt Hill
#
# Bulk Modulus (GPa) = 50.42915 114.42565 82.42740
# Shear Modulus (GPa) = 26.86950 40.40101 33.63525
#
# Velocity S-wave (km/s) = 3.56107 4.36664 3.98427
# Velocity P-wave (km/s) = 6.38033 8.91220 7.75035
#
# Compressibility (1/GPa) = 0.01982980
#
# Stress axis : x y z
#
# Youngs Moduli (GPa) = 72.76166 88.27699 100.32066
#
# Poissons Ratio (x) = 0.11759 0.28628
# Poissons Ratio (y) = 0.09692 0.34302
# Poissons Ratio (z) = 0.20763 0.30184
#
# Static dielectric constant tensor:
#      x y z
#    x 1.821030 -0.001120 -0.054350 
#    y -0.001120 1.804330 0.034160 
#    z -0.054350 0.034160 1.764320 
# 
# From -- ./inp_files/53731.got.cif
#   From: 2010.05.17/outbox.cif.g08.bks.cpg/sg2_27_cif.got.tgz:53731.got - 2010.06.03 11:33:40.
