data_PCOD9034012
_publ_section_title
;
Structure prediction by ZEFSAII (Michael W. Deem and Ramdas Pophale) SiO2 
 PCOD9034012
Probable space group: P -1
;
_chemical_formula_sum "Si O2"
_cell_formula_units_Z 13
_cell_length_a 6.903822
_cell_length_b 13.095162
_cell_length_c 6.968657
_cell_angle_alpha 61.171853
_cell_angle_beta 96.358626
_cell_angle_gamma 83.311613
_cell_volume 537.998685
_symmetry_space_group_name_H-M "P -1"
_symmetry_group_IT_number 2
_symmetry_cell_setting 'triclinic'
loop_
_space_group_symop_operation_xyz
x,y,z
-x,-y,-z
loop_
_atom_site_type_symbol
_atom_site_label
_atom_site_fract_x
_atom_site_fract_y
_atom_site_fract_z
Si Si1 0.500000 0.500000 0.000000
Si Si2 0.147317 0.135421 0.028910
Si Si3 0.270357 0.931385 0.974047
Si Si4 0.437867 0.662514 0.238986
Si Si5 0.682493 0.910706 0.512023
Si Si6 0.285489 0.343146 0.374567
Si Si7 0.018620 0.635056 0.401548
O O1 0.468050 0.589319 0.110728
O O2 0.335004 0.426744 0.136813
O O3 0.166258 0.132637 0.260396
O O4 0.935404 0.109375 0.966302
O O5 0.133426 0.267220 0.826326
O O6 0.304967 0.024113 0.059736
O O7 0.233861 0.016327 0.708896
O O8 0.415694 0.805150 0.070251
O O9 0.606418 0.622710 0.453048
O O10 0.236255 0.646945 0.344585
O O11 0.616794 0.793137 0.533669
O O12 0.500000 0.000000 0.500000
O O13 0.056670 0.340426 0.408594
O O14 0.000000 0.500000 0.500000
#
# Coordination Sequence:
#
# PCOD9034012 Si02
#       7
#     1   2   2   2   2   2   2
#     4  12  26  46  70 104 138 186 238 292 348 416
#     4  10  23  43  70 100 139 178 232 286 336 418
#     4  10  22  44  70  99 140 180 222 287 351 398
#     4  11  26  48  71 104 143 183 234 293 352 414
#     4  12  25  41  69 107 137 181 230 279 353 420
#     4  12  27  46  72 102 145 183 235 293 348 418
#     4  11  24  48  73 100 138 193 231 286 356 410
#
# _framework density 24.163629
#
# number of rings (size 3 to 8) (size 9 to 14) (size 15 to 20)
#    0.000    0.923    3.077    2.769    4.308    1.231 
#    8.308    2.308    0.000    0.000    0.000    0.000 
#    0.000    0.000    0.000    0.000    0.000    0.000 
#
# Total GULP energy -72376.662539 kJ/mol
# GULP energy per Si atom -5567.435580 kJ/mol
# Density = 2.410863 g / cm^3
# Si number density = 24.163629 Si / 1000 Ang^3
#
#
#
# Elastic Constant Matrix: (Units=GPa)
#
#
# Indices 1 2 3 4 5 6 
#
# 1 78.1895 34.3865 34.2297 9.3558 -24.1343 -6.8590
# 2 34.3865 177.6217 53.7536 -2.0905 -5.3098 0.7580
# 3 34.2297 53.7536 125.0283 -7.5637 -37.9490 3.9984
# 4 9.3558 -2.0905 -7.5637 48.4583 -3.2756 -14.0983
# 5 -24.1343 -5.3098 -37.9490 -3.2756 42.3732 -3.1367
# 6 -6.8590 0.7580 3.9984 -14.0983 -3.1367 29.1786
#
#
#
# Elastic Compliance Matrix: (Units=1/GPa)
#
#
# Indices 1 2 3 4 5 6 
#
# 1 0.017985 -0.002888 -0.001212 -0.001858 0.008989 0.004537
# 2 -0.002888 0.007115 -0.003440 -0.000202 -0.003917 -0.000911
# 3 -0.001212 -0.003440 0.013354 0.003120 0.011130 0.000678
# 4 -0.001858 -0.000202 0.003120 0.025216 0.004534 0.011812
# 5 0.008989 -0.003917 0.011130 0.004534 0.039071 0.007080
# 6 0.004537 -0.000911 0.000678 0.011812 0.007080 0.041737
#
#
# Mechanical properties :
#
#
# Convention : Reuss Voigt Hill
#
# Bulk Modulus (GPa) = 42.78157 69.50880 56.14519
# Shear Modulus (GPa) = 29.87774 41.23334 35.55554
#
# Velocity S-wave (km/s) = 3.52017 4.13537 3.84011
# Velocity P-wave (km/s) = 5.85368 7.18540 6.55345
#
# Compressibility (1/GPa) = 0.02337455
#
# Stress axis : x y z
#
# Youngs Moduli (GPa) = 55.60311 140.55784 74.88233
#
# Poissons Ratio (x) = 0.40588 0.09072
# Poissons Ratio (y) = 0.16056 0.25762
# Poissons Ratio (z) = 0.06736 0.48356
#
# Static dielectric constant tensor:
#      x y z
#    x 2.111550 -0.101520 -0.120890 
#    y -0.101520 2.135940 0.243780 
#    z -0.120890 0.243780 2.320930 
# 
# From -- ./inp_files/23385.got.cif
#   From: 2010.05.17/outbox.cif.g08.bks.cpg/sg2_12_cif.got.tgz:23385.got - 2010.06.03 11:33:40.
