data_PCOD9034163
_publ_section_title
;
Structure prediction by ZEFSAII (Michael W. Deem and Ramdas Pophale) SiO2 
 PCOD9034163
Probable space group: P -1
;
_chemical_formula_sum "Si O2"
_cell_formula_units_Z 14
_cell_length_a 11.396670
_cell_length_b 19.992107
_cell_length_c 7.219458
_cell_angle_alpha 130.098671
_cell_angle_beta 63.691512
_cell_angle_gamma 153.593092
_cell_volume 514.574179
_symmetry_space_group_name_H-M "P -1"
_symmetry_group_IT_number 2
_symmetry_cell_setting 'triclinic'
loop_
_space_group_symop_operation_xyz
x,y,z
-x,-y,-z
loop_
_atom_site_type_symbol
_atom_site_label
_atom_site_fract_x
_atom_site_fract_y
_atom_site_fract_z
Si Si1 0.551843 0.612549 0.874678
Si Si2 0.985653 0.616769 0.340024
Si Si3 0.277064 0.934843 0.949117
Si Si4 0.246315 0.247977 0.387194
Si Si5 0.194543 0.677680 0.927978
Si Si6 0.399996 0.626051 0.338989
Si Si7 0.145263 0.992725 0.438329
O O1 0.443734 0.450637 0.636529
O O2 0.801956 0.786011 0.860924
O O3 0.304055 0.527728 0.816951
O O4 0.534537 0.625766 0.125526
O O5 0.084757 0.759140 0.641169
O O6 0.918959 0.488340 0.266334
O O7 0.198897 0.721925 0.209009
O O8 0.101619 0.885574 0.138203
O O9 0.500000 0.000000 0.000000
O O10 0.493735 0.126299 0.027389
O O11 0.443457 0.291925 0.426961
O O12 0.961728 0.089589 0.427130
O O13 0.942434 0.575582 0.801725
O O14 0.523281 0.784920 0.430239
O O15 0.000000 0.000000 0.500000
#
# Coordination Sequence:
#
# PCOD9034163 Si02
#       7
#     2   2   2   2   2   2   2
#     4  10  23  41  70 103 132 198 234 298 379 422
#     4  10  24  46  71 107 148 185 250 308 368 446
#     4  12  27  43  76 110 143 197 249 301 376 443
#     4  10  23  43  68 101 144 185 248 298 362 443
#     4  10  24  47  73 107 147 194 242 310 374 435
#     4  10  22  44  71  98 145 184 243 303 363 436
#     4  10  25  44  67 106 146 190 242 306 367 430
#
# _framework density 27.206962999999998
#
# number of rings (size 3 to 8) (size 9 to 14) (size 15 to 20)
#    0.000    1.714    0.000    1.714   10.000    6.286 
#    7.714    0.000    0.000    0.000    0.000    0.000 
#    0.000    0.000    0.000    0.000    0.000    0.000 
#
# Total GULP energy -78395.701433 kJ/mol
# GULP energy per Si atom -5599.692959 kJ/mol
# Density = 2.714504 g / cm^3
# Si number density = 27.206963 Si / 1000 Ang^3
#
#
#
# Elastic Constant Matrix: (Units=GPa)
#
#
# Indices 1 2 3 4 5 6 
#
# 1 97.7981 33.5854 20.3234 -7.1691 -13.0125 -6.4476
# 2 33.5854 153.1883 30.7548 -21.6312 -22.7763 -12.6246
# 3 20.3234 30.7548 133.6876 -21.2227 -23.2542 2.9892
# 4 -7.1691 -21.6312 -21.2227 52.8112 2.8529 -5.1184
# 5 -13.0125 -22.7763 -23.2542 2.8529 34.9514 -5.9683
# 6 -6.4476 -12.6246 2.9892 -5.1184 -5.9683 41.7151
#
#
#
# Elastic Compliance Matrix: (Units=1/GPa)
#
#
# Indices 1 2 3 4 5 6 
#
# 1 0.011525 -0.001705 -0.000806 0.000561 0.002907 0.001808
# 2 -0.001705 0.008437 -0.000406 0.003125 0.004920 0.003406
# 3 -0.000806 -0.000406 0.009104 0.003121 0.005279 0.000238
# 4 0.000561 0.003125 0.003121 0.021754 0.003219 0.003939
# 5 0.002907 0.004920 0.005279 0.003219 0.037396 0.007305
# 6 0.001808 0.003406 0.000238 0.003939 0.007305 0.026794
#
#
# Mechanical properties :
#
#
# Convention : Reuss Voigt Hill
#
# Bulk Modulus (GPa) = 43.04151 61.55567 52.29859
# Shear Modulus (GPa) = 38.88424 45.89622 42.39023
#
# Velocity S-wave (km/s) = 3.78458 4.11168 3.95152
# Velocity P-wave (km/s) = 5.91200 6.72423 6.33116
#
# Compressibility (1/GPa) = 0.02323339
#
# Stress axis : x y z
#
# Youngs Moduli (GPa) = 86.76754 118.53042 109.83777
#
# Poissons Ratio (x) = 0.20205 0.08849
# Poissons Ratio (y) = 0.14791 0.04459
# Poissons Ratio (z) = 0.06991 0.04812
#
# Static dielectric constant tensor:
#      x y z
#    x 2.099170 0.010850 0.044120 
#    y 0.010850 2.245700 -0.045560 
#    z 0.044120 -0.045560 2.222260 
# 
# From -- ./inp_files/283338.got.cif
#   From: 2010.05.17/outbox.cif.g08.bks.cpg/sg2_142_cif.got.tgz:283338.got - 2010.06.03 11:33:40.
