data_PCOD9034794
_publ_section_title
;
Structure prediction by ZEFSAII (Michael W. Deem and Ramdas Pophale) SiO2 
 PCOD9034794
Probable space group: P -1
;
_chemical_formula_sum "Si O2"
_cell_formula_units_Z 16
_cell_length_a 9.269903
_cell_length_b 17.932267
_cell_length_c 11.803409
_cell_angle_alpha 49.421941
_cell_angle_beta 153.690903
_cell_angle_gamma 122.342123
_cell_volume 653.710312
_symmetry_space_group_name_H-M "P -1"
_symmetry_group_IT_number 2
_symmetry_cell_setting 'triclinic'
loop_
_space_group_symop_operation_xyz
x,y,z
-x,-y,-z
loop_
_atom_site_type_symbol
_atom_site_label
_atom_site_fract_x
_atom_site_fract_y
_atom_site_fract_z
Si Si1 0.347025 0.980559 0.103617
Si Si2 0.717997 0.911476 0.811448
Si Si3 0.166541 0.576192 0.666878
Si Si4 0.696572 0.427083 0.492745
Si Si5 0.475752 0.691761 0.315596
Si Si6 0.778187 0.882428 0.337722
Si Si7 0.779175 0.395444 0.004213
Si Si8 0.358999 0.741487 0.786072
O O1 0.700722 0.924857 0.367447
O O2 0.321806 0.054620 0.118683
O O3 0.086919 0.909317 0.028377
O O4 0.240770 0.038148 0.855357
O O5 0.594327 0.805708 0.823676
O O6 0.500000 0.000000 0.500000
O O7 0.169139 0.594463 0.516449
O O8 0.168052 0.682898 0.619207
O O9 0.904158 0.511766 0.597607
O O10 0.500000 0.500000 0.000000
O O11 0.709845 0.334618 0.675664
O O12 0.327503 0.487348 0.172919
O O13 0.511530 0.806498 0.206942
O O14 0.854871 0.641799 0.655727
O O15 0.297333 0.644691 0.133293
O O16 0.127699 0.818338 0.626186
O O17 0.528452 0.346290 0.960156
#
# Coordination Sequence:
#
# PCOD9034794 Si02
#       8
#     2   2   2   2   2   2   2   2
#     4  10  23  45  71  98 145 174 237 289 362 424
#     4  11  23  43  69 104 134 181 228 294 352 427
#     4  11  25  44  67  98 140 191 239 294 352 426
#     4  11  24  43  67  98 140 187 239 297 350 423
#     4  11  25  41  71 104 140 184 239 298 357 429
#     4  10  22  45  68 105 135 186 232 293 357 428
#     4  11  23  43  68 101 139 190 237 293 361 417
#     4  11  23  44  73  98 143 186 238 288 365 423
#
# _framework density 24.475674000000001
#
# number of rings (size 3 to 8) (size 9 to 14) (size 15 to 20)
#    0.000    1.250    2.500    3.000    1.750    2.500 
#    4.500    0.000    0.000    0.000    0.000    0.000 
#    0.000    0.000    0.000    0.000    0.000    0.000 
#
# Total GULP energy -89413.068575 kJ/mol
# GULP energy per Si atom -5588.316786 kJ/mol
# Density = 2.441997 g / cm^3
# Si number density = 24.475674 Si / 1000 Ang^3
#
#
#
# Elastic Constant Matrix: (Units=GPa)
#
#
# Indices 1 2 3 4 5 6 
#
# 1 168.0618 62.8055 11.3430 4.3417 -5.6028 7.8976
# 2 62.8055 117.6041 6.3133 9.5749 -2.6266 33.8048
# 3 11.3430 6.3133 39.5521 6.8153 4.4721 -10.3905
# 4 4.3417 9.5749 6.8153 30.6818 -0.9746 -0.4493
# 5 -5.6028 -2.6266 4.4721 -0.9746 39.3558 -8.8595
# 6 7.8976 33.8048 -10.3905 -0.4493 -8.8595 41.8230
#
#
#
# Elastic Compliance Matrix: (Units=1/GPa)
#
#
# Indices 1 2 3 4 5 6 
#
# 1 0.007736 -0.004812 -0.001093 0.000733 0.001480 0.002478
# 2 -0.004812 0.015158 -0.003524 -0.003524 -0.002225 -0.012728
# 3 -0.001093 -0.003524 0.029906 -0.005293 -0.001651 0.010078
# 4 0.000733 -0.003524 -0.005293 0.034854 0.001819 0.002154
# 5 0.001480 -0.002225 -0.001651 0.001819 0.027258 0.006903
# 6 0.002478 -0.012728 0.010078 0.002154 0.006903 0.037719
#
#
# Mechanical properties :
#
#
# Convention : Reuss Voigt Hill
#
# Bulk Modulus (GPa) = 29.46321 54.01574 41.73947
# Shear Modulus (GPa) = 27.35191 38.68920 33.02055
#
# Velocity S-wave (km/s) = 3.34655 3.98014 3.67702
# Velocity P-wave (km/s) = 5.19581 6.57564 5.92602
#
# Compressibility (1/GPa) = 0.03394064
#
# Stress axis : x y z
#
# Youngs Moduli (GPa) = 129.26437 65.97284 33.43859
#
# Poissons Ratio (x) = 0.31744 0.03656
# Poissons Ratio (y) = 0.62198 0.11785
# Poissons Ratio (z) = 0.14131 0.23252
#
# Static dielectric constant tensor:
#      x y z
#    x 1.947630 -0.000130 0.047530 
#    y -0.000130 2.013430 -0.012950 
#    z 0.047530 -0.012950 2.069800 
# 
# From -- ./inp_files/403062.got.cif
#   From: 2010.05.17/outbox.cif.g08.bks.cpg/sg2_202_cif.got.tgz:403062.got - 2010.06.03 11:33:40.
