data_PCOD9034055
_publ_section_title
;
Structure prediction by ZEFSAII (Michael W. Deem and Ramdas Pophale) SiO2 
 PCOD9034055
Probable space group: P -1
;
_chemical_formula_sum "Si O2"
_cell_formula_units_Z 15
_cell_length_a 6.788205
_cell_length_b 8.551128
_cell_length_c 19.464186
_cell_angle_alpha 137.939268
_cell_angle_beta 99.630273
_cell_angle_gamma 103.637053
_cell_volume 625.656862
_symmetry_space_group_name_H-M "P -1"
_symmetry_group_IT_number 2
_symmetry_cell_setting 'triclinic'
loop_
_space_group_symop_operation_xyz
x,y,z
-x,-y,-z
loop_
_atom_site_type_symbol
_atom_site_label
_atom_site_fract_x
_atom_site_fract_y
_atom_site_fract_z
Si Si1 0.804879 0.946629 0.628420
Si Si2 0.500000 0.000000 0.000000
Si Si3 0.020548 0.846244 0.846803
Si Si4 0.784222 0.227367 0.588723
Si Si5 0.169199 0.808910 0.031339
Si Si6 0.303322 0.760686 0.176697
Si Si7 0.772513 0.954045 0.215168
Si Si8 0.874596 0.532475 0.437200
O O1 0.884788 0.150671 0.634753
O O2 0.641952 0.006960 0.686815
O O3 0.020522 0.003593 0.708528
O O4 0.714898 0.647293 0.491054
O O5 0.776171 0.136806 0.089449
O O6 0.390852 0.845818 0.016461
O O7 0.848648 0.538389 0.705598
O O8 0.149826 0.064312 0.862320
O O9 0.854955 0.932044 0.900924
O O10 0.924510 0.252020 0.534908
O O11 0.500000 0.000000 0.500000
O O12 0.222340 0.814281 0.116852
O O13 0.924689 0.527278 0.905452
O O14 0.524054 0.733652 0.163829
O O15 0.752225 0.226418 0.298242
O O16 0.000000 0.500000 0.500000
#
# Coordination Sequence:
#
# PCOD9034055 Si02
#       8
#     2   1   2   2   2   2   2   2
#     4  11  23  43  70 101 137 183 235 286 347 408
#     4  12  24  46  70 100 142 186 230 292 344 412
#     4  11  24  48  71 102 143 189 231 286 358 416
#     4  11  26  46  69 108 142 178 236 292 343 420
#     4  11  25  44  68 103 136 183 236 290 350 416
#     4  11  24  42  70 103 135 179 242 287 346 416
#     4  10  22  44  71 101 142 182 232 288 347 425
#     4   9  22  44  68  98 137 179 229 273 350 418
#
# _framework density 23.974805
#
# number of rings (size 3 to 8) (size 9 to 14) (size 15 to 20)
#    0.000    1.333    2.667    1.600    3.733    4.267 
#    4.800    0.000    0.000    0.000    0.000    0.000 
#    0.000    0.000    0.000    0.000    0.000    0.000 
#
# Total GULP energy -83573.498616 kJ/mol
# GULP energy per Si atom -5571.566574 kJ/mol
# Density = 2.392024 g / cm^3
# Si number density = 23.974805 Si / 1000 Ang^3
#
#
#
# Elastic Constant Matrix: (Units=GPa)
#
#
# Indices 1 2 3 4 5 6 
#
# 1 56.0335 19.0781 25.5998 8.0568 13.2079 11.6466
# 2 19.0781 114.7258 9.8237 -16.8314 -1.5414 18.4290
# 3 25.5998 9.8237 61.5603 3.4463 -1.2372 9.8134
# 4 8.0568 -16.8314 3.4463 34.6989 0.3754 5.9282
# 5 13.2079 -1.5414 -1.2372 0.3754 37.1532 -2.8869
# 6 11.6466 18.4290 9.8134 5.9282 -2.8869 45.8252
#
#
#
# Elastic Compliance Matrix: (Units=1/GPa)
#
#
# Indices 1 2 3 4 5 6 
#
# 1 0.028306 -0.004542 -0.010402 -0.007132 -0.010751 -0.002895
# 2 -0.004542 0.011191 0.000415 0.007150 0.001690 -0.004254
# 3 -0.010402 0.000415 0.020834 0.000812 0.004259 -0.001822
# 4 -0.007132 0.007150 0.000812 0.034799 0.002072 -0.005608
# 5 -0.010751 0.001690 0.004259 0.002072 0.031149 0.002835
# 6 -0.002895 -0.004254 -0.001822 -0.005608 0.002835 0.025563
#
#
# Mechanical properties :
#
#
# Convention : Reuss Voigt Hill
#
# Bulk Modulus (GPa) = 31.97615 37.92475 34.95045
# Shear Modulus (GPa) = 26.13356 35.38997 30.76177
#
# Velocity S-wave (km/s) = 3.30516 3.84621 3.58591
# Velocity P-wave (km/s) = 5.28506 5.96468 5.63512
#
# Compressibility (1/GPa) = 0.03127331
#
# Stress axis : x y z
#
# Youngs Moduli (GPa) = 35.32775 89.35506 47.99824
#
# Poissons Ratio (x) = 0.40587 0.49926
# Poissons Ratio (y) = 0.16047 -0.01991
# Poissons Ratio (z) = 0.36747 -0.03706
#
# Static dielectric constant tensor:
#      x y z
#    x 1.983590 0.116560 -0.085520 
#    y 0.116560 2.175660 -0.051030 
#    z -0.085520 -0.051030 2.008030 
# 
# From -- ./inp_files/561888.got.cif
#   From: 2010.05.17/outbox.cif.g08.bks.cpg/sg2_281_cif.got.tgz:561888.got - 2010.06.03 11:33:40.
