data_PCOD9034426
_publ_section_title
;
Structure prediction by ZEFSAII (Michael W. Deem and Ramdas Pophale) SiO2 
 PCOD9034426
Probable space group: P -1
;
_chemical_formula_sum "Si O2"
_cell_formula_units_Z 16
_cell_length_a 17.724979
_cell_length_b 7.948327
_cell_length_c 8.868715
_cell_angle_alpha 76.671180
_cell_angle_beta 132.093913
_cell_angle_gamma 72.306648
_cell_volume 696.991593
_symmetry_space_group_name_H-M "P -1"
_symmetry_group_IT_number 2
_symmetry_cell_setting 'triclinic'
loop_
_space_group_symop_operation_xyz
x,y,z
-x,-y,-z
loop_
_atom_site_type_symbol
_atom_site_label
_atom_site_fract_x
_atom_site_fract_y
_atom_site_fract_z
Si Si1 0.297366 0.551538 0.926462
Si Si2 0.949172 0.210644 0.280189
Si Si3 0.555238 0.139045 0.202905
Si Si4 0.854657 0.060322 0.952970
Si Si5 0.248707 0.753992 0.504721
Si Si6 0.636217 0.187967 0.831745
Si Si7 0.591785 0.711753 0.343067
Si Si8 0.107514 0.241605 0.676020
O O1 0.185929 0.575320 0.868464
O O2 0.226538 0.698143 0.649914
O O3 0.423691 0.308030 0.092404
O O4 0.341188 0.672984 0.055780
O O5 0.068779 0.210405 0.465031
O O6 0.904007 0.184160 0.067568
O O7 0.000000 0.000000 0.500000
O O8 0.643313 0.212963 0.332716
O O9 0.621672 0.881075 0.375386
O O10 0.507791 0.188533 0.954987
O O11 0.865098 0.041727 0.792772
O O12 0.700409 0.183220 0.762630
O O13 0.920537 0.850067 0.195774
O O14 0.296676 0.539918 0.510674
O O15 0.489162 0.279805 0.626683
O O16 0.734868 0.926466 0.070663
O O17 0.000000 0.500000 0.500000
#
# Coordination Sequence:
#
# PCOD9034426 Si02
#       8
#     2   2   2   2   2   2   2   2
#     4  10  17  32  57  75  96 147 179 205 251 315
#     4   9  17  35  53  74  97 132 183 209 253 311
#     4  10  20  31  54  77 110 141 178 208 246 322
#     4   8  20  33  53  77 102 138 166 219 265 306
#     4  11  19  36  52  77 115 137 166 218 266 298
#     4   9  17  34  54  77  97 141 179 206 261 311
#     4  10  19  34  51  81 106 143 177 206 254 313
#     4   9  19  35  56  76 101 136 173 223 254 311
#
# _framework density 22.9558
#
# number of rings (size 3 to 8) (size 9 to 14) (size 15 to 20)
#    0.750    1.750    3.750    0.750    1.750    0.500 
#    2.250    3.125    0.000    0.750    0.000    0.000 
#    0.000    0.000    0.000    0.000    0.000    0.000 
#
# Total GULP energy -89088.002472 kJ/mol
# GULP energy per Si atom -5568.000155 kJ/mol
# Density = 2.290355 g / cm^3
# Si number density = 22.955800 Si / 1000 Ang^3
#
#
#
# Elastic Constant Matrix: (Units=GPa)
#
#
# Indices 1 2 3 4 5 6 
#
# 1 57.0936 16.8348 8.1298 -7.5125 2.5030 -16.3633
# 2 16.8348 87.8192 5.6259 -18.8549 -3.0299 -4.7080
# 3 8.1298 5.6259 55.8371 6.9211 -12.9773 5.0479
# 4 -7.5125 -18.8549 6.9211 23.0654 -6.8940 0.1525
# 5 2.5030 -3.0299 -12.9773 -6.8940 24.3473 -4.3252
# 6 -16.3633 -4.7080 5.0479 0.1525 -4.3252 22.9393
#
#
#
# Elastic Compliance Matrix: (Units=1/GPa)
#
#
# Indices 1 2 3 4 5 6 
#
# 1 0.025579 -0.001601 -0.006473 0.008719 -0.000398 0.019209
# 2 -0.001601 0.015255 -0.002076 0.014219 0.005588 0.003405
# 3 -0.006473 -0.002076 0.022861 -0.007963 0.008854 -0.008351
# 4 0.008719 0.014219 -0.007963 0.065373 0.017586 0.013771
# 5 -0.000398 0.005588 0.008854 0.017586 0.053071 0.008804
# 6 0.019209 0.003405 -0.008351 0.013771 0.008804 0.061401
#
#
# Mechanical properties :
#
#
# Convention : Reuss Voigt Hill
#
# Bulk Modulus (GPa) = 23.04338 29.10344 26.07341
# Shear Modulus (GPa) = 17.96601 25.41434 21.69018
#
# Velocity S-wave (km/s) = 2.80060 3.33092 3.07720
# Velocity P-wave (km/s) = 4.52965 5.24394 4.89983
#
# Compressibility (1/GPa) = 0.04339642
#
# Stress axis : x y z
#
# Youngs Moduli (GPa) = 39.09476 65.55189 43.74351
#
# Poissons Ratio (x) = 0.10493 0.28314
# Poissons Ratio (y) = 0.06258 0.09080
# Poissons Ratio (z) = 0.25305 0.13606
#
# Static dielectric constant tensor:
#      x y z
#    x 1.927470 0.018500 0.030650 
#    y 0.018500 1.945930 -0.010230 
#    z 0.030650 -0.010230 1.892190 
# 
# From -- ./inp_files/342775.got.cif
#   From: 2010.05.17/outbox.cif.g08.bks.cpg/sg2_172_cif.got.tgz:342775.got - 2010.06.03 11:33:40.
