data_PCOD9034177
_publ_section_title
;
Structure prediction by ZEFSAII (Michael W. Deem and Ramdas Pophale) SiO2 
 PCOD9034177
Probable space group: P -1
;
_chemical_formula_sum "Si O2"
_cell_formula_units_Z 16
_cell_length_a 7.712229
_cell_length_b 11.207611
_cell_length_c 17.534016
_cell_angle_alpha 120.682773
_cell_angle_beta 149.815406
_cell_angle_gamma 55.145139
_cell_volume 624.817979
_symmetry_space_group_name_H-M "P -1"
_symmetry_group_IT_number 2
_symmetry_cell_setting 'triclinic'
loop_
_space_group_symop_operation_xyz
x,y,z
-x,-y,-z
loop_
_atom_site_type_symbol
_atom_site_label
_atom_site_fract_x
_atom_site_fract_y
_atom_site_fract_z
Si Si1 0.579496 0.922319 0.335467
Si Si2 0.582233 0.767274 0.155472
Si Si3 0.183255 0.179305 0.162921
Si Si4 0.109446 0.539087 0.753553
Si Si5 0.034865 0.898580 0.646611
Si Si6 0.770196 0.874064 0.107236
Si Si7 0.335616 0.644141 0.203678
Si Si8 0.745792 0.630792 0.496127
O O1 0.785234 0.855469 0.313848
O O2 0.498349 0.773309 0.281682
O O3 0.792873 0.953676 0.497769
O O4 0.286197 0.060888 0.232595
O O5 0.772332 0.601579 0.193532
O O6 0.596062 0.815579 0.091248
O O7 0.144769 0.823549 0.019183
O O8 0.551007 0.161916 0.248394
O O9 0.010415 0.329203 0.190843
O O10 0.458891 0.495637 0.813232
O O11 0.785395 0.573990 0.579091
O O12 0.895438 0.769997 0.588909
O O13 0.988495 0.032355 0.730990
O O14 0.920612 0.731942 0.064910
O O15 0.500000 0.000000 0.000000
O O16 0.383263 0.644407 0.314174
O O17 0.000000 0.500000 0.500000
#
# Coordination Sequence:
#
# PCOD9034177 Si02
#       8
#     2   2   2   2   2   2   2   2
#     4  10  22  44  72 100 137 179 233 292 344 404
#     4  11  25  46  67 102 143 187 226 284 357 404
#     4  12  24  42  70 103 141 179 237 286 346 417
#     4  10  24  42  68  96 134 190 226 276 348 408
#     4  11  26  42  73 111 132 179 241 289 345 410
#     4  12  27  43  70 108 140 181 235 289 348 409
#     4   9  22  43  68  96 141 179 228 285 348 404
#     4   9  21  45  67 101 140 184 225 285 354 409
#
# _framework density 25.607458999999999
#
# number of rings (size 3 to 8) (size 9 to 14) (size 15 to 20)
#    0.000    1.500    1.250    2.625    8.750    3.000 
#    0.000   10.625    0.000    0.000    0.000    0.000 
#    0.000    0.000    0.000    0.000    0.000    0.000 
#
# Total GULP energy -89177.344513 kJ/mol
# GULP energy per Si atom -5573.584032 kJ/mol
# Density = 2.554918 g / cm^3
# Si number density = 25.607459 Si / 1000 Ang^3
#
#
#
# Elastic Constant Matrix: (Units=GPa)
#
#
# Indices 1 2 3 4 5 6 
#
# 1 84.1936 17.9326 28.3878 -10.6534 -7.0093 -1.2682
# 2 17.9326 147.6456 39.7708 -21.4635 2.1046 -21.0083
# 3 28.3878 39.7708 95.2565 -19.3064 -22.2948 14.2042
# 4 -10.6534 -21.4635 -19.3064 42.5573 7.2722 -10.9884
# 5 -7.0093 2.1046 -22.2948 7.2722 35.7386 -3.9633
# 6 -1.2682 -21.0083 14.2042 -10.9884 -3.9633 52.7456
#
#
#
# Elastic Compliance Matrix: (Units=1/GPa)
#
#
# Indices 1 2 3 4 5 6 
#
# 1 0.013470 -0.000055 -0.003830 0.002057 0.000033 0.001764
# 2 -0.000055 0.009682 -0.004838 0.004864 -0.003937 0.005875
# 3 -0.003830 -0.004838 0.016903 0.001246 0.009202 -0.005620
# 4 0.002057 0.004864 0.001246 0.029710 -0.004318 0.007516
# 5 0.000033 -0.003937 0.009202 -0.004318 0.034578 -0.002347
# 6 0.001764 0.005875 -0.005620 0.007516 -0.002347 0.024244
#
#
# Mechanical properties :
#
#
# Convention : Reuss Voigt Hill
#
# Bulk Modulus (GPa) = 44.22691 55.47534 49.85113
# Shear Modulus (GPa) = 32.55861 42.27526 37.41693
#
# Velocity S-wave (km/s) = 3.56961 4.06753 3.82668
# Velocity P-wave (km/s) = 5.85646 6.61593 6.24774
#
# Compressibility (1/GPa) = 0.02261067
#
# Stress axis : x y z
#
# Youngs Moduli (GPa) = 74.23928 103.28431 59.15966
#
# Poissons Ratio (x) = 0.00566 0.22657
# Poissons Ratio (y) = 0.00407 0.28620
# Poissons Ratio (z) = 0.28433 0.49966
#
# Static dielectric constant tensor:
#      x y z
#    x 2.190300 -0.015860 0.099820 
#    y -0.015860 2.049840 -0.082310 
#    z 0.099820 -0.082310 2.304160 
# 
# From -- ./inp_files/559883.got.cif
#   From: 2010.05.17/outbox.cif.g08.bks.cpg/sg2_280_cif.got.tgz:559883.got - 2010.06.03 11:33:40.
