data_PCOD9034025
_publ_section_title
;
Structure prediction by ZEFSAII (Michael W. Deem and Ramdas Pophale) SiO2 
 PCOD9034025
Probable space group: P -1
;
_chemical_formula_sum "Si O2"
_cell_formula_units_Z 12
_cell_length_a 13.426128
_cell_length_b 5.257683
_cell_length_c 8.833261
_cell_angle_alpha 80.647719
_cell_angle_beta 99.274974
_cell_angle_gamma 58.406789
_cell_volume 501.057576
_symmetry_space_group_name_H-M "P -1"
_symmetry_group_IT_number 2
_symmetry_cell_setting 'triclinic'
loop_
_space_group_symop_operation_xyz
x,y,z
-x,-y,-z
loop_
_atom_site_type_symbol
_atom_site_label
_atom_site_fract_x
_atom_site_fract_y
_atom_site_fract_z
Si Si1 0.694656 0.098763 0.633452
Si Si2 0.947786 0.991991 0.652989
Si Si3 0.684220 0.201832 0.112580
Si Si4 0.483400 0.730952 0.685294
Si Si5 0.047748 0.347113 0.693219
Si Si6 0.657993 0.793038 0.902836
O O1 0.597243 0.427254 0.661094
O O2 0.620992 0.068357 0.483065
O O3 0.808842 0.098869 0.603937
O O4 0.736644 0.824913 0.791150
O O5 0.026929 0.632317 0.758441
O O6 0.000000 0.000000 0.500000
O O7 0.968995 0.214567 0.735055
O O8 0.579905 0.362631 0.198152
O O9 0.812710 0.940306 0.244458
O O10 0.696557 0.457254 0.006369
O O11 0.651167 0.011417 0.012934
O O12 0.532453 0.907497 0.770739
O O13 0.000000 0.500000 0.500000
#
# Coordination Sequence:
#
# PCOD9034025 Si02
#       6
#     2   2   2   2   2   2
#     4  11  26  46  75 109 146 187 240 303 353 419
#     4  10  22  44  71 100 135 179 238 295 345 411
#     4  12  26  46  77 105 145 193 237 288 365 432
#     4  11  25  47  74 109 146 192 239 291 356 432
#     4  10  22  44  71 102 130 180 244 292 336 417
#     4  12  26  48  68 112 150 189 231 295 365 429
#
# _framework density 23.949341
#
# number of rings (size 3 to 8) (size 9 to 14) (size 15 to 20)
#    0.000    1.000    1.667    4.500    4.667    1.333 
#    6.000    5.000    0.000    0.000    0.000    0.000 
#    0.000    0.000    0.000    0.000    0.000    0.000 
#
# Total GULP energy -67111.461597 kJ/mol
# GULP energy per Si atom -5592.621800 kJ/mol
# Density = 2.389483 g / cm^3
# Si number density = 23.949341 Si / 1000 Ang^3
#
#
#
# Elastic Constant Matrix: (Units=GPa)
#
#
# Indices 1 2 3 4 5 6 
#
# 1 169.4264 76.3677 58.3930 -6.6531 -10.9255 -8.2746
# 2 76.3677 130.5323 45.5749 -12.2633 -6.2532 18.5812
# 3 58.3930 45.5749 102.7956 2.4827 -3.0709 1.6672
# 4 -6.6531 -12.2633 2.4827 21.3761 5.4345 -4.4045
# 5 -10.9255 -6.2532 -3.0709 5.4345 30.6906 -5.6612
# 6 -8.2746 18.5812 1.6672 -4.4045 -5.6612 53.7163
#
#
#
# Elastic Compliance Matrix: (Units=1/GPa)
#
#
# Indices 1 2 3 4 5 6 
#
# 1 0.009556 -0.004745 -0.003320 0.000700 0.002634 0.003552
# 2 -0.004745 0.012597 -0.002982 0.005449 -0.001249 -0.004681
# 3 -0.003320 -0.002982 0.013053 -0.004369 0.000250 -0.000217
# 4 0.000700 0.005449 -0.004369 0.053083 -0.008135 0.001854
# 5 0.002634 -0.001249 0.000250 -0.008135 0.035451 0.003899
# 6 0.003552 -0.004681 -0.000217 0.001854 0.003899 0.021352
#
#
# Mechanical properties :
#
#
# Convention : Reuss Voigt Hill
#
# Bulk Modulus (GPa) = 76.27754 84.82504 80.55129
# Shear Modulus (GPa) = 29.14457 35.98451 32.56454
#
# Velocity S-wave (km/s) = 3.49223 3.88045 3.69145
# Velocity P-wave (km/s) = 6.94115 7.45470 7.20251
#
# Compressibility (1/GPa) = 0.01311002
#
# Stress axis : x y z
#
# Youngs Moduli (GPa) = 104.64257 79.38537 76.61093
#
# Poissons Ratio (x) = 0.37670 0.25438
# Poissons Ratio (y) = 0.49655 0.22848
# Poissons Ratio (z) = 0.34746 0.23675
#
# Static dielectric constant tensor:
#      x y z
#    x 1.900410 -0.006180 -0.020570 
#    y -0.006180 1.916330 -0.025760 
#    z -0.020570 -0.025760 1.917670 
# 
# From -- ./inp_files/229501.got.cif
#   From: 2010.05.17/outbox.cif.g08.bks.cpg/sg2_115_cif.got.tgz:229501.got - 2010.06.03 11:33:40.
