data_PCOD9034879
_publ_section_title
;
Structure prediction by ZEFSAII (Michael W. Deem and Ramdas Pophale) SiO2 
 PCOD9034879
Probable space group: P -1
;
_chemical_formula_sum "Si O2"
_cell_formula_units_Z 16
_cell_length_a 12.945711
_cell_length_b 8.221793
_cell_length_c 11.162075
_cell_angle_alpha 58.147480
_cell_angle_beta 89.407874
_cell_angle_gamma 126.038379
_cell_volume 721.536672
_symmetry_space_group_name_H-M "P -1"
_symmetry_group_IT_number 2
_symmetry_cell_setting 'triclinic'
loop_
_space_group_symop_operation_xyz
x,y,z
-x,-y,-z
loop_
_atom_site_type_symbol
_atom_site_label
_atom_site_fract_x
_atom_site_fract_y
_atom_site_fract_z
Si Si1 0.868064 0.286724 0.365669
Si Si2 0.600661 0.443123 0.039602
Si Si3 0.088957 0.287199 0.455285
Si Si4 0.897385 0.715196 0.046938
Si Si5 0.125618 0.008251 0.736560
Si Si6 0.440114 0.088523 0.382420
Si Si7 0.436524 0.396961 0.673402
Si Si8 0.391188 0.697460 0.162138
O O1 0.883849 0.510354 0.210952
O O2 0.996263 0.359681 0.413907
O O3 0.846166 0.100717 0.331767
O O4 0.730069 0.121658 0.517068
O O5 0.745647 0.617939 0.050593
O O6 0.495817 0.154764 0.220069
O O7 0.500000 0.500000 0.000000
O O8 0.652081 0.461175 0.899318
O O9 0.114785 0.213621 0.609724
O O10 0.242553 0.533707 0.297934
O O11 0.000000 0.000000 0.500000
O O12 0.000000 0.000000 0.000000
O O13 0.981409 0.767387 0.903379
O O14 0.264678 0.172789 0.755208
O O15 0.506416 0.365065 0.332470
O O16 0.500000 0.000000 0.500000
O O17 0.500000 0.500000 0.500000
O O18 0.506058 0.297296 0.760633
O O19 0.500000 0.000000 0.000000
#
# Coordination Sequence:
#
# PCOD9034879 Si02
#       8
#     2   2   2   2   2   2   2   2
#     4  11  24  44  72 101 136 185 243 290 360 431
#     4  12  27  47  72 101 151 191 235 300 367 434
#     4  10  22  45  69 101 136 184 239 295 359 427
#     4  12  28  48  69 106 145 191 242 298 367 436
#     4  11  24  42  76  97 141 183 240 295 356 427
#     4  12  25  45  71 101 139 188 238 289 367 429
#     4  12  23  45  70 105 139 186 238 296 357 435
#     4  12  28  44  73 111 144 185 249 303 367 429
#
# _framework density 22.174894999999999
#
# number of rings (size 3 to 8) (size 9 to 14) (size 15 to 20)
#    0.000    0.500    5.000    3.375    7.000    0.000 
#    0.000    0.625    0.000    0.000    0.000    0.000 
#    0.000    0.000    0.000    0.000    0.000    0.000 
#
# Total GULP energy -89430.617465 kJ/mol
# GULP energy per Si atom -5589.413592 kJ/mol
# Density = 2.212442 g / cm^3
# Si number density = 22.174895 Si / 1000 Ang^3
#
#
#
# Elastic Constant Matrix: (Units=GPa)
#
#
# Indices 1 2 3 4 5 6 
#
# 1 191.0443 38.2527 74.9812 -13.4704 16.1865 55.4682
# 2 38.2527 42.1483 18.2076 -7.7457 11.4983 21.6028
# 3 74.9812 18.2076 140.0311 -3.0644 0.0913 26.6842
# 4 -13.4704 -7.7457 -3.0644 34.8824 2.4433 -3.6156
# 5 16.1865 11.4983 0.0913 2.4433 51.8925 -1.0229
# 6 55.4682 21.6028 26.6842 -3.6156 -1.0229 33.6118
#
#
#
# Elastic Compliance Matrix: (Units=1/GPa)
#
#
# Indices 1 2 3 4 5 6 
#
# 1 0.012042 0.001599 -0.003110 0.003166 -0.004613 -0.018231
# 2 0.001599 0.041241 -0.000691 0.007540 -0.010545 -0.028106
# 3 -0.003110 -0.000691 0.009220 -0.000808 0.001109 -0.001798
# 4 0.003166 0.007540 -0.000808 0.031147 -0.004246 -0.006207
# 5 -0.004613 -0.010545 0.001109 -0.004246 0.023515 0.013769
# 6 -0.018231 -0.028106 -0.001798 -0.006207 0.013769 0.079081
#
#
# Mechanical properties :
#
#
# Convention : Reuss Voigt Hill
#
# Bulk Modulus (GPa) = 17.21150 70.67852 43.94501
# Shear Modulus (GPa) = 22.72553 40.19614 31.46083
#
# Velocity S-wave (km/s) = 3.20477 4.26218 3.77073
# Velocity P-wave (km/s) = 4.63386 7.49427 6.23044
#
# Compressibility (1/GPa) = 0.05810068
#
# Stress axis : x y z
#
# Youngs Moduli (GPa) = 83.04190 24.24769 108.45688
#
# Poissons Ratio (x) = -0.03877 0.33725
# Poissons Ratio (y) = -0.13278 0.07492
# Poissons Ratio (z) = 0.25822 0.01675
#
# Static dielectric constant tensor:
#      x y z
#    x 1.787710 -0.024920 -0.013950 
#    y -0.024920 1.865460 0.025590 
#    z -0.013950 0.025590 1.809620 
# 
# From -- ./inp_files/418929.got.cif
#   From: 2010.05.17/outbox.cif.g08.bks.cpg/sg2_210_cif.got.tgz:418929.got - 2010.06.03 11:33:40.
