data_PCOD9034477
_publ_section_title
;
Structure prediction by ZEFSAII (Michael W. Deem and Ramdas Pophale) SiO2 
 PCOD9034477
Probable space group: P -1
;
_chemical_formula_sum "Si O2"
_cell_formula_units_Z 14
_cell_length_a 10.783282
_cell_length_b 6.015035
_cell_length_c 11.802910
_cell_angle_alpha 111.952416
_cell_angle_beta 124.699998
_cell_angle_gamma 87.788182
_cell_volume 568.323003
_symmetry_space_group_name_H-M "P -1"
_symmetry_group_IT_number 2
_symmetry_cell_setting 'triclinic'
loop_
_space_group_symop_operation_xyz
x,y,z
-x,-y,-z
loop_
_atom_site_type_symbol
_atom_site_label
_atom_site_fract_x
_atom_site_fract_y
_atom_site_fract_z
Si Si1 0.871223 0.309119 0.465445
Si Si2 0.097389 0.816968 0.293935
Si Si3 0.125562 0.053534 0.976062
Si Si4 0.316863 0.542377 0.236282
Si Si5 0.317903 0.684275 0.004426
Si Si6 0.664811 0.811939 0.205433
Si Si7 0.334911 0.316202 0.551205
O O1 0.938913 0.225658 0.600768
O O2 0.737572 0.448767 0.456474
O O3 0.000000 0.500000 0.500000
O O4 0.789160 0.067255 0.307621
O O5 0.184306 0.612435 0.256194
O O6 0.954090 0.826852 0.142411
O O7 0.220845 0.078008 0.394291
O O8 0.274374 0.251053 0.137221
O O9 0.182803 0.814089 0.922677
O O10 0.000000 0.000000 0.000000
O O11 0.310012 0.663790 0.132496
O O12 0.489410 0.637180 0.390893
O O13 0.490579 0.835604 0.091208
O O14 0.306125 0.417419 0.893615
O O15 0.663023 0.736455 0.322748
#
# Coordination Sequence:
#
# PCOD9034477 Si02
#       7
#     2   2   2   2   2   2   2
#     4  11  26  47  70 103 146 188 241 293 357 422
#     4  11  26  45  71 107 145 187 239 294 355 428
#     4  12  26  44  70 110 145 187 231 293 369 421
#     4  11  24  45  71 106 144 184 243 292 352 435
#     4  10  22  44  76 103 146 185 236 298 356 427
#     4   9  22  46  72 107 137 190 243 291 354 426
#     4  10  24  45  73 103 140 192 239 292 356 422
#
# _framework density 24.633879
#
# number of rings (size 3 to 8) (size 9 to 14) (size 15 to 20)
#    0.000    1.429    1.429    1.714    2.000    7.429 
#    0.000    6.429    0.000    2.571    0.000    0.000 
#    0.000    0.000    0.000    0.000    0.000    0.000 
#
# Total GULP energy -78551.207653 kJ/mol
# GULP energy per Si atom -5610.800547 kJ/mol
# Density = 2.457781 g / cm^3
# Si number density = 24.633879 Si / 1000 Ang^3
#
#
#
# Elastic Constant Matrix: (Units=GPa)
#
#
# Indices 1 2 3 4 5 6 
#
# 1 121.2489 51.4469 44.4357 0.5480 10.9284 -6.2369
# 2 51.4469 91.3816 28.7122 5.0443 12.3340 -11.1528
# 3 44.4357 28.7122 99.8084 22.9208 16.0704 8.7708
# 4 0.5480 5.0443 22.9208 34.6760 1.9702 1.5005
# 5 10.9284 12.3340 16.0704 1.9702 39.4400 2.1998
# 6 -6.2369 -11.1528 8.7708 1.5005 2.1998 50.8486
#
#
#
# Elastic Compliance Matrix: (Units=1/GPa)
#
#
# Indices 1 2 3 4 5 6 
#
# 1 0.012434 -0.005545 -0.004914 0.003811 0.000043 0.001042
# 2 -0.005545 0.015356 -0.001519 -0.001119 -0.002764 0.003103
# 3 -0.004914 -0.001519 0.015807 -0.009787 -0.003936 -0.003203
# 4 0.003811 -0.001119 -0.009787 0.035292 0.001474 0.000805
# 5 0.000043 -0.002764 -0.003936 0.001474 0.027803 -0.001168
# 6 0.001042 0.003103 -0.003203 0.000805 -0.001168 0.021054
#
#
# Mechanical properties :
#
#
# Convention : Reuss Voigt Hill
#
# Bulk Modulus (GPa) = 50.91744 62.40318 56.66031
# Shear Modulus (GPa) = 31.59583 37.51587 34.55585
#
# Velocity S-wave (km/s) = 3.58525 3.90672 3.74943
# Velocity P-wave (km/s) = 6.15250 6.76293 6.46492
#
# Compressibility (1/GPa) = 0.01963964
#
# Stress axis : x y z
#
# Youngs Moduli (GPa) = 80.42626 65.12216 63.26277
#
# Poissons Ratio (x) = 0.36110 0.31088
# Poissons Ratio (y) = 0.44596 0.09612
# Poissons Ratio (z) = 0.39522 0.09895
#
# Static dielectric constant tensor:
#      x y z
#    x 1.945150 0.007420 0.010640 
#    y 0.007420 1.909060 0.003070 
#    z 0.010640 0.003070 1.922830 
# 
# From -- ./inp_files/510609.got.cif
#   From: 2010.05.17/outbox.cif.g08.bks.cpg/sg2_256_cif.got.tgz:510609.got - 2010.06.03 11:33:40.
