data_PCOD9034726
_publ_section_title
;
Structure prediction by ZEFSAII (Michael W. Deem and Ramdas Pophale) SiO2 
 PCOD9034726
Probable space group: P -1
;
_chemical_formula_sum "Si O2"
_cell_formula_units_Z 16
_cell_length_a 24.845921
_cell_length_b 5.118582
_cell_length_c 11.207824
_cell_angle_alpha 113.310401
_cell_angle_beta 31.508761
_cell_angle_gamma 119.303166
_cell_volume 648.889403
_symmetry_space_group_name_H-M "P -1"
_symmetry_group_IT_number 2
_symmetry_cell_setting 'triclinic'
loop_
_space_group_symop_operation_xyz
x,y,z
-x,-y,-z
loop_
_atom_site_type_symbol
_atom_site_label
_atom_site_fract_x
_atom_site_fract_y
_atom_site_fract_z
Si Si1 0.380175 0.802573 0.982377
Si Si2 0.814272 0.253283 0.486283
Si Si3 0.395992 0.565331 0.654657
Si Si4 0.244279 0.424453 0.564398
Si Si5 0.097539 0.772327 0.312335
Si Si6 0.018255 0.134784 0.682916
Si Si7 0.523083 0.415151 0.745621
Si Si8 0.820989 0.660418 0.066284
O O1 0.363658 0.719416 0.859070
O O2 0.459787 0.638904 0.861666
O O3 0.441824 0.154750 0.928424
O O4 0.267710 0.719372 0.250198
O O5 0.766342 0.334704 0.467433
O O6 0.928422 0.516001 0.330268
O O7 0.818408 0.916768 0.418086
O O8 0.500000 0.500000 0.500000
O O9 0.438385 0.716893 0.473263
O O10 0.290499 0.289293 0.760978
O O11 0.368144 0.442736 0.359288
O O12 0.196858 0.464820 0.789499
O O13 0.000000 0.500000 0.500000
O O14 0.060011 0.910048 0.291945
O O15 0.114899 0.010228 0.429815
O O16 0.173067 0.602675 0.081101
O O17 0.933402 0.932001 0.899873
#
# Coordination Sequence:
#
# PCOD9034726 Si02
#       8
#     2   2   2   2   2   2   2   2
#     4  11  23  40  69  97 133 177 218 291 351 396
#     4  12  28  43  66 101 139 181 241 280 326 405
#     4   9  21  42  67 105 135 166 226 286 345 418
#     4  11  27  46  67  98 137 187 237 281 323 415
#     4   9  21  41  68  99 132 177 224 281 353 417
#     4  10  24  43  67 103 138 176 226 290 342 416
#     4  10  22  45  67  96 134 174 228 279 350 409
#     4  10  23  44  72  95 137 191 218 280 358 398
#
# _framework density 24.657515
#
# number of rings (size 3 to 8) (size 9 to 14) (size 15 to 20)
#    0.000    1.750    0.000    1.875   10.500    5.000 
#    6.750    0.000    0.000    0.000    0.000    0.000 
#    0.000    0.000    0.000    0.000    0.000    0.000 
#
# Total GULP energy -89394.382726 kJ/mol
# GULP energy per Si atom -5587.148920 kJ/mol
# Density = 2.460139 g / cm^3
# Si number density = 24.657515 Si / 1000 Ang^3
#
#
#
# Elastic Constant Matrix: (Units=GPa)
#
#
# Indices 1 2 3 4 5 6 
#
# 1 68.0516 19.5062 41.1291 -11.6716 3.5293 -0.4998
# 2 19.5062 68.3114 15.7526 -18.5015 2.7152 1.3802
# 3 41.1291 15.7526 119.4942 -13.9798 16.2359 6.3508
# 4 -11.6716 -18.5015 -13.9798 32.2903 -0.1892 1.1901
# 5 3.5293 2.7152 16.2359 -0.1892 31.4887 -8.3850
# 6 -0.4998 1.3802 6.3508 1.1901 -8.3850 33.5990
#
#
#
# Elastic Compliance Matrix: (Units=1/GPa)
#
#
# Indices 1 2 3 4 5 6 
#
# 1 0.019992 -0.003733 -0.006518 0.002200 0.002016 0.002108
# 2 -0.003733 0.018253 0.000276 0.009278 -0.001669 -0.001603
# 3 -0.006518 0.000276 0.012059 0.003137 -0.006596 -0.004145
# 4 0.002200 0.009278 0.003137 0.038534 -0.003264 -0.003121
# 5 0.002016 -0.001669 -0.006596 -0.003264 0.037969 0.010936
# 6 0.002108 -0.001603 -0.004145 -0.003121 0.010936 0.033483
#
#
# Mechanical properties :
#
#
# Convention : Reuss Voigt Hill
#
# Bulk Modulus (GPa) = 32.94356 45.40366 39.17361
# Shear Modulus (GPa) = 26.26641 31.44022 28.85331
#
# Velocity S-wave (km/s) = 3.26736 3.57470 3.42448
# Velocity P-wave (km/s) = 5.25582 5.95748 5.61762
#
# Compressibility (1/GPa) = 0.03035495
#
# Stress axis : x y z
#
# Youngs Moduli (GPa) = 50.01995 54.78678 82.92505
#
# Poissons Ratio (x) = 0.20450 0.54048
# Poissons Ratio (y) = 0.18670 -0.02288
# Poissons Ratio (z) = 0.32601 -0.01511
#
# Static dielectric constant tensor:
#      x y z
#    x 2.201220 -0.034280 0.101660 
#    y -0.034280 2.083100 -0.106560 
#    z 0.101660 -0.106560 2.317460 
# 
# From -- ./inp_files/475925.got.cif
#   From: 2010.05.17/outbox.cif.g08.bks.cpg/sg2_238_cif.got.tgz:475925.got - 2010.06.03 11:33:40.
