data_PCOD9034641
_publ_section_title
;
Structure prediction by ZEFSAII (Michael W. Deem and Ramdas Pophale) SiO2 
 PCOD9034641
Probable space group: P -1
;
_chemical_formula_sum "Si O2"
_cell_formula_units_Z 16
_cell_length_a 19.969724
_cell_length_b 5.017596
_cell_length_c 8.681143
_cell_angle_alpha 98.526034
_cell_angle_beta 66.706925
_cell_angle_gamma 66.395959
_cell_volume 681.804176
_symmetry_space_group_name_H-M "P -1"
_symmetry_group_IT_number 2
_symmetry_cell_setting 'triclinic'
loop_
_space_group_symop_operation_xyz
x,y,z
-x,-y,-z
loop_
_atom_site_type_symbol
_atom_site_label
_atom_site_fract_x
_atom_site_fract_y
_atom_site_fract_z
Si Si1 0.142483 0.069708 0.872376
Si Si2 0.400647 0.991219 0.202845
Si Si3 0.991323 0.250342 0.847792
Si Si4 0.882198 0.222962 0.704735
Si Si5 0.403081 0.426539 0.989924
Si Si6 0.106077 0.363446 0.520134
Si Si7 0.254821 0.530818 0.927362
Si Si8 0.254244 0.177918 0.588016
O O1 0.067880 0.020718 0.870039
O O2 0.216752 0.966679 0.670247
O O3 0.192326 0.887129 0.961276
O O4 0.087381 0.443162 0.979679
O O5 0.498544 0.822535 0.149922
O O6 0.340329 0.039437 0.404618
O O7 0.394405 0.755245 0.068647
O O8 0.378622 0.300817 0.154054
O O9 0.036546 0.383891 0.704873
O O10 0.950615 0.095413 0.768914
O O11 0.916332 0.381301 0.568507
O O12 0.866573 0.965815 0.617575
O O13 0.795875 0.494117 0.883266
O O14 0.343927 0.459793 0.904594
O O15 0.180981 0.370316 0.546665
O O16 0.260262 0.339676 0.753191
#
# Coordination Sequence:
#
# PCOD9034641 Si02
#       8
#     2   2   2   2   2   2   2   2
#     4  10  24  44  62  99 136 181 222 284 345 391
#     4  10  23  47  75 104 138 174 222 269 340 395
#     4  10  22  45  66  92 134 178 235 286 336 395
#     4  12  24  44  65  97 125 177 229 285 329 391
#     4  10  24  46  75 105 136 177 217 279 329 405
#     4  11  26  42  68  94 130 173 231 283 334 386
#     4  12  26  41  71  96 141 176 227 272 343 402
#     4  11  25  43  66 100 136 180 219 275 337 408
#
# _framework density 23.467148000000002
#
# number of rings (size 3 to 8) (size 9 to 14) (size 15 to 20)
#    0.000    1.250    1.250    3.000    7.000    2.000 
#    2.250    0.625    0.000    0.000    0.000    0.000 
#    0.000    0.000    0.000    0.000    0.000    0.000 
#
# Total GULP energy -89479.458418 kJ/mol
# GULP energy per Si atom -5592.466151 kJ/mol
# Density = 2.341374 g / cm^3
# Si number density = 23.467148 Si / 1000 Ang^3
#
#
#
# Elastic Constant Matrix: (Units=GPa)
#
#
# Indices 1 2 3 4 5 6 
#
# 1 194.9869 33.1153 61.6340 3.4831 13.2285 -28.6022
# 2 33.1153 60.0367 5.1595 -4.2017 5.4917 -0.5493
# 3 61.6340 5.1595 128.7739 -1.0619 -15.1393 -9.9179
# 4 3.4831 -4.2017 -1.0619 20.9659 6.9747 4.3564
# 5 13.2285 5.4917 -15.1393 6.9747 51.0472 -5.0680
# 6 -28.6022 -0.5493 -9.9179 4.3564 -5.0680 34.3340
#
#
#
# Elastic Compliance Matrix: (Units=1/GPa)
#
#
# Indices 1 2 3 4 5 6 
#
# 1 0.007883 -0.004058 -0.003394 -0.002918 -0.001653 0.005648
# 2 -0.004058 0.019418 0.000667 0.006109 -0.002067 -0.003958
# 3 -0.003394 0.000667 0.009859 -0.000203 0.003821 0.000621
# 4 -0.002918 0.006109 -0.000203 0.054393 -0.008440 -0.010539
# 5 -0.001653 -0.002067 0.003821 -0.008440 0.022939 0.004150
# 6 0.005648 -0.003958 0.000621 -0.010539 0.004150 0.035897
#
#
# Mechanical properties :
#
#
# Convention : Reuss Voigt Hill
#
# Bulk Modulus (GPa) = 42.39168 64.84611 53.61890
# Shear Modulus (GPa) = 29.09983 40.19533 34.64758
#
# Velocity S-wave (km/s) = 3.52522 4.14313 3.84660
# Velocity P-wave (km/s) = 5.88838 7.11197 6.52890
#
# Compressibility (1/GPa) = 0.02358953
#
# Stress axis : x y z
#
# Youngs Moduli (GPa) = 126.84907 51.49871 101.43379
#
# Poissons Ratio (x) = 0.20898 0.34427
# Poissons Ratio (y) = 0.51475 -0.06763
# Poissons Ratio (z) = 0.43053 -0.03434
#
# Static dielectric constant tensor:
#      x y z
#    x 1.889470 0.014550 0.022580 
#    y 0.014550 1.933120 -0.044870 
#    z 0.022580 -0.044870 1.945120 
# 
# From -- ./inp_files/339851.got.cif
#   From: 2010.05.17/outbox.cif.g08.bks.cpg/sg2_170_cif.got.tgz:339851.got - 2010.06.03 11:33:40.
