data_PCOD9034344
_publ_section_title
;
Structure prediction by ZEFSAII (Michael W. Deem and Ramdas Pophale) SiO2 
 PCOD9034344
Probable space group: P -1
;
_chemical_formula_sum "Si O2"
_cell_formula_units_Z 10
_cell_length_a 4.757537
_cell_length_b 13.126951
_cell_length_c 8.399970
_cell_angle_alpha 51.763156
_cell_angle_beta 82.650602
_cell_angle_gamma 69.013886
_cell_volume 381.559538
_symmetry_space_group_name_H-M "P -1"
_symmetry_group_IT_number 2
_symmetry_cell_setting 'triclinic'
loop_
_space_group_symop_operation_xyz
x,y,z
-x,-y,-z
loop_
_atom_site_type_symbol
_atom_site_label
_atom_site_fract_x
_atom_site_fract_y
_atom_site_fract_z
Si Si1 0.340222 0.011404 0.669592
Si Si2 0.787501 0.639035 0.294860
Si Si3 0.091345 0.761705 0.907903
Si Si4 0.774167 0.100387 0.782395
Si Si5 0.288146 0.384085 0.023518
O O1 0.197148 0.890001 0.797237
O O2 0.500000 0.000000 0.500000
O O3 0.581902 0.020453 0.776891
O O4 0.018113 0.134437 0.617849
O O5 0.497562 0.758305 0.278840
O O6 0.000000 0.500000 0.500000
O O7 0.674932 0.586974 0.192504
O O8 0.007358 0.714080 0.131525
O O9 0.380318 0.654605 0.896641
O O10 0.808095 0.752135 0.841429
O O11 0.000000 0.000000 0.000000
O O12 0.000000 0.500000 0.000000
#
# Coordination Sequence:
#
# PCOD9034344 Si02
#       5
#     2   2   2   2   2
#     4  12  28  51  80 121 162 213 280 342 403 493
#     4  10  27  49  76 119 157 207 275 337 402 488
#     4  10  24  45  77 108 155 201 271 327 409 467
#     4  12  28  50  86 117 162 220 270 342 419 481
#     4  10  22  44  73 105 153 207 253 325 407 479
#
# _framework density 26.208231000000001
#
# number of rings (size 3 to 8) (size 9 to 14) (size 15 to 20)
#    1.200    0.000    0.000    4.200    8.400    2.400 
#    3.600    2.000    0.000    0.000    0.000    0.000 
#    0.000    0.000    0.000    0.000    0.000    0.000 
#
# Total GULP energy -55714.211839 kJ/mol
# GULP energy per Si atom -5571.421184 kJ/mol
# Density = 2.614858 g / cm^3
# Si number density = 26.208231 Si / 1000 Ang^3
#
#
#
# Elastic Constant Matrix: (Units=GPa)
#
#
# Indices 1 2 3 4 5 6 
#
# 1 212.3753 65.8296 46.0268 -1.5603 -19.2357 -46.7211
# 2 65.8296 194.2101 81.9022 10.9898 -4.9038 -51.3565
# 3 46.0268 81.9022 123.2184 -5.4901 -20.1773 -29.1923
# 4 -1.5603 10.9898 -5.4901 42.8587 -14.7488 -9.4597
# 5 -19.2357 -4.9038 -20.1773 -14.7488 37.5320 9.4243
# 6 -46.7211 -51.3565 -29.1923 -9.4597 9.4243 65.6079
#
#
#
# Elastic Compliance Matrix: (Units=1/GPa)
#
#
# Indices 1 2 3 4 5 6 
#
# 1 0.006112 -0.001218 -0.000115 0.002264 0.002987 0.003246
# 2 -0.001218 0.009064 -0.005651 -0.003962 -0.005005 0.003861
# 3 -0.000115 -0.005651 0.014015 0.006645 0.008998 0.001396
# 4 0.002264 -0.003962 0.006645 0.031497 0.015648 0.003761
# 5 0.002987 -0.005005 0.008998 0.015648 0.038784 -0.001102
# 6 0.003246 0.003861 0.001396 0.003761 -0.001102 0.021898
#
#
# Mechanical properties :
#
#
# Convention : Reuss Voigt Hill
#
# Bulk Modulus (GPa) = 65.68686 101.92455 83.80570
# Shear Modulus (GPa) = 35.60962 51.60272 43.60617
#
# Velocity S-wave (km/s) = 3.69008 4.44210 4.08344
# Velocity P-wave (km/s) = 6.57826 8.07988 7.36742
#
# Compressibility (1/GPa) = 0.01522375
#
# Stress axis : x y z
#
# Youngs Moduli (GPa) = 163.60769 110.32841 71.35171
#
# Poissons Ratio (x) = 0.13436 0.00819
# Poissons Ratio (y) = 0.19924 0.40322
# Poissons Ratio (z) = 0.01878 0.62348
#
# Static dielectric constant tensor:
#      x y z
#    x 2.293900 -0.102570 0.269310 
#    y -0.102570 2.444980 -0.104680 
#    z 0.269310 -0.104680 2.336490 
# 
# From -- ./inp_files/137116.got.cif
#   From: 2010.05.17/outbox.cif.g08.bks.cpg/sg2_69_cif.got.tgz:137116.got - 2010.06.03 11:33:40.
