data_PCOD9034263
_publ_section_title
;
Structure prediction by ZEFSAII (Michael W. Deem and Ramdas Pophale) SiO2 
 PCOD9034263
Probable space group: P -1
;
_chemical_formula_sum "Si O2"
_cell_formula_units_Z 11
_cell_length_a 13.244046
_cell_length_b 7.044533
_cell_length_c 10.866421
_cell_angle_alpha 56.237078
_cell_angle_beta 32.773665
_cell_angle_gamma 51.900701
_cell_volume 430.246971
_symmetry_space_group_name_H-M "P -1"
_symmetry_group_IT_number 2
_symmetry_cell_setting 'triclinic'
loop_
_space_group_symop_operation_xyz
x,y,z
-x,-y,-z
loop_
_atom_site_type_symbol
_atom_site_label
_atom_site_fract_x
_atom_site_fract_y
_atom_site_fract_z
Si Si1 0.512142 0.735481 0.836930
Si Si2 0.569954 0.353959 0.314109
Si Si3 0.500000 0.000000 0.000000
Si Si4 0.937055 0.495763 0.923991
Si Si5 0.178684 0.101266 0.641512
Si Si6 0.182448 0.789752 0.530464
O O1 0.400620 0.749878 0.817352
O O2 0.465879 0.940602 0.912489
O O3 0.734522 0.707579 0.578343
O O4 0.500000 0.500000 0.000000
O O5 0.637105 0.122164 0.416068
O O6 0.348525 0.534070 0.493948
O O7 0.711128 0.513620 0.132921
O O8 0.687733 0.099602 0.728972
O O9 0.046155 0.236896 0.840746
O O10 0.002285 0.697055 0.711729
O O11 0.000000 0.500000 0.000000
O O12 0.096151 0.976551 0.663342
#
# Coordination Sequence:
#
# PCOD9034263 Si02
#       6
#     2   2   1   2   2   2
#     4  11  22  43  69  96 137 180 235 274 337 412
#     4  12  24  43  73 103 134 187 226 284 349 403
#     4  10  22  44  72  92 134 192 216 288 334 402
#     4  12  26  43  67 107 147 169 228 294 342 406
#     4  11  24  44  69 102 140 177 228 289 340 401
#     4  11  24  46  70  99 142 177 236 275 345 409
#
# _framework density 25.566711000000002
#
# number of rings (size 3 to 8) (size 9 to 14) (size 15 to 20)
#    0.000    0.727    5.455    1.636    0.000    1.455 
#    0.000    4.545    0.000    0.000    0.000    0.000 
#    0.000    0.000    0.000    0.000    0.000    0.000 
#
# Total GULP energy -61268.158652 kJ/mol
# GULP energy per Si atom -5569.832605 kJ/mol
# Density = 2.550852 g / cm^3
# Si number density = 25.566711 Si / 1000 Ang^3
#
#
#
# Elastic Constant Matrix: (Units=GPa)
#
#
# Indices 1 2 3 4 5 6 
#
# 1 129.5742 25.0257 27.8748 7.0962 3.3622 59.4388
# 2 25.0257 97.3133 31.7855 5.8622 3.4745 21.5230
# 3 27.8748 31.7855 149.9666 -23.4358 -9.2686 16.0995
# 4 7.0962 5.8622 -23.4358 48.7369 16.2851 4.1175
# 5 3.3622 3.4745 -9.2686 16.2851 49.3506 9.3713
# 6 59.4388 21.5230 16.0995 4.1175 9.3713 41.6516
#
#
#
# Elastic Compliance Matrix: (Units=1/GPa)
#
#
# Indices 1 2 3 4 5 6 
#
# 1 0.024168 0.002164 -0.001219 -0.003290 0.005921 -0.036143
# 2 0.002164 0.012553 -0.002492 -0.002632 0.000998 -0.008575
# 3 -0.001219 -0.002492 0.008201 0.004309 0.000506 -0.000683
# 4 -0.003290 -0.002632 0.004309 0.025741 -0.007966 0.003638
# 5 0.005921 0.000998 0.000506 -0.007966 0.025179 -0.014039
# 6 -0.036143 -0.008575 -0.000683 0.003638 -0.014039 0.083081
#
#
# Mechanical properties :
#
#
# Convention : Reuss Voigt Hill
#
# Bulk Modulus (GPa) = 23.90757 60.69179 42.29968
# Shear Modulus (GPa) = 25.51542 47.42570 36.47056
#
# Velocity S-wave (km/s) = 3.16253 4.31162 3.78098
# Velocity P-wave (km/s) = 4.76517 6.96971 5.97008
#
# Compressibility (1/GPa) = 0.04182775
#
# Stress axis : x y z
#
# Youngs Moduli (GPa) = 41.37670 79.66109 121.93840
#
# Poissons Ratio (x) = -0.17235 0.14863
# Poissons Ratio (y) = -0.08952 0.30385
# Poissons Ratio (z) = 0.05044 0.19850
#
# Static dielectric constant tensor:
#      x y z
#    x 2.039820 -0.025850 -0.014090 
#    y -0.025850 2.012650 -0.073900 
#    z -0.014090 -0.073900 1.983740 
# 
# From -- ./inp_files/411552.got.cif
#   From: 2010.05.17/outbox.cif.g08.bks.cpg/sg2_206_cif.got.tgz:411552.got - 2010.06.03 11:33:40.
