data_PCOD9034908
_publ_section_title
;
Structure prediction by ZEFSAII (Michael W. Deem and Ramdas Pophale) SiO2 
 PCOD9034908
Probable space group: P -1
;
_chemical_formula_sum "Si O2"
_cell_formula_units_Z 15
_cell_length_a 12.892543
_cell_length_b 7.728297
_cell_length_c 9.627083
_cell_angle_alpha 106.830567
_cell_angle_beta 122.409828
_cell_angle_gamma 48.340015
_cell_volume 601.613390
_symmetry_space_group_name_H-M "P -1"
_symmetry_group_IT_number 2
_symmetry_cell_setting 'triclinic'
loop_
_space_group_symop_operation_xyz
x,y,z
-x,-y,-z
loop_
_atom_site_type_symbol
_atom_site_label
_atom_site_fract_x
_atom_site_fract_y
_atom_site_fract_z
Si Si1 0.282790 0.426502 0.198334
Si Si2 0.725142 0.431081 0.060247
Si Si3 0.462167 0.831120 0.479364
Si Si4 0.983958 0.889347 0.126866
Si Si5 0.876632 0.954216 0.360753
Si Si6 0.000000 0.500000 0.500000
Si Si7 0.862610 0.758842 0.758045
Si Si8 0.587114 0.480927 0.244778
O O1 0.274894 0.418116 0.023959
O O2 0.463192 0.275491 0.342205
O O3 0.208707 0.337286 0.218771
O O4 0.174006 0.701673 0.219412
O O5 0.583915 0.424961 0.911348
O O6 0.675538 0.527137 0.204012
O O7 0.887036 0.166614 0.120866
O O8 0.559324 0.613980 0.395229
O O9 0.500000 0.000000 0.500000
O O10 0.278349 0.994226 0.355026
O O11 0.921230 0.856540 0.213954
O O12 0.937916 0.814902 0.943330
O O13 0.901464 0.768666 0.439661
O O14 0.705170 0.205081 0.286622
O O15 0.000000 0.000000 0.500000
O O16 0.039004 0.410149 0.339951
#
# Coordination Sequence:
#
# PCOD9034908 Si02
#       8
#     2   2   2   2   2   1   2   2
#     4  11  23  41  67 105 135 186 241 289 364 430
#     4  10  23  41  71 101 139 186 235 302 358 431
#     4  10  23  44  69  97 144 185 234 298 360 433
#     4  11  22  47  70 102 145 189 244 298 366 438
#     4  11  26  47  76 109 151 190 244 306 365 444
#     4  12  28  48  72 110 146 194 248 310 372 414
#     4  11  25  47  70 101 147 192 244 305 364 440
#     4  10  22  45  69 103 143 184 242 295 363 435
#
# _framework density 24.932956000000001
#
# number of rings (size 3 to 8) (size 9 to 14) (size 15 to 20)
#    0.000    1.333    2.667    1.600    3.733    4.800 
#    0.000    2.667    0.000    0.000    0.000    0.000 
#    0.000    0.000    0.000    0.000    0.000    0.000 
#
# Total GULP energy -83667.078228 kJ/mol
# GULP energy per Si atom -5577.805215 kJ/mol
# Density = 2.487621 g / cm^3
# Si number density = 24.932956 Si / 1000 Ang^3
#
#
#
# Elastic Constant Matrix: (Units=GPa)
#
#
# Indices 1 2 3 4 5 6 
#
# 1 67.7741 30.4200 33.6690 -0.8764 -27.0541 -6.8086
# 2 30.4200 113.5778 42.9220 -30.4795 -10.2018 -11.7899
# 3 33.6690 42.9220 128.0782 -19.1919 -35.8822 -5.8511
# 4 -0.8764 -30.4795 -19.1919 57.0327 -4.2108 -9.3801
# 5 -27.0541 -10.2018 -35.8822 -4.2108 47.8613 -2.2420
# 6 -6.8086 -11.7899 -5.8511 -9.3801 -2.2420 24.5282
#
#
#
# Elastic Compliance Matrix: (Units=1/GPa)
#
#
# Indices 1 2 3 4 5 6 
#
# 1 0.021989 -0.004198 -0.001297 -0.000822 0.010698 0.004440
# 2 -0.004198 0.013594 -0.001844 0.007907 0.000211 0.007972
# 3 -0.001297 -0.001844 0.011945 0.004294 0.008395 0.004013
# 4 -0.000822 0.007907 0.004294 0.026263 0.007469 0.015323
# 5 0.010698 0.000211 0.008395 0.007469 0.034456 0.011080
# 6 0.004440 0.007972 0.004013 0.015323 0.011080 0.053664
#
#
# Mechanical properties :
#
#
# Convention : Reuss Voigt Hill
#
# Bulk Modulus (GPa) = 30.44015 58.16134 44.30074
# Shear Modulus (GPa) = 26.66094 39.37906 33.02000
#
# Velocity S-wave (km/s) = 3.27357 3.97848 3.64311
# Velocity P-wave (km/s) = 5.15011 6.66949 5.95843
#
# Compressibility (1/GPa) = 0.03285135
#
# Stress axis : x y z
#
# Youngs Moduli (GPa) = 45.47636 73.56109 83.71459
#
# Poissons Ratio (x) = 0.30882 0.10855
# Poissons Ratio (y) = 0.19092 0.15437
# Poissons Ratio (z) = 0.05897 0.13564
#
# Static dielectric constant tensor:
#      x y z
#    x 2.105140 -0.123680 0.005520 
#    y -0.123680 3.071660 0.066160 
#    z 0.005520 0.066160 1.985970 
# 
# From -- ./inp_files/295837.got.cif
#   From: 2010.05.17/outbox.cif.g08.bks.cpg/sg2_148_cif.got.tgz:295837.got - 2010.06.03 11:33:40.
