data_PCOD9034289
_publ_section_title
;
Structure prediction by ZEFSAII (Michael W. Deem and Ramdas Pophale) SiO2 
 PCOD9034289
Probable space group: P -1
;
_chemical_formula_sum "Si O2"
_cell_formula_units_Z 14
_cell_length_a 12.305366
_cell_length_b 9.638876
_cell_length_c 14.821734
_cell_angle_alpha 115.698851
_cell_angle_beta 151.505564
_cell_angle_gamma 54.460916
_cell_volume 668.831120
_symmetry_space_group_name_H-M "P -1"
_symmetry_group_IT_number 2
_symmetry_cell_setting 'triclinic'
loop_
_space_group_symop_operation_xyz
x,y,z
-x,-y,-z
loop_
_atom_site_type_symbol
_atom_site_label
_atom_site_fract_x
_atom_site_fract_y
_atom_site_fract_z
Si Si1 0.304064 0.151516 0.625443
Si Si2 0.810152 0.582924 0.800886
Si Si3 0.544787 0.661376 0.096223
Si Si4 0.188980 0.083517 0.184079
Si Si5 0.032600 0.070410 0.259661
Si Si6 0.281892 0.123365 0.806084
Si Si7 0.786955 0.267619 0.595384
O O1 0.304861 0.331360 0.702765
O O2 0.066272 0.165597 0.399190
O O3 0.320715 0.067310 0.713152
O O4 0.543938 0.036689 0.704559
O O5 0.882160 0.723808 0.848387
O O6 0.821746 0.432090 0.700138
O O7 0.505195 0.677238 0.630680
O O8 0.000000 0.500000 0.000000
O O9 0.689266 0.700272 0.130784
O O10 0.500000 0.500000 0.000000
O O11 0.268701 0.832358 0.953751
O O12 0.185554 0.087249 0.290773
O O13 0.000000 0.000000 0.000000
O O14 0.140204 0.869390 0.307628
O O15 0.002159 0.167440 0.649271
O O16 0.500000 0.000000 0.000000
#
# Coordination Sequence:
#
# PCOD9034289 Si02
#       7
#     2   2   2   2   2   2   2
#     4  10  24  42  68 102 131 182 235 279 352 411
#     4  11  27  45  68 104 144 177 241 293 344 422
#     4  10  24  45  64 102 140 179 233 288 350 418
#     4  12  23  44  74 103 136 189 234 289 357 411
#     4  12  23  44  75  97 142 185 237 288 348 428
#     4  10  22  44  72  97 141 182 233 284 349 422
#     4  11  24  46  69 104 138 188 232 286 358 412
#
# _framework density 20.932041000000002
#
# number of rings (size 3 to 8) (size 9 to 14) (size 15 to 20)
#    0.857    0.286    4.286    1.286    4.000    1.143 
#    2.571    0.000    0.000    0.000    0.000    0.000 
#    0.000    0.000    0.000    0.000    0.000    0.000 
#
# Total GULP energy -78065.779037 kJ/mol
# GULP energy per Si atom -5576.127074 kJ/mol
# Density = 2.088440 g / cm^3
# Si number density = 20.932041 Si / 1000 Ang^3
#
#
#
# Elastic Constant Matrix: (Units=GPa)
#
#
# Indices 1 2 3 4 5 6 
#
# 1 147.1008 27.4861 52.0230 -10.9221 0.1760 18.6626
# 2 27.4861 129.7936 35.3866 23.8450 -6.1972 24.1959
# 3 52.0230 35.3866 112.9956 6.7481 0.5741 1.3307
# 4 -10.9221 23.8450 6.7481 35.5931 -10.4596 1.6117
# 5 0.1760 -6.1972 0.5741 -10.4596 36.1862 1.2822
# 6 18.6626 24.1959 1.3307 1.6117 1.2822 32.6628
#
#
#
# Elastic Compliance Matrix: (Units=1/GPa)
#
#
# Indices 1 2 3 4 5 6 
#
# 1 0.009475 -0.000701 -0.004382 0.004873 0.001490 -0.005015
# 2 -0.000701 0.011256 -0.002708 -0.006824 0.000267 -0.007501
# 3 -0.004382 -0.002708 0.011816 -0.002394 -0.001471 0.004204
# 4 0.004873 -0.006824 -0.002394 0.037450 0.009666 0.000141
# 5 0.001490 0.000267 -0.001471 0.009666 0.030585 -0.002667
# 6 -0.005015 -0.007501 0.004204 0.000141 -0.002667 0.038964
#
#
# Mechanical properties :
#
#
# Convention : Reuss Voigt Hill
#
# Bulk Modulus (GPa) = 58.94325 68.85350 63.89837
# Shear Modulus (GPa) = 31.09749 39.22136 35.15943
#
# Velocity S-wave (km/s) = 3.85858 4.33338 4.10285
# Velocity P-wave (km/s) = 6.93340 7.61596 7.28268
#
# Compressibility (1/GPa) = 0.01696547
#
# Stress axis : x y z
#
# Youngs Moduli (GPa) = 105.53942 88.84092 84.62798
#
# Poissons Ratio (x) = 0.06227 0.37087
# Poissons Ratio (y) = 0.07398 0.22916
# Poissons Ratio (z) = 0.46251 0.24056
#
# Static dielectric constant tensor:
#      x y z
#    x 1.767110 -0.002570 -0.001590 
#    y -0.002570 1.791420 0.022090 
#    z -0.001590 0.022090 1.808710 
# 
# From -- ./inp_files/515797.got.cif
#   From: 2010.05.17/outbox.cif.g08.bks.cpg/sg2_258_cif.got.tgz:515797.got - 2010.06.03 11:33:40.
