data_PCOD9034476
_publ_section_title
;
Structure prediction by ZEFSAII (Michael W. Deem and Ramdas Pophale) SiO2 
 PCOD9034476
Probable space group: P -1
;
_chemical_formula_sum "Si O2"
_cell_formula_units_Z 14
_cell_length_a 27.310800
_cell_length_b 9.824872
_cell_length_c 11.861108
_cell_angle_alpha 142.717676
_cell_angle_beta 159.285530
_cell_angle_gamma 28.675504
_cell_volume 534.301223
_symmetry_space_group_name_H-M "P -1"
_symmetry_group_IT_number 2
_symmetry_cell_setting 'triclinic'
loop_
_space_group_symop_operation_xyz
x,y,z
-x,-y,-z
loop_
_atom_site_type_symbol
_atom_site_label
_atom_site_fract_x
_atom_site_fract_y
_atom_site_fract_z
Si Si1 0.792021 0.729223 0.213649
Si Si2 0.842456 0.075817 0.401596
Si Si3 0.481748 0.281050 0.499147
Si Si4 0.687669 0.614093 0.564387
Si Si5 0.700700 0.868250 0.359878
Si Si6 0.206164 0.904184 0.092150
Si Si7 0.037570 0.313794 0.798778
O O1 0.759515 0.851029 0.348345
O O2 0.000000 0.500000 0.500000
O O3 0.745159 0.966980 0.178750
O O4 0.674972 0.630576 0.865312
O O5 0.732776 0.400608 0.419817
O O6 0.870813 0.975694 0.268071
O O7 0.047459 0.890223 0.761136
O O8 0.403209 0.412051 0.540346
O O9 0.583360 0.940658 0.514740
O O10 0.621344 0.303567 0.752584
O O11 0.873802 0.541119 0.953976
O O12 0.725791 0.050867 0.618050
O O13 0.831904 0.545959 0.481345
O O14 0.500000 0.000000 0.000000
O O15 0.090901 0.202309 0.966996
#
# Coordination Sequence:
#
# PCOD9034476 Si02
#       7
#     2   2   2   2   2   2   2
#     4  12  25  47  69  98 152 191 231 289 362 423
#     4  12  25  44  77 110 134 193 243 289 356 432
#     4  10  22  46  69 105 148 182 228 309 350 417
#     4  10  22  44  76 103 141 186 242 289 363 415
#     4  12  24  45  73 101 141 196 233 283 362 424
#     4  11  25  45  73 105 141 184 239 297 354 416
#     4  11  23  48  73 104 148 182 237 302 356 419
#
# _framework density 26.202446999999999
#
# number of rings (size 3 to 8) (size 9 to 14) (size 15 to 20)
#    0.000    0.857    5.714    0.857    2.000    1.143 
#    2.571    1.429    0.000    0.000    0.000    0.000 
#    0.000    0.000    0.000    0.000    0.000    0.000 
#
# Total GULP energy -78393.441978 kJ/mol
# GULP energy per Si atom -5599.531570 kJ/mol
# Density = 2.614281 g / cm^3
# Si number density = 26.202447 Si / 1000 Ang^3
#
#
#
# Elastic Constant Matrix: (Units=GPa)
#
#
# Indices 1 2 3 4 5 6 
#
# 1 129.1175 14.4586 30.6060 4.1513 15.2788 -29.6643
# 2 14.4586 86.9458 17.8467 3.8525 4.6097 -21.2786
# 3 30.6060 17.8467 148.6806 -5.6173 9.5051 -15.0855
# 4 4.1513 3.8525 -5.6173 44.8555 -4.5668 -4.0142
# 5 15.2788 4.6097 9.5051 -4.5668 51.9084 -1.4902
# 6 -29.6643 -21.2786 -15.0855 -4.0142 -1.4902 34.6940
#
#
#
# Elastic Compliance Matrix: (Units=1/GPa)
#
#
# Indices 1 2 3 4 5 6 
#
# 1 0.010237 0.000803 -0.001192 -0.000675 -0.002681 0.008534
# 2 0.000803 0.013747 -0.000899 -0.000711 -0.001108 0.008597
# 3 -0.001192 -0.000899 0.007348 0.001185 -0.000761 0.001729
# 4 -0.000675 -0.000711 0.001185 0.022984 0.002132 0.002253
# 5 -0.002681 -0.001108 -0.000761 0.002132 0.020416 -0.002179
# 6 0.008534 0.008597 0.001729 0.002253 -0.002179 0.042311
#
#
# Mechanical properties :
#
#
# Convention : Reuss Voigt Hill
#
# Bulk Modulus (GPa) = 34.77627 54.50738 44.64182
# Shear Modulus (GPa) = 38.69810 46.41376 42.55593
#
# Velocity S-wave (km/s) = 3.84720 4.21331 4.03441
# Velocity P-wave (km/s) = 5.74766 6.67210 6.22705
#
# Compressibility (1/GPa) = 0.02875524
#
# Stress axis : x y z
#
# Youngs Moduli (GPa) = 97.68460 72.74510 136.09263
#
# Poissons Ratio (x) = -0.05840 0.16221
# Poissons Ratio (y) = -0.07842 0.12236
# Poissons Ratio (z) = 0.11643 0.06540
#
# Static dielectric constant tensor:
#      x y z
#    x 2.012100 0.058550 0.026000 
#    y 0.058550 2.131190 -0.026850 
#    z 0.026000 -0.026850 2.065500 
# 
# From -- ./inp_files/433376.got.cif
#   From: 2010.05.17/outbox.cif.g08.bks.cpg/sg2_217_cif.got.tgz:433376.got - 2010.06.03 11:33:40.
