data_PCOD9034097
_publ_section_title
;
Structure prediction by ZEFSAII (Michael W. Deem and Ramdas Pophale) SiO2 
 PCOD9034097
Probable space group: P -1
;
_chemical_formula_sum "Si O2"
_cell_formula_units_Z 15
_cell_length_a 13.065822
_cell_length_b 8.387724
_cell_length_c 12.748905
_cell_angle_alpha 118.284129
_cell_angle_beta 35.799080
_cell_angle_gamma 121.237653
_cell_volume 694.820879
_symmetry_space_group_name_H-M "P -1"
_symmetry_group_IT_number 2
_symmetry_cell_setting 'triclinic'
loop_
_space_group_symop_operation_xyz
x,y,z
-x,-y,-z
loop_
_atom_site_type_symbol
_atom_site_label
_atom_site_fract_x
_atom_site_fract_y
_atom_site_fract_z
Si Si1 0.752934 0.188950 0.913686
Si Si2 0.652687 0.853136 0.724734
Si Si3 0.235964 0.456128 0.127888
Si Si4 0.392713 0.782848 0.518806
Si Si5 0.941176 0.111172 0.177230
Si Si6 0.500000 0.500000 0.500000
Si Si7 0.361255 0.534240 0.271132
Si Si8 0.144335 0.180217 0.660684
O O1 0.789296 0.376275 0.872066
O O2 0.935771 0.188162 0.822663
O O3 0.706201 0.013146 0.817916
O O4 0.563412 0.177191 0.130327
O O5 0.676570 0.660324 0.694172
O O6 0.779335 0.897210 0.531928
O O7 0.233327 0.510990 0.269053
O O8 0.097900 0.263565 0.151922
O O9 0.434885 0.431577 0.930359
O O10 0.195479 0.780275 0.723837
O O11 0.484194 0.651841 0.469383
O O12 0.359964 0.700387 0.403010
O O13 0.500000 0.000000 0.500000
O O14 0.851000 0.959723 0.292176
O O15 0.000000 0.000000 0.000000
O O16 0.285591 0.381394 0.621224
#
# Coordination Sequence:
#
# PCOD9034097 Si02
#       8
#     2   2   2   2   2   1   2   2
#     4  10  23  42  72 111 144 189 239 305 379 447
#     4  10  22  44  71 105 148 186 242 304 377 450
#     4  10  23  42  70 106 142 187 237 305 371 446
#     4  12  25  47  73 102 145 194 244 305 370 442
#     4  12  28  48  70 104 144 193 253 308 377 456
#     4  12  26  46  72 108 142 192 252 302 370 442
#     4  10  22  44  72 103 145 185 240 302 373 444
#     4  12  25  45  71 102 142 194 245 304 369 445
#
# _framework density 21.588297000000001
#
# number of rings (size 3 to 8) (size 9 to 14) (size 15 to 20)
#    0.000    1.067    2.667    2.800    1.867    2.667 
#    0.000    2.000    0.000    0.000    0.000    0.000 
#    0.000    0.000    0.000    0.000    0.000    0.000 
#
# Total GULP energy -83610.822672 kJ/mol
# GULP energy per Si atom -5574.054845 kJ/mol
# Density = 2.153916 g / cm^3
# Si number density = 21.588297 Si / 1000 Ang^3
#
#
#
# Elastic Constant Matrix: (Units=GPa)
#
#
# Indices 1 2 3 4 5 6 
#
# 1 93.6223 14.5748 18.6107 4.8092 -14.7125 14.8074
# 2 14.5748 123.6462 -3.9226 -3.2055 11.0033 27.3674
# 3 18.6107 -3.9226 48.7527 14.7774 10.7638 -3.4886
# 4 4.8092 -3.2055 14.7774 31.8376 1.5713 2.1601
# 5 -14.7125 11.0033 10.7638 1.5713 26.7353 0.6888
# 6 14.8074 27.3674 -3.4886 2.1601 0.6888 22.7922
#
#
#
# Elastic Compliance Matrix: (Units=1/GPa)
#
#
# Indices 1 2 3 4 5 6 
#
# 1 0.017336 -0.000824 -0.011733 0.002883 0.014763 -0.012788
# 2 -0.000824 0.011722 0.000855 0.002086 -0.005398 -0.013443
# 3 -0.011733 0.000855 0.034876 -0.014267 -0.020369 0.013901
# 4 0.002883 0.002086 -0.014267 0.038285 0.004488 -0.010326
# 5 0.014763 -0.005398 -0.020369 0.004488 0.055902 -0.008342
# 6 -0.012788 -0.013443 0.013901 -0.010326 -0.008342 0.071683
#
#
# Mechanical properties :
#
#
# Convention : Reuss Voigt Hill
#
# Bulk Modulus (GPa) = 24.67259 36.06078 30.36669
# Shear Modulus (GPa) = 18.74647 32.05690 25.40168
#
# Velocity S-wave (km/s) = 2.95000 3.85765 3.43394
# Velocity P-wave (km/s) = 4.80175 6.04831 5.46072
#
# Compressibility (1/GPa) = 0.04053080
#
# Stress axis : x y z
#
# Youngs Moduli (GPa) = 57.68225 85.31126 28.67324
#
# Poissons Ratio (x) = 0.07032 0.33641
# Poissons Ratio (y) = 0.04754 -0.02453
# Poissons Ratio (z) = 0.67677 -0.07298
#
# Static dielectric constant tensor:
#      x y z
#    x 1.930230 0.095770 -0.002200 
#    y 0.095770 1.794310 0.018240 
#    z -0.002200 0.018240 1.807620 
# 
# From -- ./inp_files/417999.got.cif
#   From: 2010.05.17/outbox.cif.g08.bks.cpg/sg2_209_cif.got.tgz:417999.got - 2010.06.03 11:33:40.
