data_PCOD9034569
_publ_section_title
;
Structure prediction by ZEFSAII (Michael W. Deem and Ramdas Pophale) SiO2 
 PCOD9034569
Probable space group: P -1
;
_chemical_formula_sum "Si O2"
_cell_formula_units_Z 16
_cell_length_a 8.089709
_cell_length_b 8.050050
_cell_length_c 19.754552
_cell_angle_alpha 39.976264
_cell_angle_beta 119.120753
_cell_angle_gamma 122.007018
_cell_volume 693.181063
_symmetry_space_group_name_H-M "P -1"
_symmetry_group_IT_number 2
_symmetry_cell_setting 'triclinic'
loop_
_space_group_symop_operation_xyz
x,y,z
-x,-y,-z
loop_
_atom_site_type_symbol
_atom_site_label
_atom_site_fract_x
_atom_site_fract_y
_atom_site_fract_z
Si Si1 0.284103 0.613135 0.344399
Si Si2 0.055351 0.665647 0.529841
Si Si3 0.972973 0.076024 0.297723
Si Si4 0.447884 0.241429 0.873130
Si Si5 0.934254 0.367241 0.843051
Si Si6 0.949720 0.105454 0.059561
Si Si7 0.613740 0.585324 0.334160
Si Si8 0.712810 0.790654 0.803016
O O1 0.183649 0.576541 0.262474
O O2 0.477617 0.515863 0.396014
O O3 0.117267 0.461956 0.411475
O O4 0.340494 0.932960 0.274494
O O5 0.271547 0.630617 0.599719
O O6 0.000000 0.500000 0.500000
O O7 0.049292 0.963492 0.415810
O O8 0.906630 0.346191 0.207300
O O9 0.154474 0.142172 0.259874
O O10 0.788299 0.846574 0.306630
O O11 0.499251 0.328384 0.778843
O O12 0.531548 0.522851 0.841911
O O13 0.214794 0.093734 0.865705
O O14 0.500000 0.000000 0.000000
O O15 0.870958 0.288324 0.933253
O O16 0.990751 0.113055 0.905845
O O17 0.136690 0.257128 0.094054
#
# Coordination Sequence:
#
# PCOD9034569 Si02
#       8
#     2   2   2   2   2   2   2   2
#     4  11  22  44  65  98 136 172 228 286 331 414
#     4  10  22  45  70  93 136 180 225 285 344 395
#     4  11  22  42  69  97 132 183 224 281 342 398
#     4  12  25  41  67 103 136 180 232 278 335 417
#     4  10  23  41  66  98 136 178 228 277 343 404
#     4  10  22  45  64  96 142 185 219 283 341 400
#     4  11  23  42  67  98 137 179 224 281 340 400
#     4  11  23  42  69  95 139 177 225 280 337 403
#
# _framework density 23.081993000000001
#
# number of rings (size 3 to 8) (size 9 to 14) (size 15 to 20)
#    0.000    1.250    3.750    3.000    3.500    3.500 
#    0.000    5.000    0.000    0.000    0.000    0.000 
#    0.000    0.000    0.000    0.000    0.000    0.000 
#
# Total GULP energy -89083.706159 kJ/mol
# GULP energy per Si atom -5567.731635 kJ/mol
# Density = 2.302946 g / cm^3
# Si number density = 23.081993 Si / 1000 Ang^3
#
#
#
# Elastic Constant Matrix: (Units=GPa)
#
#
# Indices 1 2 3 4 5 6 
#
# 1 116.3320 3.4195 64.7808 -2.1301 -18.0084 -10.3171
# 2 3.4195 99.8387 31.2649 -6.5896 -11.0968 11.2226
# 3 64.7808 31.2649 143.6189 -3.1146 -13.7122 -10.2340
# 4 -2.1301 -6.5896 -3.1146 29.9138 -9.4122 4.1647
# 5 -18.0084 -11.0968 -13.7122 -9.4122 39.2144 -6.5201
# 6 -10.3171 11.2226 -10.2340 4.1647 -6.5201 21.6280
#
#
#
# Elastic Compliance Matrix: (Units=1/GPa)
#
#
# Indices 1 2 3 4 5 6 
#
# 1 0.012704 0.001460 -0.005178 0.001861 0.005578 0.004176
# 2 0.001460 0.012523 -0.003557 0.004411 0.002783 -0.007496
# 3 -0.005178 -0.003557 0.010492 -0.000411 0.000969 0.004712
# 4 0.001861 0.004411 -0.000411 0.038533 0.010221 -0.005935
# 5 0.005578 0.002783 0.000969 0.010221 0.033260 0.009734
# 6 0.004176 -0.007496 0.004712 -0.005935 0.009734 0.058425
#
#
# Mechanical properties :
#
#
# Convention : Reuss Voigt Hill
#
# Bulk Modulus (GPa) = 47.23950 62.07999 54.65975
# Shear Modulus (GPa) = 26.66024 35.50619 31.08322
#
# Velocity S-wave (km/s) = 3.40225 3.92633 3.67365
# Velocity P-wave (km/s) = 5.99534 6.89264 6.45959
#
# Compressibility (1/GPa) = 0.02116872
#
# Stress axis : x y z
#
# Youngs Moduli (GPa) = 78.71350 79.85173 95.30943
#
# Poissons Ratio (x) = -0.11655 0.49348
# Poissons Ratio (y) = -0.11489 0.33905
# Poissons Ratio (z) = 0.40755 0.28406
#
# Static dielectric constant tensor:
#      x y z
#    x 1.940910 0.021990 0.104530 
#    y 0.021990 1.845860 0.023790 
#    z 0.104530 0.023790 1.913170 
# 
# From -- ./inp_files/587170.got.cif
#   From: 2010.05.17/outbox.cif.g08.bks.cpg/sg2_294_cif.got.tgz:587170.got - 2010.06.03 11:33:40.
