data_PCOD9034009
_publ_section_title
;
Structure prediction by ZEFSAII (Michael W. Deem and Ramdas Pophale) SiO2 
 PCOD9034009
Probable space group: P -1
;
_chemical_formula_sum "Si O2"
_cell_formula_units_Z 16
_cell_length_a 5.643267
_cell_length_b 22.862607
_cell_length_c 4.791055
_cell_angle_alpha 110.003483
_cell_angle_beta 99.547247
_cell_angle_gamma 76.655032
_cell_volume 562.606705
_symmetry_space_group_name_H-M "P -1"
_symmetry_group_IT_number 2
_symmetry_cell_setting 'triclinic'
loop_
_space_group_symop_operation_xyz
x,y,z
-x,-y,-z
loop_
_atom_site_type_symbol
_atom_site_label
_atom_site_fract_x
_atom_site_fract_y
_atom_site_fract_z
Si Si1 0.212002 0.016806 0.764812
Si Si2 0.745191 0.318396 0.996671
Si Si3 0.181831 0.455032 0.672520
Si Si4 0.391904 0.747447 0.608893
Si Si5 0.808562 0.783776 0.132132
Si Si6 0.487181 0.098857 0.546844
Si Si7 0.912493 0.132935 0.072560
Si Si8 0.729230 0.429115 0.781480
O O1 0.351381 0.057488 0.655921
O O2 0.087012 0.065381 0.059108
O O3 0.388339 0.949311 0.748458
O O4 0.000000 0.000000 0.500000
O O5 0.726609 0.298605 0.280379
O O6 0.726006 0.388927 0.999086
O O7 0.994895 0.277484 0.853941
O O8 0.548272 0.288518 0.727409
O O9 0.463050 0.428473 0.583220
O O10 0.000000 0.500000 0.500000
O O11 0.998653 0.408342 0.655134
O O12 0.249206 0.499309 0.009513
O O13 0.613727 0.761262 0.855995
O O14 0.217922 0.816529 0.645529
O O15 0.685128 0.833142 0.426980
O O16 0.944957 0.826630 0.031588
O O17 0.700719 0.116431 0.807953
#
# Coordination Sequence:
#
# PCOD9034009 Si02
#       8
#     2   2   2   2   2   2   2   2
#     4   8  12  20  43  78 115 155 208 259 324 384
#     4  11  25  41  64  96 128 170 220 269 323 396
#     4  10  22  44  70  99 139 178 222 278 339 395
#     4  10  23  40  60  89 126 168 218 268 333 388
#     4   9  19  36  57  82 124 163 212 266 331 387
#     4   8  13  24  46  79 115 159 205 264 321 391
#     4   8  15  30  49  79 115 161 207 266 321 392
#     4  10  24  41  67 103 134 177 230 274 336 404
#
# _framework density 28.439050000000002
#
# number of rings (size 3 to 8) (size 9 to 14) (size 15 to 20)
#    0.000    2.750    0.000    0.375    3.500    3.000 
#    0.000    0.000    0.000    0.750    0.000  170.625 
#    0.000    0.000    0.000    0.000    0.000    0.000 
#
# Total GULP energy -89541.948294 kJ/mol
# GULP energy per Si atom -5596.371768 kJ/mol
# Density = 2.837432 g / cm^3
# Si number density = 28.439050 Si / 1000 Ang^3
#
#
#
# Elastic Constant Matrix: (Units=GPa)
#
#
# Indices 1 2 3 4 5 6 
#
# 1 184.1487 51.9344 37.6245 -8.4479 32.4025 10.1373
# 2 51.9344 115.8897 34.8935 -8.2988 10.0052 -7.1527
# 3 37.6245 34.8935 100.3082 -18.9169 0.7516 11.7954
# 4 -8.4479 -8.2988 -18.9169 47.0513 0.1388 0.1721
# 5 32.4025 10.0052 0.7516 0.1388 45.8252 2.4701
# 6 10.1373 -7.1527 11.7954 0.1721 2.4701 52.9865
#
#
#
# Elastic Compliance Matrix: (Units=1/GPa)
#
#
# Indices 1 2 3 4 5 6 
#
# 1 0.007342 -0.002440 -0.001694 0.000224 -0.004570 -0.001145
# 2 -0.002440 0.010917 -0.003151 0.000213 -0.000751 0.002676
# 3 -0.001694 -0.003151 0.012861 0.004317 0.001827 -0.003064
# 4 0.000224 0.000213 0.004317 0.023071 -0.000290 -0.001037
# 5 -0.004570 -0.000751 0.001827 -0.000290 0.025232 -0.000809
# 6 -0.001145 0.002676 -0.003064 -0.001037 -0.000809 0.020176
#
#
# Mechanical properties :
#
#
# Convention : Reuss Voigt Hill
#
# Bulk Modulus (GPa) = 60.42442 72.13904 66.28173
# Shear Modulus (GPa) = 41.77576 47.56554 44.67065
#
# Velocity S-wave (km/s) = 3.83686 4.09411 3.96757
# Velocity P-wave (km/s) = 6.39701 6.91160 6.65928
#
# Compressibility (1/GPa) = 0.01654960
#
# Stress axis : x y z
#
# Youngs Moduli (GPa) = 136.20009 91.60434 77.75179
#
# Poissons Ratio (x) = 0.22354 0.13170
# Poissons Ratio (y) = 0.33237 0.24500
# Poissons Ratio (z) = 0.23071 0.28865
#
# Static dielectric constant tensor:
#      x y z
#    x 2.409000 -0.054610 -0.029920 
#    y -0.054610 2.171820 0.071120 
#    z -0.029920 0.071120 2.206740 
# 
# From -- ./inp_files/13628.got.cif
#   From: 2010.05.17/outbox.cif.g08.bks.cpg/sg2_7_cif.got.tgz:13628.got - 2010.06.03 11:33:40.
