data_PCOD9034741
_publ_section_title
;
Structure prediction by ZEFSAII (Michael W. Deem and Ramdas Pophale) SiO2 
 PCOD9034741
Probable space group: P -1
;
_chemical_formula_sum "Si O2"
_cell_formula_units_Z 14
_cell_length_a 8.113313
_cell_length_b 8.126492
_cell_length_c 16.427154
_cell_angle_alpha 75.852677
_cell_angle_beta 109.817281
_cell_angle_gamma 52.261607
_cell_volume 640.102429
_symmetry_space_group_name_H-M "P -1"
_symmetry_group_IT_number 2
_symmetry_cell_setting 'triclinic'
loop_
_space_group_symop_operation_xyz
x,y,z
-x,-y,-z
loop_
_atom_site_type_symbol
_atom_site_label
_atom_site_fract_x
_atom_site_fract_y
_atom_site_fract_z
Si Si1 0.339295 0.640819 0.673891
Si Si2 0.032708 0.631696 0.929188
Si Si3 0.446239 0.168898 0.745420
Si Si4 0.279194 0.914403 0.473933
Si Si5 0.293761 0.233560 0.546957
Si Si6 0.666946 0.742136 0.111925
Si Si7 0.708315 0.306476 0.922816
O O1 0.358516 0.426191 0.683033
O O2 0.365284 0.724122 0.583965
O O3 0.576272 0.493811 0.798203
O O4 0.032197 0.900625 0.625029
O O5 0.079282 0.511186 0.864701
O O6 0.263122 0.580999 0.012368
O O7 0.759850 0.938578 0.847313
O O8 0.000000 0.500000 0.000000
O O9 0.423778 0.074692 0.672393
O O10 0.289254 0.225016 0.793131
O O11 0.506254 0.772813 0.459052
O O12 0.260236 0.111692 0.490366
O O13 0.000000 0.500000 0.500000
O O14 0.492935 0.699380 0.094018
O O15 0.500000 0.000000 0.000000
O O16 0.000000 0.000000 0.000000
#
# Coordination Sequence:
#
# PCOD9034741 Si02
#       7
#     2   2   2   2   2   2   2
#     4  10  22  45  67  97 138 175 225 282 341 404
#     4  12  24  43  67  97 137 180 224 279 348 406
#     4  11  24  42  66  95 136 171 223 280 338 409
#     4  10  24  45  69  97 134 177 228 287 339 406
#     4  11  24  45  67  99 130 174 230 283 346 402
#     4  11  23  43  64  95 137 179 222 273 336 414
#     4  11  22  43  66 100 137 175 225 280 336 414
#
# _framework density 21.871499
#
# number of rings (size 3 to 8) (size 9 to 14) (size 15 to 20)
#    0.000    1.143    5.714    0.429    6.000    0.571 
#    2.571    0.000    0.000    0.000    0.000    0.000 
#    0.000    0.000    0.000    0.000    0.000    0.000 
#
# Total GULP energy -78075.838590 kJ/mol
# GULP energy per Si atom -5576.845614 kJ/mol
# Density = 2.182172 g / cm^3
# Si number density = 21.871499 Si / 1000 Ang^3
#
#
#
# Elastic Constant Matrix: (Units=GPa)
#
#
# Indices 1 2 3 4 5 6 
#
# 1 64.1417 24.0139 36.7934 -2.2987 -16.0584 -23.8087
# 2 24.0139 87.0300 37.7480 1.7364 -8.4544 -37.1075
# 3 36.7934 37.7480 124.1395 -5.8286 0.3531 -21.9931
# 4 -2.2987 1.7364 -5.8286 44.1647 5.5322 -6.5648
# 5 -16.0584 -8.4544 0.3531 5.5322 40.0732 5.7240
# 6 -23.8087 -37.1075 -21.9931 -6.5648 5.7240 34.9446
#
#
#
# Elastic Compliance Matrix: (Units=1/GPa)
#
#
# Indices 1 2 3 4 5 6 
#
# 1 0.025944 0.003029 -0.005664 0.001838 0.008506 0.016280
# 2 0.003029 0.022455 -0.003425 0.002067 0.002302 0.023764
# 3 -0.005664 -0.003425 0.010911 0.001738 -0.003364 0.000248
# 4 0.001838 0.002067 0.001738 0.024802 -0.003667 0.009801
# 5 0.008506 0.002302 -0.003364 -0.003667 0.029294 0.000635
# 6 0.016280 0.023764 0.000248 0.009801 0.000635 0.066837
#
#
# Mechanical properties :
#
#
# Convention : Reuss Voigt Hill
#
# Bulk Modulus (GPa) = 21.19122 52.49131 36.84126
# Shear Modulus (GPa) = 24.02771 35.62023 29.82397
#
# Velocity S-wave (km/s) = 3.31809 4.03999 3.69670
# Velocity P-wave (km/s) = 4.93858 6.76860 5.92468
#
# Compressibility (1/GPa) = 0.04718936
#
# Stress axis : x y z
#
# Youngs Moduli (GPa) = 38.54460 44.53388 91.65128
#
# Poissons Ratio (x) = -0.13490 0.51913
# Poissons Ratio (y) = -0.11676 0.31392
# Poissons Ratio (z) = 0.21832 0.15254
#
# Static dielectric constant tensor:
#      x y z
#    x 1.825480 -0.018240 0.054760 
#    y -0.018240 1.831790 0.024190 
#    z 0.054760 0.024190 1.926040 
# 
# From -- ./inp_files/492545.got.cif
#   From: 2010.05.17/outbox.cif.g08.bks.cpg/sg2_247_cif.got.tgz:492545.got - 2010.06.03 11:33:40.
