data_PCOD9034967
_publ_section_title
;
Structure prediction by ZEFSAII (Michael W. Deem and Ramdas Pophale) SiO2 
 PCOD9034967
Probable space group: P -1
;
_chemical_formula_sum "Si O2"
_cell_formula_units_Z 16
_cell_length_a 5.547244
_cell_length_b 12.396646
_cell_length_c 13.191715
_cell_angle_alpha 83.491947
_cell_angle_beta 54.924036
_cell_angle_gamma 78.226836
_cell_volume 726.782792
_symmetry_space_group_name_H-M "P -1"
_symmetry_group_IT_number 2
_symmetry_cell_setting 'triclinic'
loop_
_space_group_symop_operation_xyz
x,y,z
-x,-y,-z
loop_
_atom_site_type_symbol
_atom_site_label
_atom_site_fract_x
_atom_site_fract_y
_atom_site_fract_z
Si Si1 0.742263 0.927327 0.063138
Si Si2 0.325039 0.346591 0.608440
Si Si3 0.810551 0.659170 0.721158
Si Si4 0.013836 0.188310 0.804583
Si Si5 0.897788 0.174333 0.469302
Si Si6 0.147929 0.023232 0.609561
Si Si7 0.578614 0.839095 0.924867
Si Si8 0.479799 0.548842 0.647432
O O1 0.731222 0.846924 0.168395
O O2 0.476378 0.032163 0.111119
O O3 0.811039 0.848296 0.957799
O O4 0.000000 0.000000 0.000000
O O5 0.043228 0.300953 0.727769
O O6 0.560515 0.235910 0.545058
O O7 0.466941 0.420677 0.647502
O O8 0.317373 0.414199 0.497784
O O9 0.650445 0.744630 0.834399
O O10 0.608996 0.581673 0.720497
O O11 0.895007 0.735096 0.601533
O O12 0.132496 0.603740 0.698013
O O13 0.072075 0.086750 0.724166
O O14 0.707317 0.186722 0.938744
O O15 0.980938 0.101378 0.554745
O O16 0.944062 0.095681 0.368721
O O17 0.500000 0.000000 0.500000
#
# Coordination Sequence:
#
# PCOD9034967 Si02
#       8
#     2   2   2   2   2   2   2   2
#     4   9  22  39  58  90 125 176 219 258 312 401
#     4  10  22  45  69  97 130 170 223 277 348 387
#     4  11  25  43  70  93 133 174 229 276 333 386
#     4  11  23  38  64  94 132 174 209 274 328 404
#     4  10  24  37  62  96 129 175 207 274 330 412
#     4  11  23  37  57 100 136 161 214 260 336 405
#     4  10  24  40  62  94 130 180 216 268 325 401
#     4  10  25  46  71 101 126 173 229 291 330 395
#
# _framework density 22.014828000000001
#
# number of rings (size 3 to 8) (size 9 to 14) (size 15 to 20)
#    0.000    1.750    1.250    0.750   14.000    5.500 
#    0.000    1.250    0.000    0.000    0.000    0.000 
#    0.000    0.000    0.000    0.000    0.000    0.000 
#
# Total GULP energy -89225.948676 kJ/mol
# GULP energy per Si atom -5576.621792 kJ/mol
# Density = 2.196472 g / cm^3
# Si number density = 22.014828 Si / 1000 Ang^3
#
#
#
# Elastic Constant Matrix: (Units=GPa)
#
#
# Indices 1 2 3 4 5 6 
#
# 1 55.9991 21.8804 21.4116 8.5136 11.0158 21.3918
# 2 21.8804 84.2965 21.3786 10.1702 2.6037 21.9296
# 3 21.4116 21.3786 64.6794 22.0263 -2.9455 11.9575
# 4 8.5136 10.1702 22.0263 37.2120 13.3626 9.3523
# 5 11.0158 2.6037 -2.9455 13.3626 35.0805 5.6459
# 6 21.3918 21.9296 11.9575 9.3523 5.6459 36.8294
#
#
#
# Elastic Compliance Matrix: (Units=1/GPa)
#
#
# Indices 1 2 3 4 5 6 
#
# 1 0.027554 -0.002296 -0.008574 0.005792 -0.009498 -0.011869
# 2 -0.002296 0.014921 -0.002752 -0.000485 0.000634 -0.006632
# 3 -0.008574 -0.002752 0.025118 -0.016368 0.011093 0.000919
# 4 0.005792 -0.000485 -0.016368 0.043622 -0.018815 -0.005954
# 5 -0.009498 0.000634 0.011093 -0.018815 0.039498 0.000260
# 6 -0.011869 -0.006632 0.000919 -0.005954 0.000260 0.039168
#
#
# Mechanical properties :
#
#
# Convention : Reuss Voigt Hill
#
# Bulk Modulus (GPa) = 24.78232 37.14626 30.96429
# Shear Modulus (GPa) = 21.68509 31.17800 26.43155
#
# Velocity S-wave (km/s) = 3.14191 3.76736 3.46876
# Velocity P-wave (km/s) = 4.94406 5.98615 5.48988
#
# Compressibility (1/GPa) = 0.04035134
#
# Stress axis : x y z
#
# Youngs Moduli (GPa) = 36.29211 67.02071 39.81199
#
# Poissons Ratio (x) = 0.15385 0.34133
# Poissons Ratio (y) = 0.08331 0.10955
# Poissons Ratio (z) = 0.31115 0.18443
#
# Static dielectric constant tensor:
#      x y z
#    x 1.984130 -0.013770 -0.003500 
#    y -0.013770 1.805170 -0.002900 
#    z -0.003500 -0.002900 1.837600 
# 
# From -- ./inp_files/80748.got.cif
#   From: 2010.05.17/outbox.cif.g08.bks.cpg/sg2_41_cif.got.tgz:80748.got - 2010.06.03 11:33:40.
