data_PCOD9034321
_publ_section_title
;
Structure prediction by ZEFSAII (Michael W. Deem and Ramdas Pophale) SiO2 
 PCOD9034321
Probable space group: P -1
;
_chemical_formula_sum "Si O2"
_cell_formula_units_Z 14
_cell_length_a 11.238459
_cell_length_b 8.420433
_cell_length_c 11.065313
_cell_angle_alpha 73.149992
_cell_angle_beta 120.729317
_cell_angle_gamma 138.694290
_cell_volume 585.935927
_symmetry_space_group_name_H-M "P -1"
_symmetry_group_IT_number 2
_symmetry_cell_setting 'triclinic'
loop_
_space_group_symop_operation_xyz
x,y,z
-x,-y,-z
loop_
_atom_site_type_symbol
_atom_site_label
_atom_site_fract_x
_atom_site_fract_y
_atom_site_fract_z
Si Si1 0.712211 0.094409 0.661686
Si Si2 0.670637 0.109469 0.379737
Si Si3 0.603561 0.328487 0.095042
Si Si4 0.048920 0.504232 0.889856
Si Si5 0.444721 0.531541 0.595284
Si Si6 0.988760 0.211596 0.362914
Si Si7 0.295712 0.248716 0.816160
O O1 0.786786 0.229993 0.541094
O O2 0.898376 0.234493 0.816302
O O3 0.560691 0.098011 0.642692
O O4 0.590529 0.816796 0.636041
O O5 0.642249 0.234759 0.244293
O O6 0.800297 0.083573 0.384504
O O7 0.698196 0.582262 0.137237
O O8 0.723553 0.356784 0.039588
O O9 0.382309 0.178668 0.962265
O O10 0.009103 0.629850 0.759533
O O11 0.000000 0.500000 0.000000
O O12 0.500000 0.500000 0.500000
O O13 0.444241 0.415361 0.740951
O O14 0.208126 0.378634 0.497671
O O15 0.919988 0.993023 0.296833
#
# Coordination Sequence:
#
# PCOD9034321 Si02
#       7
#     2   2   2   2   2   2   2
#     4  11  24  43  74 102 140 178 228 300 341 402
#     4  10  22  44  73 102 131 177 239 283 345 401
#     4  10  25  45  70  98 140 192 229 279 349 421
#     4  11  28  43  71 105 137 180 237 289 345 404
#     4  12  27  45  70 107 142 182 233 286 350 415
#     4  11  26  43  73 102 137 183 235 287 340 415
#     4  11  25  46  68 100 142 188 228 278 354 417
#
# _framework density 23.893395000000002
#
# number of rings (size 3 to 8) (size 9 to 14) (size 15 to 20)
#    0.000    1.143    1.429    3.000   10.000    2.857 
#    0.000    1.429    0.000    0.000    0.000    0.000 
#    0.000    0.000    0.000    0.000    0.000    0.000 
#
# Total GULP energy -78249.152295 kJ/mol
# GULP energy per Si atom -5589.225164 kJ/mol
# Density = 2.383901 g / cm^3
# Si number density = 23.893395 Si / 1000 Ang^3
#
#
#
# Elastic Constant Matrix: (Units=GPa)
#
#
# Indices 1 2 3 4 5 6 
#
# 1 92.6133 1.9064 26.0814 -21.4115 -17.1372 11.7279
# 2 1.9064 78.6373 25.3306 5.6006 -2.6379 -11.2807
# 3 26.0814 25.3306 103.4428 -8.7623 -4.7913 -0.9372
# 4 -21.4115 5.6006 -8.7623 21.6530 2.8623 -5.8692
# 5 -17.1372 -2.6379 -4.7913 2.8623 40.3797 -6.1746
# 6 11.7279 -11.2807 -0.9372 -5.8692 -6.1746 17.4758
#
#
#
# Elastic Compliance Matrix: (Units=1/GPa)
#
#
# Indices 1 2 3 4 5 6 
#
# 1 0.016139 -0.001172 -0.002508 0.013091 0.004680 -0.005672
# 2 -0.001172 0.015756 -0.003747 -0.004296 0.001919 0.009992
# 3 -0.002508 -0.003747 0.011516 0.003431 -0.000029 0.001024
# 4 0.013091 -0.004296 0.003431 0.064294 0.002841 0.011222
# 5 0.004680 0.001919 -0.000029 0.002841 0.028042 0.008959
# 6 -0.005672 0.009992 0.001024 0.011222 0.008959 0.074467
#
#
# Mechanical properties :
#
#
# Convention : Reuss Voigt Hill
#
# Bulk Modulus (GPa) = 35.01957 42.37003 38.69480
# Shear Modulus (GPa) = 21.31419 30.66003 25.98711
#
# Velocity S-wave (km/s) = 2.98997 3.58607 3.30150
# Velocity P-wave (km/s) = 5.15832 5.90914 5.54645
#
# Compressibility (1/GPa) = 0.02855546
#
# Stress axis : x y z
#
# Youngs Moduli (GPa) = 61.96285 63.46894 86.83911
#
# Poissons Ratio (x) = 0.07441 0.21777
# Poissons Ratio (y) = 0.07265 0.32539
# Poissons Ratio (z) = 0.15539 0.23782
#
# Static dielectric constant tensor:
#      x y z
#    x 1.892070 -0.007340 -0.011080 
#    y -0.007340 1.970990 -0.026150 
#    z -0.011080 -0.026150 1.920170 
# 
# From -- ./inp_files/416943.got.cif
#   From: 2010.05.17/outbox.cif.g08.bks.cpg/sg2_209_cif.got.tgz:416943.got - 2010.06.03 11:33:40.
