data_PCOD9034863
_publ_section_title
;
Structure prediction by ZEFSAII (Michael W. Deem and Ramdas Pophale) SiO2 
 PCOD9034863
Probable space group: P -1
;
_chemical_formula_sum "Si O2"
_cell_formula_units_Z 14
_cell_length_a 11.237362
_cell_length_b 9.143726
_cell_length_c 11.640821
_cell_angle_alpha 106.385359
_cell_angle_beta 133.780006
_cell_angle_gamma 105.647051
_cell_volume 614.200022
_symmetry_space_group_name_H-M "P -1"
_symmetry_group_IT_number 2
_symmetry_cell_setting 'triclinic'
loop_
_space_group_symop_operation_xyz
x,y,z
-x,-y,-z
loop_
_atom_site_type_symbol
_atom_site_label
_atom_site_fract_x
_atom_site_fract_y
_atom_site_fract_z
Si Si1 0.418367 0.859759 0.686137
Si Si2 0.074670 0.410842 0.697727
Si Si3 0.365450 0.190922 0.001301
Si Si4 0.757190 0.787179 0.319240
Si Si5 0.119226 0.772781 0.846802
Si Si6 0.650751 0.475650 0.865771
Si Si7 0.671413 0.466485 0.617519
O O1 0.436618 0.778640 0.800453
O O2 0.184300 0.798620 0.514706
O O3 0.398288 0.277068 0.690691
O O4 0.649765 0.094560 0.896861
O O5 0.205031 0.371249 0.699052
O O6 0.085016 0.595339 0.715725
O O7 0.179341 0.466831 0.908058
O O8 0.335986 0.331248 0.079139
O O9 0.584146 0.265769 0.444738
O O10 0.160487 0.947416 0.834972
O O11 0.620294 0.762639 0.112009
O O12 0.000000 0.000000 0.500000
O O13 0.905093 0.656905 0.757839
O O14 0.702789 0.450009 0.768745
O O15 0.500000 0.500000 0.500000
#
# Coordination Sequence:
#
# PCOD9034863 Si02
#       7
#     2   2   2   2   2   2   2
#     4   9  21  40  70 102 129 172 222 274 338 384
#     4  10  22  45  68  99 138 174 219 284 342 383
#     4   9  20  43  68  95 134 170 229 271 329 396
#     4  11  26  44  68  98 136 180 228 274 337 398
#     4   9  22  41  70 103 133 169 224 280 332 396
#     4  11  24  43  65  98 141 176 224 277 325 409
#     4  11  21  40  71 100 136 177 222 272 335 399
#
# _framework density 22.793880000000001
#
# number of rings (size 3 to 8) (size 9 to 14) (size 15 to 20)
#    0.857    1.143    1.429    1.714    4.000    4.571 
#    2.571   11.429    0.000    0.000    0.000    0.000 
#    0.000    0.000    0.000    0.000    0.000    0.000 
#
# Total GULP energy -78221.621877 kJ/mol
# GULP energy per Si atom -5587.258706 kJ/mol
# Density = 2.274200 g / cm^3
# Si number density = 22.793880 Si / 1000 Ang^3
#
#
#
# Elastic Constant Matrix: (Units=GPa)
#
#
# Indices 1 2 3 4 5 6 
#
# 1 111.7101 32.8430 25.5382 4.0122 15.8837 15.1521
# 2 32.8430 69.9351 20.2704 20.1981 16.9969 0.6768
# 3 25.5382 20.2704 116.7893 17.0279 29.2948 -2.0173
# 4 4.0122 20.1981 17.0279 43.4027 3.5805 5.9425
# 5 15.8837 16.9969 29.2948 3.5805 28.4982 -3.8479
# 6 15.1521 0.6768 -2.0173 5.9425 -3.8479 19.2400
#
#
#
# Elastic Compliance Matrix: (Units=1/GPa)
#
#
# Indices 1 2 3 4 5 6 
#
# 1 0.013188 -0.005710 -0.001575 0.004147 -0.004540 -0.012539
# 2 -0.005710 0.021665 0.001336 -0.010027 -0.009159 0.005140
# 3 -0.001575 0.001336 0.012328 -0.004547 -0.011814 0.001528
# 4 0.004147 -0.010027 -0.004547 0.030550 0.002850 -0.012256
# 5 -0.004540 -0.009159 -0.011814 0.002850 0.056638 0.013106
# 6 -0.012539 0.005140 0.001528 -0.012256 0.013106 0.068236
#
#
# Mechanical properties :
#
#
# Convention : Reuss Voigt Hill
#
# Bulk Modulus (GPa) = 28.34218 50.63754 39.48986
# Shear Modulus (GPa) = 22.09820 32.88039 27.48930
#
# Velocity S-wave (km/s) = 3.11702 3.80216 3.47651
# Velocity P-wave (km/s) = 5.04139 6.44506 5.78595
#
# Compressibility (1/GPa) = 0.03528311
#
# Stress axis : x y z
#
# Youngs Moduli (GPa) = 75.82734 46.15689 81.11885
#
# Poissons Ratio (x) = 0.26355 0.12779
# Poissons Ratio (y) = 0.43296 -0.10841
# Poissons Ratio (z) = 0.11945 -0.06168
#
# Static dielectric constant tensor:
#      x y z
#    x 1.788060 -0.018420 0.010400 
#    y -0.018420 1.900490 0.018990 
#    z 0.010400 0.018990 1.928950 
# 
# From -- ./inp_files/517115.got.cif
#   From: 2010.05.17/outbox.cif.g08.bks.cpg/sg2_259_cif.got.tgz:517115.got - 2010.06.03 11:33:40.
