data_PCOD9034074
_publ_section_title
;
Structure prediction by ZEFSAII (Michael W. Deem and Ramdas Pophale) SiO2 
 PCOD9034074
Probable space group: P -1
;
_chemical_formula_sum "Si O2"
_cell_formula_units_Z 16
_cell_length_a 8.404131
_cell_length_b 19.548716
_cell_length_c 5.311812
_cell_angle_alpha 123.885562
_cell_angle_beta 63.610029
_cell_angle_gamma 106.138945
_cell_volume 648.426020
_symmetry_space_group_name_H-M "P -1"
_symmetry_group_IT_number 2
_symmetry_cell_setting 'triclinic'
loop_
_space_group_symop_operation_xyz
x,y,z
-x,-y,-z
loop_
_atom_site_type_symbol
_atom_site_label
_atom_site_fract_x
_atom_site_fract_y
_atom_site_fract_z
Si Si1 0.389933 0.814235 0.190531
Si Si2 0.162677 0.553110 0.370683
Si Si3 0.231611 0.980544 0.529125
Si Si4 0.544419 0.408379 0.344350
Si Si5 0.408393 0.233684 0.549587
Si Si6 0.862055 0.316898 0.714966
Si Si7 0.227057 0.377890 0.784277
Si Si8 0.824416 0.922139 0.722481
O O1 0.367499 0.910069 0.348627
O O2 0.521028 0.797742 0.297200
O O3 0.203423 0.774723 0.354633
O O4 0.445975 0.774584 0.799275
O O5 0.329108 0.581479 0.479622
O O6 0.085054 0.636945 0.486240
O O7 0.000000 0.500000 0.500000
O O8 0.229069 0.476762 0.001000
O O9 0.035232 0.935383 0.559172
O O10 0.263379 0.025362 0.332280
O O11 0.220205 0.042849 0.899391
O O12 0.500000 0.500000 0.500000
O O13 0.356114 0.361720 0.425265
O O14 0.676920 0.363033 0.977045
O O15 0.330768 0.324686 0.805494
O O16 0.249102 0.170989 0.444506
O O17 0.026481 0.344918 0.829180
#
# Coordination Sequence:
#
# PCOD9034074 Si02
#       8
#     2   2   2   2   2   2   2   2
#     4  12  27  45  70 103 144 182 237 296 354 418
#     4  12  25  44  71 100 133 187 237 292 361 423
#     4  10  22  44  72 101 142 186 230 292 349 425
#     4  12  24  43  69  96 133 179 234 292 355 423
#     4  12  27  44  70 105 141 186 237 294 353 423
#     4  12  26  46  67  98 140 181 238 295 356 422
#     4  12  25  45  68  98 138 184 235 297 352 422
#     4  10  22  44  71 103 139 185 237 282 357 423
#
# _framework density 24.675135000000001
#
# number of rings (size 3 to 8) (size 9 to 14) (size 15 to 20)
#    0.000    0.500    3.750    4.500    1.750    4.000 
#    0.000    5.000    0.000    0.000    0.000    0.000 
#    0.000    0.000    0.000    0.000    0.000    0.000 
#
# Total GULP energy -89358.491603 kJ/mol
# GULP energy per Si atom -5584.905725 kJ/mol
# Density = 2.461897 g / cm^3
# Si number density = 24.675135 Si / 1000 Ang^3
#
#
#
# Elastic Constant Matrix: (Units=GPa)
#
#
# Indices 1 2 3 4 5 6 
#
# 1 88.7939 22.3045 17.1882 -13.6353 6.5043 -8.5357
# 2 22.3045 94.8679 -1.5774 -10.4100 -1.1365 -1.2248
# 3 17.1882 -1.5774 49.8265 -19.1597 -2.1816 -3.7986
# 4 -13.6353 -10.4100 -19.1597 37.2022 -3.5877 -1.2606
# 5 6.5043 -1.1365 -2.1816 -3.5877 33.9565 -1.4038
# 6 -8.5357 -1.2248 -3.7986 -1.2606 -1.4038 64.0909
#
#
#
# Elastic Compliance Matrix: (Units=1/GPa)
#
#
# Indices 1 2 3 4 5 6 
#
# 1 0.013420 -0.003041 -0.004050 0.001773 -0.002685 0.001465
# 2 -0.003041 0.011750 0.002985 0.003867 0.001581 0.000107
# 3 -0.004050 0.002985 0.027157 0.013787 0.004139 0.001489
# 4 0.001773 0.003867 0.013787 0.036220 0.004583 0.001940
# 5 -0.002685 0.001581 0.004139 0.004583 0.030795 0.000683
# 6 0.001465 0.000107 0.001489 0.001940 0.000683 0.015941
#
#
# Mechanical properties :
#
#
# Convention : Reuss Voigt Hill
#
# Bulk Modulus (GPa) = 22.66739 34.36878 28.51808
# Shear Modulus (GPa) = 31.60554 40.08813 35.84683
#
# Velocity S-wave (km/s) = 3.58280 4.03505 3.81563
# Velocity P-wave (km/s) = 5.13045 5.97223 5.56728
#
# Compressibility (1/GPa) = 0.04411624
#
# Stress axis : x y z
#
# Youngs Moduli (GPa) = 74.51802 85.10448 36.82231
#
# Poissons Ratio (x) = 0.25882 0.14912
# Poissons Ratio (y) = 0.22662 -0.10993
# Poissons Ratio (z) = 0.30178 -0.25407
#
# Static dielectric constant tensor:
#      x y z
#    x 1.980470 0.042250 -0.032500 
#    y 0.042250 2.227160 -0.191540 
#    z -0.032500 -0.191540 2.123770 
# 
# From -- ./inp_files/48827.got.cif
#   From: 2010.05.17/outbox.cif.g08.bks.cpg/sg2_25_cif.got.tgz:48827.got - 2010.06.03 11:33:40.
