data_PCOD9034527
_publ_section_title
;
Structure prediction by ZEFSAII (Michael W. Deem and Ramdas Pophale) SiO2 
 PCOD9034527
Probable space group: P -1
;
_chemical_formula_sum "Si O2"
_cell_formula_units_Z 13
_cell_length_a 20.625930
_cell_length_b 6.989655
_cell_length_c 11.614974
_cell_angle_alpha 61.052757
_cell_angle_beta 154.768102
_cell_angle_gamma 131.866969
_cell_volume 492.322716
_symmetry_space_group_name_H-M "P -1"
_symmetry_group_IT_number 2
_symmetry_cell_setting 'triclinic'
loop_
_space_group_symop_operation_xyz
x,y,z
-x,-y,-z
loop_
_atom_site_type_symbol
_atom_site_label
_atom_site_fract_x
_atom_site_fract_y
_atom_site_fract_z
Si Si1 0.500000 0.500000 0.500000
Si Si2 0.796261 0.910638 0.669214
Si Si3 0.424696 0.896096 0.253953
Si Si4 0.578703 0.724449 0.158873
Si Si5 0.742485 0.323353 0.186132
Si Si6 0.033869 0.794128 0.670707
Si Si7 0.832691 0.405882 0.665299
O O1 0.665678 0.747704 0.615600
O O2 0.473020 0.728537 0.457431
O O3 0.712613 0.740862 0.467304
O O4 0.816214 0.188830 0.610999
O O5 0.000000 0.000000 0.000000
O O6 0.617791 0.195646 0.436792
O O7 0.324858 0.668505 0.052002
O O8 0.252917 0.908344 0.009670
O O9 0.915412 0.665684 0.637256
O O10 0.694051 0.025388 0.199776
O O11 0.500000 0.500000 0.000000
O O12 0.404488 0.677879 0.964897
O O13 0.946347 0.560927 0.498455
O O14 0.000000 0.000000 0.500000
O O15 0.000000 0.500000 0.000000
#
# Coordination Sequence:
#
# PCOD9034527 Si02
#       7
#     1   2   2   2   2   2   2
#     4  10  22  44  82 112 152 216 272 336 436 488
#     4  11  23  47  76 113 157 210 275 348 415 511
#     4  11  25  50  80 111 170 215 270 365 414 506
#     4  11  24  46  84 114 160 223 276 344 433 505
#     4  11  23  50  73 113 166 206 281 343 416 507
#     4  12  28  48  79 122 164 223 284 345 425 512
#     4  11  25  51  75 112 165 217 277 344 428 510
#
# _framework density 26.405445
#
# number of rings (size 3 to 8) (size 9 to 14) (size 15 to 20)
#    0.000    0.923    4.615    2.308    2.154    6.154 
#    0.000    0.000    0.000    0.000    0.000    0.000 
#    0.000    0.000    0.000    0.000    0.000    0.000 
#
# Total GULP energy -72583.222684 kJ/mol
# GULP energy per Si atom -5583.324822 kJ/mol
# Density = 2.634534 g / cm^3
# Si number density = 26.405445 Si / 1000 Ang^3
#
#
#
# Elastic Constant Matrix: (Units=GPa)
#
#
# Indices 1 2 3 4 5 6 
#
# 1 111.1905 35.3529 55.4983 13.2785 0.4767 -1.6762
# 2 35.3529 149.6527 39.8828 5.9898 7.2535 0.1142
# 3 55.4983 39.8828 209.4882 16.2513 7.2955 -3.6894
# 4 13.2785 5.9898 16.2513 35.7456 -20.5841 -6.5673
# 5 0.4767 7.2535 7.2955 -20.5841 51.0657 11.4287
# 6 -1.6762 0.1142 -3.6894 -6.5673 11.4287 39.6853
#
#
#
# Elastic Compliance Matrix: (Units=1/GPa)
#
#
# Indices 1 2 3 4 5 6 
#
# 1 0.011126 -0.001842 -0.002318 -0.003245 -0.000809 -0.000044
# 2 -0.001842 0.007434 -0.000808 -0.000942 -0.001314 0.000048
# 3 -0.002318 -0.000808 0.005821 -0.002631 -0.001879 0.000551
# 4 -0.003245 -0.000942 -0.002631 0.040281 0.016429 0.001556
# 5 -0.000809 -0.001314 -0.001879 0.016429 0.027903 -0.005522
# 6 -0.000044 0.000048 0.000551 0.001556 -0.005522 0.027095
#
#
# Mechanical properties :
#
#
# Convention : Reuss Voigt Hill
#
# Bulk Modulus (GPa) = 69.22144 81.31106 75.26625
# Shear Modulus (GPa) = 37.19964 47.93914 42.56939
#
# Velocity S-wave (km/s) = 3.75745 4.26549 4.01951
# Velocity P-wave (km/s) = 6.71538 7.42424 7.07869
#
# Compressibility (1/GPa) = 0.01444639
#
# Stress axis : x y z
#
# Youngs Moduli (GPa) = 89.87694 134.52108 171.80381
#
# Poissons Ratio (x) = 0.24773 0.39822
# Poissons Ratio (y) = 0.16551 0.13877
# Poissons Ratio (z) = 0.20833 0.10865
#
# Static dielectric constant tensor:
#      x y z
#    x 2.049370 0.006530 -0.113800 
#    y 0.006530 2.276060 -0.345290 
#    z -0.113800 -0.345290 2.676990 
# 
# From -- ./inp_files/133637.got.cif
#   From: 2010.05.17/outbox.cif.g08.bks.cpg/sg2_67_cif.got.tgz:133637.got - 2010.06.03 11:33:40.
