data_PCOD9034722
_publ_section_title
;
Structure prediction by ZEFSAII (Michael W. Deem and Ramdas Pophale) SiO2 
 PCOD9034722
Probable space group: P -1
;
_chemical_formula_sum "Si O2"
_cell_formula_units_Z 14
_cell_length_a 5.118081
_cell_length_b 11.978613
_cell_length_c 11.530916
_cell_angle_alpha 49.331668
_cell_angle_beta 89.322440
_cell_angle_gamma 83.018392
_cell_volume 530.091892
_symmetry_space_group_name_H-M "P -1"
_symmetry_group_IT_number 2
_symmetry_cell_setting 'triclinic'
loop_
_space_group_symop_operation_xyz
x,y,z
-x,-y,-z
loop_
_atom_site_type_symbol
_atom_site_label
_atom_site_fract_x
_atom_site_fract_y
_atom_site_fract_z
Si Si1 0.972809 0.372371 0.229462
Si Si2 0.428815 0.521916 0.157640
Si Si3 0.985655 0.174621 0.863402
Si Si4 0.169487 0.407117 0.455675
Si Si5 0.765327 0.948835 0.603975
Si Si6 0.516540 0.807242 0.016512
Si Si7 0.596354 0.128280 0.708854
O O1 0.660214 0.392636 0.200164
O O2 0.149726 0.502781 0.115657
O O3 0.992577 0.364912 0.377429
O O4 0.139430 0.226778 0.270686
O O5 0.370611 0.493277 0.317309
O O6 0.570911 0.665418 0.030237
O O7 0.775168 0.225679 0.929355
O O8 0.818337 0.199755 0.730138
O O9 0.262661 0.222290 0.863538
O O10 0.000000 0.000000 0.000000
O O11 0.353644 0.256541 0.597846
O O12 0.000000 0.500000 0.500000
O O13 0.500000 0.000000 0.500000
O O14 0.733484 0.042959 0.656775
O O15 0.000000 0.000000 0.500000
O O16 0.494631 0.019434 0.130186
#
# Coordination Sequence:
#
# PCOD9034722 Si02
#       7
#     2   2   2   2   2   2   2
#     4  10  22  45  67  95 143 186 225 291 355 406
#     4  10  23  45  66  96 145 186 225 290 364 410
#     4  10  23  42  65 100 143 178 228 294 354 418
#     4  10  24  44  69 103 145 182 233 286 366 423
#     4  12  24  45  71 103 144 186 241 297 346 414
#     4  11  24  46  69 102 143 186 232 295 354 431
#     4  11  24  46  74 107 139 191 243 290 355 426
#
# _framework density 26.410513999999999
#
# number of rings (size 3 to 8) (size 9 to 14) (size 15 to 20)
#    0.857    0.571    1.429    4.286    2.000    5.143 
#   10.286    2.143    0.000    0.000    0.000    0.000 
#    0.000    0.000    0.000    0.000    0.000    0.000 
#
# Total GULP energy -78069.340678 kJ/mol
# GULP energy per Si atom -5576.381477 kJ/mol
# Density = 2.635040 g / cm^3
# Si number density = 26.410514 Si / 1000 Ang^3
#
#
#
# Elastic Constant Matrix: (Units=GPa)
#
#
# Indices 1 2 3 4 5 6 
#
# 1 145.6919 41.3795 31.8424 -22.3954 -5.3773 -13.3435
# 2 41.3795 136.2149 39.1035 -19.3491 -16.8655 -17.0223
# 3 31.8424 39.1035 74.9498 -8.5279 -21.1578 -8.0621
# 4 -22.3954 -19.3491 -8.5279 47.6943 -4.9445 -10.4773
# 5 -5.3773 -16.8655 -21.1578 -4.9445 31.6158 -0.6240
# 6 -13.3435 -17.0223 -8.0621 -10.4773 -0.6240 54.4229
#
#
#
# Elastic Compliance Matrix: (Units=1/GPa)
#
#
# Indices 1 2 3 4 5 6 
#
# 1 0.008432 -0.001144 -0.002436 0.003480 -0.000222 0.002016
# 2 -0.001144 0.009976 -0.002769 0.004147 0.003987 0.003274
# 3 -0.002436 -0.002769 0.019727 0.002961 0.011816 0.002164
# 4 0.003480 0.004147 0.002961 0.027528 0.009249 0.007995
# 5 -0.000222 0.003987 0.011816 0.009249 0.043176 0.005219
# 6 0.002016 0.003274 0.002164 0.007995 0.005219 0.021813
#
#
# Mechanical properties :
#
#
# Convention : Reuss Voigt Hill
#
# Bulk Modulus (GPa) = 39.31069 64.61192 51.96131
# Shear Modulus (GPa) = 32.93221 43.04869 37.99045
#
# Velocity S-wave (km/s) = 3.53503 4.04168 3.79682
# Velocity P-wave (km/s) = 5.61949 6.80425 6.24005
#
# Compressibility (1/GPa) = 0.02543837
#
# Stress axis : x y z
#
# Youngs Moduli (GPa) = 118.59097 100.24502 50.69191
#
# Poissons Ratio (x) = 0.11463 0.12346
# Poissons Ratio (y) = 0.13561 0.14037
# Poissons Ratio (z) = 0.28884 0.27760
#
# Static dielectric constant tensor:
#      x y z
#    x 2.041100 -0.206800 0.016960 
#    y -0.206800 1.247820 0.324090 
#    z 0.016960 0.324090 2.157040 
# 
# From -- ./inp_files/363870.got.cif
#   From: 2010.05.17/outbox.cif.g08.bks.cpg/sg2_182_cif.got.tgz:363870.got - 2010.06.03 11:33:40.
