data_PCOD9034134
_publ_section_title
;
Structure prediction by ZEFSAII (Michael W. Deem and Ramdas Pophale) SiO2 
 PCOD9034134
Probable space group: P -1
;
_chemical_formula_sum "Si O2"
_cell_formula_units_Z 16
_cell_length_a 8.253838
_cell_length_b 15.355825
_cell_length_c 10.311067
_cell_angle_alpha 119.790450
_cell_angle_beta 120.668527
_cell_angle_gamma 108.201402
_cell_volume 636.362584
_symmetry_space_group_name_H-M "P -1"
_symmetry_group_IT_number 2
_symmetry_cell_setting 'triclinic'
loop_
_space_group_symop_operation_xyz
x,y,z
-x,-y,-z
loop_
_atom_site_type_symbol
_atom_site_label
_atom_site_fract_x
_atom_site_fract_y
_atom_site_fract_z
Si Si1 0.961049 0.135807 0.541075
Si Si2 0.173354 0.234236 0.422238
Si Si3 0.376711 0.906195 0.033469
Si Si4 0.842194 0.420541 0.053134
Si Si5 0.658434 0.548472 0.965758
Si Si6 0.465863 0.888746 0.318497
Si Si7 0.332326 0.658372 0.786995
Si Si8 0.471395 0.609549 0.553728
O O1 0.139734 0.180123 0.516752
O O2 0.125390 0.271418 0.811862
O O3 0.767226 0.983356 0.437104
O O4 0.681897 0.080803 0.321945
O O5 0.317933 0.251548 0.362639
O O6 0.850108 0.126707 0.166487
O O7 0.390173 0.417781 0.665352
O O8 0.408209 0.806770 0.915756
O O9 0.252446 0.833920 0.072744
O O10 0.660146 0.363206 0.071899
O O11 0.154429 0.510502 0.295010
O O12 0.677015 0.265874 0.794805
O O13 0.167441 0.484336 0.966557
O O14 0.500000 0.500000 0.000000
O O15 0.500000 0.000000 0.500000
O O16 0.507161 0.670292 0.757236
O O17 0.000000 0.500000 0.500000
O O18 0.500000 0.500000 0.500000
#
# Coordination Sequence:
#
# PCOD9034134 Si02
#       8
#     2   2   2   2   2   2   2   2
#     4   9  22  41  71  96 133 187 216 283 358 393
#     4  11  22  42  60 104 136 171 235 272 340 413
#     4   9  20  41  73  93 129 185 221 282 346 403
#     4  10  22  44  71  96 131 190 233 272 345 420
#     4  10  24  41  71  98 134 184 228 279 336 414
#     4   9  20  41  72  99 132 175 238 277 350 406
#     4   9  19  37  66  96 125 173 235 271 341 396
#     4  11  24  36  67 100 139 171 233 295 334 394
#
# _framework density 25.142900000000001
#
# number of rings (size 3 to 8) (size 9 to 14) (size 15 to 20)
#    0.750    1.500    0.000    2.625   12.250    0.500 
#    0.000    3.125   11.000    0.000    0.000    0.000 
#    0.000    0.000    0.000    0.000    0.000    0.000 
#
# Total GULP energy -89130.552469 kJ/mol
# GULP energy per Si atom -5570.659529 kJ/mol
# Density = 2.508567 g / cm^3
# Si number density = 25.142900 Si / 1000 Ang^3
#
#
#
# Elastic Constant Matrix: (Units=GPa)
#
#
# Indices 1 2 3 4 5 6 
#
# 1 81.8719 25.7520 19.1501 -14.0028 -5.5040 10.9446
# 2 25.7520 117.4706 5.0270 -2.1018 -7.4998 24.1346
# 3 19.1501 5.0270 115.9853 -5.0406 1.0611 -5.4852
# 4 -14.0028 -2.1018 -5.0406 29.9244 9.9186 -0.8485
# 5 -5.5040 -7.4998 1.0611 9.9186 36.4825 -9.9903
# 6 10.9446 24.1346 -5.4852 -0.8485 -9.9903 37.6266
#
#
#
# Elastic Compliance Matrix: (Units=1/GPa)
#
#
# Indices 1 2 3 4 5 6 
#
# 1 0.015024 -0.002480 -0.002226 0.006678 -0.000866 -0.003183
# 2 -0.002480 0.010282 -0.000350 -0.000783 0.000362 -0.005846
# 3 -0.002226 -0.000350 0.009135 0.000617 -0.000252 0.002150
# 4 0.006678 -0.000783 0.000617 0.040145 -0.011008 -0.003368
# 5 -0.000866 0.000362 -0.000252 -0.011008 0.032656 0.008405
# 6 -0.003183 -0.005846 0.002150 -0.003368 0.008405 0.033722
#
#
# Mechanical properties :
#
#
# Convention : Reuss Voigt Hill
#
# Bulk Modulus (GPa) = 41.10178 46.13177 43.61678
# Shear Modulus (GPa) = 31.41002 38.49997 34.95500
#
# Velocity S-wave (km/s) = 3.53832 3.91736 3.73266
# Velocity P-wave (km/s) = 5.75115 6.23286 5.99685
#
# Compressibility (1/GPa) = 0.02432985
#
# Stress axis : x y z
#
# Youngs Moduli (GPa) = 66.55846 97.26083 109.46614
#
# Poissons Ratio (x) = 0.24123 0.24362
# Poissons Ratio (y) = 0.16508 0.03831
# Poissons Ratio (z) = 0.14813 0.03403
#
# Static dielectric constant tensor:
#      x y z
#    x 2.111990 0.002890 0.043320 
#    y 0.002890 2.132250 -0.031710 
#    z 0.043320 -0.031710 2.114070 
# 
# From -- ./inp_files/407037.got.cif
#   From: 2010.05.17/outbox.cif.g08.bks.cpg/sg2_204_cif.got.tgz:407037.got - 2010.06.03 11:33:40.
