data_PCOD9034909
_publ_section_title
;
Structure prediction by ZEFSAII (Michael W. Deem and Ramdas Pophale) SiO2 
 PCOD9034909
Probable space group: P -1
;
_chemical_formula_sum "Si O2"
_cell_formula_units_Z 16
_cell_length_a 15.151025
_cell_length_b 5.597489
_cell_length_c 15.099192
_cell_angle_alpha 82.543884
_cell_angle_beta 147.024180
_cell_angle_gamma 92.083481
_cell_volume 684.813596
_symmetry_space_group_name_H-M "P -1"
_symmetry_group_IT_number 2
_symmetry_cell_setting 'triclinic'
loop_
_space_group_symop_operation_xyz
x,y,z
-x,-y,-z
loop_
_atom_site_type_symbol
_atom_site_label
_atom_site_fract_x
_atom_site_fract_y
_atom_site_fract_z
Si Si1 0.263946 0.364741 0.475333
Si Si2 0.076433 0.132705 0.464389
Si Si3 0.602759 0.153887 0.843922
Si Si4 0.501855 0.213084 0.083398
Si Si5 0.711407 0.336254 0.099658
Si Si6 0.794557 0.401716 0.409234
Si Si7 0.181356 0.453119 0.200267
Si Si8 0.805249 0.023478 0.858944
O O1 0.458180 0.288645 0.654762
O O2 0.212288 0.584642 0.490376
O O3 0.191671 0.416701 0.315675
O O4 0.182027 0.149403 0.462817
O O5 0.893544 0.228381 0.279930
O O6 0.145445 0.338915 0.572859
O O7 0.105779 0.850618 0.528491
O O8 0.745669 0.012615 0.910698
O O9 0.518036 0.987565 0.850431
O O10 0.683244 0.324200 0.971793
O O11 0.597551 0.180922 0.071784
O O12 0.615722 0.390403 0.220667
O O13 0.330957 0.384619 0.919572
O O14 0.258059 0.699277 0.234882
O O15 0.260308 0.198975 0.235875
O O16 0.000000 0.500000 0.000000
O O17 0.000000 0.000000 0.000000
#
# Coordination Sequence:
#
# PCOD9034909 Si02
#       8
#     2   2   2   2   2   2   2   2
#     4  10  24  43  73 102 143 191 239 289 368 429
#     4  10  24  41  71 106 135 193 239 295 352 420
#     4  12  25  46  73 101 148 196 239 295 372 432
#     4  11  24  47  70 105 151 190 247 295 363 431
#     4  11  26  42  72 109 143 195 245 303 353 430
#     4  10  22  45  69 103 145 188 242 292 356 430
#     4  10  24  43  68 101 140 176 237 299 350 425
#     4  10  26  43  70 102 139 183 236 300 355 425
#
# _framework density 23.364018999999999
#
# number of rings (size 3 to 8) (size 9 to 14) (size 15 to 20)
#    0.750    0.750    2.500    0.375    8.750    4.000 
#    0.000    0.000    0.000    0.000    0.000    0.000 
#    0.000    0.000    0.000    0.000    0.000    0.000 
#
# Total GULP energy -89214.775053 kJ/mol
# GULP energy per Si atom -5575.923441 kJ/mol
# Density = 2.331084 g / cm^3
# Si number density = 23.364019 Si / 1000 Ang^3
#
#
#
# Elastic Constant Matrix: (Units=GPa)
#
#
# Indices 1 2 3 4 5 6 
#
# 1 102.2169 29.2885 55.2422 13.5328 -7.8977 -12.4997
# 2 29.2885 134.3662 14.3178 -10.7949 -3.8892 -8.5224
# 3 55.2422 14.3178 109.5904 -3.2631 -13.6028 -17.3324
# 4 13.5328 -10.7949 -3.2631 22.8077 -12.2892 -5.2758
# 5 -7.8977 -3.8892 -13.6028 -12.2892 45.9575 -2.3759
# 6 -12.4997 -8.5224 -17.3324 -5.2758 -2.3759 38.6214
#
#
#
# Elastic Compliance Matrix: (Units=1/GPa)
#
#
# Indices 1 2 3 4 5 6 
#
# 1 0.018262 -0.004632 -0.010152 -0.017813 -0.005147 -0.002418
# 2 -0.004632 0.009326 0.002377 0.010185 0.003588 0.003238
# 3 -0.010152 0.002377 0.016507 0.015405 0.007836 0.007233
# 4 -0.017813 0.010185 0.015405 0.077967 0.024012 0.015524
# 5 -0.005147 0.003588 0.007836 0.024012 0.030321 0.007788
# 6 -0.002418 0.003238 0.007233 0.015524 0.007788 0.031670
#
#
# Mechanical properties :
#
#
# Convention : Reuss Voigt Hill
#
# Bulk Modulus (GPa) = 51.86393 60.43004 56.14699
# Shear Modulus (GPa) = 23.22407 37.96566 30.59486
#
# Velocity S-wave (km/s) = 3.15621 4.03546 3.62261
# Velocity P-wave (km/s) = 5.96059 6.90173 6.44835
#
# Compressibility (1/GPa) = 0.01928122
#
# Stress axis : x y z
#
# Youngs Moduli (GPa) = 54.75911 107.22526 60.58067
#
# Poissons Ratio (x) = 0.49669 0.61500
# Poissons Ratio (y) = 0.25366 -0.14401
# Poissons Ratio (z) = 0.55590 -0.25489
#
# Static dielectric constant tensor:
#      x y z
#    x 1.917380 -0.004510 0.030820 
#    y -0.004510 1.995410 -0.005830 
#    z 0.030820 -0.005830 1.842980 
# 
# From -- ./inp_files/525710.got.cif
#   From: 2010.05.17/outbox.cif.g08.bks.cpg/sg2_263_cif.got.tgz:525710.got - 2010.06.03 11:33:40.
