data_PCOD9034891
_publ_section_title
;
Structure prediction by ZEFSAII (Michael W. Deem and Ramdas Pophale) SiO2 
 PCOD9034891
Probable space group: P -1
;
_chemical_formula_sum "Si O2"
_cell_formula_units_Z 13
_cell_length_a 19.778007
_cell_length_b 7.162055
_cell_length_c 8.576176
_cell_angle_alpha 102.108383
_cell_angle_beta 139.348732
_cell_angle_gamma 55.046465
_cell_volume 588.299400
_symmetry_space_group_name_H-M "P -1"
_symmetry_group_IT_number 2
_symmetry_cell_setting 'triclinic'
loop_
_space_group_symop_operation_xyz
x,y,z
-x,-y,-z
loop_
_atom_site_type_symbol
_atom_site_label
_atom_site_fract_x
_atom_site_fract_y
_atom_site_fract_z
Si Si1 0.454968 0.214642 0.664817
Si Si2 0.270107 0.153505 0.725760
Si Si3 0.000000 0.000000 0.000000
Si Si4 0.302004 0.763697 0.479554
Si Si5 0.858952 0.919027 0.250749
Si Si6 0.627159 0.077038 0.639612
Si Si7 0.131433 0.703247 0.510350
O O1 0.379457 0.492183 0.642531
O O2 0.509187 0.199576 0.583055
O O3 0.362729 0.138805 0.466932
O O4 0.586203 0.005883 0.960730
O O5 0.156875 0.217828 0.664218
O O6 0.230600 0.402912 0.626956
O O7 0.278955 0.970727 0.587586
O O8 0.153470 0.872583 0.182223
O O9 0.071275 0.839177 0.262430
O O10 0.390336 0.740687 0.487640
O O11 0.007369 0.782807 0.418794
O O12 0.806940 0.181602 0.279680
O O13 0.762977 0.961787 0.952418
#
# Coordination Sequence:
#
# PCOD9034891 Si02
#       7
#     2   2   1   2   2   2   2
#     4  10  25  46  68 102 135 180 235 273 336 411
#     4  11  25  43  70 103 134 183 224 282 342 402
#     4  12  26  46  68 106 134 182 224 288 340 408
#     4  12  25  44  68 102 142 178 225 283 340 399
#     4  10  22  45  69 102 135 181 223 287 335 398
#     4  10  23  44  71  99 132 187 222 281 337 397
#     4  11  24  45  69 101 139 176 233 274 341 411
#
# _framework density 22.097591999999999
#
# number of rings (size 3 to 8) (size 9 to 14) (size 15 to 20)
#    0.000    1.231    3.077    1.385    2.154    8.615 
#    0.000    0.000    0.000    0.000    0.000    0.000 
#    0.000    0.000    0.000    0.000    0.000    0.000 
#
# Total GULP energy -72421.333527 kJ/mol
# GULP energy per Si atom -5570.871810 kJ/mol
# Density = 2.204730 g / cm^3
# Si number density = 22.097592 Si / 1000 Ang^3
#
#
#
# Elastic Constant Matrix: (Units=GPa)
#
#
# Indices 1 2 3 4 5 6 
#
# 1 40.1166 -70.8897 -22.8848 -60.7806 47.2449 2.0036
# 2 -70.8897 -60.9927 -65.4828 -138.0658 127.1258 -22.6124
# 3 -22.8848 -65.4828 8.2937 -80.3244 75.5635 -6.9060
# 4 -60.7806 -138.0658 -80.3244 -54.3686 87.6109 -18.3030
# 5 47.2449 127.1258 75.5635 87.6109 -50.7041 22.9108
# 6 2.0036 -22.6124 -6.9060 -18.3030 22.9108 25.2744
#
#
#
# Elastic Compliance Matrix: (Units=1/GPa)
#
#
# Indices 1 2 3 4 5 6 
#
# 1 0.016715 0.000412 -0.005550 0.000571 0.005953 -0.007456
# 2 0.000412 0.008454 -0.007257 -0.003206 0.004742 -0.001072
# 3 -0.005550 -0.007257 0.019421 -0.002139 0.000600 -0.002838
# 4 0.000571 -0.003206 -0.002139 0.014989 0.013147 -0.004560
# 5 0.005953 0.004742 0.000600 0.013147 0.019441 -0.004168
# 6 -0.007456 -0.001072 -0.002838 -0.004560 -0.004168 0.038898
#
#
# Mechanical properties :
#
#
# Convention : Reuss Voigt Hill
#
# Bulk Modulus (GPa) = 50.50241 -36.78856 6.85692
# Shear Modulus (GPa) = 33.48784 -6.18132 13.65326
#
# Velocity S-wave (km/s) = 3.89710 -1.67432 2.48838
# Velocity P-wave (km/s) = 6.56915 4.51909 3.37132
#
# Compressibility (1/GPa) = 0.01980104
#
# Stress axis : x y z
#
# Youngs Moduli (GPa) = 59.82656 118.28733 51.48989
#
# Poissons Ratio (x) = -0.04870 0.28575
# Poissons Ratio (y) = -0.02463 0.37365
# Poissons Ratio (z) = 0.33201 0.85838
#
# Static dielectric constant tensor:
#      x y z
#    x 1.868780 -0.011530 -0.003500 
#    y -0.011530 1.821320 0.002980 
#    z -0.003500 0.002980 1.748560 
# 
# From -- ./inp_files/25165.got.cif
#   From: 2010.05.17/outbox.cif.g08.bks.cpg/sg2_13_cif.got.tgz:25165.got - 2010.06.03 11:33:40.
