data_PCOD9034444
_publ_section_title
;
Structure prediction by ZEFSAII (Michael W. Deem and Ramdas Pophale) SiO2 
 PCOD9034444
Probable space group: P -1
;
_chemical_formula_sum "Si O2"
_cell_formula_units_Z 14
_cell_length_a 15.900972
_cell_length_b 15.447532
_cell_length_c 8.991996
_cell_angle_alpha 65.733820
_cell_angle_beta 131.346277
_cell_angle_gamma 153.884065
_cell_volume 608.955068
_symmetry_space_group_name_H-M "P -1"
_symmetry_group_IT_number 2
_symmetry_cell_setting 'triclinic'
loop_
_space_group_symop_operation_xyz
x,y,z
-x,-y,-z
loop_
_atom_site_type_symbol
_atom_site_label
_atom_site_fract_x
_atom_site_fract_y
_atom_site_fract_z
Si Si1 0.807065 0.512707 0.016444
Si Si2 0.685515 0.749642 0.252903
Si Si3 0.423591 0.207813 0.185725
Si Si4 0.159077 0.905795 0.355435
Si Si5 0.294379 0.742238 0.091159
Si Si6 0.155663 0.322834 0.557989
Si Si7 0.233297 0.903333 0.980020
O O1 0.534019 0.365446 0.820068
O O2 0.727518 0.341293 0.020805
O O3 0.988382 0.684081 0.964486
O O4 0.998309 0.689356 0.255009
O O5 0.630825 0.594460 0.292592
O O6 0.663725 0.780184 0.043437
O O7 0.000000 0.000000 0.500000
O O8 0.696846 0.461065 0.404052
O O9 0.205999 0.013892 0.197739
O O10 0.446593 0.129784 0.169124
O O11 0.980338 0.807521 0.350882
O O12 0.456899 0.107138 0.625578
O O13 0.337173 0.888280 0.034013
O O14 0.000000 0.500000 0.000000
O O15 0.915079 0.146566 0.280032
#
# Coordination Sequence:
#
# PCOD9034444 Si02
#       7
#     2   2   2   2   2   2   2
#     4  10  23  45  68 102 136 181 226 280 342 404
#     4  12  24  45  71  99 143 177 227 286 333 406
#     4  11  24  45  66 101 136 177 228 275 337 407
#     4  11  25  44  71 101 140 178 227 278 343 402
#     4  10  22  44  74  99 137 179 226 284 338 400
#     4  12  25  45  69 102 140 181 223 282 335 405
#     4  10  24  45  69 100 137 178 230 278 341 401
#
# _framework density 22.990202
#
# number of rings (size 3 to 8) (size 9 to 14) (size 15 to 20)
#    0.000    1.143    2.857    3.000    0.000    8.000 
#    2.571    1.429    0.000    0.000    0.000    0.000 
#    0.000    0.000    0.000    0.000    0.000    0.000 
#
# Total GULP energy -78290.545277 kJ/mol
# GULP energy per Si atom -5592.181805 kJ/mol
# Density = 2.293788 g / cm^3
# Si number density = 22.990202 Si / 1000 Ang^3
#
#
#
# Elastic Constant Matrix: (Units=GPa)
#
#
# Indices 1 2 3 4 5 6 
#
# 1 144.4849 38.9726 2.9562 9.7785 9.0710 -14.3630
# 2 38.9726 75.3833 -2.4657 10.5603 2.8780 -14.2806
# 3 2.9562 -2.4657 34.5719 23.1620 1.8647 -8.6374
# 4 9.7785 10.5603 23.1620 46.8767 -3.0337 -4.3584
# 5 9.0710 2.8780 1.8647 -3.0337 35.2869 0.8251
# 6 -14.3630 -14.2806 -8.6374 -4.3584 0.8251 36.0574
#
#
#
# Elastic Compliance Matrix: (Units=1/GPa)
#
#
# Indices 1 2 3 4 5 6 
#
# 1 0.008290 -0.003726 0.000227 -0.000961 -0.001964 0.001810
# 2 -0.003726 0.017659 0.007646 -0.006469 -0.001597 0.006596
# 3 0.000227 0.007646 0.050045 -0.025746 -0.005824 0.012128
# 4 -0.000961 -0.006469 -0.025746 0.035597 0.005311 -0.004931
# 5 -0.001964 -0.001597 -0.005824 0.005311 0.029805 -0.002850
# 6 0.001810 0.006596 0.012128 -0.004931 -0.002850 0.033441
#
#
# Mechanical properties :
#
#
# Convention : Reuss Voigt Hill
#
# Bulk Modulus (GPa) = 11.86410 37.04070 24.45240
# Shear Modulus (GPa) = 25.68883 37.97599 31.83241
#
# Velocity S-wave (km/s) = 3.34635 4.06868 3.72507
# Velocity P-wave (km/s) = 4.48358 6.18213 5.40006
#
# Compressibility (1/GPa) = 0.08428789
#
# Stress axis : x y z
#
# Youngs Moduli (GPa) = 120.63116 56.62984 19.98220
#
# Poissons Ratio (x) = 0.21099 -0.00454
# Poissons Ratio (y) = 0.44945 -0.15278
# Poissons Ratio (z) = -0.02744 -0.43299
#
# Static dielectric constant tensor:
#      x y z
#    x 1.879020 -0.045250 -0.033040 
#    y -0.045250 1.915690 0.022390 
#    z -0.033040 0.022390 1.793440 
# 
# From -- ./inp_files/315003.got.cif
#   From: 2010.05.17/outbox.cif.g08.bks.cpg/sg2_158_cif.got.tgz:315003.got - 2010.06.03 11:33:40.
