data_PCOD9034956
_publ_section_title
;
Structure prediction by ZEFSAII (Michael W. Deem and Ramdas Pophale) SiO2 
 PCOD9034956
Probable space group: P -1
;
_chemical_formula_sum "Si O2"
_cell_formula_units_Z 16
_cell_length_a 7.371606
_cell_length_b 11.585431
_cell_length_c 9.662909
_cell_angle_alpha 78.396790
_cell_angle_beta 90.085988
_cell_angle_gamma 56.177519
_cell_volume 665.015159
_symmetry_space_group_name_H-M "P -1"
_symmetry_group_IT_number 2
_symmetry_cell_setting 'triclinic'
loop_
_space_group_symop_operation_xyz
x,y,z
-x,-y,-z
loop_
_atom_site_type_symbol
_atom_site_label
_atom_site_fract_x
_atom_site_fract_y
_atom_site_fract_z
Si Si1 0.432190 0.980379 0.354077
Si Si2 0.066887 0.809233 0.295138
Si Si3 0.660103 0.109714 0.201164
Si Si4 0.441271 0.313331 0.662512
Si Si5 0.836637 0.497517 0.610180
Si Si6 0.354999 0.424569 0.126517
Si Si7 0.745036 0.459043 0.177920
Si Si8 0.944675 0.161720 0.381746
O O1 0.576096 0.815051 0.352153
O O2 0.500000 0.000000 0.500000
O O3 0.485824 0.071180 0.236984
O O4 0.177618 0.039882 0.346223
O O5 0.309863 0.761732 0.268679
O O6 0.074788 0.665035 0.314763
O O7 0.040999 0.838494 0.453745
O O8 0.875226 0.957487 0.186767
O O9 0.522193 0.267194 0.095853
O O10 0.755407 0.144578 0.328514
O O11 0.387702 0.414172 0.504091
O O12 0.284910 0.415438 0.759172
O O13 0.769354 0.578593 0.737930
O O14 0.000000 0.500000 0.500000
O O15 0.510743 0.474958 0.164370
O O16 0.197256 0.530493 0.981085
O O17 0.898278 0.309047 0.289790
#
# Coordination Sequence:
#
# PCOD9034956 Si02
#       8
#     2   2   2   2   2   2   2   2
#     4  12  23  38  64  99 137 173 223 277 342 403
#     4  12  21  38  62  97 132 168 223 276 335 384
#     4  11  23  40  62  96 135 176 219 278 336 402
#     4  12  23  41  65 100 131 176 228 278 335 400
#     4  12  25  39  63 103 137 170 220 285 340 396
#     4  10  23  44  70  96 134 185 227 274 336 410
#     4  10  22  45  69  96 134 183 231 272 335 407
#     4  11  22  40  64  98 134 177 221 278 344 398
#
# _framework density 24.059602000000002
#
# number of rings (size 3 to 8) (size 9 to 14) (size 15 to 20)
#    0.000    0.750    5.000    4.500    1.750    0.000 
#    0.000    5.000    0.000    0.000    0.000    0.000 
#    0.000    0.000    0.000    0.000    0.000    0.000 
#
# Total GULP energy -89454.514462 kJ/mol
# GULP energy per Si atom -5590.907154 kJ/mol
# Density = 2.400484 g / cm^3
# Si number density = 24.059602 Si / 1000 Ang^3
#
#
#
# Elastic Constant Matrix: (Units=GPa)
#
#
# Indices 1 2 3 4 5 6 
#
# 1 71.9538 21.3645 6.4266 1.2666 -15.2351 4.7926
# 2 21.3645 155.1434 12.2002 1.8399 2.1558 18.5054
# 3 6.4266 12.2002 71.3414 -1.2124 -3.0910 -2.2085
# 4 1.2666 1.8399 -1.2124 21.8752 -0.6777 -1.2061
# 5 -15.2351 2.1558 -3.0910 -0.6777 14.8520 4.5438
# 6 4.7926 18.5054 -2.2085 -1.2061 4.5438 43.5772
#
#
#
# Elastic Compliance Matrix: (Units=1/GPa)
#
#
# Indices 1 2 3 4 5 6 
#
# 1 0.019400 -0.002526 -0.000510 -0.000466 0.021151 -0.003305
# 2 -0.002526 0.007249 -0.001241 -0.000771 -0.003154 -0.002556
# 3 -0.000510 -0.001241 0.014430 0.001068 0.002374 0.001096
# 4 -0.000466 -0.000771 0.001068 0.045996 0.001480 0.001551
# 5 0.021151 -0.003154 0.002374 0.001480 0.093275 -0.010551
# 6 -0.003305 -0.002556 0.001096 0.001551 -0.010551 0.025595
#
#
# Mechanical properties :
#
#
# Convention : Reuss Voigt Hill
#
# Bulk Modulus (GPa) = 30.74400 42.04680 36.39540
# Shear Modulus (GPa) = 22.18869 33.29070 27.73969
#
# Velocity S-wave (km/s) = 3.04013 3.72382 3.39921
# Velocity P-wave (km/s) = 5.01290 6.00026 5.52867
#
# Compressibility (1/GPa) = 0.03252667
#
# Stress axis : x y z
#
# Youngs Moduli (GPa) = 51.54665 137.95260 69.29922
#
# Poissons Ratio (x) = 0.34841 0.03531
# Poissons Ratio (y) = 0.13019 0.08600
# Poissons Ratio (z) = 0.02626 0.17120
#
# Static dielectric constant tensor:
#      x y z
#    x 2.014990 -0.025600 0.011270 
#    y -0.025600 1.949810 -0.017370 
#    z 0.011270 -0.017370 1.869120 
# 
# From -- ./inp_files/186634.got.cif
#   From: 2010.05.17/outbox.cif.g08.bks.cpg/sg2_94_cif.got.tgz:186634.got - 2010.06.03 11:33:40.
