data_PCOD9034070
_publ_section_title
;
Structure prediction by ZEFSAII (Michael W. Deem and Ramdas Pophale) SiO2 
 PCOD9034070
Probable space group: P -1
;
_chemical_formula_sum "Si O2"
_cell_formula_units_Z 15
_cell_length_a 13.295346
_cell_length_b 10.276944
_cell_length_c 16.423011
_cell_angle_alpha 42.400573
_cell_angle_beta 26.338954
_cell_angle_gamma 53.148043
_cell_volume 656.754175
_symmetry_space_group_name_H-M "P -1"
_symmetry_group_IT_number 2
_symmetry_cell_setting 'triclinic'
loop_
_space_group_symop_operation_xyz
x,y,z
-x,-y,-z
loop_
_atom_site_type_symbol
_atom_site_label
_atom_site_fract_x
_atom_site_fract_y
_atom_site_fract_z
Si Si1 0.971648 0.918095 0.275916
Si Si2 0.363970 0.890902 0.893727
Si Si3 0.631403 0.319907 0.495051
Si Si4 0.768527 0.017760 0.771725
Si Si5 0.059227 0.322553 0.294376
Si Si6 0.500000 0.500000 0.000000
Si Si7 0.458380 0.824848 0.678607
Si Si8 0.826550 0.311067 0.184219
O O1 0.711827 0.793151 0.531741
O O2 0.090299 0.950844 0.261360
O O3 0.952698 0.132648 0.156718
O O4 0.125141 0.827004 0.144485
O O5 0.523691 0.739013 0.872130
O O6 0.336055 0.883366 0.820067
O O7 0.481867 0.113813 0.733622
O O8 0.500000 0.500000 0.500000
O O9 0.677114 0.254515 0.400004
O O10 0.870689 0.388092 0.339808
O O11 0.887422 0.198803 0.544094
O O12 0.819905 0.825105 0.778353
O O13 0.500000 0.000000 0.000000
O O14 0.265337 0.474409 0.120270
O O15 0.313306 0.649663 0.811847
O O16 0.500000 0.000000 0.500000
O O17 0.000000 0.500000 0.000000
#
# Coordination Sequence:
#
# PCOD9034070 Si02
#       8
#     2   2   2   2   2   1   2   2
#     4  11  22  43  72 102 140 191 240 303 370 437
#     4  12  25  48  74 109 151 192 253 302 383 446
#     4  12  25  48  75 108 152 201 252 313 379 456
#     4  11  22  44  81 103 141 201 254 316 372 447
#     4  11  24  46  70 109 151 190 255 314 379 452
#     4  12  28  46  74 112 152 204 242 326 384 442
#     4  10  22  44  71 102 150 190 234 308 362 444
#     4  11  24  43  67 106 143 191 246 301 366 442
#
# _framework density 22.839596
#
# number of rings (size 3 to 8) (size 9 to 14) (size 15 to 20)
#    0.000    0.800    4.000    4.800    1.867    3.200 
#    0.000    7.333    0.000    0.000    0.000    0.000 
#    0.000    0.000    0.000    0.000    0.000    0.000 
#
# Total GULP energy -83590.473394 kJ/mol
# GULP energy per Si atom -5572.698226 kJ/mol
# Density = 2.278761 g / cm^3
# Si number density = 22.839596 Si / 1000 Ang^3
#
#
#
# Elastic Constant Matrix: (Units=GPa)
#
#
# Indices 1 2 3 4 5 6 
#
# 1 177.7721 42.4430 58.0782 10.0935 -42.7342 21.4078
# 2 42.4430 82.8474 34.3283 -6.3354 -2.6296 -8.3045
# 3 58.0782 34.3283 103.8795 14.4345 -22.5067 15.4878
# 4 10.0935 -6.3354 14.4345 35.1738 10.7267 7.3272
# 5 -42.7342 -2.6296 -22.5067 10.7267 49.9276 -2.2191
# 6 21.4078 -8.3045 15.4878 7.3272 -2.2191 39.5014
#
#
#
# Elastic Compliance Matrix: (Units=1/GPa)
#
#
# Indices 1 2 3 4 5 6 
#
# 1 0.010293 -0.005826 -0.000238 -0.005702 0.009393 -0.005124
# 2 -0.005826 0.019450 -0.007634 0.009411 -0.009070 0.007984
# 3 -0.000238 -0.007634 0.016270 -0.009401 0.008498 -0.005634
# 4 -0.005702 0.009411 -0.009401 0.040885 -0.017399 0.000194
# 5 0.009393 -0.009070 0.008498 -0.017399 0.034931 -0.005140
# 6 -0.005124 0.007984 -0.005634 0.000194 -0.005140 0.031656
#
#
# Mechanical properties :
#
#
# Convention : Reuss Voigt Hill
#
# Bulk Modulus (GPa) = 53.71205 70.46642 62.08924
# Shear Modulus (GPa) = 26.72579 40.23051 33.47815
#
# Velocity S-wave (km/s) = 3.42446 4.20150 3.83272
# Velocity P-wave (km/s) = 6.26131 7.37947 6.84327
#
# Compressibility (1/GPa) = 0.01861780
#
# Stress axis : x y z
#
# Youngs Moduli (GPa) = 97.15671 51.41346 61.46442
#
# Poissons Ratio (x) = 0.29954 0.01461
# Poissons Ratio (y) = 0.56604 0.46919
# Poissons Ratio (z) = 0.02310 0.39247
#
# Static dielectric constant tensor:
#      x y z
#    x 1.932240 -0.011420 0.003730 
#    y -0.011420 1.869410 -0.067200 
#    z 0.003730 -0.067200 2.002050 
# 
# From -- ./inp_files/514991.got.cif
#   From: 2010.05.17/outbox.cif.g08.bks.cpg/sg2_258_cif.got.tgz:514991.got - 2010.06.03 11:33:40.
