data_PCOD9034036
_publ_section_title
;
Structure prediction by ZEFSAII (Michael W. Deem and Ramdas Pophale) SiO2 
 PCOD9034036
Probable space group: P -1
;
_chemical_formula_sum "Si O2"
_cell_formula_units_Z 16
_cell_length_a 13.714524
_cell_length_b 14.762682
_cell_length_c 7.688534
_cell_angle_alpha 64.665556
_cell_angle_beta 66.218609
_cell_angle_gamma 30.400555
_cell_volume 709.977714
_symmetry_space_group_name_H-M "P -1"
_symmetry_group_IT_number 2
_symmetry_cell_setting 'triclinic'
loop_
_space_group_symop_operation_xyz
x,y,z
-x,-y,-z
loop_
_atom_site_type_symbol
_atom_site_label
_atom_site_fract_x
_atom_site_fract_y
_atom_site_fract_z
Si Si1 0.596074 0.208888 0.983711
Si Si2 0.768737 0.175493 0.227077
Si Si3 0.216935 0.605373 0.019345
Si Si4 0.853466 0.143161 0.641799
Si Si5 0.389920 0.981636 0.618797
Si Si6 0.722294 0.651361 0.439129
Si Si7 0.046786 0.342119 0.723921
Si Si8 0.361480 0.492574 0.414254
O O1 0.678436 0.207941 0.087298
O O2 0.382903 0.420575 0.941801
O O3 0.586833 0.102675 0.151962
O O4 0.733613 0.139120 0.789119
O O5 0.594524 0.303340 0.387404
O O6 0.812516 0.258518 0.124584
O O7 0.975032 0.959392 0.263956
O O8 0.288164 0.553926 0.213466
O O9 0.027313 0.686684 0.075111
O O10 0.714394 0.348512 0.568090
O O11 0.000000 0.000000 0.500000
O O12 0.499433 0.834819 0.510411
O O13 0.500000 0.000000 0.500000
O O14 0.168782 0.189753 0.610758
O O15 0.816728 0.679022 0.274622
O O16 0.727741 0.542187 0.425186
O O17 0.853408 0.538930 0.613449
#
# Coordination Sequence:
#
# PCOD9034036 Si02
#       8
#     2   2   2   2   2   2   2   2
#     4  11  19  36  55  83 114 138 183 231 268 330
#     4  11  20  35  60  79 104 142 182 230 285 316
#     4  10  17  32  56  83 110 142 178 226 281 318
#     4  12  26  37  52  81 113 150 186 221 274 335
#     4  10  18  28  49  83 115 137 170 225 281 317
#     4   9  17  29  45  75 115 139 169 218 267 323
#     4   9  17  26  44  76 117 138 165 211 282 319
#     4  10  19  34  53  79 111 140 183 226 270 328
#
# _framework density 22.535917999999999
#
# number of rings (size 3 to 8) (size 9 to 14) (size 15 to 20)
#    0.000    1.750    6.250    1.875    3.500    0.500 
#    0.000    0.000    0.000    0.000    0.000   11.375 
#    0.000    0.000    0.000    0.000    0.000    0.000 
#
# Total GULP energy -89127.469931 kJ/mol
# GULP energy per Si atom -5570.466871 kJ/mol
# Density = 2.248463 g / cm^3
# Si number density = 22.535918 Si / 1000 Ang^3
#
#
#
# Elastic Constant Matrix: (Units=GPa)
#
#
# Indices 1 2 3 4 5 6 
#
# 1 76.9798 28.0176 55.4524 4.0090 -46.8694 5.6943
# 2 28.0176 118.7578 31.2801 11.6117 -19.6768 -7.7534
# 3 55.4524 31.2801 77.5807 16.3401 -31.3771 9.2241
# 4 4.0090 11.6117 16.3401 32.5885 -2.5947 -14.1204
# 5 -46.8694 -19.6768 -31.3771 -2.5947 41.2266 -2.0022
# 6 5.6943 -7.7534 9.2241 -14.1204 -2.0022 30.7773
#
#
#
# Elastic Compliance Matrix: (Units=1/GPa)
#
#
# Indices 1 2 3 4 5 6 
#
# 1 0.064036 0.000100 -0.027874 0.012786 0.052722 0.005827
# 2 0.000100 0.009971 -0.003619 0.000060 0.002305 0.003756
# 3 -0.027874 -0.003619 0.038863 -0.023269 -0.006201 -0.018481
# 4 0.012786 0.000060 -0.023269 0.053594 0.001652 0.029320
# 5 0.052722 0.002305 -0.006201 0.001652 0.080615 -0.001313
# 6 0.005827 0.003756 -0.018481 0.029320 -0.001313 0.051264
#
#
# Mechanical properties :
#
#
# Convention : Reuss Voigt Hill
#
# Bulk Modulus (GPa) = 19.96637 55.86873 37.91755
# Shear Modulus (GPa) = 13.23362 31.48970 22.36166
#
# Velocity S-wave (km/s) = 2.42590 3.74212 3.15345
# Velocity P-wave (km/s) = 4.08970 6.59667 5.48825
#
# Compressibility (1/GPa) = 0.05008421
#
# Stress axis : x y z
#
# Youngs Moduli (GPa) = 15.61617 100.28797 25.73127
#
# Poissons Ratio (x) = -0.01003 0.71724
# Poissons Ratio (y) = -0.00156 0.09312
# Poissons Ratio (z) = 0.43529 0.36294
#
# Static dielectric constant tensor:
#      x y z
#    x 1.925340 -0.023430 0.052060 
#    y -0.023430 1.900740 -0.049340 
#    z 0.052060 -0.049340 1.979340 
# 
# From -- ./inp_files/314779.got.cif
#   From: 2010.05.17/outbox.cif.g08.bks.cpg/sg2_158_cif.got.tgz:314779.got - 2010.06.03 11:33:40.
