data_PCOD9034559
_publ_section_title
;
Structure prediction by ZEFSAII (Michael W. Deem and Ramdas Pophale) SiO2 
 PCOD9034559
Probable space group: P -1
;
_chemical_formula_sum "Si O2"
_cell_formula_units_Z 16
_cell_length_a 27.748728
_cell_length_b 14.169921
_cell_length_c 8.484881
_cell_angle_alpha 125.782207
_cell_angle_beta 135.953370
_cell_angle_gamma 20.115198
_cell_volume 738.720165
_symmetry_space_group_name_H-M "P -1"
_symmetry_group_IT_number 2
_symmetry_cell_setting 'triclinic'
loop_
_space_group_symop_operation_xyz
x,y,z
-x,-y,-z
loop_
_atom_site_type_symbol
_atom_site_label
_atom_site_fract_x
_atom_site_fract_y
_atom_site_fract_z
Si Si1 0.267575 0.748692 0.663751
Si Si2 0.297238 0.272005 0.264246
Si Si3 0.737107 0.468346 0.769984
Si Si4 0.293735 0.947227 0.400949
Si Si5 0.336010 0.139086 0.563327
Si Si6 0.104928 0.655128 0.714424
Si Si7 0.948728 0.456781 0.260762
Si Si8 0.495126 0.562850 0.809236
O O1 0.285681 0.618496 0.451735
O O2 0.347709 0.737048 0.750450
O O3 0.377488 0.560753 0.897697
O O4 0.059504 0.077950 0.526872
O O5 0.204209 0.529898 0.224485
O O6 0.247009 0.299118 0.341266
O O7 0.500000 0.000000 0.500000
O O8 0.242734 0.258417 0.994716
O O9 0.545178 0.807840 0.707637
O O10 0.854810 0.295391 0.034507
O O11 0.407192 0.762246 0.648718
O O12 0.390872 0.718922 0.274826
O O13 0.279514 0.102629 0.466132
O O14 0.099959 0.199617 0.235690
O O15 0.275156 0.340623 0.722734
O O16 0.048038 0.644449 0.695301
O O17 0.000000 0.500000 0.500000
#
# Coordination Sequence:
#
# PCOD9034559 Si02
#       8
#     2   2   2   2   2   2   2   2
#     4  11  22  43  66  92 125 175 218 263 324 381
#     4   9  23  42  62  92 134 167 218 263 322 388
#     4  10  22  45  64  91 131 178 212 260 325 392
#     4  11  22  41  64  97 130 167 214 266 327 382
#     4  11  22  41  67  98 129 171 211 271 327 383
#     4  11  23  40  65  99 132 163 218 267 325 388
#     4  11  22  38  63  96 133 169 204 270 328 384
#     4  10  24  41  64  92 129 168 218 266 317 394
#
# _framework density 21.659082000000001
#
# number of rings (size 3 to 8) (size 9 to 14) (size 15 to 20)
#    0.000    1.500    3.750    0.750    1.750    3.500 
#    4.500    0.625    0.000    0.000    0.000    0.000 
#    0.000    0.000    0.000    0.000    0.000    0.000 
#
# Total GULP energy -89291.217029 kJ/mol
# GULP energy per Si atom -5580.701064 kJ/mol
# Density = 2.160978 g / cm^3
# Si number density = 21.659082 Si / 1000 Ang^3
#
#
#
# Elastic Constant Matrix: (Units=GPa)
#
#
# Indices 1 2 3 4 5 6 
#
# 1 53.3187 -8.3921 9.2524 -4.8162 -5.3243 4.3982
# 2 -8.3921 68.8340 18.9952 -1.5514 3.0012 -14.0885
# 3 9.2524 18.9952 152.5834 -5.1762 2.0895 9.3135
# 4 -4.8162 -1.5514 -5.1762 27.2830 5.0823 2.1964
# 5 -5.3243 3.0012 2.0895 5.0823 14.6294 -0.6222
# 6 4.3982 -14.0885 9.3135 2.1964 -0.6222 21.0730
#
#
#
# Elastic Compliance Matrix: (Units=1/GPa)
#
#
# Indices 1 2 3 4 5 6 
#
# 1 0.020367 0.002184 -0.001369 0.002487 0.006200 -0.002262
# 2 0.002184 0.018482 -0.003209 0.000138 -0.002023 0.013244
# 3 -0.001369 -0.003209 0.007448 0.001746 -0.001740 -0.005385
# 4 0.002487 0.000138 0.001746 0.040446 -0.013671 -0.005818
# 5 0.006200 -0.002023 -0.001740 -0.013671 0.076101 0.001794
# 6 -0.002262 0.013244 -0.005385 -0.005818 0.001794 0.059820
#
#
# Mechanical properties :
#
#
# Convention : Reuss Voigt Hill
#
# Bulk Modulus (GPa) = 24.09237 34.93855 29.51546
# Shear Modulus (GPa) = 20.72202 29.58913 25.15558
#
# Velocity S-wave (km/s) = 3.09647 3.70013 3.41168
# Velocity P-wave (km/s) = 4.89201 5.86692 5.40151
#
# Compressibility (1/GPa) = 0.04150692
#
# Stress axis : x y z
#
# Youngs Moduli (GPa) = 49.09954 54.10763 134.26229
#
# Poissons Ratio (x) = -0.11816 0.18385
# Poissons Ratio (y) = -0.10722 0.43088
# Poissons Ratio (z) = 0.06723 0.17365
#
# Static dielectric constant tensor:
#      x y z
#    x 1.789280 -0.010800 0.010080 
#    y -0.010800 1.821500 -0.011170 
#    z 0.010080 -0.011170 1.826780 
# 
# From -- ./inp_files/358874.got.cif
#   From: 2010.05.17/outbox.cif.g08.bks.cpg/sg2_180_cif.got.tgz:358874.got - 2010.06.03 11:33:40.
