data_PCOD9034431
_publ_section_title
;
Structure prediction by ZEFSAII (Michael W. Deem and Ramdas Pophale) SiO2 
 PCOD9034431
Probable space group: P -1
;
_chemical_formula_sum "Si O2"
_cell_formula_units_Z 13
_cell_length_a 4.751069
_cell_length_b 9.946308
_cell_length_c 13.007822
_cell_angle_alpha 52.948639
_cell_angle_beta 86.348526
_cell_angle_gamma 84.194625
_cell_volume 488.064348
_symmetry_space_group_name_H-M "P -1"
_symmetry_group_IT_number 2
_symmetry_cell_setting 'triclinic'
loop_
_space_group_symop_operation_xyz
x,y,z
-x,-y,-z
loop_
_atom_site_type_symbol
_atom_site_label
_atom_site_fract_x
_atom_site_fract_y
_atom_site_fract_z
Si Si1 0.220815 0.806209 0.403058
Si Si2 0.046726 0.757542 0.210582
Si Si3 0.261718 0.419526 0.165198
Si Si4 0.781478 0.418055 0.304067
Si Si5 0.881732 0.747404 0.949679
Si Si6 0.283897 0.009954 0.747316
Si Si7 0.500000 0.000000 0.000000
O O1 0.214479 0.716799 0.332735
O O2 0.314455 0.688079 0.548253
O O3 0.403127 0.965282 0.305190
O O4 0.896668 0.877207 0.384085
O O5 0.265010 0.851015 0.093418
O O6 0.901457 0.589596 0.263517
O O7 0.697345 0.867386 0.977092
O O8 0.532219 0.447908 0.213726
O O9 0.049327 0.319840 0.286730
O O10 0.313847 0.329106 0.097202
O O11 0.066181 0.589576 0.066898
O O12 0.119508 0.847635 0.841536
O O13 0.221360 0.104508 0.817359
#
# Coordination Sequence:
#
# PCOD9034431 Si02
#       7
#     2   2   2   2   2   2   1
#     4  10  22  44  74 113 158 204 262 325 386 462
#     4   9  24  42  77 114 153 207 262 331 384 462
#     4  11  29  48  82 113 167 202 264 320 409 477
#     4  12  26  47  74 118 158 218 256 316 399 489
#     4  10  25  55  81 116 158 207 263 339 393 471
#     4   9  22  42  77 105 150 203 259 330 380 447
#     4  10  22  54  90 112 156 206 278 322 402 468
#
# _framework density 26.635833999999999
#
# number of rings (size 3 to 8) (size 9 to 14) (size 15 to 20)
#    0.923    0.923    0.000    1.385    4.308    6.769 
#    0.000   10.769    0.000    0.000    0.000    0.000 
#    0.000    0.000    0.000    0.154    0.000    0.000 
#
# Total GULP energy -72585.825543 kJ/mol
# GULP energy per Si atom -5583.525042 kJ/mol
# Density = 2.657521 g / cm^3
# Si number density = 26.635834 Si / 1000 Ang^3
#
#
#
# Elastic Constant Matrix: (Units=GPa)
#
#
# Indices 1 2 3 4 5 6 
#
# 1 189.5069 63.3108 59.5865 4.7739 -11.7093 23.4527
# 2 63.3108 138.6313 74.6853 11.8195 6.5301 10.5142
# 3 59.5865 74.6853 170.6344 -0.5170 -1.6045 21.9012
# 4 4.7739 11.8195 -0.5170 28.3175 14.5240 2.4046
# 5 -11.7093 6.5301 -1.6045 14.5240 34.4310 0.4678
# 6 23.4527 10.5142 21.9012 2.4046 0.4678 46.9353
#
#
#
# Elastic Compliance Matrix: (Units=1/GPa)
#
#
# Indices 1 2 3 4 5 6 
#
# 1 0.006990 -0.002476 -0.001020 -0.001802 0.003592 -0.002405
# 2 -0.002476 0.010800 -0.004001 -0.003386 -0.001660 0.000875
# 3 -0.001020 -0.004001 0.008305 0.002278 -0.000127 -0.002585
# 4 -0.001802 -0.003386 0.002278 0.047382 -0.019829 -0.001634
# 5 0.003592 -0.001660 -0.000127 -0.019829 0.038948 -0.000736
# 6 -0.002405 0.000875 -0.002585 -0.001634 -0.000736 0.023609
#
#
# Mechanical properties :
#
#
# Convention : Reuss Voigt Hill
#
# Bulk Modulus (GPa) = 90.07474 99.32643 94.70059
# Shear Modulus (GPa) = 32.31487 42.01610 37.16548
#
# Velocity S-wave (km/s) = 3.48690 3.97599 3.73945
# Velocity P-wave (km/s) = 7.07826 7.64523 7.36720
#
# Compressibility (1/GPa) = 0.01110189
#
# Stress axis : x y z
#
# Youngs Moduli (GPa) = 143.06772 92.59445 120.40545
#
# Poissons Ratio (x) = 0.22923 0.12284
# Poissons Ratio (y) = 0.35418 0.48169
# Poissons Ratio (z) = 0.14596 0.37043
#
# Static dielectric constant tensor:
#      x y z
#    x 2.016130 -0.095230 -0.065610 
#    y -0.095230 2.122110 0.028980 
#    z -0.065610 0.028980 1.892750 
# 
# From -- ./inp_files/63184.got.cif
#   From: 2010.05.17/outbox.cif.g08.bks.cpg/sg2_32_cif.got.tgz:63184.got - 2010.06.03 11:33:40.
