data_PCOD9034006
_publ_section_title
;
Structure prediction by ZEFSAII (Michael W. Deem and Ramdas Pophale) SiO2 
 PCOD9034006
Probable space group: P -1
;
_chemical_formula_sum "Si O2"
_cell_formula_units_Z 15
_cell_length_a 5.231016
_cell_length_b 11.694367
_cell_length_c 15.946844
_cell_angle_alpha 40.851897
_cell_angle_beta 102.033401
_cell_angle_gamma 114.123915
_cell_volume 574.026686
_symmetry_space_group_name_H-M "P -1"
_symmetry_group_IT_number 2
_symmetry_cell_setting 'triclinic'
loop_
_space_group_symop_operation_xyz
x,y,z
-x,-y,-z
loop_
_atom_site_type_symbol
_atom_site_label
_atom_site_fract_x
_atom_site_fract_y
_atom_site_fract_z
Si Si1 0.912664 0.957580 0.248634
Si Si2 0.000000 0.000000 0.000000
Si Si3 0.927929 0.714175 0.685010
Si Si4 0.133932 0.596142 0.594016
Si Si5 0.361548 0.404001 0.842800
Si Si6 0.170264 0.411030 0.002980
Si Si7 0.734689 0.202852 0.758818
Si Si8 0.690913 0.913627 0.434065
O O1 0.603063 0.883580 0.224662
O O2 0.859895 0.886145 0.380231
O O3 0.108944 0.885759 0.246223
O O4 0.043799 0.184550 0.132607
O O5 0.723753 0.819502 0.045442
O O6 0.157753 0.850636 0.115920
O O7 0.689130 0.535084 0.811246
O O8 0.755703 0.841830 0.568283
O O9 0.028874 0.659108 0.636082
O O10 0.196761 0.859030 0.674280
O O11 0.315532 0.478045 0.707018
O O12 0.365213 0.782954 0.464794
O O13 0.865878 0.430942 0.625372
O O14 0.182289 0.441060 0.886232
O O15 0.500000 0.500000 0.000000
O O16 0.000000 0.500000 0.000000
#
# Coordination Sequence:
#
# PCOD9034006 Si02
#       8
#     2   1   2   2   2   2   2   2
#     4  12  27  47  70 107 144 186 230 293 356 416
#     4  10  22  48  68 102 142 186 236 290 338 432
#     4  10  22  44  70  99 135 185 239 287 352 411
#     4  10  24  42  70  99 130 186 233 292 344 411
#     4  10  23  41  69 100 133 181 236 285 346 414
#     4  12  27  46  70 103 143 186 230 286 355 421
#     4  11  27  46  72 103 142 187 237 287 355 413
#     4  10  24  43  68  99 141 180 237 290 351 419
#
# _framework density 26.131187000000001
#
# number of rings (size 3 to 8) (size 9 to 14) (size 15 to 20)
#    0.000    1.333    1.333    2.000   11.200    1.600 
#    0.000    0.000    0.000    0.000    0.000    0.000 
#    0.000    0.000    0.000    0.000    0.000    0.000 
#
# Total GULP energy -83684.242990 kJ/mol
# GULP energy per Si atom -5578.949533 kJ/mol
# Density = 2.607171 g / cm^3
# Si number density = 26.131187 Si / 1000 Ang^3
#
#
#
# Elastic Constant Matrix: (Units=GPa)
#
#
# Indices 1 2 3 4 5 6 
#
# 1 97.8512 31.5935 41.5523 -13.5766 -16.8761 -0.3017
# 2 31.5935 115.8107 60.1886 -48.6204 -10.3349 1.5965
# 3 41.5523 60.1886 114.6769 -30.0669 -36.5802 18.8062
# 4 -13.5766 -48.6204 -30.0669 76.3702 13.4533 -6.4105
# 5 -16.8761 -10.3349 -36.5802 13.4533 28.3200 9.8847
# 6 -0.3017 1.5965 18.8062 -6.4105 9.8847 56.9939
#
#
#
# Elastic Compliance Matrix: (Units=1/GPa)
#
#
# Indices 1 2 3 4 5 6 
#
# 1 0.012489 -0.002136 -0.002390 -0.000750 0.003877 0.000158
# 2 -0.002136 0.019715 -0.015593 0.010866 -0.022786 0.009756
# 3 -0.002390 -0.015593 0.034415 -0.006855 0.047559 -0.019951
# 4 -0.000750 0.010866 -0.006855 0.020950 -0.017876 0.007410
# 5 0.003877 -0.022786 0.047559 -0.017876 0.111955 -0.036461
# 6 0.000158 0.009756 -0.019951 0.007410 -0.036461 0.031014
#
#
# Mechanical properties :
#
#
# Convention : Reuss Voigt Hill
#
# Bulk Modulus (GPa) = 37.90580 66.11197 52.00889
# Shear Modulus (GPa) = 17.88456 45.33711 31.61083
#
# Velocity S-wave (km/s) = 2.61897 4.16983 3.48184
# Velocity P-wave (km/s) = 4.86650 6.96694 6.00920
#
# Compressibility (1/GPa) = 0.02638119
#
# Stress axis : x y z
#
# Youngs Moduli (GPa) = 80.06855 50.72217 29.05683
#
# Poissons Ratio (x) = 0.10835 0.06945
# Poissons Ratio (y) = 0.17104 0.45308
# Poissons Ratio (z) = 0.19138 0.79091
#
# Static dielectric constant tensor:
#      x y z
#    x 2.109670 0.071910 0.096660 
#    y 0.071910 2.143000 0.032200 
#    z 0.096660 0.032200 2.159560 
# 
# From -- ./inp_files/65631.got.cif
#   From: 2010.05.17/outbox.cif.g08.bks.cpg/sg2_33_cif.got.tgz:65631.got - 2010.06.03 11:33:40.
