data_PCOD9034745
_publ_section_title
;
Structure prediction by ZEFSAII (Michael W. Deem and Ramdas Pophale) SiO2 
 PCOD9034745
Probable space group: P -1
;
_chemical_formula_sum "Si O2"
_cell_formula_units_Z 16
_cell_length_a 12.080998
_cell_length_b 14.924699
_cell_length_c 5.438218
_cell_angle_alpha 67.800638
_cell_angle_beta 92.473387
_cell_angle_gamma 128.891436
_cell_volume 680.514638
_symmetry_space_group_name_H-M "P -1"
_symmetry_group_IT_number 2
_symmetry_cell_setting 'triclinic'
loop_
_space_group_symop_operation_xyz
x,y,z
-x,-y,-z
loop_
_atom_site_type_symbol
_atom_site_label
_atom_site_fract_x
_atom_site_fract_y
_atom_site_fract_z
Si Si1 0.145874 0.716069 0.341019
Si Si2 0.715928 0.914619 0.492592
Si Si3 0.120228 0.538338 0.165836
Si Si4 0.606766 0.613805 0.199462
Si Si5 0.133986 0.937309 0.145607
Si Si6 0.806373 0.782192 0.431410
Si Si7 0.464242 0.917055 0.338495
Si Si8 0.690012 0.523098 0.924843
O O1 0.185554 0.671200 0.160416
O O2 0.129234 0.820526 0.208800
O O3 0.290814 0.789260 0.450455
O O4 0.983219 0.583828 0.534440
O O5 0.741633 0.813705 0.604037
O O6 0.566202 0.879867 0.417561
O O7 0.758261 0.982273 0.692947
O O8 0.825485 0.998397 0.184943
O O9 0.237816 0.537245 0.051939
O O10 0.000000 0.500000 0.000000
O O11 0.500000 0.500000 0.500000
O O12 0.708817 0.746261 0.217596
O O13 0.484363 0.584867 0.033246
O O14 0.702128 0.581920 0.127024
O O15 0.977542 0.886025 0.280319
O O16 0.769927 0.650197 0.633963
O O17 0.500000 0.000000 0.500000
O O18 0.500000 0.000000 0.000000
#
# Coordination Sequence:
#
# PCOD9034745 Si02
#       8
#     2   2   2   2   2   2   2   2
#     4  11  26  46  70 105 144 191 249 299 374 425
#     4  12  27  46  72 111 142 191 243 290 367 439
#     4  11  27  44  73 106 140 194 252 303 372 437
#     4   9  22  42  66  97 133 183 230 291 368 420
#     4  12  26  47  74 104 152 182 241 303 360 437
#     4  11  25  41  74  99 140 188 237 293 365 430
#     4  12  25  49  75 105 148 196 239 302 366 435
#     4  10  22  45  67  97 144 178 237 302 360 428
#
# _framework density 23.511620000000001
#
# number of rings (size 3 to 8) (size 9 to 14) (size 15 to 20)
#    0.000    1.000    3.750    0.750   10.500    1.000 
#    4.500    0.000    0.000    0.000    0.000    0.000 
#    0.000    0.000    0.000    0.000    0.000    0.000 
#
# Total GULP energy -89332.891313 kJ/mol
# GULP energy per Si atom -5583.305707 kJ/mol
# Density = 2.345811 g / cm^3
# Si number density = 23.511620 Si / 1000 Ang^3
#
#
#
# Elastic Constant Matrix: (Units=GPa)
#
#
# Indices 1 2 3 4 5 6 
#
# 1 149.4187 38.3633 3.9425 -6.5875 -11.2462 -30.2190
# 2 38.3633 114.3744 9.8943 29.6566 4.0281 -19.0919
# 3 3.9425 9.8943 80.8944 13.3569 -7.1187 -5.5418
# 4 -6.5875 29.6566 13.3569 27.4074 -2.2164 -12.5654
# 5 -11.2462 4.0281 -7.1187 -2.2164 30.8298 0.6845
# 6 -30.2190 -19.0919 -5.5418 -12.5654 0.6845 50.0174
#
#
#
# Elastic Compliance Matrix: (Units=1/GPa)
#
#
# Indices 1 2 3 4 5 6 
#
# 1 0.010694 -0.005886 -0.001023 0.013232 0.005222 0.007354
# 2 -0.005886 0.015719 0.001114 -0.020558 -0.005366 -0.002524
# 3 -0.001023 0.001114 0.013785 -0.008365 0.002081 -0.000796
# 4 0.013232 -0.020558 -0.008365 0.075066 0.010579 0.017934
# 5 0.005222 -0.005366 0.002081 0.010579 0.036205 0.003500
# 6 0.007354 -0.002524 -0.000796 0.017934 0.003500 0.027842
#
#
# Mechanical properties :
#
#
# Convention : Reuss Voigt Hill
#
# Bulk Modulus (GPa) = 34.95416 49.89864 42.42640
# Shear Modulus (GPa) = 24.94528 41.15009 33.04769
#
# Velocity S-wave (km/s) = 3.26080 4.18808 3.75319
# Velocity P-wave (km/s) = 5.39223 6.68249 6.07173
#
# Compressibility (1/GPa) = 0.02860890
#
# Stress axis : x y z
#
# Youngs Moduli (GPa) = 93.50651 63.61600 72.54102
#
# Poissons Ratio (x) = 0.37444 0.07419
# Poissons Ratio (y) = 0.55037 -0.08078
# Poissons Ratio (z) = 0.09563 -0.07084
#
# Static dielectric constant tensor:
#      x y z
#    x 1.886440 -0.028370 0.069110 
#    y -0.028370 1.884490 0.054920 
#    z 0.069110 0.054920 1.845900 
# 
# From -- ./inp_files/77426.got.cif
#   From: 2010.05.17/outbox.cif.g08.bks.cpg/sg2_39_cif.got.tgz:77426.got - 2010.06.03 11:33:40.
