data_PCOD9034288
_publ_section_title
;
Structure prediction by ZEFSAII (Michael W. Deem and Ramdas Pophale) SiO2 
 PCOD9034288
Probable space group: P -1
;
_chemical_formula_sum "Si O2"
_cell_formula_units_Z 16
_cell_length_a 9.269527
_cell_length_b 18.258035
_cell_length_c 11.704541
_cell_angle_alpha 42.386433
_cell_angle_beta 76.139329
_cell_angle_gamma 43.104893
_cell_volume 692.984084
_symmetry_space_group_name_H-M "P -1"
_symmetry_group_IT_number 2
_symmetry_cell_setting 'triclinic'
loop_
_space_group_symop_operation_xyz
x,y,z
-x,-y,-z
loop_
_atom_site_type_symbol
_atom_site_label
_atom_site_fract_x
_atom_site_fract_y
_atom_site_fract_z
Si Si1 0.480603 0.580220 0.664921
Si Si2 0.972407 0.738393 0.198594
Si Si3 0.221378 0.099481 0.431249
Si Si4 0.530843 0.124107 0.135082
Si Si5 0.670185 0.562081 0.052199
Si Si6 0.575404 0.198035 0.414859
Si Si7 0.057489 0.854855 0.219308
Si Si8 0.540808 0.897186 0.269388
O O1 0.484493 0.451054 0.854775
O O2 0.356670 0.733198 0.612193
O O3 0.270527 0.724468 0.432938
O O4 0.787126 0.436494 0.737733
O O5 0.798625 0.763601 0.287046
O O6 0.146771 0.706162 0.287544
O O7 0.727890 0.954707 0.930087
O O8 0.970862 0.335077 0.221476
O O9 0.500000 0.000000 0.500000
O O10 0.255142 0.014225 0.640418
O O11 0.200114 0.029058 0.411620
O O12 0.443637 0.060061 0.179995
O O13 0.324396 0.346104 0.958652
O O14 0.737847 0.026751 0.109517
O O15 0.557659 0.683165 0.816567
O O16 0.405596 0.231004 0.501993
O O17 0.000000 0.000000 0.000000
#
# Coordination Sequence:
#
# PCOD9034288 Si02
#       8
#     2   2   2   2   2   2   2   2
#     4  12  25  45  69 106 139 183 237 279 348 423
#     4  10  24  42  74  98 139 181 231 292 342 408
#     4  11  23  45  66 101 139 181 228 282 346 408
#     4  10  22  44  72  97 140 182 223 290 342 407
#     4  11  26  45  69 106 139 184 231 280 347 425
#     4  11  26  42  71 103 140 184 225 289 342 412
#     4  11  22  44  68  98 139 184 228 289 343 405
#     4  10  22  48  67 106 142 177 234 291 346 404
#
# _framework density 23.088553999999998
#
# number of rings (size 3 to 8) (size 9 to 14) (size 15 to 20)
#    0.000    1.250    2.500    2.250    1.750    4.000 
#    0.000    0.000    0.000    0.000    0.000    0.000 
#    0.000    0.000    0.000    0.000    0.000    0.000 
#
# Total GULP energy -89135.276622 kJ/mol
# GULP energy per Si atom -5570.954789 kJ/mol
# Density = 2.303600 g / cm^3
# Si number density = 23.088554 Si / 1000 Ang^3
#
#
#
# Elastic Constant Matrix: (Units=GPa)
#
#
# Indices 1 2 3 4 5 6 
#
# 1 61.6466 44.4786 22.7689 -7.1887 -8.1422 3.3331
# 2 44.4786 112.2603 43.2499 -12.9748 -7.7780 12.6235
# 3 22.7689 43.2499 85.2890 -0.6043 -11.7342 -11.7488
# 4 -7.1887 -12.9748 -0.6043 43.7374 -2.1616 -4.9350
# 5 -8.1422 -7.7780 -11.7342 -2.1616 37.3670 6.0073
# 6 3.3331 12.6235 -11.7488 -4.9350 6.0073 39.5957
#
#
#
# Elastic Compliance Matrix: (Units=1/GPa)
#
#
# Indices 1 2 3 4 5 6 
#
# 1 0.023334 -0.008215 -0.001659 0.001510 0.002956 -0.000098
# 2 -0.008215 0.015668 -0.006484 0.002559 0.000546 -0.005992
# 3 -0.001659 -0.006484 0.016696 -0.001096 0.002397 0.006661
# 4 0.001510 0.002559 -0.001096 0.024106 0.001674 0.001482
# 5 0.002956 0.000546 0.002397 0.001674 0.028996 -0.003902
# 6 -0.000098 -0.005992 0.006661 0.001482 -0.003902 0.029927
#
#
# Mechanical properties :
#
#
# Convention : Reuss Voigt Hill
#
# Bulk Modulus (GPa) = 43.51648 53.35453 48.43551
# Shear Modulus (GPa) = 27.91664 34.05326 30.98495
#
# Velocity S-wave (km/s) = 3.48100 3.84461 3.66731
# Velocity P-wave (km/s) = 5.91989 6.54728 6.24147
#
# Compressibility (1/GPa) = 0.02297980
#
# Stress axis : x y z
#
# Youngs Moduli (GPa) = 42.85656 63.82250 59.89626
#
# Poissons Ratio (x) = 0.52433 0.09938
# Poissons Ratio (y) = 0.35209 0.38839
# Poissons Ratio (z) = 0.07111 0.41384
#
# Static dielectric constant tensor:
#      x y z
#    x 2.212550 -0.086570 -0.248270 
#    y -0.086570 2.066230 0.039610 
#    z -0.248270 0.039610 1.963470 
# 
# From -- ./inp_files/402839.got.cif
#   From: 2010.05.17/outbox.cif.g08.bks.cpg/sg2_202_cif.got.tgz:402839.got - 2010.06.03 11:33:40.
