data_PCOD9034597
_publ_section_title
;
Structure prediction by ZEFSAII (Michael W. Deem and Ramdas Pophale) SiO2 
 PCOD9034597
Probable space group: P -1
;
_chemical_formula_sum "Si O2"
_cell_formula_units_Z 12
_cell_length_a 17.622460
_cell_length_b 8.796178
_cell_length_c 6.414550
_cell_angle_alpha 95.091800
_cell_angle_beta 111.195555
_cell_angle_gamma 138.780060
_cell_volume 494.515707
_symmetry_space_group_name_H-M "P -1"
_symmetry_group_IT_number 2
_symmetry_cell_setting 'triclinic'
loop_
_space_group_symop_operation_xyz
x,y,z
-x,-y,-z
loop_
_atom_site_type_symbol
_atom_site_label
_atom_site_fract_x
_atom_site_fract_y
_atom_site_fract_z
Si Si1 0.128892 0.375589 0.053968
Si Si2 0.121286 0.250132 0.448458
Si Si3 0.827634 0.374047 0.240702
Si Si4 0.137070 0.851039 0.029365
Si Si5 0.344685 0.085369 0.647635
Si Si6 0.312168 0.330577 0.937244
O O1 0.006615 0.302754 0.016683
O O2 0.231859 0.624039 0.018234
O O3 0.021016 0.077296 0.804023
O O4 0.206338 0.424908 0.338221
O O5 0.074364 0.337792 0.515849
O O6 0.223472 0.317173 0.715756
O O7 0.714288 0.135580 0.275862
O O8 0.901059 0.342052 0.200084
O O9 0.242783 0.944527 0.324581
O O10 0.231762 0.131245 0.035916
O O11 0.328240 0.215736 0.777911
O O12 0.520826 0.345524 0.800203
#
# Coordination Sequence:
#
# PCOD9034597 Si02
#       6
#     2   2   2   2   2   2
#     4  11  25  41  67  94 130 168 212 256 319 383
#     4  11  25  43  64  95 130 169 211 260 318 374
#     4  11  25  41  67  96 131 166 207 268 317 371
#     4  11  23  42  67  98 124 169 211 262 312 378
#     4  10  22  45  65  95 127 167 217 256 313 380
#     4  10  23  42  70  91 126 172 213 259 312 377
#
# _framework density 24.266165999999998
#
# number of rings (size 3 to 8) (size 9 to 14) (size 15 to 20)
#    0.000    1.333    1.667    2.500    7.000    2.000 
#    0.000    1.667    0.000    0.000    0.000    0.000 
#    0.000    0.000    0.000    0.000    0.000    0.000 
#
# Total GULP energy -67135.540118 kJ/mol
# GULP energy per Si atom -5594.628343 kJ/mol
# Density = 2.421093 g / cm^3
# Si number density = 24.266166 Si / 1000 Ang^3
#
#
#
# Elastic Constant Matrix: (Units=GPa)
#
#
# Indices 1 2 3 4 5 6 
#
# 1 85.1562 55.0245 34.4588 3.9070 -13.0204 -22.5683
# 2 55.0245 198.3588 89.5428 -49.8591 13.1740 -7.5145
# 3 34.4588 89.5428 143.7028 -32.9254 5.8883 0.0794
# 4 3.9070 -49.8591 -32.9254 52.0202 -19.5866 -5.0995
# 5 -13.0204 13.1740 5.8883 -19.5866 36.6683 4.2358
# 6 -22.5683 -7.5145 0.0794 -5.0995 4.2358 33.3909
#
#
#
# Elastic Compliance Matrix: (Units=1/GPa)
#
#
# Indices 1 2 3 4 5 6 
#
# 1 0.020773 -0.005870 -0.002895 -0.005840 0.005545 0.011131
# 2 -0.005870 0.010030 -0.003034 0.007703 -0.001040 -0.000395
# 3 -0.002895 -0.003034 0.010427 0.003986 0.000766 -0.002153
# 4 -0.005840 0.007703 0.003986 0.034526 0.012796 0.001427
# 5 0.005545 -0.001040 0.000766 0.012796 0.036226 0.000871
# 6 0.011131 -0.000395 -0.002153 0.001427 0.000871 0.037495
#
#
# Mechanical properties :
#
#
# Convention : Reuss Voigt Hill
#
# Bulk Modulus (GPa) = 56.71756 87.25223 71.98490
# Shear Modulus (GPa) = 27.94040 40.96200 34.45120
#
# Velocity S-wave (km/s) = 3.39693 4.11302 3.77201
# Velocity P-wave (km/s) = 6.22972 7.65443 6.97853
#
# Compressibility (1/GPa) = 0.01763122
#
# Stress axis : x y z
#
# Youngs Moduli (GPa) = 48.13873 99.70209 95.90712
#
# Poissons Ratio (x) = 0.58527 0.27764
# Poissons Ratio (y) = 0.28258 0.29101
# Poissons Ratio (z) = 0.13936 0.30253
#
# Static dielectric constant tensor:
#      x y z
#    x 1.967080 -0.027110 -0.023950 
#    y -0.027110 1.963040 -0.047360 
#    z -0.023950 -0.047360 1.951030 
# 
# From -- ./inp_files/57766.got.cif
#   From: 2010.05.17/outbox.cif.g08.bks.cpg/sg2_29_cif.got.tgz:57766.got - 2010.06.03 11:33:40.
