data_PCOD9034077
_publ_section_title
;
Structure prediction by ZEFSAII (Michael W. Deem and Ramdas Pophale) SiO2 
 PCOD9034077
Probable space group: P -1
;
_chemical_formula_sum "Si O2"
_cell_formula_units_Z 14
_cell_length_a 13.298519
_cell_length_b 8.131309
_cell_length_c 9.168461
_cell_angle_alpha 52.901293
_cell_angle_beta 118.699095
_cell_angle_gamma 81.034695
_cell_volume 534.816234
_symmetry_space_group_name_H-M "P -1"
_symmetry_group_IT_number 2
_symmetry_cell_setting 'triclinic'
loop_
_space_group_symop_operation_xyz
x,y,z
-x,-y,-z
loop_
_atom_site_type_symbol
_atom_site_label
_atom_site_fract_x
_atom_site_fract_y
_atom_site_fract_z
Si Si1 0.989355 0.171857 0.549440
Si Si2 0.469252 0.557527 0.619265
Si Si3 0.688372 0.637960 0.226022
Si Si4 0.769307 0.804694 0.425873
Si Si5 0.287973 0.514800 0.988365
Si Si6 0.745543 0.887999 0.684811
Si Si7 0.045689 0.786636 0.022325
O O1 0.868109 0.419793 0.441881
O O2 0.091722 0.225221 0.519756
O O3 0.865079 0.222200 0.326175
O O4 0.076814 0.903893 0.847666
O O5 0.500000 0.500000 0.500000
O O6 0.375246 0.478828 0.663969
O O7 0.615081 0.432767 0.885043
O O8 0.369375 0.872189 0.415459
O O9 0.664972 0.871866 0.179055
O O10 0.632803 0.668645 0.005180
O O11 0.708290 0.969198 0.445482
O O12 0.828685 0.513111 0.677652
O O13 0.254364 0.352240 0.147944
O O14 0.905820 0.805376 0.869578
O O15 0.000000 0.000000 0.000000
#
# Coordination Sequence:
#
# PCOD9034077 Si02
#       7
#     2   2   2   2   2   2   2
#     4  10  23  41  74 106 147 187 236 282 364 424
#     4  12  25  49  73  98 137 194 250 303 360 425
#     4  10  22  44  71 103 144 183 239 293 350 426
#     4  12  24  45  70 110 156 185 234 293 359 439
#     4  10  23  43  73 102 144 183 244 297 352 422
#     4  12  25  45  66 107 141 190 240 298 363 426
#     4  12  22  40  70 103 151 193 231 283 355 429
#
# _framework density 26.177216000000001
#
# number of rings (size 3 to 8) (size 9 to 14) (size 15 to 20)
#    0.857    0.000    4.286    2.571    2.000    0.571 
#    2.571    5.714    0.000    0.000    0.000    0.000 
#    0.000    0.000    0.000    0.000    0.000    0.000 
#
# Total GULP energy -78446.243504 kJ/mol
# GULP energy per Si atom -5603.303107 kJ/mol
# Density = 2.611764 g / cm^3
# Si number density = 26.177216 Si / 1000 Ang^3
#
#
#
# Elastic Constant Matrix: (Units=GPa)
#
#
# Indices 1 2 3 4 5 6 
#
# 1 119.8141 57.6169 52.7481 22.9434 -18.5517 13.7264
# 2 57.6169 167.3675 43.5517 44.1519 -17.0369 1.0699
# 3 52.7481 43.5517 89.6075 24.3370 -17.6344 -0.9735
# 4 22.9434 44.1519 24.3370 66.6996 -5.8205 -5.5009
# 5 -18.5517 -17.0369 -17.6344 -5.8205 64.3223 7.8277
# 6 13.7264 1.0699 -0.9735 -5.5009 7.8277 51.3371
#
#
#
# Elastic Compliance Matrix: (Units=1/GPa)
#
#
# Indices 1 2 3 4 5 6 
#
# 1 0.013061 -0.002524 -0.005910 -0.000825 0.001881 -0.003927
# 2 -0.002524 0.008349 -0.001303 -0.004123 0.000763 -0.000082
# 3 -0.005910 -0.001303 0.016456 -0.002823 0.002048 0.001305
# 4 -0.000825 -0.004123 -0.002823 0.019176 -0.000662 0.002409
# 5 0.001881 0.000763 0.002048 -0.000662 0.017179 -0.003170
# 6 -0.003927 -0.000082 0.001305 0.002409 -0.003170 0.021297
#
#
# Mechanical properties :
#
#
# Convention : Reuss Voigt Hill
#
# Bulk Modulus (GPa) = 54.37251 76.06917 65.22084
# Shear Modulus (GPa) = 41.28053 51.32996 46.30525
#
# Velocity S-wave (km/s) = 3.97541 4.43297 4.21041
# Velocity P-wave (km/s) = 6.47208 7.43801 6.97180
#
# Compressibility (1/GPa) = 0.01839165
#
# Stress axis : x y z
#
# Youngs Moduli (GPa) = 76.56241 119.77939 60.76918
#
# Poissons Ratio (x) = 0.30235 0.35915
# Poissons Ratio (y) = 0.19326 0.07917
# Poissons Ratio (z) = 0.45249 0.15604
#
# Static dielectric constant tensor:
#      x y z
#    x 2.084720 -0.296710 -0.016120 
#    y -0.296710 2.562800 0.186170 
#    z -0.016120 0.186170 2.193210 
# 
# From -- ./inp_files/294187.got.cif
#   From: 2010.05.17/outbox.cif.g08.bks.cpg/sg2_148_cif.got.tgz:294187.got - 2010.06.03 11:33:40.
