data_PCOD9034121
_publ_section_title
;
Structure prediction by ZEFSAII (Michael W. Deem and Ramdas Pophale) SiO2 
 PCOD9034121
Probable space group: P -1
;
_chemical_formula_sum "Si O2"
_cell_formula_units_Z 16
_cell_length_a 11.620843
_cell_length_b 9.258318
_cell_length_c 16.235740
_cell_angle_alpha 30.582073
_cell_angle_beta 119.191940
_cell_angle_gamma 107.343633
_cell_volume 746.106216
_symmetry_space_group_name_H-M "P -1"
_symmetry_group_IT_number 2
_symmetry_cell_setting 'triclinic'
loop_
_space_group_symop_operation_xyz
x,y,z
-x,-y,-z
loop_
_atom_site_type_symbol
_atom_site_label
_atom_site_fract_x
_atom_site_fract_y
_atom_site_fract_z
Si Si1 0.345209 0.788572 0.704754
Si Si2 0.195839 0.159005 0.198686
Si Si3 0.857959 0.736055 0.306185
Si Si4 0.904695 0.787036 0.678652
Si Si5 0.792878 0.250329 0.162337
Si Si6 0.045440 0.878441 0.985664
Si Si7 0.572868 0.655333 0.196019
Si Si8 0.508330 0.178317 0.500113
O O1 0.322888 0.704652 0.831122
O O2 0.416942 0.515456 0.804264
O O3 0.197140 0.950426 0.534331
O O4 0.420292 0.048319 0.596327
O O5 0.123845 0.163084 0.258905
O O6 0.091606 0.118132 0.114034
O O7 0.337479 0.914141 0.368533
O O8 0.228677 0.469545 0.042330
O O9 0.730492 0.606572 0.304297
O O10 0.000000 0.500000 0.500000
O O11 0.811319 0.963245 0.253970
O O12 0.883282 0.922270 0.143315
O O13 0.063018 0.771243 0.730600
O O14 0.877325 0.469715 0.807831
O O15 0.000000 0.000000 0.000000
O O16 0.484765 0.510019 0.298671
O O17 0.500000 0.000000 0.000000
O O18 0.500000 0.000000 0.500000
#
# Coordination Sequence:
#
# PCOD9034121 Si02
#       8
#     2   2   2   2   2   2   2   2
#     4  11  25  43  71  98 133 187 234 274 337 427
#     4  11  20  44  70  96 133 182 231 275 339 416
#     4  12  25  42  66  98 143 176 222 289 360 399
#     4  11  20  43  70  97 135 180 233 274 341 416
#     4  11  24  40  67 104 132 176 232 285 335 413
#     4  11  25  39  65 102 136 178 223 286 345 404
#     4  11  26  43  69 100 137 175 232 293 346 405
#     4  10  22  44  71  93 131 184 231 271 339 418
#
# _framework density 21.444669000000001
#
# number of rings (size 3 to 8) (size 9 to 14) (size 15 to 20)
#    0.000    1.000    5.000    2.625   10.500    0.500 
#    0.000    0.625    0.000    0.000    0.000    0.000 
#    0.000    0.000    0.000    0.000    0.000    0.000 
#
# Total GULP energy -89438.375988 kJ/mol
# GULP energy per Si atom -5589.898499 kJ/mol
# Density = 2.139586 g / cm^3
# Si number density = 21.444669 Si / 1000 Ang^3
#
#
#
# Elastic Constant Matrix: (Units=GPa)
#
#
# Indices 1 2 3 4 5 6 
#
# 1 104.9364 23.3583 22.0716 -2.4337 -31.4721 -4.8769
# 2 23.3583 70.9597 19.9006 -8.0470 -15.1646 -9.8353
# 3 22.0716 19.9006 81.3508 -17.3703 -5.7450 -7.9049
# 4 -2.4337 -8.0470 -17.3703 25.4831 3.5312 -4.3097
# 5 -31.4721 -15.1646 -5.7450 3.5312 35.7672 -0.4705
# 6 -4.8769 -9.8353 -7.9049 -4.3097 -0.4705 31.6215
#
#
#
# Elastic Compliance Matrix: (Units=1/GPa)
#
#
# Indices 1 2 3 4 5 6 
#
# 1 0.013897 -0.001480 -0.003118 -0.002724 0.011378 0.000701
# 2 -0.001480 0.017545 -0.002108 0.004109 0.005462 0.005343
# 3 -0.003118 -0.002108 0.016333 0.011207 -0.002062 0.004443
# 4 -0.002724 0.004109 0.011207 0.050194 -0.003673 0.010446
# 5 0.011378 0.005462 -0.002062 -0.003673 0.040357 0.003038
# 6 0.000701 0.005343 0.004443 0.010446 0.003038 0.035974
#
#
# Mechanical properties :
#
#
# Convention : Reuss Voigt Hill
#
# Bulk Modulus (GPa) = 29.10210 43.10086 36.10148
# Shear Modulus (GPa) = 25.10469 31.36879 28.23674
#
# Velocity S-wave (km/s) = 3.42522 3.82878 3.63261
# Velocity P-wave (km/s) = 5.40769 6.29987 5.87075
#
# Compressibility (1/GPa) = 0.03436179
#
# Stress axis : x y z
#
# Youngs Moduli (GPa) = 71.95958 56.99712 61.22482
#
# Poissons Ratio (x) = 0.08436 0.19091
# Poissons Ratio (y) = 0.10651 0.12907
# Poissons Ratio (z) = 0.22438 0.12016
#
# Static dielectric constant tensor:
#      x y z
#    x 1.801200 0.012200 0.005390 
#    y 0.012200 1.791060 -0.019440 
#    z 0.005390 -0.019440 1.817630 
# 
# From -- ./inp_files/319491.got.cif
#   From: 2010.05.17/outbox.cif.g08.bks.cpg/sg2_160_cif.got.tgz:319491.got - 2010.06.03 11:33:40.
