data_PCOD9034187
_publ_section_title
;
Structure prediction by ZEFSAII (Michael W. Deem and Ramdas Pophale) SiO2 
 PCOD9034187
Probable space group: P -1
;
_chemical_formula_sum "Si O2"
_cell_formula_units_Z 16
_cell_length_a 9.618359
_cell_length_b 12.392755
_cell_length_c 8.435498
_cell_angle_alpha 52.460681
_cell_angle_beta 80.321778
_cell_angle_gamma 69.283023
_cell_volume 744.212067
_symmetry_space_group_name_H-M "P -1"
_symmetry_group_IT_number 2
_symmetry_cell_setting 'triclinic'
loop_
_space_group_symop_operation_xyz
x,y,z
-x,-y,-z
loop_
_atom_site_type_symbol
_atom_site_label
_atom_site_fract_x
_atom_site_fract_y
_atom_site_fract_z
Si Si1 0.812344 0.419137 0.311623
Si Si2 0.490812 0.587541 0.260021
Si Si3 0.148257 0.859304 0.594800
Si Si4 0.189430 0.632451 0.079176
Si Si5 0.598621 0.853304 0.040549
Si Si6 0.658405 0.939960 0.604687
Si Si7 0.865424 0.645950 0.691396
Si Si8 0.115650 0.346212 0.697331
O O1 0.642417 0.495928 0.219866
O O2 0.832945 0.248581 0.463184
O O3 0.826190 0.526485 0.355420
O O4 0.972225 0.402236 0.215195
O O5 0.500000 0.500000 0.500000
O O6 0.335962 0.616199 0.171082
O O7 0.511395 0.738716 0.162177
O O8 0.278437 0.928625 0.509087
O O9 0.163419 0.754773 0.839282
O O10 0.000000 0.000000 0.500000
O O11 0.212748 0.472329 0.150148
O O12 0.036420 0.660241 0.186089
O O13 0.751552 0.794947 0.158459
O O14 0.640404 0.875420 0.834542
O O15 0.500000 0.000000 0.000000
O O16 0.771556 0.806485 0.610246
O O17 0.500000 0.000000 0.500000
O O18 0.891291 0.642344 0.500067
#
# Coordination Sequence:
#
# PCOD9034187 Si02
#       8
#     2   2   2   2   2   2   2   2
#     4  10  23  41  71  95 141 176 232 275 350 405
#     4  11  24  44  72 104 135 175 238 296 340 404
#     4  12  26  46  66 104 143 183 234 290 352 411
#     4  11  24  41  73 105 135 180 240 287 344 415
#     4  11  25  46  68  98 139 186 229 274 357 421
#     4  12  27  45  68  99 145 188 226 288 356 417
#     4  11  23  45  72 100 138 181 236 285 357 415
#     4  10  22  44  72 101 134 183 232 288 348 412
#
# _framework density 21.499248000000001
#
# number of rings (size 3 to 8) (size 9 to 14) (size 15 to 20)
#    0.000    1.000    1.250    6.000    7.000    1.500 
#    0.000    1.250    0.000    0.000    0.000    0.000 
#    0.000    0.000    0.000    0.000    0.000    0.000 
#
# Total GULP energy -89285.054479 kJ/mol
# GULP energy per Si atom -5580.315905 kJ/mol
# Density = 2.145031 g / cm^3
# Si number density = 21.499248 Si / 1000 Ang^3
#
#
#
# Elastic Constant Matrix: (Units=GPa)
#
#
# Indices 1 2 3 4 5 6 
#
# 1 177.0286 49.8438 54.8386 -12.3977 11.3857 7.7988
# 2 49.8438 123.1019 27.1957 -34.2175 -7.2253 -7.2374
# 3 54.8386 27.1957 150.6976 -7.7594 -3.7662 11.3126
# 4 -12.3977 -34.2175 -7.7594 36.9037 1.3173 0.0924
# 5 11.3857 -7.2253 -3.7662 1.3173 48.5337 -14.2747
# 6 7.7988 -7.2374 11.3126 0.0924 -14.2747 35.1217
#
#
#
# Elastic Compliance Matrix: (Units=1/GPa)
#
#
# Indices 1 2 3 4 5 6 
#
# 1 0.007448 -0.003121 -0.002042 -0.000699 -0.003217 -0.002945
# 2 -0.003121 0.013133 -0.000978 0.010772 0.003865 0.005257
# 3 -0.002042 -0.000978 0.007723 0.000025 0.000312 -0.002109
# 4 -0.000699 0.010772 0.000025 0.036790 0.001634 0.002934
# 5 -0.003217 0.003865 0.000312 0.001634 0.025359 0.011713
# 6 -0.002945 0.005257 -0.002109 0.002934 0.011713 0.035642
#
#
# Mechanical properties :
#
#
# Convention : Reuss Voigt Hill
#
# Bulk Modulus (GPa) = 62.41388 79.39824 70.90606
# Shear Modulus (GPa) = 34.79054 45.37518 40.08286
#
# Velocity S-wave (km/s) = 4.02708 4.59905 4.32254
# Velocity P-wave (km/s) = 7.12158 8.07543 7.61346
#
# Compressibility (1/GPa) = 0.01602208
#
# Stress axis : x y z
#
# Youngs Moduli (GPa) = 134.26695 76.14421 129.48502
#
# Poissons Ratio (x) = 0.23761 0.26446
# Poissons Ratio (y) = 0.41899 0.12662
# Poissons Ratio (z) = 0.27423 0.07446
#
# Static dielectric constant tensor:
#      x y z
#    x 1.808480 -0.011070 -0.030340 
#    y -0.011070 1.830950 0.077310 
#    z -0.030340 0.077310 1.804790 
# 
# From -- ./inp_files/184183.got.cif
#   From: 2010.05.17/outbox.cif.g08.bks.cpg/sg2_93_cif.got.tgz:184183.got - 2010.06.03 11:33:40.
