data_PCOD9034360
_publ_section_title
;
Structure prediction by ZEFSAII (Michael W. Deem and Ramdas Pophale) SiO2 
 PCOD9034360
Probable space group: P -1
;
_chemical_formula_sum "Si O2"
_cell_formula_units_Z 16
_cell_length_a 10.885416
_cell_length_b 15.402104
_cell_length_c 9.256571
_cell_angle_alpha 124.337690
_cell_angle_beta 39.185505
_cell_angle_gamma 101.603072
_cell_volume 722.043105
_symmetry_space_group_name_H-M "P -1"
_symmetry_group_IT_number 2
_symmetry_cell_setting 'triclinic'
loop_
_space_group_symop_operation_xyz
x,y,z
-x,-y,-z
loop_
_atom_site_type_symbol
_atom_site_label
_atom_site_fract_x
_atom_site_fract_y
_atom_site_fract_z
Si Si1 0.118905 0.692468 0.450695
Si Si2 0.027244 0.130975 0.735189
Si Si3 0.452592 0.770416 0.864481
Si Si4 0.514824 0.454791 0.207621
Si Si5 0.238512 0.139676 0.252539
Si Si6 0.782135 0.579287 0.184436
Si Si7 0.020401 0.944528 0.773444
Si Si8 0.019695 0.651495 0.815727
O O1 0.000630 0.683607 0.694719
O O2 0.947603 0.731407 0.510371
O O3 0.168742 0.804890 0.523575
O O4 0.339718 0.581158 0.103563
O O5 0.786242 0.166330 0.925312
O O6 0.010157 0.237175 0.953999
O O7 0.174189 0.116617 0.448170
O O8 0.094533 0.014640 0.660047
O O9 0.463399 0.666267 0.859565
O O10 0.535598 0.855199 0.945683
O O11 0.633253 0.702540 0.513392
O O12 0.636699 0.510996 0.246621
O O13 0.265676 0.548673 0.510290
O O14 0.199376 0.054850 0.094332
O O15 0.000000 0.500000 0.000000
O O16 0.856804 0.604787 0.985007
O O17 0.000000 0.000000 0.000000
#
# Coordination Sequence:
#
# PCOD9034360 Si02
#       8
#     2   2   2   2   2   2   2   2
#     4  10  24  45  63  96 131 174 220 266 327 385
#     4  12  21  42  70  97 127 175 219 270 327 381
#     4  12  22  39  66 102 135 163 221 272 321 388
#     4  12  24  41  65  97 134 179 213 266 326 392
#     4  10  23  41  68  97 130 170 218 274 321 382
#     4  12  23  38  64  97 135 174 216 264 324 389
#     4  10  22  44  73  90 128 175 218 272 330 383
#     4  12  24  40  68  95 136 175 215 268 329 387
#
# _framework density 22.159341000000001
#
# number of rings (size 3 to 8) (size 9 to 14) (size 15 to 20)
#    0.750    0.000    6.250    2.625    0.000    1.000 
#    2.250    0.000    0.000    4.500    0.000    0.000 
#    0.000    0.000    0.000    0.000    0.000    0.000 
#
# Total GULP energy -89459.634085 kJ/mol
# GULP energy per Si atom -5591.227130 kJ/mol
# Density = 2.210891 g / cm^3
# Si number density = 22.159341 Si / 1000 Ang^3
#
#
#
# Elastic Constant Matrix: (Units=GPa)
#
#
# Indices 1 2 3 4 5 6 
#
# 1 63.4664 48.3428 26.2234 -12.8292 15.6920 14.6410
# 2 48.3428 129.7472 40.4874 -33.9913 6.0988 -5.2825
# 3 26.2234 40.4874 64.8540 -3.1477 10.6028 10.6169
# 4 -12.8292 -33.9913 -3.1477 31.1679 -2.8104 3.2635
# 5 15.6920 6.0988 10.6028 -2.8104 33.2820 -1.7049
# 6 14.6410 -5.2825 10.6169 3.2635 -1.7049 41.3419
#
#
#
# Elastic Compliance Matrix: (Units=1/GPa)
#
#
# Indices 1 2 3 4 5 6 
#
# 1 0.030632 -0.010489 -0.001713 0.001162 -0.012510 -0.012356
# 2 -0.010489 0.018009 -0.008476 0.014235 0.005922 0.007313
# 3 -0.001713 -0.008476 0.022991 -0.007529 -0.005908 -0.006030
# 4 0.001162 0.014235 -0.007529 0.047650 0.003251 -0.000287
# 5 -0.012510 0.005922 -0.005908 0.003251 0.037425 0.007991
# 6 -0.012356 0.007313 -0.006030 -0.000287 0.007991 0.031400
#
#
# Mechanical properties :
#
#
# Convention : Reuss Voigt Hill
#
# Bulk Modulus (GPa) = 33.03044 54.24167 43.63605
# Shear Modulus (GPa) = 20.87185 30.69263 25.78224
#
# Velocity S-wave (km/s) = 3.07237 3.72571 3.41470
# Velocity P-wave (km/s) = 5.24635 6.56042 5.93983
#
# Compressibility (1/GPa) = 0.03027510
#
# Stress axis : x y z
#
# Youngs Moduli (GPa) = 32.64510 55.52706 43.49501
#
# Poissons Ratio (x) = 0.58244 0.07452
# Poissons Ratio (y) = 0.34243 0.36867
# Poissons Ratio (z) = 0.05593 0.47065
#
# Static dielectric constant tensor:
#      x y z
#    x 1.821740 0.006240 0.041400 
#    y 0.006240 1.834230 0.031270 
#    z 0.041400 0.031270 1.838090 
# 
# From -- ./inp_files/270793.got.cif
#   From: 2010.05.17/outbox.cif.g08.bks.cpg/sg2_136_cif.got.tgz:270793.got - 2010.06.03 11:33:40.
