data_PCOD9034280
_publ_section_title
;
Structure prediction by ZEFSAII (Michael W. Deem and Ramdas Pophale) SiO2 
 PCOD9034280
Probable space group: P -1
;
_chemical_formula_sum "Si O2"
_cell_formula_units_Z 13
_cell_length_a 11.167935
_cell_length_b 11.621440
_cell_length_c 8.779477
_cell_angle_alpha 140.543180
_cell_angle_beta 75.619608
_cell_angle_gamma 123.437436
_cell_volume 569.587243
_symmetry_space_group_name_H-M "P -1"
_symmetry_group_IT_number 2
_symmetry_cell_setting 'triclinic'
loop_
_space_group_symop_operation_xyz
x,y,z
-x,-y,-z
loop_
_atom_site_type_symbol
_atom_site_label
_atom_site_fract_x
_atom_site_fract_y
_atom_site_fract_z
Si Si1 0.767839 0.030506 0.426866
Si Si2 0.846908 0.400635 0.351045
Si Si3 0.733623 0.725135 0.396335
Si Si4 0.241319 0.681481 0.026516
Si Si5 0.419372 0.067883 0.906332
Si Si6 0.500000 0.500000 0.500000
Si Si7 0.061523 0.149687 0.282042
O O1 0.784891 0.224948 0.720450
O O2 0.919195 0.125320 0.379214
O O3 0.742395 0.848399 0.368740
O O4 0.633500 0.924979 0.239483
O O5 0.816775 0.592592 0.545553
O O6 0.000000 0.500000 0.500000
O O7 0.706030 0.179700 0.246006
O O8 0.863177 0.359020 0.126761
O O9 0.576087 0.600208 0.408536
O O10 0.859245 0.895050 0.655523
O O11 0.768613 0.542252 0.168976
O O12 0.411379 0.864807 0.096948
O O13 0.427725 0.245897 0.197388
O O14 0.000000 0.000000 0.000000
#
# Coordination Sequence:
#
# PCOD9034280 Si02
#       7
#     2   2   2   2   2   1   2
#     4  12  24  43  72 102 147 185 232 303 361 421
#     4  11  23  44  71 102 138 189 238 290 352 420
#     4  10  24  43  67 106 138 186 237 288 357 422
#     4  10  25  43  69 102 142 183 240 295 357 424
#     4  11  23  45  72 106 137 190 241 291 362 423
#     4  10  22  44  72  96 144 182 236 290 344 422
#     4  11  25  44  68 101 142 187 238 290 355 430
#
# _framework density 22.823546
#
# number of rings (size 3 to 8) (size 9 to 14) (size 15 to 20)
#    0.000    1.231    1.538    3.231    2.154    8.615 
#    0.000    1.538    0.000    0.000    0.000    0.000 
#    0.000    0.000    0.000    0.000    0.000    0.000 
#
# Total GULP energy -72519.217254 kJ/mol
# GULP energy per Si atom -5578.401327 kJ/mol
# Density = 2.277160 g / cm^3
# Si number density = 22.823546 Si / 1000 Ang^3
#
#
#
# Elastic Constant Matrix: (Units=GPa)
#
#
# Indices 1 2 3 4 5 6 
#
# 1 54.6985 50.6939 38.4386 -16.4359 17.6172 -9.0745
# 2 50.6939 140.6270 90.6706 -1.2289 -4.2525 -22.0055
# 3 38.4386 90.6706 179.9153 -19.1670 -8.5002 -1.4419
# 4 -16.4359 -1.2289 -19.1670 43.6667 5.5713 0.8271
# 5 17.6172 -4.2525 -8.5002 5.5713 40.0479 -5.9530
# 6 -9.0745 -22.0055 -1.4419 0.8271 -5.9530 45.2890
#
#
#
# Elastic Compliance Matrix: (Units=1/GPa)
#
#
# Indices 1 2 3 4 5 6 
#
# 1 0.052772 -0.020236 -0.000022 0.023063 -0.029098 -0.003505
# 2 -0.020236 0.019849 -0.006266 -0.011522 0.012356 0.007225
# 3 -0.000022 -0.006266 0.009122 0.003829 0.000334 -0.002784
# 4 0.023063 -0.011522 0.003829 0.035043 -0.015965 -0.003594
# 5 -0.029098 0.012356 0.000334 -0.015965 0.042271 0.006032
# 6 -0.003505 0.007225 -0.002784 -0.003594 0.006032 0.025659
#
#
# Mechanical properties :
#
#
# Convention : Reuss Voigt Hill
#
# Bulk Modulus (GPa) = 34.84875 81.64964 58.24920
# Shear Modulus (GPa) = 20.21600 38.82988 29.52294
#
# Velocity S-wave (km/s) = 2.97939 4.12917 3.60047
# Velocity P-wave (km/s) = 5.20937 7.65410 6.54687
#
# Compressibility (1/GPa) = 0.02869543
#
# Stress axis : x y z
#
# Youngs Moduli (GPa) = 18.94935 50.38010 109.62514
#
# Poissons Ratio (x) = 1.01949 0.00246
# Poissons Ratio (y) = 0.38346 0.68686
# Poissons Ratio (z) = 0.00042 0.31566
#
# Static dielectric constant tensor:
#      x y z
#    x 2.195650 0.005510 -0.028480 
#    y 0.005510 1.818530 0.062550 
#    z -0.028480 0.062550 1.861950 
# 
# From -- ./inp_files/255467.got.cif
#   From: 2010.05.17/outbox.cif.g08.bks.cpg/sg2_128_cif.got.tgz:255467.got - 2010.06.03 11:33:40.
