data_PCOD9034170
_publ_section_title
;
Structure prediction by ZEFSAII (Michael W. Deem and Ramdas Pophale) SiO2 
 PCOD9034170
Probable space group: P -1
;
_chemical_formula_sum "Si O2"
_cell_formula_units_Z 16
_cell_length_a 25.368078
_cell_length_b 19.689722
_cell_length_c 8.646898
_cell_angle_alpha 38.636048
_cell_angle_beta 31.206399
_cell_angle_gamma 18.612079
_cell_volume 702.796845
_symmetry_space_group_name_H-M "P -1"
_symmetry_group_IT_number 2
_symmetry_cell_setting 'triclinic'
loop_
_space_group_symop_operation_xyz
x,y,z
-x,-y,-z
loop_
_atom_site_type_symbol
_atom_site_label
_atom_site_fract_x
_atom_site_fract_y
_atom_site_fract_z
Si Si1 0.141829 0.623849 0.086560
Si Si2 0.345057 0.049189 0.749902
Si Si3 0.045785 0.967066 0.760660
Si Si4 0.479932 0.638169 0.234138
Si Si5 0.972241 0.656417 0.747707
Si Si6 0.057972 0.542328 0.167678
Si Si7 0.347898 0.333018 0.582770
Si Si8 0.641893 0.450997 0.816197
O O1 0.019001 0.660883 0.452410
O O2 0.105696 0.600940 0.053327
O O3 0.077712 0.810839 0.909678
O O4 0.374298 0.416284 0.937351
O O5 0.140569 0.262301 0.788285
O O6 0.500000 0.000000 0.500000
O O7 0.478231 0.859168 0.630737
O O8 0.244552 0.107626 0.061500
O O9 0.237933 0.869132 0.427378
O O10 0.860781 0.194815 0.733028
O O11 0.000000 0.000000 0.000000
O O12 0.500000 0.500000 0.500000
O O13 0.566222 0.545158 0.011804
O O14 0.151550 0.543510 0.598412
O O15 0.000000 0.500000 0.000000
O O16 0.000000 0.500000 0.500000
O O17 0.255042 0.334758 0.935973
O O18 0.389631 0.404056 0.443675
O O19 0.500000 0.500000 0.000000
#
# Coordination Sequence:
#
# PCOD9034170 Si02
#       8
#     2   2   2   2   2   2   2   2
#     4  11  23  46  72 107 144 193 234 307 366 420
#     4  11  25  46  75 100 139 194 234 291 360 434
#     4  11  23  45  72 105 141 188 244 288 357 431
#     4  10  22  44  71  99 139 184 244 284 363 427
#     4  11  21  45  74 104 143 178 238 296 352 431
#     4  11  28  47  70 105 148 179 237 304 355 431
#     4  11  25  46  68 103 142 185 240 282 369 418
#     4  12  27  44  69 106 147 188 237 306 346 423
#
# _framework density 22.766182000000001
#
# number of rings (size 3 to 8) (size 9 to 14) (size 15 to 20)
#    0.000    1.000    5.000    1.500    5.250    4.000 
#    0.000    0.000    0.000    0.000    0.000    0.000 
#    0.000    0.000    0.000    0.000    0.000    0.000 
#
# Total GULP energy -89224.009849 kJ/mol
# GULP energy per Si atom -5576.500616 kJ/mol
# Density = 2.271437 g / cm^3
# Si number density = 22.766182 Si / 1000 Ang^3
#
#
#
# Elastic Constant Matrix: (Units=GPa)
#
#
# Indices 1 2 3 4 5 6 
#
# 1 130.5683 35.3649 39.0854 13.1899 -28.7791 9.9058
# 2 35.3649 113.4289 56.7940 29.0476 -14.3413 13.3727
# 3 39.0854 56.7940 162.5023 24.5311 -2.3546 13.7907
# 4 13.1899 29.0476 24.5311 46.4943 -0.2031 -10.2596
# 5 -28.7791 -14.3413 -2.3546 -0.2031 44.1502 0.8583
# 6 9.9058 13.3727 13.7907 -10.2596 0.8583 35.8968
#
#
#
# Elastic Compliance Matrix: (Units=1/GPa)
#
#
# Indices 1 2 3 4 5 6 
#
# 1 0.010136 -0.000706 -0.001537 -0.002197 0.006338 -0.002723
# 2 -0.000706 0.013830 -0.002807 -0.008345 0.003968 -0.006359
# 3 -0.001537 -0.002807 0.008073 -0.002592 -0.001449 -0.002338
# 4 -0.002197 -0.008345 -0.002592 0.031759 -0.004405 0.013893
# 5 0.006338 0.003968 -0.001449 -0.004405 0.028062 -0.004601
# 6 -0.002723 -0.006359 -0.002338 0.013893 -0.004601 0.035957
#
#
# Mechanical properties :
#
#
# Convention : Reuss Voigt Hill
#
# Bulk Modulus (GPa) = 45.57812 74.33202 59.95507
# Shear Modulus (GPa) = 34.42842 43.65861 39.04351
#
# Velocity S-wave (km/s) = 3.89300 4.38390 4.14572
# Velocity P-wave (km/s) = 6.34593 7.63845 7.02199
#
# Compressibility (1/GPa) = 0.02194035
#
# Stress axis : x y z
#
# Youngs Moduli (GPa) = 98.66254 72.30686 123.86860
#
# Poissons Ratio (x) = 0.05102 0.19034
# Poissons Ratio (y) = 0.06962 0.34769
# Poissons Ratio (z) = 0.15161 0.20296
#
# Static dielectric constant tensor:
#      x y z
#    x 1.997900 0.041790 -0.048770 
#    y 0.041790 1.905990 -0.059150 
#    z -0.048770 -0.059150 1.979350 
# 
# From -- ./inp_files/357793.got.cif
#   From: 2010.05.17/outbox.cif.g08.bks.cpg/sg2_179_cif.got.tgz:357793.got - 2010.06.03 11:33:40.
