data_PCOD9034410
_publ_section_title
;
Structure prediction by ZEFSAII (Michael W. Deem and Ramdas Pophale) SiO2 
 PCOD9034410
Probable space group: P -1
;
_chemical_formula_sum "Si O2"
_cell_formula_units_Z 14
_cell_length_a 21.908821
_cell_length_b 5.465858
_cell_length_c 5.058371
_cell_angle_alpha 83.263088
_cell_angle_beta 60.759152
_cell_angle_gamma 95.087307
_cell_volume 517.404066
_symmetry_space_group_name_H-M "P -1"
_symmetry_group_IT_number 2
_symmetry_cell_setting 'triclinic'
loop_
_space_group_symop_operation_xyz
x,y,z
-x,-y,-z
loop_
_atom_site_type_symbol
_atom_site_label
_atom_site_fract_x
_atom_site_fract_y
_atom_site_fract_z
Si Si1 0.047035 0.680975 0.666999
Si Si2 0.789844 0.829306 0.159903
Si Si3 0.586820 0.664428 0.015292
Si Si4 0.322485 0.607178 0.501844
Si Si5 0.727645 0.022760 0.792242
Si Si6 0.919936 0.773718 0.566422
Si Si7 0.546625 0.202812 0.557122
O O1 0.101990 0.498390 0.489864
O O2 0.996838 0.741621 0.523333
O O3 0.076227 0.970590 0.646045
O O4 0.000000 0.500000 0.000000
O O5 0.738446 0.578079 0.201236
O O6 0.770220 0.894526 0.490667
O O7 0.766568 0.033274 0.986366
O O8 0.868835 0.803162 0.916650
O O9 0.569241 0.441422 0.290309
O O10 0.512216 0.751744 0.108359
O O11 0.622756 0.562838 0.700656
O O12 0.647961 0.867991 0.987171
O O13 0.376964 0.833080 0.488462
O O14 0.282818 0.712432 0.331396
O O15 0.500000 0.000000 0.500000
#
# Coordination Sequence:
#
# PCOD9034410 Si02
#       7
#     2   2   2   2   2   2   2
#     4  10  22  44  74 107 151 189 242 299 357 422
#     4  11  27  46  69 106 140 190 237 294 353 440
#     4  10  23  42  62  95 131 174 230 298 354 435
#     4  11  25  44  69  92 141 176 238 293 367 426
#     4  11  26  44  72  97 141 183 239 291 364 426
#     4  10  24  43  71 109 147 190 248 293 360 430
#     4  11  23  39  69  94 130 174 235 295 372 420
#
# _framework density 27.058157000000001
#
# number of rings (size 3 to 8) (size 9 to 14) (size 15 to 20)
#    0.000    1.429    1.429    1.714    8.000    4.571 
#    0.000    0.000    0.000    0.000    0.000    0.000 
#    0.000    0.000    0.000    0.000    0.000    0.000 
#
# Total GULP energy -78338.615728 kJ/mol
# GULP energy per Si atom -5595.615409 kJ/mol
# Density = 2.699657 g / cm^3
# Si number density = 27.058157 Si / 1000 Ang^3
#
#
#
# Elastic Constant Matrix: (Units=GPa)
#
#
# Indices 1 2 3 4 5 6 
#
# 1 69.0980 21.4530 13.1122 -3.4862 -8.2564 0.9647
# 2 21.4530 160.5572 49.6765 -12.7750 -6.9360 -11.5947
# 3 13.1122 49.6765 116.4443 -1.5825 -18.8408 4.3137
# 4 -3.4862 -12.7750 -1.5825 43.8870 -7.2034 9.4497
# 5 -8.2564 -6.9360 -18.8408 -7.2034 42.7641 -0.6456
# 6 0.9647 -11.5947 4.3137 9.4497 -0.6456 24.1530
#
#
#
# Elastic Compliance Matrix: (Units=1/GPa)
#
#
# Indices 1 2 3 4 5 6 
#
# 1 0.015561 -0.001847 -0.000425 0.001558 0.002750 -0.001968
# 2 -0.001847 0.007871 -0.003331 0.001113 -0.000300 0.004004
# 3 -0.000425 -0.003331 0.010900 0.000903 0.004275 -0.003768
# 4 0.001558 0.001113 0.000903 0.026224 0.005148 -0.009811
# 5 0.002750 -0.000300 0.004275 0.005148 0.026582 -0.002321
# 6 -0.001968 0.004004 -0.003768 -0.009811 -0.002321 0.047853
#
#
# Mechanical properties :
#
#
# Convention : Reuss Voigt Hill
#
# Bulk Modulus (GPa) = 43.24348 57.17587 50.20967
# Shear Modulus (GPa) = 32.48728 39.61800 36.05264
#
# Velocity S-wave (km/s) = 3.46879 3.83061 3.65418
# Velocity P-wave (km/s) = 5.66213 6.38290 6.03329
#
# Compressibility (1/GPa) = 0.02312487
#
# Stress axis : x y z
#
# Youngs Moduli (GPa) = 64.26301 127.05585 91.73909
#
# Poissons Ratio (x) = 0.23467 0.03901
# Poissons Ratio (y) = 0.11869 0.30562
# Poissons Ratio (z) = 0.02733 0.42327
#
# Static dielectric constant tensor:
#      x y z
#    x 2.143090 0.075770 0.029090 
#    y 0.075770 2.252500 0.058670 
#    z 0.029090 0.058670 2.111760 
# 
# From -- ./inp_files/8047.got.cif
#   From: 2010.05.17/outbox.cif.g08.bks.cpg/sg2_5_cif.got.tgz:8047.got - 2010.06.03 11:33:40.
