data_PCOD9034389
_publ_section_title
;
Structure prediction by ZEFSAII (Michael W. Deem and Ramdas Pophale) SiO2 
 PCOD9034389
Probable space group: P -1
;
_chemical_formula_sum "Si O2"
_cell_formula_units_Z 16
_cell_length_a 5.645551
_cell_length_b 22.651278
_cell_length_c 9.162749
_cell_angle_alpha 53.856327
_cell_angle_beta 69.980876
_cell_angle_gamma 47.518826
_cell_volume 694.740646
_symmetry_space_group_name_H-M "P -1"
_symmetry_group_IT_number 2
_symmetry_cell_setting 'triclinic'
loop_
_space_group_symop_operation_xyz
x,y,z
-x,-y,-z
loop_
_atom_site_type_symbol
_atom_site_label
_atom_site_fract_x
_atom_site_fract_y
_atom_site_fract_z
Si Si1 0.089986 0.780324 0.355809
Si Si2 0.367689 0.504589 0.677145
Si Si3 0.358130 0.099143 0.958033
Si Si4 0.611058 0.605765 0.637403
Si Si5 0.150314 0.905058 0.337455
Si Si6 0.511172 0.073406 0.298317
Si Si7 0.351514 0.224791 0.337821
Si Si8 0.663212 0.605939 0.943212
O O1 0.457021 0.694538 0.435212
O O2 0.975241 0.869614 0.346879
O O3 0.984223 0.817232 0.161920
O O4 0.905800 0.746683 0.521848
O O5 0.500000 0.500000 0.500000
O O6 0.504171 0.546143 0.687593
O O7 0.986266 0.558561 0.648078
O O8 0.490829 0.408426 0.868670
O O9 0.600080 0.114070 0.810851
O O10 0.359467 0.095831 0.136433
O O11 0.500000 0.000000 0.000000
O O12 0.473407 0.635180 0.788189
O O13 0.319832 0.845644 0.534803
O O14 0.894466 0.013597 0.272890
O O15 0.365126 0.164218 0.293254
O O16 0.500000 0.000000 0.500000
O O17 0.292220 0.316410 0.157613
O O18 0.000000 0.500000 0.000000
#
# Coordination Sequence:
#
# PCOD9034389 Si02
#       8
#     2   2   2   2   2   2   2   2
#     4  11  22  42  70  96 136 182 246 290 351 441
#     4  11  25  47  73 110 149 185 235 306 377 431
#     4  11  24  42  65  96 135 189 243 291 361 446
#     4  11  23  46  76 102 141 193 242 293 361 448
#     4  11  22  43  67  93 136 184 235 293 361 436
#     4  12  23  44  68 100 140 188 235 310 369 424
#     4  11  23  42  68 104 140 181 245 310 369 427
#     4  10  22  44  74 103 138 190 238 292 359 446
#
# _framework density 23.030179
#
# number of rings (size 3 to 8) (size 9 to 14) (size 15 to 20)
#    0.000    1.000    3.750    3.750    1.750    1.000 
#    2.250    3.750    0.000    0.000    0.000    0.000 
#    0.000    0.000    0.000    0.000    0.000    0.000 
#
# Total GULP energy -89346.013432 kJ/mol
# GULP energy per Si atom -5584.125839 kJ/mol
# Density = 2.297776 g / cm^3
# Si number density = 23.030179 Si / 1000 Ang^3
#
#
#
# Elastic Constant Matrix: (Units=GPa)
#
#
# Indices 1 2 3 4 5 6 
#
# 1 99.3186 45.1707 61.5939 -1.5724 9.5028 16.2044
# 2 45.1707 55.9238 65.1909 -9.7835 1.6670 28.3563
# 3 61.5939 65.1909 207.1312 5.5401 15.5809 22.9440
# 4 -1.5724 -9.7835 5.5401 33.4969 5.7271 -0.1129
# 5 9.5028 1.6670 15.5809 5.7271 42.7748 -9.5334
# 6 16.2044 28.3563 22.9440 -0.1129 -9.5334 42.7122
#
#
#
# Elastic Compliance Matrix: (Units=1/GPa)
#
#
# Indices 1 2 3 4 5 6 
#
# 1 0.016941 -0.015971 -0.000219 -0.003526 -0.001720 0.003901
# 2 -0.015971 0.064938 -0.012472 0.020892 -0.004199 -0.031235
# 3 -0.000219 -0.012472 0.008659 -0.004868 -0.001203 0.003430
# 4 -0.003526 0.020892 -0.004868 0.037542 -0.005759 -0.011104
# 5 -0.001720 -0.004199 -0.001203 -0.005759 0.027404 0.010187
# 6 0.003901 -0.031235 0.003430 -0.011104 0.010187 0.043071
#
#
# Mechanical properties :
#
#
# Convention : Reuss Voigt Hill
#
# Bulk Modulus (GPa) = 30.10838 78.47606 54.29222
# Shear Modulus (GPa) = 18.73004 36.49132 27.61068
#
# Velocity S-wave (km/s) = 2.85490 3.98490 3.46626
# Velocity P-wave (km/s) = 4.89583 7.43786 6.29647
#
# Compressibility (1/GPa) = 0.03321334
#
# Stress axis : x y z
#
# Youngs Moduli (GPa) = 59.02959 15.39927 115.48492
#
# Poissons Ratio (x) = 0.24594 0.02534
# Poissons Ratio (y) = 0.94276 1.44032
# Poissons Ratio (z) = 0.01295 0.19206
#
# Static dielectric constant tensor:
#      x y z
#    x 2.013030 -0.094800 -0.054930 
#    y -0.094800 1.990250 0.016950 
#    z -0.054930 0.016950 1.899200 
# 
# From -- ./inp_files/142538.got.cif
#   From: 2010.05.17/outbox.cif.g08.bks.cpg/sg2_72_cif.got.tgz:142538.got - 2010.06.03 11:33:40.
