data_PCOD9034570
_publ_section_title
;
Structure prediction by ZEFSAII (Michael W. Deem and Ramdas Pophale) SiO2 
 PCOD9034570
Probable space group: P -1
;
_chemical_formula_sum "Si O2"
_cell_formula_units_Z 16
_cell_length_a 8.594509
_cell_length_b 16.340160
_cell_length_c 8.399711
_cell_angle_alpha 97.815663
_cell_angle_beta 109.083534
_cell_angle_gamma 132.710261
_cell_volume 702.067248
_symmetry_space_group_name_H-M "P -1"
_symmetry_group_IT_number 2
_symmetry_cell_setting 'triclinic'
loop_
_space_group_symop_operation_xyz
x,y,z
-x,-y,-z
loop_
_atom_site_type_symbol
_atom_site_label
_atom_site_fract_x
_atom_site_fract_y
_atom_site_fract_z
Si Si1 0.595407 0.193558 0.561161
Si Si2 0.470786 0.609926 0.106808
Si Si3 0.928996 0.285614 0.169478
Si Si4 0.283777 0.291127 0.433380
Si Si5 0.198678 0.552693 0.440961
Si Si6 0.466875 0.185693 0.873962
Si Si7 0.077038 0.308800 0.872698
Si Si8 0.922943 0.969116 0.782943
O O1 0.719249 0.330013 0.586581
O O2 0.492740 0.160288 0.698759
O O3 0.338641 0.079640 0.342640
O O4 0.830331 0.220087 0.650823
O O5 0.575002 0.646639 0.332614
O O6 0.393258 0.671830 0.052541
O O7 0.715868 0.678593 0.101562
O O8 0.238453 0.456984 0.958484
O O9 0.076257 0.282987 0.339129
O O10 0.063453 0.427160 0.264604
O O11 0.623375 0.187307 0.047940
O O12 0.981154 0.265719 0.009638
O O13 0.519964 0.379730 0.406581
O O14 0.147503 0.150356 0.331136
O O15 0.000000 0.500000 0.500000
O O16 0.174151 0.089705 0.798225
O O17 0.000000 0.000000 0.000000
#
# Coordination Sequence:
#
# PCOD9034570 Si02
#       8
#     2   2   2   2   2   2   2   2
#     4  10  22  45  64  97 131 174 225 270 328 396
#     4  11  22  41  70  98 135 175 216 266 337 403
#     4  11  24  40  65 101 138 169 216 273 336 396
#     4  11  25  44  64 100 138 172 221 276 330 390
#     4  11  23  37  68  98 138 175 212 264 335 400
#     4  11  23  44  70  91 129 181 224 273 326 389
#     4  10  23  39  67 102 136 167 214 274 335 406
#     4  11  26  44  70  92 130 176 234 278 327 386
#
# _framework density 22.789842
#
# number of rings (size 3 to 8) (size 9 to 14) (size 15 to 20)
#    0.000    1.250    3.750    1.500    7.000    3.500 
#    0.000    0.625    0.000    0.000    0.000    0.000 
#    0.000    0.000    0.000    0.000    0.000    0.000 
#
# Total GULP energy -89404.188992 kJ/mol
# GULP energy per Si atom -5587.761812 kJ/mol
# Density = 2.273797 g / cm^3
# Si number density = 22.789842 Si / 1000 Ang^3
#
#
#
# Elastic Constant Matrix: (Units=GPa)
#
#
# Indices 1 2 3 4 5 6 
#
# 1 61.1210 6.1105 39.5842 -14.4755 15.0111 1.5771
# 2 6.1105 41.1661 17.6916 0.4602 10.6877 14.1041
# 3 39.5842 17.6916 81.6025 -1.7519 29.1658 -2.9035
# 4 -14.4755 0.4602 -1.7519 22.3490 -0.8320 3.2186
# 5 15.0111 10.6877 29.1658 -0.8320 41.3505 -11.4994
# 6 1.5771 14.1041 -2.9035 3.2186 -11.4994 24.9093
#
#
#
# Elastic Compliance Matrix: (Units=1/GPa)
#
#
# Indices 1 2 3 4 5 6 
#
# 1 0.032474 0.008096 -0.015146 0.021487 -0.006741 -0.014294
# 2 0.008096 0.043241 -0.007865 0.008154 -0.018246 -0.035390
# 3 -0.015146 -0.007865 0.024242 -0.008859 -0.008188 0.005603
# 4 0.021487 0.008154 -0.008859 0.060149 -0.007526 -0.018256
# 5 -0.006741 -0.018246 -0.008188 -0.007526 0.045854 0.031945
# 6 -0.014294 -0.035390 0.005603 -0.018256 0.031945 0.078848
#
#
# Mechanical properties :
#
#
# Convention : Reuss Voigt Hill
#
# Bulk Modulus (GPa) = 14.25959 34.51802 24.38881
# Shear Modulus (GPa) = 14.79232 25.75533 20.27382
#
# Velocity S-wave (km/s) = 2.55046 3.36538 2.98585
# Velocity P-wave (km/s) = 3.86571 5.50274 4.75520
#
# Compressibility (1/GPa) = 0.07012823
#
# Stress axis : x y z
#
# Youngs Moduli (GPa) = 30.79417 23.12610 41.25032
#
# Poissons Ratio (x) = -0.18723 0.62476
# Poissons Ratio (y) = -0.24931 0.32443
# Poissons Ratio (z) = 0.46640 0.18188
#
# Static dielectric constant tensor:
#      x y z
#    x 1.877510 0.005530 0.035360 
#    y 0.005530 1.843140 -0.017370 
#    z 0.035360 -0.017370 1.867540 
# 
# From -- ./inp_files/207925.got.cif
#   From: 2010.05.17/outbox.cif.g08.bks.cpg/sg2_104_cif.got.tgz:207925.got - 2010.06.03 11:33:40.
