data_PCOD9034628
_publ_section_title
;
Structure prediction by ZEFSAII (Michael W. Deem and Ramdas Pophale) SiO2 
 PCOD9034628
Probable space group: P -1
;
_chemical_formula_sum "Si O2"
_cell_formula_units_Z 14
_cell_length_a 23.127865
_cell_length_b 9.652043
_cell_length_c 9.900400
_cell_angle_alpha 107.867722
_cell_angle_beta 142.449409
_cell_angle_gamma 43.370076
_cell_volume 707.668922
_symmetry_space_group_name_H-M "P -1"
_symmetry_group_IT_number 2
_symmetry_cell_setting 'triclinic'
loop_
_space_group_symop_operation_xyz
x,y,z
-x,-y,-z
loop_
_atom_site_type_symbol
_atom_site_label
_atom_site_fract_x
_atom_site_fract_y
_atom_site_fract_z
Si Si1 0.434051 0.416708 0.702303
Si Si2 0.307477 0.906372 0.674810
Si Si3 0.288853 0.892886 0.099556
Si Si4 0.023884 0.295422 0.486599
Si Si5 0.843068 0.812019 0.784005
Si Si6 0.069127 0.805728 0.181337
Si Si7 0.106857 0.836566 0.783495
O O1 0.366083 0.669462 0.669889
O O2 0.540978 0.284207 0.722013
O O3 0.268490 0.526446 0.437350
O O4 0.553706 0.224419 0.994231
O O5 0.133646 0.121149 0.503784
O O6 0.277125 0.046183 0.529156
O O7 0.260833 0.023726 0.221332
O O8 0.265259 0.749761 0.048888
O O9 0.136536 0.120926 0.777760
O O10 0.000000 0.500000 0.500000
O O11 0.872929 0.365037 0.227356
O O12 0.000000 0.500000 0.000000
O O13 0.950183 0.819956 0.958007
O O14 0.025522 0.937711 0.280892
O O15 0.000000 0.000000 0.000000
O O16 0.000000 0.000000 0.500000
#
# Coordination Sequence:
#
# PCOD9034628 Si02
#       7
#     2   2   2   2   2   2   2
#     4  10  20  38  61  84 115 150 200 240 272 347
#     4  10  20  35  61  84 114 153 190 232 292 331
#     4   9  21  34  56  83 114 147 188 239 291 323
#     4  10  17  32  57  82 112 151 193 228 277 352
#     4  11  22  39  60  87 121 150 187 240 294 343
#     4  11  20  38  61  84 109 156 202 229 276 347
#     4   9  18  33  51  83 109 142 195 232 277 331
#
# _framework density 19.783262000000001
#
# number of rings (size 3 to 8) (size 9 to 14) (size 15 to 20)
#    0.000    2.000    2.857    0.857    2.000    0.571 
#    0.000    1.429    6.286    0.000    0.000    0.000 
#    0.000    0.000    0.000    0.000    0.000    0.000 
#
# Total GULP energy -77968.248747 kJ/mol
# GULP energy per Si atom -5569.160625 kJ/mol
# Density = 1.973823 g / cm^3
# Si number density = 19.783262 Si / 1000 Ang^3
#
#
#
# Elastic Constant Matrix: (Units=GPa)
#
#
# Indices 1 2 3 4 5 6 
#
# 1 120.7896 46.5784 43.2188 0.9716 -17.4210 -26.9197
# 2 46.5784 74.4558 15.1720 -4.1905 -13.4141 4.3927
# 3 43.2188 15.1720 49.9889 -0.9750 -13.3575 -21.7659
# 4 0.9716 -4.1905 -0.9750 11.8043 2.1928 -2.4042
# 5 -17.4210 -13.4141 -13.3575 2.1928 41.4945 2.2910
# 6 -26.9197 4.3927 -21.7659 -2.4042 2.2910 38.0636
#
#
#
# Elastic Compliance Matrix: (Units=1/GPa)
#
#
# Indices 1 2 3 4 5 6 
#
# 1 0.016679 -0.009314 -0.007823 -0.003910 0.001234 0.008076
# 2 -0.009314 0.020980 -0.001815 0.005588 0.002536 -0.009846
# 3 -0.007823 -0.001815 0.035687 0.004786 0.006536 0.014992
# 4 -0.003910 0.005588 0.004786 0.089075 -0.003286 0.005151
# 5 0.001234 0.002536 0.006536 -0.003286 0.027580 0.002450
# 6 0.008076 -0.009846 0.014992 0.005151 0.002450 0.041871
#
#
# Mechanical properties :
#
#
# Convention : Reuss Voigt Hill
#
# Bulk Modulus (GPa) = 28.21686 50.57472 39.39579
# Shear Modulus (GPa) = 17.75627 27.62348 22.68988
#
# Velocity S-wave (km/s) = 2.99915 3.74077 3.39030
# Velocity P-wave (km/s) = 5.12710 6.65415 5.93990
#
# Compressibility (1/GPa) = 0.03543980
#
# Stress axis : x y z
#
# Youngs Moduli (GPa) = 59.95559 47.66504 28.02140
#
# Poissons Ratio (x) = 0.44396 0.21922
# Poissons Ratio (y) = 0.55844 0.05087
# Poissons Ratio (z) = 0.46906 0.08653
#
# Static dielectric constant tensor:
#      x y z
#    x 1.689500 0.009660 0.025160 
#    y 0.009660 1.735250 0.017890 
#    z 0.025160 0.017890 1.813700 
# 
# From -- ./inp_files/203076.got.cif
#   From: 2010.05.17/outbox.cif.g08.bks.cpg/sg2_102_cif.got.tgz:203076.got - 2010.06.03 11:33:40.
