data_PCOD9034618
_publ_section_title
;
Structure prediction by ZEFSAII (Michael W. Deem and Ramdas Pophale) SiO2 
 PCOD9034618
Probable space group: P -1
;
_chemical_formula_sum "Si O2"
_cell_formula_units_Z 16
_cell_length_a 12.045591
_cell_length_b 9.178015
_cell_length_c 9.368619
_cell_angle_alpha 92.009453
_cell_angle_beta 98.127469
_cell_angle_gamma 39.749280
_cell_volume 651.182442
_symmetry_space_group_name_H-M "P -1"
_symmetry_group_IT_number 2
_symmetry_cell_setting 'triclinic'
loop_
_space_group_symop_operation_xyz
x,y,z
-x,-y,-z
loop_
_atom_site_type_symbol
_atom_site_label
_atom_site_fract_x
_atom_site_fract_y
_atom_site_fract_z
Si Si1 0.391062 0.407105 0.552814
Si Si2 0.818126 0.093599 0.437023
Si Si3 0.024452 0.631624 0.580808
Si Si4 0.296012 0.283475 0.048654
Si Si5 0.714230 0.265132 0.948150
Si Si6 0.956027 0.264970 0.099316
Si Si7 0.516369 0.286511 0.256740
Si Si8 0.542236 0.161770 0.869518
O O1 0.327285 0.638966 0.543912
O O2 0.483738 0.284709 0.417050
O O3 0.508149 0.245888 0.705188
O O4 0.208604 0.504068 0.544753
O O5 0.722077 0.128550 0.276493
O O6 0.865337 0.897609 0.517156
O O7 0.000000 0.000000 0.500000
O O8 0.000000 0.500000 0.500000
O O9 0.031261 0.653224 0.752439
O O10 0.445752 0.212489 0.166609
O O11 0.299740 0.111822 0.085996
O O12 0.113551 0.555178 0.030450
O O13 0.375392 0.240805 0.904925
O O14 0.620316 0.451980 0.812448
O O15 0.575830 0.277921 0.967100
O O16 0.803080 0.291640 0.073325
O O17 0.872104 0.004938 0.907245
#
# Coordination Sequence:
#
# PCOD9034618 Si02
#       8
#     2   2   2   2   2   2   2   2
#     4  11  23  42  67 100 139 172 232 281 340 402
#     4  10  23  41  65  98 134 177 224 279 337 407
#     4  11  25  42  67  99 142 186 220 279 343 412
#     4  10  25  43  66  95 140 175 233 275 336 418
#     4  10  23  42  75  97 133 175 230 286 340 400
#     4  10  22  45  66 100 136 176 230 279 336 407
#     4  11  23  42  68 104 132 176 227 287 344 406
#     4  11  23  42  68  99 129 184 221 280 342 400
#
# _framework density 24.570687
#
# number of rings (size 3 to 8) (size 9 to 14) (size 15 to 20)
#    0.000    1.500    2.500    1.125    3.500    6.000 
#    0.000    6.250    0.000    0.000    0.000    0.000 
#    0.000    0.000    0.000    0.000    0.000    0.000 
#
# Total GULP energy -89264.507390 kJ/mol
# GULP energy per Si atom -5579.031712 kJ/mol
# Density = 2.451476 g / cm^3
# Si number density = 24.570687 Si / 1000 Ang^3
#
#
#
# Elastic Constant Matrix: (Units=GPa)
#
#
# Indices 1 2 3 4 5 6 
#
# 1 85.8147 39.5446 29.4306 4.0589 17.2983 10.9633
# 2 39.5446 135.3432 61.0480 -20.2316 9.8899 19.2608
# 3 29.4306 61.0480 128.6275 -10.3203 18.2607 13.4523
# 4 4.0589 -20.2316 -10.3203 36.0233 -0.9329 9.8985
# 5 17.2983 9.8899 18.2607 -0.9329 38.8190 1.8261
# 6 10.9633 19.2608 13.4523 9.8985 1.8261 58.5780
#
#
#
# Elastic Compliance Matrix: (Units=1/GPa)
#
#
# Indices 1 2 3 4 5 6 
#
# 1 0.015286 -0.004218 -0.001063 -0.004448 -0.005329 -0.000312
# 2 -0.004218 0.011822 -0.003874 0.006971 0.001018 -0.003418
# 3 -0.001063 -0.003874 0.010544 0.001162 -0.003422 -0.001038
# 4 -0.004448 0.006971 0.001162 0.034620 0.000849 -0.007603
# 5 -0.005329 0.001018 -0.003422 0.000849 0.029488 0.000386
# 6 -0.000312 -0.003418 -0.001038 -0.007603 0.000386 0.019765
#
#
# Mechanical properties :
#
#
# Convention : Reuss Voigt Hill
#
# Bulk Modulus (GPa) = 51.70018 67.75908 59.72963
# Shear Modulus (GPa) = 34.18076 41.33488 37.75782
#
# Velocity S-wave (km/s) = 3.73382 4.10602 3.92433
# Velocity P-wave (km/s) = 6.29886 7.07928 6.70044
#
# Compressibility (1/GPa) = 0.01934229
#
# Stress axis : x y z
#
# Youngs Moduli (GPa) = 65.42070 84.58642 94.84187
#
# Poissons Ratio (x) = 0.35675 0.10086
# Poissons Ratio (y) = 0.27592 0.36739
# Poissons Ratio (z) = 0.06957 0.32767
#
# Static dielectric constant tensor:
#      x y z
#    x 2.127150 -0.121770 -0.178460 
#    y -0.121770 2.077620 0.211310 
#    z -0.178460 0.211310 2.506690 
# 
# From -- ./inp_files/244118.got.cif
#   From: 2010.05.17/outbox.cif.g08.bks.cpg/sg2_123_cif.got.tgz:244118.got - 2010.06.03 11:33:40.
