data_PCOD9034814
_publ_section_title
;
Structure prediction by ZEFSAII (Michael W. Deem and Ramdas Pophale) SiO2 
 PCOD9034814
Probable space group: P -1
;
_chemical_formula_sum "Si O2"
_cell_formula_units_Z 16
_cell_length_a 7.328317
_cell_length_b 11.397615
_cell_length_c 7.615385
_cell_angle_alpha 102.472233
_cell_angle_beta 84.704302
_cell_angle_gamma 91.052629
_cell_volume 618.414917
_symmetry_space_group_name_H-M "P -1"
_symmetry_group_IT_number 2
_symmetry_cell_setting 'triclinic'
loop_
_space_group_symop_operation_xyz
x,y,z
-x,-y,-z
loop_
_atom_site_type_symbol
_atom_site_label
_atom_site_fract_x
_atom_site_fract_y
_atom_site_fract_z
Si Si1 0.388420 0.797894 0.071973
Si Si2 0.480037 0.823634 0.680177
Si Si3 0.676136 0.412138 0.238039
Si Si4 0.138556 0.249887 0.463504
Si Si5 0.999549 0.887468 0.093015
Si Si6 0.843874 0.055365 0.409343
Si Si7 0.912696 0.634970 0.834565
Si Si8 0.681896 0.654135 0.191083
O O1 0.453570 0.858858 0.900787
O O2 0.338876 0.664616 0.964382
O O3 0.198516 0.864370 0.159969
O O4 0.544108 0.761345 0.184004
O O5 0.409375 0.684098 0.649105
O O6 0.689638 0.837085 0.614697
O O7 0.360479 0.897352 0.576812
O O8 0.589165 0.542449 0.264203
O O9 0.895296 0.429923 0.237820
O O10 0.173156 0.351156 0.345120
O O11 0.161304 0.298333 0.673553
O O12 0.951959 0.182846 0.409062
O O13 0.841872 0.938954 0.245357
O O14 0.957536 0.768897 0.948990
O O15 0.000000 0.000000 0.000000
O O16 0.000000 0.000000 0.500000
O O17 0.773659 0.597816 0.988158
#
# Coordination Sequence:
#
# PCOD9034814 Si02
#       8
#     2   2   2   2   2   2   2   2
#     4   9  20  39  63  92 127 166 224 266 313 405
#     4  10  22  45  68  93 135 179 211 280 330 385
#     4   9  20  43  71  90 135 180 216 272 339 386
#     4  12  25  43  66 101 139 165 229 277 321 406
#     4  11  19  41  69  83 120 186 213 259 346 375
#     4  12  25  45  66  95 137 174 222 280 330 392
#     4  11  21  44  66  96 136 170 226 280 317 404
#     4  12  24  39  66 105 129 177 225 267 336 395
#
# _framework density 25.872598
#
# number of rings (size 3 to 8) (size 9 to 14) (size 15 to 20)
#    0.750    0.500    5.000    1.500    1.750    1.500 
#    2.250    1.875    0.000    0.000    0.000    0.000 
#    0.000    0.000    0.000    0.000    0.000    0.000 
#
# Total GULP energy -89113.265129 kJ/mol
# GULP energy per Si atom -5569.579071 kJ/mol
# Density = 2.581371 g / cm^3
# Si number density = 25.872598 Si / 1000 Ang^3
#
#
#
# Elastic Constant Matrix: (Units=GPa)
#
#
# Indices 1 2 3 4 5 6 
#
# 1 116.4399 25.6984 13.8398 2.4328 12.7259 -33.0374
# 2 25.6984 103.6705 17.7247 -11.8824 12.5963 0.5953
# 3 13.8398 17.7247 71.4143 -14.8571 10.5568 -15.0145
# 4 2.4328 -11.8824 -14.8571 28.8760 -11.4351 5.8175
# 5 12.7259 12.5963 10.5568 -11.4351 30.2391 -8.3647
# 6 -33.0374 0.5953 -15.0145 5.8175 -8.3647 30.9100
#
#
#
# Elastic Compliance Matrix: (Units=1/GPa)
#
#
# Indices 1 2 3 4 5 6 
#
# 1 0.014626 -0.004322 0.000659 -0.007078 -0.002656 0.016649
# 2 -0.004322 0.012024 -0.002400 0.004523 -0.002747 -0.007612
# 3 0.000659 -0.002400 0.017515 0.006010 -0.000942 0.007872
# 4 -0.007078 0.004523 0.006010 0.047855 0.014368 -0.009851
# 5 -0.002656 -0.002747 -0.000942 0.014368 0.042641 0.005592
# 6 0.016649 -0.007612 0.007872 -0.009851 0.005592 0.057485
#
#
# Mechanical properties :
#
#
# Convention : Reuss Voigt Hill
#
# Bulk Modulus (GPa) = 31.21288 45.11672 38.16480
# Shear Modulus (GPa) = 23.26113 33.62248 28.44180
#
# Velocity S-wave (km/s) = 3.00169 3.60882 3.31917
# Velocity P-wave (km/s) = 4.90956 5.90260 5.42884
#
# Compressibility (1/GPa) = 0.03203805
#
# Stress axis : x y z
#
# Youngs Moduli (GPa) = 68.37302 83.17038 57.09245
#
# Poissons Ratio (x) = 0.35948 -0.03762
# Poissons Ratio (y) = 0.29553 0.13701
# Poissons Ratio (z) = -0.04505 0.19960
#
# Static dielectric constant tensor:
#      x y z
#    x 2.075270 0.028690 -0.020530 
#    y 0.028690 2.081130 -0.081880 
#    z -0.020530 -0.081880 2.038920 
# 
# From -- ./inp_files/171559.got.cif
#   From: 2010.05.17/outbox.cif.g08.bks.cpg/sg2_86_cif.got.tgz:171559.got - 2010.06.03 11:33:40.
