data_PCOD9034024
_publ_section_title
;
Structure prediction by ZEFSAII (Michael W. Deem and Ramdas Pophale) SiO2 
 PCOD9034024
Probable space group: P -1
;
_chemical_formula_sum "Si O2"
_cell_formula_units_Z 16
_cell_length_a 14.765146
_cell_length_b 8.131248
_cell_length_c 11.519579
_cell_angle_alpha 80.545668
_cell_angle_beta 149.582369
_cell_angle_gamma 96.878435
_cell_volume 690.051825
_symmetry_space_group_name_H-M "P -1"
_symmetry_group_IT_number 2
_symmetry_cell_setting 'triclinic'
loop_
_space_group_symop_operation_xyz
x,y,z
-x,-y,-z
loop_
_atom_site_type_symbol
_atom_site_label
_atom_site_fract_x
_atom_site_fract_y
_atom_site_fract_z
Si Si1 0.472240 0.703035 0.946090
Si Si2 0.371876 0.160330 0.315052
Si Si3 0.238515 0.270573 0.907145
Si Si4 0.069862 0.137738 0.178066
Si Si5 0.394486 0.618063 0.108108
Si Si6 0.711239 0.310762 0.760279
Si Si7 0.128358 0.780933 0.405181
Si Si8 0.800996 0.530410 0.640166
O O1 0.653447 0.770802 0.085859
O O2 0.317819 0.757471 0.679786
O O3 0.500000 0.500000 0.000000
O O4 0.412401 0.744058 0.005837
O O5 0.314006 0.173967 0.116135
O O6 0.204917 0.163442 0.217427
O O7 0.515807 0.298903 0.487894
O O8 0.500000 0.000000 0.500000
O O9 0.278092 0.463110 0.958486
O O10 0.030893 0.237459 0.677183
O O11 0.107223 0.293925 0.285795
O O12 0.109720 0.959076 0.300901
O O13 0.860118 0.164762 0.912474
O O14 0.316429 0.687790 0.133615
O O15 0.599024 0.556996 0.367430
O O16 0.792995 0.470889 0.771999
O O17 0.112688 0.625367 0.317340
#
# Coordination Sequence:
#
# PCOD9034024 Si02
#       8
#     2   2   2   2   2   2   2   2
#     4  10  22  44  71 100 133 184 239 280 341 407
#     4  12  23  39  68 101 142 181 220 280 346 413
#     4  11  22  40  68 100 135 180 229 280 344 404
#     4  12  27  42  68 111 141 180 228 279 353 414
#     4  11  22  43  70 101 132 186 237 278 345 406
#     4  12  23  43  68 101 146 179 225 285 345 415
#     4  12  25  46  72 103 141 179 232 289 341 412
#     4  12  22  45  73 100 144 180 224 290 343 411
#
# _framework density 23.186665999999999
#
# number of rings (size 3 to 8) (size 9 to 14) (size 15 to 20)
#    0.000    0.500    5.000    5.250    0.000    3.500 
#    2.250    1.250    0.000    0.000    0.000    0.000 
#    0.000    0.000    0.000    0.000    0.000    0.000 
#
# Total GULP energy -89541.932709 kJ/mol
# GULP energy per Si atom -5596.370794 kJ/mol
# Density = 2.313389 g / cm^3
# Si number density = 23.186666 Si / 1000 Ang^3
#
#
#
# Elastic Constant Matrix: (Units=GPa)
#
#
# Indices 1 2 3 4 5 6 
#
# 1 124.2841 26.2329 28.5006 -4.1481 10.2421 25.6927
# 2 26.2329 110.4951 23.1747 -4.1996 4.1713 3.3690
# 3 28.5006 23.1747 61.9395 -8.9690 26.7155 1.9653
# 4 -4.1481 -4.1996 -8.9690 35.0808 3.2265 4.6399
# 5 10.2421 4.1713 26.7155 3.2265 39.1503 6.3422
# 6 25.6927 3.3690 1.9653 4.6399 6.3422 26.4605
#
#
#
# Elastic Compliance Matrix: (Units=1/GPa)
#
#
# Indices 1 2 3 4 5 6 
#
# 1 0.011855 -0.001348 -0.005554 0.001133 0.002644 -0.011759
# 2 -0.001348 0.010150 -0.004109 -0.000169 0.002114 -0.000156
# 3 -0.005554 -0.004109 0.029799 0.007370 -0.020227 0.007258
# 4 0.001133 -0.000169 0.007370 0.031882 -0.007040 -0.005529
# 5 0.002644 0.002114 -0.020227 -0.007040 0.040601 -0.009831
# 6 -0.011759 -0.000156 0.007258 -0.005529 -0.009831 0.052017
#
#
# Mechanical properties :
#
#
# Convention : Reuss Voigt Hill
#
# Bulk Modulus (GPa) = 33.57613 50.28169 41.92891
# Shear Modulus (GPa) = 24.00928 34.72570 29.36749
#
# Velocity S-wave (km/s) = 3.22138 3.87416 3.56275
# Velocity P-wave (km/s) = 5.32434 6.46102 5.92002
#
# Compressibility (1/GPa) = 0.02978306
#
# Stress axis : x y z
#
# Youngs Moduli (GPa) = 84.35236 98.51737 33.55863
#
# Poissons Ratio (x) = 0.13279 0.18637
# Poissons Ratio (y) = 0.11370 0.13789
# Poissons Ratio (z) = 0.46847 0.40480
#
# Static dielectric constant tensor:
#      x y z
#    x 1.919360 -0.013630 0.005270 
#    y -0.013630 1.969430 0.049870 
#    z 0.005270 0.049870 1.866960 
# 
# From -- ./inp_files/306313.got.cif
#   From: 2010.05.17/outbox.cif.g08.bks.cpg/sg2_154_cif.got.tgz:306313.got - 2010.06.03 11:33:40.
