data_PCOD9034645
_publ_section_title
;
Structure prediction by ZEFSAII (Michael W. Deem and Ramdas Pophale) SiO2 
 PCOD9034645
Probable space group: P -1
;
_chemical_formula_sum "Si O2"
_cell_formula_units_Z 13
_cell_length_a 8.862775
_cell_length_b 9.179387
_cell_length_c 9.493932
_cell_angle_alpha 55.017666
_cell_angle_beta 107.505146
_cell_angle_gamma 110.883842
_cell_volume 586.548708
_symmetry_space_group_name_H-M "P -1"
_symmetry_group_IT_number 2
_symmetry_cell_setting 'triclinic'
loop_
_space_group_symop_operation_xyz
x,y,z
-x,-y,-z
loop_
_atom_site_type_symbol
_atom_site_label
_atom_site_fract_x
_atom_site_fract_y
_atom_site_fract_z
Si Si1 0.166393 0.874115 0.558095
Si Si2 0.500000 0.500000 0.500000
Si Si3 0.805332 0.789767 0.443043
Si Si4 0.948429 0.286112 0.079238
Si Si5 0.687026 0.000033 0.034398
Si Si6 0.410241 0.629997 0.710812
Si Si7 0.281789 0.264621 0.055011
O O1 0.116129 0.792130 0.744483
O O2 0.306810 0.784735 0.590502
O O3 0.997543 0.817759 0.457404
O O4 0.213726 0.088237 0.492569
O O5 0.696958 0.587690 0.538399
O O6 0.455848 0.574729 0.600265
O O7 0.729581 0.874237 0.241845
O O8 0.802545 0.200493 0.978812
O O9 0.108111 0.229477 0.100258
O O10 0.000000 0.500000 0.000000
O O11 0.500000 0.000000 0.000000
O O12 0.711872 0.905983 0.947720
O O13 0.569033 0.699241 0.814286
O O14 0.307985 0.447224 0.863593
#
# Coordination Sequence:
#
# PCOD9034645 Si02
#       7
#     2   1   2   2   2   2   2
#     4  10  22  45  66  94 134 178 215 273 340 397
#     4  12  24  44  64 102 132 174 226 276 332 394
#     4  10  23  42  66  94 135 171 221 274 330 400
#     4  11  22  39  71 104 131 175 223 277 335 394
#     4  11  24  43  67  99 138 175 221 278 332 397
#     4  11  24  41  71  96 135 178 221 282 329 393
#     4  11  22  43  66 101 135 174 227 272 333 394
#
# _framework density 22.163547000000001
#
# number of rings (size 3 to 8) (size 9 to 14) (size 15 to 20)
#    0.000    1.231    3.077    3.231    2.154    2.462 
#    0.000    4.615    0.000    0.000    0.000    0.000 
#    0.000    0.000    0.000    0.000    0.000    0.000 
#
# Total GULP energy -72449.409741 kJ/mol
# GULP energy per Si atom -5573.031519 kJ/mol
# Density = 2.211310 g / cm^3
# Si number density = 22.163547 Si / 1000 Ang^3
#
#
#
# Elastic Constant Matrix: (Units=GPa)
#
#
# Indices 1 2 3 4 5 6 
#
# 1 138.3774 71.5812 38.1917 31.8290 10.7874 -6.0413
# 2 71.5812 148.7139 31.6913 29.5366 14.8113 10.8976
# 3 38.1917 31.6913 44.3589 25.9091 6.4567 -13.5784
# 4 31.8290 29.5366 25.9091 31.6466 1.9081 -5.4845
# 5 10.7874 14.8113 6.4567 1.9081 35.6008 10.5196
# 6 -6.0413 10.8976 -13.5784 -5.4845 10.5196 48.3690
#
#
#
# Elastic Compliance Matrix: (Units=1/GPa)
#
#
# Indices 1 2 3 4 5 6 
#
# 1 0.011432 -0.003672 -0.004228 -0.004395 -0.001178 0.000826
# 2 -0.003672 0.010323 -0.002587 -0.004382 -0.001383 -0.003707
# 3 -0.004228 -0.002587 0.053437 -0.034224 -0.009407 0.013221
# 4 -0.004395 -0.004382 -0.034224 0.067209 0.006644 -0.002993
# 5 -0.001178 -0.001383 -0.009407 0.006644 0.033001 -0.008900
# 6 0.000826 -0.003707 0.013221 -0.002993 -0.008900 0.026921
#
#
# Mechanical properties :
#
#
# Convention : Reuss Voigt Hill
#
# Bulk Modulus (GPa) = 18.44395 68.26428 43.35412
# Shear Modulus (GPa) = 20.71511 35.78900 28.25206
#
# Velocity S-wave (km/s) = 3.06052 4.02278 3.57418
# Velocity P-wave (km/s) = 4.56386 7.24183 6.05281
#
# Compressibility (1/GPa) = 0.05421832
#
# Stress axis : x y z
#
# Youngs Moduli (GPa) = 87.47614 96.87292 18.71346
#
# Poissons Ratio (x) = 0.35570 0.07911
# Poissons Ratio (y) = 0.32120 0.04842
# Poissons Ratio (z) = 0.36981 0.25065
#
# Static dielectric constant tensor:
#      x y z
#    x 1.800730 0.037170 0.003810 
#    y 0.037170 1.862850 -0.081170 
#    z 0.003810 -0.081170 1.868500 
# 
# From -- ./inp_files/152845.got.cif
#   From: 2010.05.17/outbox.cif.g08.bks.cpg/sg2_77_cif.got.tgz:152845.got - 2010.06.03 11:33:40.
