data_PCOD9034480
_publ_section_title
;
Structure prediction by ZEFSAII (Michael W. Deem and Ramdas Pophale) SiO2 
 PCOD9034480
Probable space group: P -1
;
_chemical_formula_sum "Si O2"
_cell_formula_units_Z 15
_cell_length_a 22.432829
_cell_length_b 9.519560
_cell_length_c 5.162387
_cell_angle_alpha 79.514823
_cell_angle_beta 82.056962
_cell_angle_gamma 141.869798
_cell_volume 593.133763
_symmetry_space_group_name_H-M "P -1"
_symmetry_group_IT_number 2
_symmetry_cell_setting 'triclinic'
loop_
_space_group_symop_operation_xyz
x,y,z
-x,-y,-z
loop_
_atom_site_type_symbol
_atom_site_label
_atom_site_fract_x
_atom_site_fract_y
_atom_site_fract_z
Si Si1 0.821205 0.160711 0.267765
Si Si2 0.049234 0.258668 0.350670
Si Si3 0.000000 0.500000 0.500000
Si Si4 0.428306 0.880475 0.832089
Si Si5 0.755051 0.716692 0.837949
Si Si6 0.895717 0.032534 0.120440
Si Si7 0.267172 0.790512 0.061800
Si Si8 0.630983 0.751079 0.836728
O O1 0.801596 0.267378 0.098814
O O2 0.892715 0.300439 0.436162
O O3 0.891440 0.197729 0.017096
O O4 0.694937 0.864262 0.486778
O O5 0.011486 0.340015 0.469991
O O6 0.173609 0.495208 0.302888
O O7 0.000000 0.000000 0.500000
O O8 0.011101 0.208051 0.089408
O O9 0.372045 0.921944 0.841471
O O10 0.500000 0.000000 0.500000
O O11 0.331977 0.578356 0.015903
O O12 0.500000 0.000000 0.000000
O O13 0.817601 0.859138 0.479123
O O14 0.683600 0.716440 0.952589
O O15 0.839436 0.851530 0.971308
O O16 0.315638 0.000551 0.161092
O O17 0.500000 0.500000 0.000000
#
# Coordination Sequence:
#
# PCOD9034480 Si02
#       8
#     2   2   1   2   2   2   2   2
#     4  10  23  42  70 112 145 202 251 319 393 471
#     4  11  25  45  75 116 154 208 262 323 404 488
#     4  10  22  44  76 104 168 196 254 332 394 474
#     4  12  29  49  73 105 151 205 257 334 401 464
#     4  11  23  47  69 106 144 200 249 311 392 464
#     4  10  23  44  73 107 153 194 249 314 392 470
#     4  12  26  46  74 108 149 198 264 322 390 483
#     4  11  24  43  72 101 145 194 257 318 374 459
#
# _framework density 25.289408999999999
#
# number of rings (size 3 to 8) (size 9 to 14) (size 15 to 20)
#    0.000    1.067    2.667    2.400    3.733    8.000 
#    0.000    2.000    0.000    0.000    0.000    0.000 
#    0.000    0.000    0.000    0.000    0.000    0.000 
#
# Total GULP energy -83608.391054 kJ/mol
# GULP energy per Si atom -5573.892737 kJ/mol
# Density = 2.523185 g / cm^3
# Si number density = 25.289409 Si / 1000 Ang^3
#
#
#
# Elastic Constant Matrix: (Units=GPa)
#
#
# Indices 1 2 3 4 5 6 
#
# 1 141.0192 44.6602 43.3214 2.6740 -22.0960 6.0763
# 2 44.6602 178.1165 45.5268 -4.8480 -5.5113 18.2179
# 3 43.3214 45.5268 80.5089 5.1733 -29.8354 14.1005
# 4 2.6740 -4.8480 5.1733 44.0970 8.9536 -1.4659
# 5 -22.0960 -5.5113 -29.8354 8.9536 44.0451 -2.5950
# 6 6.0763 18.2179 14.1005 -1.4659 -2.5950 49.6681
#
#
#
# Elastic Compliance Matrix: (Units=1/GPa)
#
#
# Indices 1 2 3 4 5 6 
#
# 1 0.008863 -0.001415 -0.003126 -0.000787 0.002336 0.000421
# 2 -0.001415 0.007188 -0.004423 0.002020 -0.003295 -0.001320
# 3 -0.003126 -0.004423 0.023064 -0.006079 0.014504 -0.003965
# 4 -0.000787 0.002020 -0.006079 0.025611 -0.009387 0.001347
# 5 0.002336 -0.003295 0.014504 -0.009387 0.035100 -0.001638
# 6 0.000421 -0.001320 -0.003965 0.001347 -0.001638 0.021646
#
#
# Mechanical properties :
#
#
# Convention : Reuss Voigt Hill
#
# Bulk Modulus (GPa) = 47.20032 74.07350 60.63691
# Shear Modulus (GPa) = 34.13883 45.30444 39.72164
#
# Velocity S-wave (km/s) = 3.67812 4.23713 3.96748
# Velocity P-wave (km/s) = 6.06157 7.30011 6.70948
#
# Compressibility (1/GPa) = 0.02118630
#
# Stress axis : x y z
#
# Youngs Moduli (GPa) = 112.83356 139.12749 43.35801
#
# Poissons Ratio (x) = 0.19692 0.13554
# Poissons Ratio (y) = 0.15970 0.19175
# Poissons Ratio (z) = 0.35272 0.61529
#
# Static dielectric constant tensor:
#      x y z
#    x 1.687540 0.096160 0.334280 
#    y 0.096160 1.889750 -0.191500 
#    z 0.334280 -0.191500 1.839220 
# 
# From -- ./inp_files/116933.got.cif
#   From: 2010.05.17/outbox.cif.g08.bks.cpg/sg2_59_cif.got.tgz:116933.got - 2010.06.03 11:33:40.
