data_PCOD9034117
_publ_section_title
;
Structure prediction by ZEFSAII (Michael W. Deem and Ramdas Pophale) SiO2 
 PCOD9034117
Probable space group: P -1
;
_chemical_formula_sum "Si O2"
_cell_formula_units_Z 16
_cell_length_a 12.426986
_cell_length_b 10.979436
_cell_length_c 24.280438
_cell_angle_alpha 31.058129
_cell_angle_beta 24.134615
_cell_angle_gamma 34.392089
_cell_volume 683.860325
_symmetry_space_group_name_H-M "P -1"
_symmetry_group_IT_number 2
_symmetry_cell_setting 'triclinic'
loop_
_space_group_symop_operation_xyz
x,y,z
-x,-y,-z
loop_
_atom_site_type_symbol
_atom_site_label
_atom_site_fract_x
_atom_site_fract_y
_atom_site_fract_z
Si Si1 0.718755 0.303843 0.501992
Si Si2 0.412483 0.965041 0.179703
Si Si3 0.519104 0.822556 0.768704
Si Si4 0.803373 0.592108 0.826714
Si Si5 0.187987 0.786705 0.203531
Si Si6 0.019513 0.644319 0.528173
Si Si7 0.753089 0.712626 0.014324
Si Si8 0.931513 0.078111 0.921213
O O1 0.500000 0.500000 0.500000
O O2 0.974536 0.270225 0.355900
O O3 0.800921 0.402440 0.482676
O O4 0.608002 0.064841 0.653228
O O5 0.573163 0.832657 0.103697
O O6 0.173961 0.821528 0.355725
O O7 0.285359 0.250749 0.137977
O O8 0.677063 0.955323 0.099192
O O9 0.581058 0.638633 0.862640
O O10 0.722119 0.748778 0.651156
O O11 0.211238 0.890691 0.868210
O O12 0.929778 0.308115 0.872410
O O13 0.016760 0.611183 0.379697
O O14 0.509458 0.673709 0.103683
O O15 0.108807 0.821187 0.162190
O O16 0.132427 0.057146 0.149392
O O17 0.000000 0.500000 0.000000
#
# Coordination Sequence:
#
# PCOD9034117 Si02
#       8
#     2   2   2   2   2   2   2   2
#     4  11  18  35  61  93 136 180 210 243 310 392
#     4  11  24  40  63  99 132 163 214 276 323 356
#     4  11  20  36  64  92 135 182 208 239 319 393
#     4  11  20  38  59  95 135 170 209 261 310 384
#     4  10  22  44  71  92 122 168 221 255 319 395
#     4  11  21  39  66  96 132 165 213 268 312 378
#     4  10  25  48  72  90 121 170 218 270 325 383
#     4  11  23  38  66  97 130 181 213 249 319 387
#
# _framework density 23.396588999999999
#
# number of rings (size 3 to 8) (size 9 to 14) (size 15 to 20)
#    0.000    1.250    6.250    1.125    3.500    1.000 
#    0.000    8.125    0.000    0.000    0.000    0.000 
#    0.000    0.000    0.000    0.000    0.000    0.000 
#
# Total GULP energy -89205.984546 kJ/mol
# GULP energy per Si atom -5575.374034 kJ/mol
# Density = 2.334334 g / cm^3
# Si number density = 23.396589 Si / 1000 Ang^3
#
#
#
# Elastic Constant Matrix: (Units=GPa)
#
#
# Indices 1 2 3 4 5 6 
#
# 1 64.8303 41.6979 14.1759 8.3096 -7.2500 -5.7815
# 2 41.6979 111.0827 25.4645 -8.0987 -6.6579 -17.2568
# 3 14.1759 25.4645 92.0819 -31.5316 -9.7583 16.0821
# 4 8.3096 -8.0987 -31.5316 47.1774 9.1101 -9.6078
# 5 -7.2500 -6.6579 -9.7583 9.1101 33.8054 7.8505
# 6 -5.7815 -17.2568 16.0821 -9.6078 7.8505 37.3351
#
#
#
# Elastic Compliance Matrix: (Units=1/GPa)
#
#
# Indices 1 2 3 4 5 6 
#
# 1 0.023402 -0.008765 -0.003399 -0.009470 0.005455 -0.002547
# 2 -0.008765 0.014383 -0.002907 0.004332 -0.002977 0.008284
# 3 -0.003399 -0.002907 0.016991 0.009425 0.002769 -0.007346
# 4 -0.009470 0.004332 0.009425 0.033033 -0.008952 0.006859
# 5 0.005455 -0.002977 0.002769 -0.008952 0.036073 -0.011613
# 6 -0.002547 0.008284 -0.007346 0.006859 -0.011613 0.037590
#
#
# Mechanical properties :
#
#
# Convention : Reuss Voigt Hill
#
# Bulk Modulus (GPa) = 40.59323 47.85238 44.22281
# Shear Modulus (GPa) = 25.02183 36.10737 30.56460
#
# Velocity S-wave (km/s) = 3.27381 3.93272 3.61829
# Velocity P-wave (km/s) = 5.62834 6.41239 6.03312
#
# Compressibility (1/GPa) = 0.02463465
#
# Stress axis : x y z
#
# Youngs Moduli (GPa) = 42.73105 69.52612 58.85509
#
# Poissons Ratio (x) = 0.60938 0.20004
# Poissons Ratio (y) = 0.37453 0.17110
# Poissons Ratio (z) = 0.14524 0.20212
#
# Static dielectric constant tensor:
#      x y z
#    x 1.913050 0.082690 0.045880 
#    y 0.082690 1.891720 -0.031740 
#    z 0.045880 -0.031740 1.994660 
# 
# From -- ./inp_files/623511.got.cif
#   From: 2010.05.17/outbox.cif.g08.bks.cpg/sg2_312_cif.got.tgz:623511.got - 2010.06.03 11:33:40.
