data_PCOD9034553
_publ_section_title
;
Structure prediction by ZEFSAII (Michael W. Deem and Ramdas Pophale) SiO2 
 PCOD9034553
Probable space group: P -1
;
_chemical_formula_sum "Si O2"
_cell_formula_units_Z 16
_cell_length_a 5.192844
_cell_length_b 19.427093
_cell_length_c 13.975816
_cell_angle_alpha 28.807815
_cell_angle_beta 88.638473
_cell_angle_gamma 89.581837
_cell_volume 678.936649
_symmetry_space_group_name_H-M "P -1"
_symmetry_group_IT_number 2
_symmetry_cell_setting 'triclinic'
loop_
_space_group_symop_operation_xyz
x,y,z
-x,-y,-z
loop_
_atom_site_type_symbol
_atom_site_label
_atom_site_fract_x
_atom_site_fract_y
_atom_site_fract_z
Si Si1 0.068656 0.627137 0.108527
Si Si2 0.642259 0.294181 0.811315
Si Si3 0.581263 0.767873 0.851141
Si Si4 0.679964 0.437306 0.437203
Si Si5 0.562619 0.017029 0.246846
Si Si6 0.441388 0.306547 0.415594
Si Si7 0.069507 0.633301 0.771919
Si Si8 0.896520 0.902831 0.533777
O O1 0.838154 0.688840 0.974642
O O2 0.331186 0.665392 0.000287
O O3 0.126847 0.702240 0.118330
O O4 0.944634 0.478110 0.330529
O O5 0.719181 0.343482 0.645360
O O6 0.450136 0.414845 0.706710
O O7 0.542026 0.132209 0.021979
O O8 0.635653 0.826632 0.672847
O O9 0.570080 0.901855 0.761671
O O10 0.165945 0.011903 0.665744
O O11 0.490569 0.356809 0.462304
O O12 0.495268 0.860285 0.398037
O O13 0.164427 0.339253 0.333428
O O14 0.659574 0.389974 0.251237
O O15 0.080298 0.776308 0.660413
O O16 0.000000 0.500000 0.000000
O O17 0.000000 0.000000 0.500000
#
# Coordination Sequence:
#
# PCOD9034553 Si02
#       8
#     2   2   2   2   2   2   2   2
#     4  11  22  42  66 104 136 169 227 289 337 395
#     4  10  23  44  76 100 132 177 234 288 346 390
#     4  11  23  38  71 101 132 182 224 281 339 397
#     4  11  24  45  71 105 134 176 233 290 336 412
#     4  10  22  45  64 100 141 177 224 281 341 406
#     4  11  27  45  67  99 144 179 222 277 348 407
#     4  11  27  47  68  96 142 185 224 275 335 411
#     4  11  23  42  71 103 138 178 235 280 332 403
#
# _framework density 23.566261999999998
#
# number of rings (size 3 to 8) (size 9 to 14) (size 15 to 20)
#    0.000    1.250    2.500    3.375    3.500    6.500 
#    0.000    0.000    0.000    4.500    0.000    0.000 
#    0.000    0.000    0.000    0.000    0.000    0.000 
#
# Total GULP energy -89436.972638 kJ/mol
# GULP energy per Si atom -5589.810790 kJ/mol
# Density = 2.351262 g / cm^3
# Si number density = 23.566262 Si / 1000 Ang^3
#
#
#
# Elastic Constant Matrix: (Units=GPa)
#
#
# Indices 1 2 3 4 5 6 
#
# 1 124.4773 35.5713 30.3957 1.5212 -5.3998 2.0714
# 2 35.5713 100.5665 43.9440 -7.3484 -4.9651 0.4624
# 3 30.3957 43.9440 161.3230 10.7385 2.3165 -7.5222
# 4 1.5212 -7.3484 10.7385 29.8963 0.5194 1.9997
# 5 -5.3998 -4.9651 2.3165 0.5194 18.9925 -1.9536
# 6 2.0714 0.4624 -7.5222 1.9997 -1.9536 32.5487
#
#
#
# Elastic Compliance Matrix: (Units=1/GPa)
#
#
# Indices 1 2 3 4 5 6 
#
# 1 0.009170 -0.002776 -0.000975 -0.000792 0.001960 -0.000603
# 2 -0.002776 0.012867 -0.003365 0.004524 0.002769 -0.000896
# 3 -0.000975 -0.003365 0.007659 -0.003631 -0.001786 0.001996
# 4 -0.000792 0.004524 -0.003631 0.036109 0.000097 -0.003066
# 5 0.001960 0.002769 -0.001786 0.000097 0.054425 0.002684
# 6 -0.000603 -0.000896 0.001996 -0.003066 0.002684 0.031585
#
#
# Mechanical properties :
#
#
# Convention : Reuss Voigt Hill
#
# Bulk Modulus (GPa) = 64.66110 67.35431 66.00770
# Shear Modulus (GPa) = 29.20544 34.71788 31.96166
#
# Velocity S-wave (km/s) = 3.52417 3.84240 3.68672
# Velocity P-wave (km/s) = 6.63757 6.95185 6.79653
#
# Compressibility (1/GPa) = 0.01546525
#
# Stress axis : x y z
#
# Youngs Moduli (GPa) = 109.05561 77.71751 130.55806
#
# Poissons Ratio (x) = 0.21571 0.12731
# Poissons Ratio (y) = 0.30270 0.43929
# Poissons Ratio (z) = 0.10635 0.26149
#
# Static dielectric constant tensor:
#      x y z
#    x 1.976200 -0.009420 -0.025010 
#    y -0.009420 1.909940 -0.057110 
#    z -0.025010 -0.057110 1.935680 
# 
# From -- ./inp_files/485450.got.cif
#   From: 2010.05.17/outbox.cif.g08.bks.cpg/sg2_243_cif.got.tgz:485450.got - 2010.06.03 11:33:40.
