data_PCOD9034093
_publ_section_title
;
Structure prediction by ZEFSAII (Michael W. Deem and Ramdas Pophale) SiO2 
 PCOD9034093
Probable space group: P -1
;
_chemical_formula_sum "Si O2"
_cell_formula_units_Z 16
_cell_length_a 5.653486
_cell_length_b 27.063335
_cell_length_c 9.937441
_cell_angle_alpha 142.558654
_cell_angle_beta 49.666828
_cell_angle_gamma 108.901149
_cell_volume 642.723846
_symmetry_space_group_name_H-M "P -1"
_symmetry_group_IT_number 2
_symmetry_cell_setting 'triclinic'
loop_
_space_group_symop_operation_xyz
x,y,z
-x,-y,-z
loop_
_atom_site_type_symbol
_atom_site_label
_atom_site_fract_x
_atom_site_fract_y
_atom_site_fract_z
Si Si1 0.676767 0.859054 0.018312
Si Si2 0.333497 0.196995 0.391544
Si Si3 0.010029 0.439343 0.739261
Si Si4 0.090991 0.852671 0.384758
Si Si5 0.088317 0.964829 0.043749
Si Si6 0.107024 0.538556 0.675840
Si Si7 0.793034 0.310896 0.171654
Si Si8 0.307638 0.682757 0.469572
O O1 0.453274 0.852234 0.209885
O O2 0.777464 0.942178 0.160020
O O3 0.536620 0.848814 0.900412
O O4 0.026359 0.772647 0.708573
O O5 0.370798 0.290632 0.579547
O O6 0.970215 0.197060 0.567766
O O7 0.579509 0.126836 0.258244
O O8 0.936097 0.507698 0.792052
O O9 0.383244 0.359376 0.403479
O O10 0.747223 0.394349 0.756866
O O11 0.000000 0.500000 0.000000
O O12 0.048328 0.792374 0.149816
O O13 0.875990 0.957467 0.713190
O O14 0.000000 0.000000 0.000000
O O15 0.500000 0.500000 0.500000
O O16 0.035724 0.638350 0.872143
O O17 0.000000 0.500000 0.500000
O O18 0.809917 0.327209 0.357942
#
# Coordination Sequence:
#
# PCOD9034093 Si02
#       8
#     2   2   2   2   2   2   2   2
#     4  11  24  46  71 103 143 186 244 295 360 440
#     4  11  25  46  68 103 146 183 239 302 356 439
#     4  11  24  46  75 102 147 191 242 309 382 452
#     4  12  24  45  73  99 145 189 234 302 363 423
#     4  11  25  46  70 103 143 190 244 292 361 441
#     4  10  22  44  71 105 142 190 247 308 372 465
#     4  11  24  45  70 103 144 185 246 300 374 445
#     4  11  22  46  71 100 145 184 242 302 363 448
#
# _framework density 24.894051000000001
#
# number of rings (size 3 to 8) (size 9 to 14) (size 15 to 20)
#    0.000    1.000    5.000    0.750    0.000    4.000 
#    4.500    0.000    0.000    0.000    0.000    0.000 
#    0.000    0.000    0.000    0.000    0.000    0.000 
#
# Total GULP energy -89341.931661 kJ/mol
# GULP energy per Si atom -5583.870729 kJ/mol
# Density = 2.483739 g / cm^3
# Si number density = 24.894051 Si / 1000 Ang^3
#
#
#
# Elastic Constant Matrix: (Units=GPa)
#
#
# Indices 1 2 3 4 5 6 
#
# 1 82.4370 45.1270 40.0844 13.2200 17.7753 5.5935
# 2 45.1270 176.7823 41.1626 9.2925 19.9367 31.8578
# 3 40.0844 41.1626 96.7203 2.1813 19.9267 23.6533
# 4 13.2200 9.2925 2.1813 40.5740 15.1032 14.0920
# 5 17.7753 19.9367 19.9267 15.1032 35.0318 9.7601
# 6 5.5935 31.8578 23.6533 14.0920 9.7601 60.2999
#
#
#
# Elastic Compliance Matrix: (Units=1/GPa)
#
#
# Indices 1 2 3 4 5 6 
#
# 1 0.018267 -0.003346 -0.006564 -0.005399 -0.002506 0.004315
# 2 -0.003346 0.007391 -0.000598 0.001259 -0.001773 -0.003367
# 3 -0.006564 -0.000598 0.015842 0.005692 -0.006231 -0.005611
# 4 -0.005399 0.001259 0.005692 0.033627 -0.013462 -0.008077
# 5 -0.002506 -0.001773 -0.006231 -0.013462 0.040099 0.000269
# 6 0.004315 -0.003367 -0.005611 -0.008077 0.000269 0.022007
#
#
# Mechanical properties :
#
#
# Convention : Reuss Voigt Hill
#
# Bulk Modulus (GPa) = 48.82211 67.63197 58.22704
# Shear Modulus (GPa) = 30.28903 42.48551 36.38727
#
# Velocity S-wave (km/s) = 3.49193 4.13565 3.82735
# Velocity P-wave (km/s) = 5.99272 7.07331 6.55532
#
# Compressibility (1/GPa) = 0.02048252
#
# Stress axis : x y z
#
# Youngs Moduli (GPa) = 54.74373 135.30718 63.12532
#
# Poissons Ratio (x) = 0.45273 0.41434
# Poissons Ratio (y) = 0.18317 0.03778
# Poissons Ratio (z) = 0.35933 0.08098
#
# Static dielectric constant tensor:
#      x y z
#    x 1.974990 0.032970 -0.036560 
#    y 0.032970 1.955260 -0.015580 
#    z -0.036560 -0.015580 2.000890 
# 
# From -- ./inp_files/143152.got.cif
#   From: 2010.05.17/outbox.cif.g08.bks.cpg/sg2_72_cif.got.tgz:143152.got - 2010.06.03 11:33:40.
