data_PCOD9034500
_publ_section_title
;
Structure prediction by ZEFSAII (Michael W. Deem and Ramdas Pophale) SiO2 
 PCOD9034500
Probable space group: P -1
;
_chemical_formula_sum "Si O2"
_cell_formula_units_Z 13
_cell_length_a 14.307760
_cell_length_b 7.640530
_cell_length_c 7.871393
_cell_angle_alpha 56.963953
_cell_angle_beta 113.972982
_cell_angle_gamma 131.987123
_cell_volume 534.997172
_symmetry_space_group_name_H-M "P -1"
_symmetry_group_IT_number 2
_symmetry_cell_setting 'triclinic'
loop_
_space_group_symop_operation_xyz
x,y,z
-x,-y,-z
loop_
_atom_site_type_symbol
_atom_site_label
_atom_site_fract_x
_atom_site_fract_y
_atom_site_fract_z
Si Si1 0.281007 0.184616 0.733313
Si Si2 0.212125 0.283366 0.277231
Si Si3 0.648129 0.189685 0.980840
Si Si4 0.624461 0.062155 0.647082
Si Si5 0.120107 0.726807 0.370987
Si Si6 0.500000 0.500000 0.000000
Si Si7 0.962029 0.114957 0.064675
O O1 0.275288 0.302431 0.491793
O O2 0.404885 0.381883 0.827799
O O3 0.158061 0.091384 0.803718
O O4 0.285333 0.937946 0.831912
O O5 0.299506 0.519956 0.085603
O O6 0.084127 0.267447 0.194152
O O7 0.165820 0.004188 0.327383
O O8 0.658127 0.199420 0.780667
O O9 0.500000 0.000000 0.000000
O O10 0.751091 0.249306 0.534295
O O11 0.500000 0.000000 0.500000
O O12 0.592023 0.785461 0.820116
O O13 0.000000 0.500000 0.500000
O O14 0.076399 0.720533 0.149080
O O15 0.000000 0.000000 0.000000
#
# Coordination Sequence:
#
# PCOD9034500 Si02
#       7
#     2   2   2   2   2   1   2
#     4  11  24  46  72 109 148 191 247 308 371 443
#     4  11  27  44  75 106 149 191 248 306 376 440
#     4  11  27  44  70 109 147 187 248 308 375 442
#     4  11  25  45  73 102 145 196 247 305 373 444
#     4  11  26  48  74 110 149 203 251 306 379 460
#     4  10  22  44  76  96 146 190 244 292 376 434
#     4  10  23  46  71 102 144 195 246 302 372 441
#
# _framework density 24.299194
#
# number of rings (size 3 to 8) (size 9 to 14) (size 15 to 20)
#    0.000    1.231    3.077    1.385    8.615    7.385 
#    0.000    0.000    0.000    0.000    0.000    0.000 
#    0.000    0.000    0.000    0.000    0.000    0.000 
#
# Total GULP energy -72423.060150 kJ/mol
# GULP energy per Si atom -5571.004627 kJ/mol
# Density = 2.424389 g / cm^3
# Si number density = 24.299194 Si / 1000 Ang^3
#
#
#
# Elastic Constant Matrix: (Units=GPa)
#
#
# Indices 1 2 3 4 5 6 
#
# 1 95.3290 30.1942 26.2128 -16.5403 13.9751 20.7795
# 2 30.1942 117.5373 64.4569 -17.3006 16.1626 15.5852
# 3 26.2128 64.4569 134.6963 3.9168 21.0998 15.0596
# 4 -16.5403 -17.3006 3.9168 67.8148 16.1975 6.1119
# 5 13.9751 16.1626 21.0998 16.1975 25.2766 0.7685
# 6 20.7795 15.5852 15.0596 6.1119 0.7685 36.0643
#
#
#
# Elastic Compliance Matrix: (Units=1/GPa)
#
#
# Indices 1 2 3 4 5 6 
#
# 1 0.016266 0.000598 -0.000272 0.008506 -0.014276 -0.010655
# 2 0.000598 0.014059 -0.004994 0.006717 -0.009296 -0.005275
# 3 -0.000272 -0.004994 0.010962 -0.000490 -0.005431 -0.002064
# 4 0.008506 0.006717 -0.000490 0.025453 -0.024553 -0.011389
# 5 -0.014276 -0.009296 -0.005431 -0.024553 0.073147 0.017113
# 6 -0.010655 -0.005275 -0.002064 -0.011389 0.017113 0.038575
#
#
# Mechanical properties :
#
#
# Convention : Reuss Voigt Hill
#
# Bulk Modulus (GPa) = 31.29517 65.47673 48.38595
# Shear Modulus (GPa) = 25.19556 40.94437 33.06997
#
# Velocity S-wave (km/s) = 3.22357 4.10934 3.69311
# Velocity P-wave (km/s) = 5.17323 7.03705 6.17586
#
# Compressibility (1/GPa) = 0.03195381
#
# Stress axis : x y z
#
# Youngs Moduli (GPa) = 61.47675 71.12794 91.22144
#
# Poissons Ratio (x) = -0.04254 0.02477
# Poissons Ratio (y) = -0.03677 0.45552
# Poissons Ratio (z) = 0.01670 0.35518
#
# Static dielectric constant tensor:
#      x y z
#    x 2.170060 -0.130760 0.040320 
#    y -0.130760 1.867190 0.058420 
#    z 0.040320 0.058420 1.877660 
# 
# From -- ./inp_files/294297.got.cif
#   From: 2010.05.17/outbox.cif.g08.bks.cpg/sg2_148_cif.got.tgz:294297.got - 2010.06.03 11:33:40.
