data_PCOD9034832
_publ_section_title
;
Structure prediction by ZEFSAII (Michael W. Deem and Ramdas Pophale) SiO2 
 PCOD9034832
Probable space group: P -1
;
_chemical_formula_sum "Si O2"
_cell_formula_units_Z 15
_cell_length_a 12.202629
_cell_length_b 6.685554
_cell_length_c 14.529549
_cell_angle_alpha 75.119591
_cell_angle_beta 55.460210
_cell_angle_gamma 46.826757
_cell_volume 694.908756
_symmetry_space_group_name_H-M "P -1"
_symmetry_group_IT_number 2
_symmetry_cell_setting 'triclinic'
loop_
_space_group_symop_operation_xyz
x,y,z
-x,-y,-z
loop_
_atom_site_type_symbol
_atom_site_label
_atom_site_fract_x
_atom_site_fract_y
_atom_site_fract_z
Si Si1 0.822200 0.313809 0.073987
Si Si2 0.393354 0.739521 0.945320
Si Si3 0.947753 0.199166 0.635337
Si Si4 0.160454 0.648514 0.722960
Si Si5 0.322392 0.206302 0.219326
Si Si6 0.715617 0.166421 0.613815
Si Si7 0.148853 0.297761 0.099611
Si Si8 0.500000 0.500000 0.500000
O O1 0.660044 0.358465 0.098677
O O2 0.806350 0.344085 0.186748
O O3 0.843549 0.515019 0.993027
O O4 0.000000 0.000000 0.000000
O O5 0.515489 0.802668 0.848693
O O6 0.500000 0.500000 0.000000
O O7 0.218353 0.025762 0.042375
O O8 0.853748 0.493189 0.691922
O O9 0.799696 0.232728 0.641247
O O10 0.030043 0.958808 0.701488
O O11 0.113976 0.078480 0.503397
O O12 0.346866 0.480187 0.600147
O O13 0.048649 0.551835 0.784557
O O14 0.281509 0.199075 0.133419
O O15 0.356684 0.960321 0.286335
O O16 0.574656 0.412423 0.581506
#
# Coordination Sequence:
#
# PCOD9034832 Si02
#       8
#     2   2   2   2   2   2   2   1
#     4  12  26  44  69 101 142 186 228 283 349 415
#     4  12  27  43  65 104 139 181 233 284 342 405
#     4  10  22  45  68  97 130 184 230 275 342 406
#     4  11  23  45  69  98 138 180 229 281 346 406
#     4  12  24  39  74 100 134 179 235 279 333 420
#     4  10  23  44  69  96 134 176 227 286 340 402
#     4  12  25  44  70 103 139 185 230 283 345 418
#     4  10  26  42  72 100 132 176 222 290 346 400
#
# _framework density 21.585567999999999
#
# number of rings (size 3 to 8) (size 9 to 14) (size 15 to 20)
#    0.000    0.800    4.000    2.800    3.733    0.000 
#    0.000    0.667    0.000    0.000    0.000    0.000 
#    0.000    0.000    0.000    0.000    0.000    0.000 
#
# Total GULP energy -83682.367778 kJ/mol
# GULP energy per Si atom -5578.824519 kJ/mol
# Density = 2.153644 g / cm^3
# Si number density = 21.585568 Si / 1000 Ang^3
#
#
#
# Elastic Constant Matrix: (Units=GPa)
#
#
# Indices 1 2 3 4 5 6 
#
# 1 133.4357 24.3620 47.5178 -32.4663 -0.7270 -13.0951
# 2 24.3620 59.8815 36.7266 -26.3162 18.4970 1.0701
# 3 47.5178 36.7266 128.0095 -36.0019 -7.7012 -1.2501
# 4 -32.4663 -26.3162 -36.0019 41.3011 -8.8810 10.2625
# 5 -0.7270 18.4970 -7.7012 -8.8810 48.4696 -8.3378
# 6 -13.0951 1.0701 -1.2501 10.2625 -8.3378 24.8112
#
#
#
# Elastic Compliance Matrix: (Units=1/GPa)
#
#
# Indices 1 2 3 4 5 6 
#
# 1 0.009961 -0.001595 -0.001744 0.004747 0.002031 0.003957
# 2 -0.001595 0.030704 -0.004995 0.014462 -0.012025 -0.012441
# 3 -0.001744 -0.004995 0.012329 0.007654 0.004970 -0.001580
# 4 0.004747 0.014462 0.007654 0.048472 0.001689 -0.017214
# 5 0.002031 -0.012025 0.004970 0.001689 0.028175 0.010611
# 6 0.003957 -0.012441 -0.001580 -0.017214 0.010611 0.053536
#
#
# Mechanical properties :
#
#
# Convention : Reuss Voigt Hill
#
# Bulk Modulus (GPa) = 27.52781 59.83773 43.68277
# Shear Modulus (GPa) = 23.59004 37.09772 30.34388
#
# Velocity S-wave (km/s) = 3.30943 4.15014 3.75340
# Velocity P-wave (km/s) = 5.23294 7.12364 6.25020
#
# Compressibility (1/GPa) = 0.03632690
#
# Stress axis : x y z
#
# Youngs Moduli (GPa) = 100.39179 32.56856 81.11178
#
# Poissons Ratio (x) = 0.05194 0.14146
# Poissons Ratio (y) = 0.16010 0.40514
# Poissons Ratio (z) = 0.17508 0.16267
#
# Static dielectric constant tensor:
#      x y z
#    x 1.781870 -0.033600 -0.038780 
#    y -0.033600 1.769860 0.038480 
#    z -0.038780 0.038480 1.799040 
# 
# From -- ./inp_files/72540.got.cif
#   From: 2010.05.17/outbox.cif.g08.bks.cpg/sg2_37_cif.got.tgz:72540.got - 2010.06.03 11:33:40.
