data_PCOD9034798
_publ_section_title
;
Structure prediction by ZEFSAII (Michael W. Deem and Ramdas Pophale) SiO2 
 PCOD9034798
Probable space group: P -1
;
_chemical_formula_sum "Si O2"
_cell_formula_units_Z 14
_cell_length_a 5.518686
_cell_length_b 12.987888
_cell_length_c 18.071333
_cell_angle_alpha 29.184936
_cell_angle_beta 91.532842
_cell_angle_gamma 79.372350
_cell_volume 571.160111
_symmetry_space_group_name_H-M "P -1"
_symmetry_group_IT_number 2
_symmetry_cell_setting 'triclinic'
loop_
_space_group_symop_operation_xyz
x,y,z
-x,-y,-z
loop_
_atom_site_type_symbol
_atom_site_label
_atom_site_fract_x
_atom_site_fract_y
_atom_site_fract_z
Si Si1 0.257314 0.591683 0.999995
Si Si2 0.729102 0.740901 0.164240
Si Si3 0.888337 0.777954 0.680392
Si Si4 0.290666 0.357392 0.385775
Si Si5 0.763889 0.459836 0.479915
Si Si6 0.787704 0.035998 0.657435
Si Si7 0.432922 0.434741 0.855952
O O1 0.500000 0.500000 0.000000
O O2 0.228035 0.379365 0.175885
O O3 0.347745 0.713273 0.990742
O O4 0.970441 0.776804 0.851701
O O5 0.645100 0.635501 0.300286
O O6 0.722425 0.689464 0.108849
O O7 0.049375 0.585483 0.274402
O O8 0.500000 0.000000 0.000000
O O9 0.790064 0.780897 0.593278
O O10 0.207340 0.646318 0.764114
O O11 0.828138 0.002703 0.589240
O O12 0.464282 0.173676 0.564988
O O13 0.451846 0.473640 0.267937
O O14 0.500000 0.500000 0.500000
O O15 0.873594 0.208444 0.596398
O O16 0.000000 0.500000 0.500000
#
# Coordination Sequence:
#
# PCOD9034798 Si02
#       7
#     2   2   2   2   2   2   2
#     4  11  24  41  68 109 152 196 245 299 380 470
#     4  11  26  50  79 101 148 202 261 320 385 468
#     4  10  23  44  70 108 151 197 247 301 382 473
#     4  10  23  46  70 112 141 189 252 308 381 460
#     4  12  30  53  76 116 153 202 271 334 399 458
#     4  12  24  46  75 102 154 195 242 316 390 449
#     4  10  22  45  68 107 144 186 256 295 370 470
#
# _framework density 24.511514999999999
#
# number of rings (size 3 to 8) (size 9 to 14) (size 15 to 20)
#    0.000    1.143    2.857    1.714    2.000    6.857 
#    0.000    0.000    0.000    0.000    0.000    0.000 
#    0.000    0.000    0.000    0.000    0.000    0.000 
#
# Total GULP energy -77948.470523 kJ/mol
# GULP energy per Si atom -5567.747895 kJ/mol
# Density = 2.445573 g / cm^3
# Si number density = 24.511515 Si / 1000 Ang^3
#
#
#
# Elastic Constant Matrix: (Units=GPa)
#
#
# Indices 1 2 3 4 5 6 
#
# 1 107.0668 52.0524 40.9937 9.1306 23.4207 -12.3978
# 2 52.0524 109.7235 54.0420 -8.5304 12.7940 7.3026
# 3 40.9937 54.0420 143.7669 4.8078 29.4333 -10.3759
# 4 9.1306 -8.5304 4.8078 52.4381 3.4787 12.6213
# 5 23.4207 12.7940 29.4333 3.4787 40.3755 10.0049
# 6 -12.3978 7.3026 -10.3759 12.6213 10.0049 66.6765
#
#
#
# Elastic Compliance Matrix: (Units=1/GPa)
#
#
# Indices 1 2 3 4 5 6 
#
# 1 0.015706 -0.007603 0.000671 -0.004937 -0.008260 0.006031
# 2 -0.007603 0.015538 -0.005094 0.005380 0.004111 -0.005544
# 3 0.000671 -0.005094 0.010506 -0.002357 -0.007183 0.003841
# 4 -0.004937 0.005380 -0.002357 0.022416 0.002557 -0.006501
# 5 -0.008260 0.004111 -0.007183 0.002557 0.035480 -0.008911
# 6 0.006031 -0.005544 0.003841 -0.006501 -0.008911 0.019892
#
#
# Mechanical properties :
#
#
# Convention : Reuss Voigt Hill
#
# Bulk Modulus (GPa) = 56.50888 72.74816 64.62852
# Shear Modulus (GPa) = 33.44725 46.12930 39.78827
#
# Velocity S-wave (km/s) = 3.69799 4.34284 4.03333
# Velocity P-wave (km/s) = 6.42943 7.40882 6.93644
#
# Compressibility (1/GPa) = 0.01769633
#
# Stress axis : x y z
#
# Youngs Moduli (GPa) = 63.67110 64.35901 95.18555
#
# Poissons Ratio (x) = 0.48935 -0.06389
# Poissons Ratio (y) = 0.48412 0.48490
# Poissons Ratio (z) = -0.04273 0.32786
#
# Static dielectric constant tensor:
#      x y z
#    x 1.930080 0.139570 -0.183490 
#    y 0.139570 2.058990 -0.025120 
#    z -0.183490 -0.025120 1.837410 
# 
# From -- ./inp_files/583605.got.cif
#   From: 2010.05.17/outbox.cif.g08.bks.cpg/sg2_292_cif.got.tgz:583605.got - 2010.06.03 11:33:40.
