data_PCOD9034224
_publ_section_title
;
Structure prediction by ZEFSAII (Michael W. Deem and Ramdas Pophale) SiO2 
 PCOD9034224
Probable space group: P -1
;
_chemical_formula_sum "Si O2"
_cell_formula_units_Z 12
_cell_length_a 8.334539
_cell_length_b 9.161906
_cell_length_c 8.313011
_cell_angle_alpha 94.432539
_cell_angle_beta 55.035725
_cell_angle_gamma 76.061122
_cell_volume 486.038322
_symmetry_space_group_name_H-M "P -1"
_symmetry_group_IT_number 2
_symmetry_cell_setting 'triclinic'
loop_
_space_group_symop_operation_xyz
x,y,z
-x,-y,-z
loop_
_atom_site_type_symbol
_atom_site_label
_atom_site_fract_x
_atom_site_fract_y
_atom_site_fract_z
Si Si1 0.003185 0.676532 0.669367
Si Si2 0.711943 0.581435 0.999032
Si Si3 0.168232 0.990915 0.038014
Si Si4 0.252201 0.792483 0.284273
Si Si5 0.598176 0.945085 0.611965
Si Si6 0.142370 0.365143 0.734453
O O1 0.105587 0.723423 0.462582
O O2 0.156915 0.526300 0.664813
O O3 0.796208 0.630073 0.787071
O O4 0.916906 0.834903 0.831197
O O5 0.466259 0.645122 0.131669
O O6 0.754428 0.661366 0.149579
O O7 0.891011 0.411766 0.905402
O O8 0.405915 0.946886 0.836016
O O9 0.168451 0.875505 0.172232
O O10 0.000000 0.000000 0.000000
O O11 0.300107 0.932425 0.366421
O O12 0.755586 0.773616 0.459600
O O13 0.500000 0.000000 0.500000
#
# Coordination Sequence:
#
# PCOD9034224 Si02
#       6
#     2   2   2   2   2   2
#     4  10  22  44  72 104 143 190 228 299 357 423
#     4   9  20  43  71 105 149 186 228 286 362 420
#     4  12  27  47  67 105 148 189 244 306 351 419
#     4  12  24  45  76 105 142 191 246 292 353 424
#     4  12  22  43  75 111 139 193 238 289 362 433
#     4   9  20  43  70 109 151 186 227 290 364 432
#
# _framework density 24.689412999999998
#
# number of rings (size 3 to 8) (size 9 to 14) (size 15 to 20)
#    1.000    0.333    3.333    2.000    0.000    0.667 
#    0.000    4.167    0.000    0.000    0.000    0.000 
#    0.000    0.000    0.000    0.000    0.000    0.000 
#
# Total GULP energy -67028.221056 kJ/mol
# GULP energy per Si atom -5585.685088 kJ/mol
# Density = 2.463322 g / cm^3
# Si number density = 24.689413 Si / 1000 Ang^3
#
#
#
# Elastic Constant Matrix: (Units=GPa)
#
#
# Indices 1 2 3 4 5 6 
#
# 1 109.1703 58.0380 56.3180 -3.0305 4.0823 -27.7402
# 2 58.0380 153.3267 96.8927 4.3186 11.4533 -13.1158
# 3 56.3180 96.8927 203.6087 -3.5163 -10.7878 -8.2182
# 4 -3.0305 4.3186 -3.5163 73.1592 -10.0584 7.8560
# 5 4.0823 11.4533 -10.7878 -10.0584 31.0151 3.0938
# 6 -27.7402 -13.1158 -8.2182 7.8560 3.0938 39.3828
#
#
#
# Elastic Compliance Matrix: (Units=1/GPa)
#
#
# Indices 1 2 3 4 5 6 
#
# 1 0.014290 -0.002935 -0.002351 -0.000684 -0.002729 0.008948
# 2 -0.002935 0.011426 -0.004935 -0.002086 -0.006389 0.001627
# 3 -0.002351 -0.004935 0.008146 0.001628 0.005730 -0.002375
# 4 -0.000684 -0.002086 0.001628 0.015253 0.006814 -0.004415
# 5 -0.002729 -0.006389 0.005730 0.006814 0.039897 -0.007348
# 6 0.008948 0.001627 -0.002375 -0.004415 -0.007348 0.033199
#
#
# Mechanical properties :
#
#
# Convention : Reuss Voigt Hill
#
# Bulk Modulus (GPa) = 74.51011 98.73368 86.62189
# Shear Modulus (GPa) = 33.98464 45.70188 39.84326
#
# Velocity S-wave (km/s) = 3.71413 4.30708 4.02155
# Velocity P-wave (km/s) = 6.97406 8.05057 7.53157
#
# Compressibility (1/GPa) = 0.01342100
#
# Stress axis : x y z
#
# Youngs Moduli (GPa) = 69.97919 87.51679 122.76064
#
# Poissons Ratio (x) = 0.25683 0.28865
# Poissons Ratio (y) = 0.20536 0.60579
# Poissons Ratio (z) = 0.16454 0.43187
#
# Static dielectric constant tensor:
#      x y z
#    x 2.004250 0.014430 -0.052780 
#    y 0.014430 2.065950 -0.148980 
#    z -0.052780 -0.148980 2.116480 
# 
# From -- ./inp_files/421533.got.cif
#   From: 2010.05.17/outbox.cif.g08.bks.cpg/sg2_211_cif.got.tgz:421533.got - 2010.06.03 11:33:40.
