data_PCOD9034528
_publ_section_title
;
Structure prediction by ZEFSAII (Michael W. Deem and Ramdas Pophale) SiO2 
 PCOD9034528
Probable space group: P -1
;
_chemical_formula_sum "Si O2"
_cell_formula_units_Z 14
_cell_length_a 10.033857
_cell_length_b 7.446823
_cell_length_c 10.730366
_cell_angle_alpha 50.053607
_cell_angle_beta 66.223734
_cell_angle_gamma 63.945788
_cell_volume 543.603263
_symmetry_space_group_name_H-M "P -1"
_symmetry_group_IT_number 2
_symmetry_cell_setting 'triclinic'
loop_
_space_group_symop_operation_xyz
x,y,z
-x,-y,-z
loop_
_atom_site_type_symbol
_atom_site_label
_atom_site_fract_x
_atom_site_fract_y
_atom_site_fract_z
Si Si1 0.265632 0.881233 0.869157
Si Si2 0.914758 0.175977 0.347569
Si Si3 0.832134 0.569040 0.928620
Si Si4 0.599917 0.768784 0.703649
Si Si5 0.670424 0.016493 0.923384
Si Si6 0.365395 0.731606 0.440959
Si Si7 0.849100 0.719075 0.436100
O O1 0.155438 0.714026 0.946616
O O2 0.291243 0.869903 0.013576
O O3 0.204464 0.165531 0.730055
O O4 0.572783 0.240130 0.206917
O O5 0.879509 0.966903 0.368277
O O6 0.018923 0.347193 0.193723
O O7 0.767037 0.325819 0.404266
O O8 0.000000 0.000000 0.500000
O O9 0.764978 0.740395 0.992816
O O10 0.706455 0.652295 0.830476
O O11 0.703616 0.678088 0.583856
O O12 0.589091 0.052331 0.598784
O O13 0.500000 0.000000 0.000000
O O14 0.685529 0.164914 0.724843
O O15 0.500000 0.500000 0.500000
O O16 0.000000 0.500000 0.500000
#
# Coordination Sequence:
#
# PCOD9034528 Si02
#       7
#     2   2   2   2   2   2   2
#     4  12  26  50  80 120 159 206 268 332 405 468
#     4  11  22  52  79 105 160 214 263 321 402 466
#     4  11  24  49  81 110 163 207 256 339 395 472
#     4  10  22  49  76 113 152 208 262 324 395 468
#     4  11  23  46  76 120 157 203 262 323 406 464
#     4  10  22  44  82 116 148 208 268 320 381 477
#     4  11  27  51  80 114 156 211 272 329 392 485
#
# _framework density 25.754078
#
# number of rings (size 3 to 8) (size 9 to 14) (size 15 to 20)
#    0.000    1.143    7.143    0.857    0.000    5.143 
#    5.143    3.571    3.143    1.714    0.000    0.000 
#    0.000    0.000    0.000    0.000    0.000    0.000 
#
# Total GULP energy -78337.301144 kJ/mol
# GULP energy per Si atom -5595.521510 kJ/mol
# Density = 2.569546 g / cm^3
# Si number density = 25.754078 Si / 1000 Ang^3
#
#
#
# Elastic Constant Matrix: (Units=GPa)
#
#
# Indices 1 2 3 4 5 6 
#
# 1 127.6349 53.2093 49.0371 11.1741 -29.4740 5.2320
# 2 53.2093 153.8134 69.7434 -3.0115 -14.5194 -8.9773
# 3 49.0371 69.7434 111.7870 -1.0753 -13.8463 -7.7812
# 4 11.1741 -3.0115 -1.0753 33.6938 -10.0255 0.2271
# 5 -29.4740 -14.5194 -13.8463 -10.0255 44.2530 -6.5536
# 6 5.2320 -8.9773 -7.7812 0.2271 -6.5536 51.9551
#
#
#
# Elastic Compliance Matrix: (Units=1/GPa)
#
#
# Indices 1 2 3 4 5 6 
#
# 1 0.011404 -0.002168 -0.003131 -0.002540 0.005131 -0.001334
# 2 -0.002168 0.009632 -0.004863 0.001639 0.000750 0.001242
# 3 -0.003131 -0.004863 0.013622 0.001365 0.001135 0.001652
# 4 -0.002540 0.001639 0.001365 0.032758 0.006913 0.001472
# 5 0.005131 0.000750 0.001135 0.006913 0.028681 0.003370
# 6 -0.001334 0.001242 0.001652 0.001472 0.003370 0.020262
#
#
# Mechanical properties :
#
#
# Convention : Reuss Voigt Hill
#
# Bulk Modulus (GPa) = 69.77290 81.91277 75.84283
# Shear Modulus (GPa) = 35.34502 40.73008 38.03755
#
# Velocity S-wave (km/s) = 3.70862 3.98112 3.84728
# Velocity P-wave (km/s) = 6.74457 7.28061 7.01771
#
# Compressibility (1/GPa) = 0.01433221
#
# Stress axis : x y z
#
# Youngs Moduli (GPa) = 87.69008 103.82205 73.41089
#
# Poissons Ratio (x) = 0.22512 0.22988
# Poissons Ratio (y) = 0.19014 0.35700
# Poissons Ratio (z) = 0.27459 0.50489
#
# Static dielectric constant tensor:
#      x y z
#    x 2.228610 0.127370 0.166070 
#    y 0.127370 2.043830 0.073530 
#    z 0.166070 0.073530 2.284280 
# 
# From -- ./inp_files/293955.got.cif
#   From: 2010.05.17/outbox.cif.g08.bks.cpg/sg2_147_cif.got.tgz:293955.got - 2010.06.03 11:33:40.
