data_PCOD9034396
_publ_section_title
;
Structure prediction by ZEFSAII (Michael W. Deem and Ramdas Pophale) SiO2 
 PCOD9034396
Probable space group: P -1
;
_chemical_formula_sum "Si O2"
_cell_formula_units_Z 14
_cell_length_a 10.736073
_cell_length_b 8.010776
_cell_length_c 9.199950
_cell_angle_alpha 103.831915
_cell_angle_beta 73.557135
_cell_angle_gamma 137.879439
_cell_volume 508.450586
_symmetry_space_group_name_H-M "P -1"
_symmetry_group_IT_number 2
_symmetry_cell_setting 'triclinic'
loop_
_space_group_symop_operation_xyz
x,y,z
-x,-y,-z
loop_
_atom_site_type_symbol
_atom_site_label
_atom_site_fract_x
_atom_site_fract_y
_atom_site_fract_z
Si Si1 0.220116 0.924713 0.770727
Si Si2 0.883447 0.382471 0.822928
Si Si3 0.963861 0.016195 0.350316
Si Si4 0.378244 0.764358 0.382892
Si Si5 0.410039 0.733401 0.918699
Si Si6 0.360861 0.521215 0.601161
Si Si7 0.766862 0.907705 0.907724
O O1 0.102767 0.640925 0.787615
O O2 0.140349 0.907788 0.638275
O O3 0.444394 0.137826 0.744715
O O4 0.169904 0.011745 0.931338
O O5 0.775847 0.308656 0.690206
O O6 0.842355 0.152442 0.848288
O O7 0.792694 0.435156 0.976059
O O8 0.803788 0.723740 0.302910
O O9 0.144997 0.165128 0.222161
O O10 0.000000 0.000000 0.500000
O O11 0.294455 0.548385 0.480849
O O12 0.500000 0.000000 0.500000
O O13 0.436497 0.731379 0.736498
O O14 0.542043 0.707673 0.928306
O O15 0.500000 0.000000 0.000000
O O16 0.500000 0.500000 0.500000
#
# Coordination Sequence:
#
# PCOD9034396 Si02
#       7
#     2   2   2   2   2   2   2
#     4  12  26  47  71 106 143 190 248 299 368 436
#     4  11  25  46  73 106 140 190 246 304 369 432
#     4  12  27  47  70 104 149 193 247 301 369 446
#     4  12  27  45  74 108 149 189 248 307 366 444
#     4  10  22  44  74 104 143 188 243 299 365 435
#     4  12  25  47  72 106 150 197 240 302 377 435
#     4  11  24  45  74 100 143 188 242 306 362 436
#
# _framework density 27.534631999999998
#
# number of rings (size 3 to 8) (size 9 to 14) (size 15 to 20)
#    0.000    0.571    2.857    5.143    6.000    0.571 
#    0.000    2.143    0.000    0.000    0.000    0.000 
#    0.000    0.000    0.000    0.000    0.000    0.000 
#
# Total GULP energy -78397.663225 kJ/mol
# GULP energy per Si atom -5599.833088 kJ/mol
# Density = 2.747196 g / cm^3
# Si number density = 27.534632 Si / 1000 Ang^3
#
#
#
# Elastic Constant Matrix: (Units=GPa)
#
#
# Indices 1 2 3 4 5 6 
#
# 1 102.1876 -1.9850 47.5420 -2.7298 10.0488 15.0488
# 2 -1.9850 73.1329 9.4530 -12.4271 1.0131 -1.1538
# 3 47.5420 9.4530 180.4334 20.4689 12.6059 -3.2275
# 4 -2.7298 -12.4271 20.4689 40.6417 -2.9518 2.6332
# 5 10.0488 1.0131 12.6059 -2.9518 66.8398 -11.6954
# 6 15.0488 -1.1538 -3.2275 2.6332 -11.6954 34.1605
#
#
#
# Elastic Compliance Matrix: (Units=1/GPa)
#
#
# Indices 1 2 3 4 5 6 
#
# 1 0.012975 0.001369 -0.003854 0.003522 -0.002332 -0.007104
# 2 0.001369 0.014881 -0.001789 0.005590 0.000032 -0.000689
# 3 -0.003854 -0.001789 0.007262 -0.004664 -0.000531 0.002501
# 4 0.003522 0.005590 -0.004664 0.029208 0.000900 -0.003747
# 5 -0.002332 0.000032 -0.000531 0.000900 0.016605 0.006594
# 6 -0.007104 -0.000689 0.002501 -0.003747 0.006594 0.035162
#
#
# Mechanical properties :
#
#
# Convention : Reuss Voigt Hill
#
# Bulk Modulus (GPa) = 37.63649 51.75266 44.69457
# Shear Modulus (GPa) = 37.45335 48.37802 42.91569
#
# Velocity S-wave (km/s) = 3.69213 4.19619 3.95220
# Velocity P-wave (km/s) = 5.64572 6.50489 6.09048
#
# Compressibility (1/GPa) = 0.02656996
#
# Stress axis : x y z
#
# Youngs Moduli (GPa) = 77.06979 67.20100 137.69378
#
# Poissons Ratio (x) = -0.09201 0.53071
# Poissons Ratio (y) = -0.10552 0.24635
# Poissons Ratio (z) = 0.29705 0.12023
#
# Static dielectric constant tensor:
#      x y z
#    x 2.192890 0.024640 -0.065450 
#    y 0.024640 2.236880 0.002040 
#    z -0.065450 0.002040 2.204640 
# 
# From -- ./inp_files/244546.got.cif
#   From: 2010.05.17/outbox.cif.g08.bks.cpg/sg2_123_cif.got.tgz:244546.got - 2010.06.03 11:33:40.
