data_PCOD9034580
_publ_section_title
;
Structure prediction by ZEFSAII (Michael W. Deem and Ramdas Pophale) SiO2 
 PCOD9034580
Probable space group: P -1
;
_chemical_formula_sum "Si O2"
_cell_formula_units_Z 12
_cell_length_a 5.340632
_cell_length_b 13.650940
_cell_length_c 9.090816
_cell_angle_alpha 56.271552
_cell_angle_beta 99.445778
_cell_angle_gamma 117.697999
_cell_volume 484.052215
_symmetry_space_group_name_H-M "P -1"
_symmetry_group_IT_number 2
_symmetry_cell_setting 'triclinic'
loop_
_space_group_symop_operation_xyz
x,y,z
-x,-y,-z
loop_
_atom_site_type_symbol
_atom_site_label
_atom_site_fract_x
_atom_site_fract_y
_atom_site_fract_z
Si Si1 0.244583 0.627414 0.336064
Si Si2 0.867817 0.823441 0.931643
Si Si3 0.044694 0.629280 0.987532
Si Si4 0.172903 0.069220 0.605982
Si Si5 0.567311 0.150634 0.352560
Si Si6 0.105357 0.231090 0.705353
O O1 0.567249 0.655668 0.381984
O O2 0.000000 0.500000 0.500000
O O3 0.145259 0.735203 0.295220
O O4 0.215861 0.625520 0.155914
O O5 0.629645 0.842194 0.803995
O O6 0.833143 0.678203 0.007757
O O7 0.848567 0.839625 0.087938
O O8 0.163325 0.946567 0.801125
O O9 0.139676 0.738051 0.772674
O O10 0.000000 0.500000 0.000000
O O11 0.463250 0.181264 0.472102
O O12 0.031757 0.138789 0.633843
O O13 0.000000 0.000000 0.500000
O O14 0.500000 0.000000 0.500000
#
# Coordination Sequence:
#
# PCOD9034580 Si02
#       6
#     2   2   2   2   2   2
#     4  11  26  48  70 101 145 196 250 297 363 446
#     4  10  22  45  65 103 142 186 241 301 359 448
#     4  11  25  44  70 103 142 194 243 304 366 434
#     4  10  23  40  69 105 138 181 239 299 367 434
#     4  11  22  42  70 101 144 183 242 301 369 438
#     4  11  24  46  72 101 144 192 244 304 371 431
#
# _framework density 24.790714999999999
#
# number of rings (size 3 to 8) (size 9 to 14) (size 15 to 20)
#    0.000    1.333    3.333    1.000    2.333    6.000 
#    0.000    3.333    0.000    0.000    0.000    0.000 
#    0.000    0.000    0.000    0.000    0.000    0.000 
#
# Total GULP energy -66802.182303 kJ/mol
# GULP energy per Si atom -5566.848525 kJ/mol
# Density = 2.473429 g / cm^3
# Si number density = 24.790715 Si / 1000 Ang^3
#
#
#
# Elastic Constant Matrix: (Units=GPa)
#
#
# Indices 1 2 3 4 5 6 
#
# 1 63.5567 24.4783 1.7655 12.9171 -4.7908 -6.8078
# 2 24.4783 156.7116 45.4080 28.5150 -0.3372 -31.7999
# 3 1.7655 45.4080 119.5726 8.1843 -18.5535 -4.2090
# 4 12.9171 28.5150 8.1843 43.8591 -6.5196 -1.7307
# 5 -4.7908 -0.3372 -18.5535 -6.5196 47.4294 5.9116
# 6 -6.8078 -31.7999 -4.2090 -1.7307 5.9116 36.5308
#
#
#
# Elastic Compliance Matrix: (Units=1/GPa)
#
#
# Indices 1 2 3 4 5 6 
#
# 1 0.017516 -0.002156 0.001090 -0.003689 0.001537 0.001089
# 2 -0.002156 0.010642 -0.003857 -0.005744 -0.003527 0.008716
# 3 0.001090 -0.003857 0.010373 0.000828 0.004586 -0.002662
# 4 -0.003689 -0.005744 0.000828 0.027920 0.004368 -0.004977
# 5 0.001537 -0.003527 0.004586 0.004368 0.024355 -0.005989
# 6 0.001089 0.008716 -0.002662 -0.004977 -0.005989 0.035591
#
#
# Mechanical properties :
#
#
# Convention : Reuss Voigt Hill
#
# Bulk Modulus (GPa) = 34.86218 53.68274 44.27246
# Shear Modulus (GPa) = 34.29238 43.44314 38.86776
#
# Velocity S-wave (km/s) = 3.72328 4.19070 3.96389
# Velocity P-wave (km/s) = 5.70761 6.71695 6.23274
#
# Compressibility (1/GPa) = 0.02868438
#
# Stress axis : x y z
#
# Youngs Moduli (GPa) = 57.08926 93.96995 96.40586
#
# Poissons Ratio (x) = 0.20262 -0.10504
# Poissons Ratio (y) = 0.12310 0.37180
# Poissons Ratio (z) = -0.06220 0.36241
#
# Static dielectric constant tensor:
#      x y z
#    x 2.455050 0.039090 -0.147130 
#    y 0.039090 2.046470 -0.084050 
#    z -0.147130 -0.084050 2.033560 
# 
# From -- ./inp_files/92233.got.cif
#   From: 2010.05.17/outbox.cif.g08.bks.cpg/sg2_47_cif.got.tgz:92233.got - 2010.06.03 11:33:40.
