data_PCOD9034465
_publ_section_title
;
Structure prediction by ZEFSAII (Michael W. Deem and Ramdas Pophale) SiO2 
 PCOD9034465
Probable space group: P -1
;
_chemical_formula_sum "Si O2"
_cell_formula_units_Z 10
_cell_length_a 7.873977
_cell_length_b 5.011909
_cell_length_c 9.238478
_cell_angle_alpha 99.386850
_cell_angle_beta 90.504145
_cell_angle_gamma 93.907156
_cell_volume 358.792732
_symmetry_space_group_name_H-M "P -1"
_symmetry_group_IT_number 2
_symmetry_cell_setting 'triclinic'
loop_
_space_group_symop_operation_xyz
x,y,z
-x,-y,-z
loop_
_atom_site_type_symbol
_atom_site_label
_atom_site_fract_x
_atom_site_fract_y
_atom_site_fract_z
Si Si1 0.769856 0.437517 0.230753
Si Si2 0.806962 0.216781 0.903823
Si Si3 0.379061 0.239996 0.513747
Si Si4 0.587699 0.657239 0.874543
Si Si5 0.960586 0.892984 0.649374
O O1 0.715079 0.714359 0.328878
O O2 0.580744 0.282434 0.210212
O O3 0.907362 0.324041 0.328524
O O4 0.842024 0.387296 0.066155
O O5 0.709873 0.417609 0.815902
O O6 0.695675 0.940637 0.925301
O O7 0.958178 0.106407 0.800333
O O8 0.500000 0.500000 0.500000
O O9 0.237613 0.204424 0.384313
O O10 0.500000 0.000000 0.500000
O O11 0.500000 0.500000 0.000000
O O12 0.000000 0.000000 0.500000
#
# Coordination Sequence:
#
# PCOD9034465 Si02
#       5
#     2   2   2   2   2
#     4  11  24  46  76 110 147 195 252 315 373 443
#     4  11  25  48  76 111 152 201 254 308 375 459
#     4  12  27  49  74 105 147 198 248 305 377 454
#     4  10  22  44  75 111 147 194 251 311 373 448
#     4  12  28  49  75 115 158 202 253 319 387 450
#
# _framework density 27.871243
#
# number of rings (size 3 to 8) (size 9 to 14) (size 15 to 20)
#    0.000    0.800    0.000    7.200    0.000   11.200 
#    0.000    6.000    0.000    0.000    0.000    0.000 
#    0.000    0.000    0.000    0.000    0.000    0.000 
#
# Total GULP energy -56012.702142 kJ/mol
# GULP energy per Si atom -5601.270214 kJ/mol
# Density = 2.780781 g / cm^3
# Si number density = 27.871243 Si / 1000 Ang^3
#
#
#
# Elastic Constant Matrix: (Units=GPa)
#
#
# Indices 1 2 3 4 5 6 
#
# 1 190.9557 79.5199 56.5929 3.1434 -1.1961 -49.8110
# 2 79.5199 181.4226 57.9064 9.3257 -3.5582 -20.2469
# 3 56.5929 57.9064 211.1411 5.7797 -31.9391 -5.2031
# 4 3.1434 9.3257 5.7797 53.2445 -4.3227 -2.4398
# 5 -1.1961 -3.5582 -31.9391 -4.3227 65.3003 9.0014
# 6 -49.8110 -20.2469 -5.2031 -2.4398 9.0014 60.7932
#
#
#
# Elastic Compliance Matrix: (Units=1/GPa)
#
#
# Indices 1 2 3 4 5 6 
#
# 1 0.008347 -0.002493 -0.001655 0.000273 -0.001618 0.006117
# 2 -0.002493 0.007088 -0.001303 -0.000974 -0.000392 0.000225
# 3 -0.001655 -0.001303 0.005959 -0.000154 0.003042 -0.001736
# 4 0.000273 -0.000974 -0.000154 0.019062 0.001071 0.000492
# 5 -0.001618 -0.000392 0.003042 0.001071 0.017334 -0.003719
# 6 0.006117 0.000225 -0.001736 0.000492 -0.003719 0.021958
#
#
# Mechanical properties :
#
#
# Convention : Reuss Voigt Hill
#
# Bulk Modulus (GPa) = 95.31343 107.95086 101.63214
# Shear Modulus (GPa) = 53.10842 61.83429 57.47135
#
# Velocity S-wave (km/s) = 4.36993 4.71528 4.54589
# Velocity P-wave (km/s) = 7.72876 8.27413 8.00609
#
# Compressibility (1/GPa) = 0.01049170
#
# Stress axis : x y z
#
# Youngs Moduli (GPa) = 119.80945 141.07967 167.82413
#
# Poissons Ratio (x) = 0.35175 0.27771
# Poissons Ratio (y) = 0.29872 0.21864
# Poissons Ratio (z) = 0.19826 0.18380
#
# Static dielectric constant tensor:
#      x y z
#    x 2.230730 0.107260 0.009110 
#    y 0.107260 2.179470 -0.035730 
#    z 0.009110 -0.035730 2.320650 
# 
# From -- ./inp_files/168217.got.cif
#   From: 2010.05.17/outbox.cif.g08.bks.cpg/sg2_85_cif.got.tgz:168217.got - 2010.06.03 11:33:40.
