data_PCOD9034857
_publ_section_title
;
Structure prediction by ZEFSAII (Michael W. Deem and Ramdas Pophale) SiO2 
 PCOD9034857
Probable space group: P -1
;
_chemical_formula_sum "Si O2"
_cell_formula_units_Z 12
_cell_length_a 20.306653
_cell_length_b 12.948161
_cell_length_c 5.541171
_cell_angle_alpha 69.023954
_cell_angle_beta 123.402475
_cell_angle_gamma 156.798324
_cell_volume 427.917960
_symmetry_space_group_name_H-M "P -1"
_symmetry_group_IT_number 2
_symmetry_cell_setting 'triclinic'
loop_
_space_group_symop_operation_xyz
x,y,z
-x,-y,-z
loop_
_atom_site_type_symbol
_atom_site_label
_atom_site_fract_x
_atom_site_fract_y
_atom_site_fract_z
Si Si1 0.686008 0.915012 0.028680
Si Si2 0.186167 0.814118 0.505241
Si Si3 0.296916 0.320283 0.654776
Si Si4 0.552047 0.165751 0.781466
Si Si5 0.922916 0.623533 0.832772
Si Si6 0.155985 0.290367 0.784008
O O1 0.673180 0.771715 0.216053
O O2 0.653488 0.957057 0.143351
O O3 0.489277 0.644297 0.676704
O O4 0.927719 0.246832 0.164320
O O5 0.000000 0.500000 0.500000
O O6 0.325687 0.931433 0.488287
O O7 0.079033 0.791298 0.228242
O O8 0.267111 0.327534 0.863202
O O9 0.073698 0.042621 0.312798
O O10 0.690599 0.297510 0.730540
O O11 0.718119 0.467282 0.985459
O O12 0.500000 0.000000 0.000000
O O13 0.891162 0.696706 0.564842
#
# Coordination Sequence:
#
# PCOD9034857 Si02
#       6
#     2   2   2   2   2   2
#     4  10  22  45  68  99 134 176 225 271 333 400
#     4  12  26  47  67  98 140 177 220 284 336 387
#     4   9  19  41  73  91 135 181 211 278 337 382
#     4  12  26  47  67  98 140 177 220 284 336 387
#     4  11  25  43  71 103 131 177 231 266 335 408
#     4  10  22  45  68  99 134 176 225 271 333 400
#
# _framework density 28.042762
#
# number of rings (size 3 to 8) (size 9 to 14) (size 15 to 20)
#    0.000    1.333    3.333    2.000    2.333    1.333 
#    0.000   26.667    0.000    0.000    0.000    0.000 
#    0.000    0.000    0.000    0.000    0.000    0.000 
#
# Total GULP energy -66920.361073 kJ/mol
# GULP energy per Si atom -5576.696756 kJ/mol
# Density = 2.797894 g / cm^3
# Si number density = 28.042762 Si / 1000 Ang^3
#
#
#
# Elastic Constant Matrix: (Units=GPa)
#
#
# Indices 1 2 3 4 5 6 
#
# 1 122.2288 42.7097 30.9667 23.8096 21.5903 24.4022
# 2 42.7097 152.0734 62.6361 42.4448 1.8070 27.2799
# 3 30.9667 62.6361 98.2669 9.5220 20.9997 -14.3826
# 4 23.8096 42.4448 9.5220 52.1897 -0.2630 3.7854
# 5 21.5903 1.8070 20.9997 -0.2630 46.0579 23.3784
# 6 24.4022 27.2799 -14.3826 3.7854 23.3784 56.5282
#
#
#
# Elastic Compliance Matrix: (Units=1/GPa)
#
#
# Indices 1 2 3 4 5 6 
#
# 1 0.011153 0.001502 -0.005045 -0.004906 0.000357 -0.006642
# 2 0.001502 0.023916 -0.022903 -0.013947 0.022013 -0.026187
# 3 -0.005045 -0.022903 0.037008 0.011496 -0.031198 0.034780
# 4 -0.004906 -0.013947 0.011496 0.029615 -0.009107 0.013557
# 5 0.000357 0.022013 -0.031198 -0.009107 0.055746 -0.041160
# 6 -0.006642 -0.026187 0.034780 0.013557 -0.041160 0.058159
#
#
# Mechanical properties :
#
#
# Convention : Reuss Voigt Hill
#
# Bulk Modulus (GPa) = 52.12291 71.68822 61.90557
# Shear Modulus (GPa) = 18.18942 46.70561 32.44751
#
# Velocity S-wave (km/s) = 2.54959 4.08550 3.40527
# Velocity P-wave (km/s) = 5.22441 6.91914 6.13062
#
# Compressibility (1/GPa) = 0.01918542
#
# Stress axis : x y z
#
# Youngs Moduli (GPa) = 89.65823 41.81329 27.02086
#
# Poissons Ratio (x) = -0.06282 0.13633
# Poissons Ratio (y) = -0.13469 0.61886
# Poissons Ratio (z) = 0.45236 0.95765
#
# Static dielectric constant tensor:
#      x y z
#    x 2.147090 0.109640 0.045310 
#    y 0.109640 2.246740 -0.067320 
#    z 0.045310 -0.067320 2.374630 
# 
# From -- ./inp_files/124023.got.cif
#   From: 2010.05.17/outbox.cif.g08.bks.cpg/sg2_63_cif.got.tgz:124023.got - 2010.06.03 11:33:40.
