data_PCOD9034122
_publ_section_title
;
Structure prediction by ZEFSAII (Michael W. Deem and Ramdas Pophale) SiO2 
 PCOD9034122
Probable space group: P -1
;
_chemical_formula_sum "Si O2"
_cell_formula_units_Z 16
_cell_length_a 14.635069
_cell_length_b 9.213393
_cell_length_c 9.742511
_cell_angle_alpha 42.554111
_cell_angle_beta 111.056742
_cell_angle_gamma 91.112778
_cell_volume 763.934158
_symmetry_space_group_name_H-M "P -1"
_symmetry_group_IT_number 2
_symmetry_cell_setting 'triclinic'
loop_
_space_group_symop_operation_xyz
x,y,z
-x,-y,-z
loop_
_atom_site_type_symbol
_atom_site_label
_atom_site_fract_x
_atom_site_fract_y
_atom_site_fract_z
Si Si1 0.127309 0.883229 0.165886
Si Si2 0.441460 0.199358 0.220311
Si Si3 0.761616 0.548505 0.672451
Si Si4 0.422342 0.998763 0.837679
Si Si5 0.679613 0.345461 0.023946
Si Si6 0.904380 0.741040 0.753159
Si Si7 0.198816 0.266374 0.012051
Si Si8 0.144052 0.778371 0.566663
O O1 0.181086 0.673441 0.236907
O O2 0.156365 0.784162 0.405479
O O3 0.169670 0.089565 0.025582
O O4 0.000000 0.000000 0.000000
O O5 0.510654 0.128618 0.170692
O O6 0.500000 0.000000 0.500000
O O7 0.421272 0.442633 0.115448
O O8 0.322498 0.220461 0.104334
O O9 0.838278 0.689706 0.631897
O O10 0.652661 0.736587 0.423717
O O11 0.737063 0.455386 0.870217
O O12 0.352176 0.846527 0.934139
O O13 0.500000 0.000000 0.000000
O O14 0.755543 0.243021 0.267956
O O15 0.937172 0.962485 0.615229
O O16 0.828021 0.788025 0.811459
O O17 0.000000 0.500000 0.000000
O O18 0.129457 0.539455 0.756812
#
# Coordination Sequence:
#
# PCOD9034122 Si02
#       8
#     2   2   2   2   2   2   2   2
#     4  11  27  46  68 100 143 183 222 286 356 406
#     4  11  22  44  70  97 136 179 227 276 336 408
#     4  12  24  45  67 103 145 169 229 297 335 403
#     4  12  28  43  68 104 137 182 231 279 350 409
#     4  11  24  45  69  98 133 183 223 283 339 405
#     4  11  21  42  71 101 133 169 229 289 342 401
#     4  10  23  44  67  97 135 181 229 270 340 411
#     4  10  22  44  71  94 130 183 223 272 345 410
#
# _framework density 20.944213999999999
#
# number of rings (size 3 to 8) (size 9 to 14) (size 15 to 20)
#    0.000    1.000    5.000    1.875    7.000    2.500 
#    2.250    0.000    0.000    0.000    0.000    0.000 
#    0.000    0.000    0.000    0.000    0.000    0.000 
#
# Total GULP energy -89332.750208 kJ/mol
# GULP energy per Si atom -5583.296888 kJ/mol
# Density = 2.089654 g / cm^3
# Si number density = 20.944214 Si / 1000 Ang^3
#
#
#
# Elastic Constant Matrix: (Units=GPa)
#
#
# Indices 1 2 3 4 5 6 
#
# 1 52.2110 25.6754 12.4877 -8.6656 -2.6853 -2.9901
# 2 25.6754 159.2046 48.5069 -24.9966 -5.0451 -1.6156
# 3 12.4877 48.5069 118.7103 -8.6262 4.4014 -7.7570
# 4 -8.6656 -24.9966 -8.6262 45.2837 0.8889 -1.5443
# 5 -2.6853 -5.0451 4.4014 0.8889 32.8016 -5.9040
# 6 -2.9901 -1.6156 -7.7570 -1.5443 -5.9040 24.8598
#
#
#
# Elastic Compliance Matrix: (Units=1/GPa)
#
#
# Indices 1 2 3 4 5 6 
#
# 1 0.021353 -0.002707 -0.000851 0.002486 0.001869 0.002725
# 2 -0.002707 0.008165 -0.002863 0.003413 0.001296 -0.000169
# 3 -0.000851 -0.002863 0.009916 0.000258 -0.001399 0.002490
# 4 0.002486 0.003413 0.000258 0.024559 0.000429 0.002229
# 5 0.001869 0.001296 -0.001399 0.000429 0.032381 0.007589
# 6 0.002725 -0.000169 0.002490 0.002229 0.007589 0.043260
#
#
# Mechanical properties :
#
#
# Convention : Reuss Voigt Hill
#
# Bulk Modulus (GPa) = 37.60356 55.94065 46.77211
# Shear Modulus (GPa) = 30.99053 36.81941 33.90497
#
# Velocity S-wave (km/s) = 3.85082 4.19737 4.02782
# Velocity P-wave (km/s) = 6.14531 7.08928 6.63411
#
# Compressibility (1/GPa) = 0.02659322
#
# Stress axis : x y z
#
# Youngs Moduli (GPa) = 46.83275 122.47072 100.84268
#
# Poissons Ratio (x) = 0.33156 0.08577
# Poissons Ratio (y) = 0.12679 0.28868
# Poissons Ratio (z) = 0.03983 0.35060
#
# Static dielectric constant tensor:
#      x y z
#    x 1.795630 0.019520 -0.018530 
#    y 0.019520 1.761430 -0.032980 
#    z -0.018530 -0.032980 1.749380 
# 
# From -- ./inp_files/279170.got.cif
#   From: 2010.05.17/outbox.cif.g08.bks.cpg/sg2_140_cif.got.tgz:279170.got - 2010.06.03 11:33:40.
