data_PCOD9034850
_publ_section_title
;
Structure prediction by ZEFSAII (Michael W. Deem and Ramdas Pophale) SiO2 
 PCOD9034850
Probable space group: P -1
;
_chemical_formula_sum "Si O2"
_cell_formula_units_Z 15
_cell_length_a 19.249247
_cell_length_b 9.251742
_cell_length_c 22.822351
_cell_angle_alpha 35.440838
_cell_angle_beta 15.847065
_cell_angle_gamma 43.336157
_cell_volume 601.346086
_symmetry_space_group_name_H-M "P -1"
_symmetry_group_IT_number 2
_symmetry_cell_setting 'triclinic'
loop_
_space_group_symop_operation_xyz
x,y,z
-x,-y,-z
loop_
_atom_site_type_symbol
_atom_site_label
_atom_site_fract_x
_atom_site_fract_y
_atom_site_fract_z
Si Si1 0.276935 0.437706 0.858151
Si Si2 0.241273 0.737446 0.196279
Si Si3 0.858865 0.025349 0.393997
Si Si4 0.581674 0.692867 0.426412
Si Si5 0.500000 0.000000 0.000000
Si Si6 0.903941 0.287982 0.922426
Si Si7 0.455714 0.468563 0.268012
Si Si8 0.331643 0.897295 0.943278
O O1 0.341385 0.646976 0.684238
O O2 0.488136 0.549036 0.702967
O O3 0.310656 0.177013 0.887534
O O4 0.981180 0.314352 0.169344
O O5 0.000000 0.500000 0.500000
O O6 0.119979 0.975509 0.225852
O O7 0.305472 0.728062 0.079573
O O8 0.498035 0.817388 0.003455
O O9 0.751816 0.797018 0.506455
O O10 0.621055 0.967218 0.652975
O O11 0.500000 0.500000 0.500000
O O12 0.817287 0.645655 0.290554
O O13 0.709179 0.995871 0.200772
O O14 0.620998 0.279327 0.770693
O O15 0.748260 0.488722 0.996192
O O16 0.894722 0.248159 0.873283
#
# Coordination Sequence:
#
# PCOD9034850 Si02
#       8
#     2   2   2   2   1   2   2   2
#     4  11  24  40  73 100 137 188 225 289 354 419
#     4  11  23  41  67  96 138 181 237 289 345 412
#     4  10  23  43  65  98 138 180 236 286 345 409
#     4  11  24  44  75 105 140 183 234 288 360 423
#     4  12  22  42  66 102 136 188 234 282 346 414
#     4  10  25  45  70 107 141 180 238 291 351 422
#     4  11  24  43  69 101 141 184 233 291 346 418
#     4  10  22  45  68  98 138 184 225 291 353 405
#
# _framework density 24.944039
#
# number of rings (size 3 to 8) (size 9 to 14) (size 15 to 20)
#    0.000    1.333    5.333    0.000    5.600    1.067 
#    0.000    5.333    0.000    0.000    0.000    0.000 
#    0.000    0.000    0.000    0.000    0.000    0.000 
#
# Total GULP energy -83616.450089 kJ/mol
# GULP energy per Si atom -5574.430006 kJ/mol
# Density = 2.488726 g / cm^3
# Si number density = 24.944039 Si / 1000 Ang^3
#
#
#
# Elastic Constant Matrix: (Units=GPa)
#
#
# Indices 1 2 3 4 5 6 
#
# 1 160.2510 9.6147 59.9218 -17.8406 37.2573 38.7286
# 2 9.6147 49.2492 14.6691 -0.2798 2.8535 18.6343
# 3 59.9218 14.6691 143.9927 -9.6316 25.6050 12.6431
# 4 -17.8406 -0.2798 -9.6316 36.3264 5.3004 1.2918
# 5 37.2573 2.8535 25.6050 5.3004 44.4278 -1.4522
# 6 38.7286 18.6343 12.6431 1.2918 -1.4522 46.2653
#
#
#
# Elastic Compliance Matrix: (Units=1/GPa)
#
#
# Indices 1 2 3 4 5 6 
#
# 1 0.013637 0.003603 -0.002266 0.008299 -0.011772 -0.012849
# 2 0.003603 0.025333 -0.002039 0.002493 -0.004192 -0.012864
# 3 -0.002266 -0.002039 0.008762 0.001657 -0.003211 0.000176
# 4 0.008299 0.002493 0.001657 0.034230 -0.012477 -0.009752
# 5 -0.011772 -0.004192 -0.003211 -0.012477 0.036444 0.013913
# 6 -0.012849 -0.012864 0.000176 -0.009752 0.013913 0.038213
#
#
# Mechanical properties :
#
#
# Convention : Reuss Voigt Hill
#
# Bulk Modulus (GPa) = 21.58399 57.98933 39.78666
# Shear Modulus (GPa) = 28.82454 43.35640 36.09047
#
# Velocity S-wave (km/s) = 3.40305 4.17363 3.80788
# Velocity P-wave (km/s) = 4.91048 6.82084 5.94292
#
# Compressibility (1/GPa) = 0.04633063
#
# Stress axis : x y z
#
# Youngs Moduli (GPa) = 73.32748 39.47427 114.13520
#
# Poissons Ratio (x) = -0.14224 0.25857
# Poissons Ratio (y) = -0.26423 0.23268
# Poissons Ratio (z) = 0.16612 0.08047
#
# Static dielectric constant tensor:
#      x y z
#    x 2.163820 -0.121860 -0.068150 
#    y -0.121860 2.070900 -0.000930 
#    z -0.068150 -0.000930 2.111540 
# 
# From -- ./inp_files/599362.got.cif
#   From: 2010.05.17/outbox.cif.g08.bks.cpg/sg2_300_cif.got.tgz:599362.got - 2010.06.03 11:33:40.
