data_PCOD9034954
_publ_section_title
;
Structure prediction by ZEFSAII (Michael W. Deem and Ramdas Pophale) SiO2 
 PCOD9034954
Probable space group: P -1
;
_chemical_formula_sum "Si O2"
_cell_formula_units_Z 16
_cell_length_a 13.062850
_cell_length_b 8.566666
_cell_length_c 15.120607
_cell_angle_alpha 40.991527
_cell_angle_beta 40.254237
_cell_angle_gamma 55.879158
_cell_volume 716.746275
_symmetry_space_group_name_H-M "P -1"
_symmetry_group_IT_number 2
_symmetry_cell_setting 'triclinic'
loop_
_space_group_symop_operation_xyz
x,y,z
-x,-y,-z
loop_
_atom_site_type_symbol
_atom_site_label
_atom_site_fract_x
_atom_site_fract_y
_atom_site_fract_z
Si Si1 0.715920 0.207773 0.456441
Si Si2 0.968169 0.913558 0.155690
Si Si3 0.834994 0.187019 0.777537
Si Si4 0.389301 0.856151 0.262417
Si Si5 0.166739 0.625353 0.869390
Si Si6 0.643265 0.746525 0.005675
Si Si7 0.832851 0.708432 0.586370
Si Si8 0.930811 0.366621 0.392730
O O1 0.592353 0.223354 0.613007
O O2 0.717756 0.348895 0.303512
O O3 0.886227 0.287075 0.356896
O O4 0.721151 0.926514 0.556245
O O5 0.868404 0.110898 0.186305
O O6 0.900290 0.643390 0.309376
O O7 0.131257 0.892704 0.110428
O O8 0.000000 0.000000 0.000000
O O9 0.765577 0.449247 0.714602
O O10 0.011548 0.231326 0.601586
O O11 0.741613 0.968330 0.889862
O O12 0.205383 0.779942 0.402312
O O13 0.406372 0.137139 0.105012
O O14 0.495435 0.721292 0.180595
O O15 0.248129 0.477649 0.957133
O O16 0.000000 0.500000 0.000000
O O17 0.903369 0.693091 0.646633
#
# Coordination Sequence:
#
# PCOD9034954 Si02
#       8
#     2   2   2   2   2   2   2   2
#     4  10  20  36  58  88 114 150 199 235 294 346
#     4  11  22  36  54  89 122 148 183 243 307 345
#     4  10  19  31  57  83 115 147 187 246 291 335
#     4   9  23  38  62  81 115 168 195 239 275 352
#     4  12  23  35  61  90 120 149 190 247 299 349
#     4  11  21  41  57  86 121 158 201 232 291 346
#     4  10  17  32  57  89 108 145 191 248 292 333
#     4   9  20  35  57  83 117 151 195 236 287 343
#
# _framework density 22.323101000000001
#
# number of rings (size 3 to 8) (size 9 to 14) (size 15 to 20)
#    0.750    1.000    3.750    1.125    0.000    2.500 
#    0.000    1.250    0.000    0.000    0.000    0.000 
#    0.000    0.000    0.000    0.000    0.000    0.000 
#
# Total GULP energy -89167.104708 kJ/mol
# GULP energy per Si atom -5572.944044 kJ/mol
# Density = 2.227229 g / cm^3
# Si number density = 22.323101 Si / 1000 Ang^3
#
#
#
# Elastic Constant Matrix: (Units=GPa)
#
#
# Indices 1 2 3 4 5 6 
#
# 1 22.1038 -0.5309 15.2667 -5.0066 18.0575 5.6364
# 2 -0.5309 64.9221 17.9917 -16.2862 -2.0248 -1.3679
# 3 15.2667 17.9917 85.5527 11.8129 21.5557 3.2896
# 4 -5.0066 -16.2862 11.8129 38.0238 1.0140 4.1999
# 5 18.0575 -2.0248 21.5557 1.0140 28.9848 0.2256
# 6 5.6364 -1.3679 3.2896 4.1999 0.2256 27.7441
#
#
#
# Elastic Compliance Matrix: (Units=1/GPa)
#
#
# Indices 1 2 3 4 5 6 
#
# 1 0.119993 0.007076 -0.008122 0.026114 -0.068929 -0.026458
# 2 0.007076 0.020821 -0.007937 0.012399 0.002526 -0.001367
# 3 -0.008122 -0.007937 0.018389 -0.010020 -0.008825 0.000667
# 4 0.026114 0.012399 -0.010020 0.039447 -0.009258 -0.009402
# 5 -0.068929 0.002526 -0.008825 -0.009258 0.084383 0.015890
# 6 -0.026458 -0.001367 0.000667 -0.009402 0.015890 0.042567
#
#
# Mechanical properties :
#
#
# Convention : Reuss Voigt Hill
#
# Bulk Modulus (GPa) = 7.08034 26.44819 16.76427
# Shear Modulus (GPa) = 12.79936 28.27393 20.53665
#
# Velocity S-wave (km/s) = 2.39711 3.56276 3.03640
# Velocity P-wave (km/s) = 3.29244 5.36638 4.45186
#
# Compressibility (1/GPa) = 0.14123616
#
# Stress axis : x y z
#
# Youngs Moduli (GPa) = 8.33381 48.02853 54.38154
#
# Poissons Ratio (x) = -0.33983 0.44167
# Poissons Ratio (y) = -0.05897 0.43164
# Poissons Ratio (z) = 0.06768 0.38121
#
# Static dielectric constant tensor:
#      x y z
#    x 1.909410 0.009990 0.059370 
#    y 0.009990 1.843050 0.040040 
#    z 0.059370 0.040040 1.856720 
# 
# From -- ./inp_files/527123.got.cif
#   From: 2010.05.17/outbox.cif.g08.bks.cpg/sg2_264_cif.got.tgz:527123.got - 2010.06.03 11:33:40.
