data_PCOD9034319
_publ_section_title
;
Structure prediction by ZEFSAII (Michael W. Deem and Ramdas Pophale) SiO2 
 PCOD9034319
Probable space group: P -1
;
_chemical_formula_sum "Si O2"
_cell_formula_units_Z 13
_cell_length_a 10.295322
_cell_length_b 8.897914
_cell_length_c 11.952230
_cell_angle_alpha 40.957696
_cell_angle_beta 67.092603
_cell_angle_gamma 86.755178
_cell_volume 607.890710
_symmetry_space_group_name_H-M "P -1"
_symmetry_group_IT_number 2
_symmetry_cell_setting 'triclinic'
loop_
_space_group_symop_operation_xyz
x,y,z
-x,-y,-z
loop_
_atom_site_type_symbol
_atom_site_label
_atom_site_fract_x
_atom_site_fract_y
_atom_site_fract_z
Si Si1 0.954783 0.312610 0.723375
Si Si2 0.375243 0.121981 0.962221
Si Si3 0.910237 0.462495 0.895037
Si Si4 0.137616 0.968158 0.542734
Si Si5 0.341793 0.308465 0.113287
Si Si6 0.204909 0.118533 0.683961
Si Si7 0.500000 0.500000 0.500000
O O1 0.943798 0.458652 0.754546
O O2 0.000000 0.500000 0.500000
O O3 0.086961 0.206327 0.740668
O O4 0.790994 0.091211 0.885671
O O5 0.425035 0.317401 0.735158
O O6 0.362075 0.238126 0.020347
O O7 0.500000 0.000000 0.000000
O O8 0.779304 0.561568 0.912348
O O9 0.069790 0.676320 0.764226
O O10 0.849880 0.174941 0.109676
O O11 0.276761 0.066395 0.352833
O O12 0.183360 0.129664 0.550134
O O13 0.000000 0.000000 0.500000
O O14 0.500000 0.500000 0.000000
O O15 0.372232 0.290145 0.575684
#
# Coordination Sequence:
#
# PCOD9034319 Si02
#       7
#     2   2   2   2   2   2   1
#     4  12  23  44  75 102 142 195 251 303 368 445
#     4  12  26  48  73 106 148 200 252 303 376 451
#     4  11  23  43  67 108 142 181 245 307 366 436
#     4  10  22  44  73 101 140 187 240 299 366 440
#     4  11  23  44  69 102 143 192 243 295 371 444
#     4  12  25  47  71 111 146 192 248 306 375 445
#     4  12  28  48  74 106 158 190 252 310 380 442
#
# _framework density 21.385422999999999
#
# number of rings (size 3 to 8) (size 9 to 14) (size 15 to 20)
#    0.000    0.615    1.538    8.308    0.000    0.000 
#    2.769    1.538    0.000    0.000    0.000    0.000 
#    0.000    0.000    0.000    0.000    0.000    0.000 
#
# Total GULP energy -72423.257693 kJ/mol
# GULP energy per Si atom -5571.019823 kJ/mol
# Density = 2.133675 g / cm^3
# Si number density = 21.385423 Si / 1000 Ang^3
#
#
#
# Elastic Constant Matrix: (Units=GPa)
#
#
# Indices 1 2 3 4 5 6 
#
# 1 50.8508 59.1584 51.9794 -1.8940 -7.5660 12.2399
# 2 59.1584 193.5986 53.2814 20.0571 -2.3912 19.7467
# 3 51.9794 53.2814 198.6880 -4.8614 -21.8520 11.1988
# 4 -1.8940 20.0571 -4.8614 50.5312 10.4613 -0.5055
# 5 -7.5660 -2.3912 -21.8520 10.4613 27.8491 -11.3020
# 6 12.2399 19.7467 11.1988 -0.5055 -11.3020 52.4991
#
#
#
# Elastic Compliance Matrix: (Units=1/GPa)
#
#
# Indices 1 2 3 4 5 6 
#
# 1 0.040620 -0.010483 -0.007373 0.004712 0.001089 -0.003675
# 2 -0.010483 0.008785 0.000254 -0.003662 -0.000991 -0.001163
# 3 -0.007373 0.000254 0.007304 -0.000569 0.004370 0.001001
# 4 0.004712 -0.003662 -0.000569 0.023150 -0.008683 -0.001246
# 5 0.001089 -0.000991 0.004370 -0.008683 0.046508 0.009116
# 6 -0.003675 -0.001163 0.001001 -0.001246 0.009116 0.022079
#
#
# Mechanical properties :
#
#
# Convention : Reuss Voigt Hill
#
# Bulk Modulus (GPa) = 46.50422 85.77511 66.13966
# Shear Modulus (GPa) = 26.20279 44.75712 35.47996
#
# Velocity S-wave (km/s) = 3.50417 4.57976 4.07759
# Velocity P-wave (km/s) = 6.17781 8.25602 7.29134
#
# Compressibility (1/GPa) = 0.02150343
#
# Stress axis : x y z
#
# Youngs Moduli (GPa) = 24.61836 113.83625 136.90697
#
# Poissons Ratio (x) = 1.19335 1.00948
# Poissons Ratio (y) = 0.25807 -0.03474
# Poissons Ratio (z) = 0.18152 -0.02888
#
# Static dielectric constant tensor:
#      x y z
#    x 1.782690 -0.002290 0.033730 
#    y -0.002290 1.755640 -0.058220 
#    z 0.033730 -0.058220 1.809810 
# 
# From -- ./inp_files/263827.got.cif
#   From: 2010.05.17/outbox.cif.g08.bks.cpg/sg2_132_cif.got.tgz:263827.got - 2010.06.03 11:33:40.
