data_PCOD9034526
_publ_section_title
;
Structure prediction by ZEFSAII (Michael W. Deem and Ramdas Pophale) SiO2 
 PCOD9034526
Probable space group: P -1
;
_chemical_formula_sum "Si O2"
_cell_formula_units_Z 16
_cell_length_a 10.424474
_cell_length_b 7.985931
_cell_length_c 21.141012
_cell_angle_alpha 118.552413
_cell_angle_beta 154.863339
_cell_angle_gamma 60.617040
_cell_volume 648.707936
_symmetry_space_group_name_H-M "P -1"
_symmetry_group_IT_number 2
_symmetry_cell_setting 'triclinic'
loop_
_space_group_symop_operation_xyz
x,y,z
-x,-y,-z
loop_
_atom_site_type_symbol
_atom_site_label
_atom_site_fract_x
_atom_site_fract_y
_atom_site_fract_z
Si Si1 0.293339 0.836305 0.364838
Si Si2 0.718697 0.245503 0.960950
Si Si3 0.840448 0.015755 0.091481
Si Si4 0.828586 0.698731 0.931539
Si Si5 0.943733 0.888351 0.350239
Si Si6 0.811656 0.330336 0.368309
Si Si7 0.719467 0.490457 0.537106
Si Si8 0.331393 0.641558 0.840039
O O1 0.058451 0.839786 0.320129
O O2 0.524641 0.636032 0.427951
O O3 0.500000 0.000000 0.500000
O O4 0.116226 0.902060 0.234016
O O5 0.603138 0.475451 0.951492
O O6 0.404563 0.151609 0.802384
O O7 0.899184 0.164368 0.089114
O O8 0.066354 0.787370 0.009819
O O9 0.643224 0.158415 0.078765
O O10 0.726308 0.847937 0.969598
O O11 0.528609 0.660117 0.753705
O O12 0.000000 0.500000 0.000000
O O13 0.152518 0.732982 0.459919
O O14 0.973859 0.111634 0.413836
O O15 0.734645 0.355403 0.263674
O O16 0.000000 0.500000 0.500000
O O17 0.500000 0.500000 0.500000
O O18 0.012914 0.578667 0.708295
#
# Coordination Sequence:
#
# PCOD9034526 Si02
#       8
#     2   2   2   2   2   2   2   2
#     4  11  21  42  72 119 164 201 256 323 405 473
#     4  11  25  50  76 118 158 201 273 327 407 476
#     4  12  25  45  85 109 154 208 265 336 391 470
#     4  12  28  53  76 115 160 212 268 325 404 488
#     4  10  22  44  81 106 159 203 266 328 384 481
#     4  12  26  50  81 112 161 214 267 325 407 481
#     4   9  20  41  66 108 165 188 249 325 391 469
#     4  11  23  48  75 117 152 199 269 325 394 477
#
# _framework density 24.664414000000001
#
# number of rings (size 3 to 8) (size 9 to 14) (size 15 to 20)
#    0.000    1.000    5.000    0.750    0.000    4.000 
#    9.000    2.500    2.750    0.000    0.000    0.000 
#    0.000    0.000    0.000    0.000    0.000    0.000 
#
# Total GULP energy -89498.822539 kJ/mol
# GULP energy per Si atom -5593.676409 kJ/mol
# Density = 2.460828 g / cm^3
# Si number density = 24.664414 Si / 1000 Ang^3
#
#
#
# Elastic Constant Matrix: (Units=GPa)
#
#
# Indices 1 2 3 4 5 6 
#
# 1 126.3202 33.0846 59.2429 10.3713 9.9768 7.1711
# 2 33.0846 256.9701 93.2453 -20.3532 -20.9027 11.0770
# 3 59.2429 93.2453 119.9058 -2.1596 -0.9892 4.8871
# 4 10.3713 -20.3532 -2.1596 50.4908 5.7386 -3.9367
# 5 9.9768 -20.9027 -0.9892 5.7386 44.5517 -0.1298
# 6 7.1711 11.0770 4.8871 -3.9367 -0.1298 35.8931
#
#
#
# Elastic Compliance Matrix: (Units=1/GPa)
#
#
# Indices 1 2 3 4 5 6 
#
# 1 0.010934 0.000383 -0.005685 -0.002233 -0.002112 -0.001781
# 2 0.000383 0.005926 -0.004703 0.001758 0.002361 -0.001064
# 3 -0.005685 -0.004703 0.014778 0.000018 -0.000606 0.000575
# 4 -0.002233 0.001758 0.000018 0.021308 -0.001413 0.002233
# 5 -0.002112 0.002361 -0.000606 -0.001413 0.024194 -0.000291
# 6 -0.001781 -0.001064 0.000575 0.002233 -0.000291 0.028710
#
#
# Mechanical properties :
#
#
# Convention : Reuss Voigt Hill
#
# Bulk Modulus (GPa) = 86.00298 97.14908 91.57603
# Shear Modulus (GPa) = 38.53972 47.36200 42.95086
#
# Velocity S-wave (km/s) = 3.95722 4.38683 4.17755
# Velocity P-wave (km/s) = 7.47157 8.07049 7.77680
#
# Compressibility (1/GPa) = 0.01162750
#
# Stress axis : x y z
#
# Youngs Moduli (GPa) = 91.46100 168.75253 67.66739
#
# Poissons Ratio (x) = -0.06469 0.38471
# Poissons Ratio (y) = -0.03506 0.31825
# Poissons Ratio (z) = 0.51998 0.79367
#
# Static dielectric constant tensor:
#      x y z
#    x 2.040860 0.032580 0.010890 
#    y 0.032580 2.017460 -0.012980 
#    z 0.010890 -0.012980 1.947670 
# 
# From -- ./inp_files/619176.got.cif
#   From: 2010.05.17/outbox.cif.g08.bks.cpg/sg2_310_cif.got.tgz:619176.got - 2010.06.03 11:33:40.
