data_PCOD9034679
_publ_section_title
;
Structure prediction by ZEFSAII (Michael W. Deem and Ramdas Pophale) SiO2 
 PCOD9034679
Probable space group: P -1
;
_chemical_formula_sum "Si O2"
_cell_formula_units_Z 12
_cell_length_a 8.678960
_cell_length_b 18.365099
_cell_length_c 5.454364
_cell_angle_alpha 125.898524
_cell_angle_beta 58.810642
_cell_angle_gamma 139.187545
_cell_volume 455.751915
_symmetry_space_group_name_H-M "P -1"
_symmetry_group_IT_number 2
_symmetry_cell_setting 'triclinic'
loop_
_space_group_symop_operation_xyz
x,y,z
-x,-y,-z
loop_
_atom_site_type_symbol
_atom_site_label
_atom_site_fract_x
_atom_site_fract_y
_atom_site_fract_z
Si Si1 0.138986 0.519993 0.174044
Si Si2 0.871517 0.823710 0.460351
Si Si3 0.478323 0.205891 0.660646
Si Si4 0.851753 0.184361 0.158995
Si Si5 0.316918 0.017391 0.779467
Si Si6 0.730254 0.619023 0.420814
O O1 0.377381 0.655368 0.207974
O O2 0.000000 0.500000 0.500000
O O3 0.193940 0.432624 0.937602
O O4 0.000000 0.500000 0.000000
O O5 0.759725 0.850969 0.404184
O O6 0.675750 0.700162 0.519089
O O7 0.063465 0.934933 0.687853
O O8 0.026222 0.794176 0.154438
O O9 0.638308 0.184611 0.345333
O O10 0.434491 0.149114 0.854934
O O11 0.755949 0.053215 0.046937
O O12 0.051804 0.287649 0.386362
O O13 0.500000 0.000000 0.500000
O O14 0.500000 0.500000 0.500000
#
# Coordination Sequence:
#
# PCOD9034679 Si02
#       6
#     2   2   2   2   2   2
#     4  12  27  48  74 109 149 197 252 303 371 449
#     4  11  24  43  70 102 137 186 241 302 364 439
#     4  11  23  43  70 101 138 186 243 297 364 437
#     4  10  22  45  67 100 140 184 233 301 364 436
#     4   9  22  44  66 100 139 180 236 297 366 435
#     4  11  25  45  70 100 150 188 245 302 369 437
#
# _framework density 26.330112
#
# number of rings (size 3 to 8) (size 9 to 14) (size 15 to 20)
#    0.000    1.333    1.667    2.500    2.333    4.667 
#    3.000    0.000    0.000    0.000    0.000    0.000 
#    0.000    0.000    0.000    0.000    0.000    0.000 
#
# Total GULP energy -67166.495957 kJ/mol
# GULP energy per Si atom -5597.207996 kJ/mol
# Density = 2.627018 g / cm^3
# Si number density = 26.330112 Si / 1000 Ang^3
#
#
#
# Elastic Constant Matrix: (Units=GPa)
#
#
# Indices 1 2 3 4 5 6 
#
# 1 109.4384 37.3309 17.6111 11.2702 -5.1992 -1.6864
# 2 37.3309 194.4117 46.5052 8.5583 -5.1129 -29.4826
# 3 17.6111 46.5052 129.0711 11.2687 -23.3608 -5.3890
# 4 11.2702 8.5583 11.2687 42.9592 -1.2114 -0.6798
# 5 -5.1992 -5.1129 -23.3608 -1.2114 35.0778 5.7780
# 6 -1.6864 -29.4826 -5.3890 -0.6798 5.7780 49.0927
#
#
#
# Elastic Compliance Matrix: (Units=1/GPa)
#
#
# Indices 1 2 3 4 5 6 
#
# 1 0.010094 -0.001877 -0.000359 -0.002165 0.001069 -0.000976
# 2 -0.001877 0.006579 -0.002192 -0.000223 -0.001414 0.003809
# 3 -0.000359 -0.002192 0.009847 -0.001891 0.006287 -0.001014
# 4 -0.002165 -0.000223 -0.001891 0.024365 -0.000773 0.000013
# 5 0.001069 -0.001414 0.006287 -0.000773 0.033288 -0.004051
# 6 -0.000976 0.003809 -0.001014 0.000013 -0.004051 0.022989
#
#
# Mechanical properties :
#
#
# Convention : Reuss Voigt Hill
#
# Bulk Modulus (GPa) = 56.61098 70.64619 63.62859
# Shear Modulus (GPa) = 41.01530 47.52419 44.26975
#
# Velocity S-wave (km/s) = 3.95110 4.25306 4.10486
# Velocity P-wave (km/s) = 6.50861 7.14194 6.83262
#
# Compressibility (1/GPa) = 0.01766442
#
# Stress axis : x y z
#
# Youngs Moduli (GPa) = 99.06521 152.00637 101.55396
#
# Poissons Ratio (x) = 0.28530 0.03648
# Poissons Ratio (y) = 0.18594 0.22257
# Poissons Ratio (z) = 0.03559 0.33315
#
# Static dielectric constant tensor:
#      x y z
#    x 2.151650 -0.051180 0.113760 
#    y -0.051180 2.115280 -0.051830 
#    z 0.113760 -0.051830 2.185220 
# 
# From -- ./inp_files/36492.got.cif
#   From: 2010.05.17/outbox.cif.g08.bks.cpg/sg2_19_cif.got.tgz:36492.got - 2010.06.03 11:33:40.
