data_PCOD9034126
_publ_section_title
;
Structure prediction by ZEFSAII (Michael W. Deem and Ramdas Pophale) SiO2 
 PCOD9034126
Probable space group: P -1
;
_chemical_formula_sum "Si O2"
_cell_formula_units_Z 16
_cell_length_a 20.897582
_cell_length_b 11.663826
_cell_length_c 8.517495
_cell_angle_alpha 141.398426
_cell_angle_beta 115.317002
_cell_angle_gamma 39.348605
_cell_volume 734.757030
_symmetry_space_group_name_H-M "P -1"
_symmetry_group_IT_number 2
_symmetry_cell_setting 'triclinic'
loop_
_space_group_symop_operation_xyz
x,y,z
-x,-y,-z
loop_
_atom_site_type_symbol
_atom_site_label
_atom_site_fract_x
_atom_site_fract_y
_atom_site_fract_z
Si Si1 0.585102 0.866908 0.663847
Si Si2 0.986067 0.924100 0.070044
Si Si3 0.530140 0.228659 0.713181
Si Si4 0.356477 0.903402 0.617724
Si Si5 0.438172 0.379399 0.263257
Si Si6 0.067855 0.083326 0.545597
Si Si7 0.233527 0.665712 0.541366
Si Si8 0.895188 0.594542 0.165771
O O1 0.568862 0.709781 0.382589
O O2 0.699749 0.638785 0.639046
O O3 0.581803 0.035155 0.714857
O O4 0.476903 0.118493 0.933268
O O5 0.009844 0.038577 0.342377
O O6 0.075548 0.580328 0.833991
O O7 0.862011 0.096016 0.173536
O O8 0.000000 0.000000 0.000000
O O9 0.615741 0.060306 0.478619
O O10 0.500000 0.500000 0.000000
O O11 0.386097 0.626554 0.348882
O O12 0.444381 0.791194 0.721205
O O13 0.225181 0.198400 0.818547
O O14 0.344950 0.558919 0.495484
O O15 0.097952 0.197836 0.591117
O O16 0.170507 0.790581 0.441466
O O17 0.986750 0.334658 0.860546
#
# Coordination Sequence:
#
# PCOD9034126 Si02
#       8
#     2   2   2   2   2   2   2   2
#     4  11  25  41  68  96 139 182 218 275 341 390
#     4  11  27  46  68 102 133 172 226 277 344 407
#     4  11  24  45  59  96 144 182 221 262 332 419
#     4  11  23  41  69 100 140 176 229 270 335 404
#     4  11  23  41  69 107 133 177 228 279 327 400
#     4  10  23  45  72  97 125 172 234 281 331 392
#     4  11  22  44  66 104 129 167 232 284 323 398
#     4  10  22  44  71  95 128 181 222 282 330 384
#
# _framework density 21.775907
#
# number of rings (size 3 to 8) (size 9 to 14) (size 15 to 20)
#    0.000    1.250    3.750    1.875    5.250    0.500 
#    4.500    1.250    0.000    0.000    0.000    0.000 
#    0.000    0.000    0.000    0.000    0.000    0.000 
#
# Total GULP energy -89173.338576 kJ/mol
# GULP energy per Si atom -5573.333661 kJ/mol
# Density = 2.172634 g / cm^3
# Si number density = 21.775907 Si / 1000 Ang^3
#
#
#
# Elastic Constant Matrix: (Units=GPa)
#
#
# Indices 1 2 3 4 5 6 
#
# 1 95.3590 46.8409 26.3687 16.7383 12.1513 24.1902
# 2 46.8409 116.5459 35.9622 41.4530 4.9301 28.7057
# 3 26.3687 35.9622 57.0485 18.7178 20.1511 -0.1581
# 4 16.7383 41.4530 18.7178 26.9494 -3.8774 -4.0559
# 5 12.1513 4.9301 20.1511 -3.8774 35.6520 3.2811
# 6 24.1902 28.7057 -0.1581 -4.0559 3.2811 47.7319
#
#
#
# Elastic Compliance Matrix: (Units=1/GPa)
#
#
# Indices 1 2 3 4 5 6 
#
# 1 0.015618 0.001229 -0.002532 -0.011887 -0.004493 -0.009364
# 2 0.001229 0.040756 0.000606 -0.070051 -0.011226 -0.030312
# 3 -0.002532 0.000606 0.034719 -0.026563 -0.021759 0.000273
# 4 -0.011887 -0.070051 -0.026563 0.186098 0.043387 0.060896
# 5 -0.004493 -0.011226 -0.021759 0.043387 0.047285 0.009392
# 6 -0.009364 -0.030312 0.000273 0.060896 0.009392 0.048455
#
#
# Mechanical properties :
#
#
# Convention : Reuss Voigt Hill
#
# Bulk Modulus (GPa) = 11.14852 54.14412 32.64632
# Shear Modulus (GPa) = 12.36932 32.71876 22.54404
#
# Velocity S-wave (km/s) = 2.38592 3.88044 3.22106
# Velocity P-wave (km/s) = 3.56664 6.70785 5.37198
#
# Compressibility (1/GPa) = 0.08969804
#
# Stress axis : x y z
#
# Youngs Moduli (GPa) = 64.03022 24.53612 28.80228
#
# Poissons Ratio (x) = -0.03015 0.07293
# Poissons Ratio (y) = -0.07868 -0.01744
# Poissons Ratio (z) = 0.16213 -0.01486
#
# Static dielectric constant tensor:
#      x y z
#    x 1.902450 0.014540 0.007710 
#    y 0.014540 1.810760 -0.005630 
#    z 0.007710 -0.005630 1.830890 
# 
# From -- ./inp_files/346494.got.cif
#   From: 2010.05.17/outbox.cif.g08.bks.cpg/sg2_174_cif.got.tgz:346494.got - 2010.06.03 11:33:40.
