data_PCOD9034100
_publ_section_title
;
Structure prediction by ZEFSAII (Michael W. Deem and Ramdas Pophale) SiO2 
 PCOD9034100
Probable space group: P -1
;
_chemical_formula_sum "Si O2"
_cell_formula_units_Z 16
_cell_length_a 9.245330
_cell_length_b 10.592325
_cell_length_c 9.131535
_cell_angle_alpha 87.578421
_cell_angle_beta 78.704492
_cell_angle_gamma 125.570012
_cell_volume 699.487625
_symmetry_space_group_name_H-M "P -1"
_symmetry_group_IT_number 2
_symmetry_cell_setting 'triclinic'
loop_
_space_group_symop_operation_xyz
x,y,z
-x,-y,-z
loop_
_atom_site_type_symbol
_atom_site_label
_atom_site_fract_x
_atom_site_fract_y
_atom_site_fract_z
Si Si1 0.473782 0.301843 0.694047
Si Si2 0.845982 0.330122 0.976585
Si Si3 0.837385 0.143881 0.753641
Si Si4 0.104862 0.067333 0.631704
Si Si5 0.936607 0.232854 0.224113
Si Si6 0.820919 0.322883 0.506678
Si Si7 0.639481 0.595685 0.833260
Si Si8 0.427085 0.180866 0.040668
O O1 0.315432 0.220937 0.606182
O O2 0.642248 0.306429 0.597200
O O3 0.549181 0.479205 0.718172
O O4 0.404407 0.205894 0.870787
O O5 0.861577 0.213783 0.078427
O O6 0.645813 0.287633 0.017276
O O7 0.892460 0.303625 0.809522
O O8 0.000000 0.500000 0.000000
O O9 0.813288 0.180297 0.592354
O O10 0.990075 0.115440 0.736631
O O11 0.659118 0.994527 0.876438
O O12 0.101604 0.927570 0.708682
O O13 0.000000 0.000000 0.500000
O O14 0.838181 0.290497 0.336254
O O15 0.158908 0.360803 0.185096
O O16 0.000000 0.500000 0.500000
O O17 0.657635 0.756121 0.836377
O O18 0.500000 0.500000 0.000000
#
# Coordination Sequence:
#
# PCOD9034100 Si02
#       8
#     2   2   2   2   2   2   2   2
#     4  11  25  46  77 104 147 200 244 301 375 436
#     4  12  26  43  73 113 148 190 248 305 368 439
#     4  12  26  46  76 100 155 192 246 310 365 442
#     4  12  28  48  69 109 145 195 250 304 366 439
#     4  12  25  46  72 104 153 190 240 304 366 432
#     4  12  25  48  73 104 148 194 244 303 372 444
#     4  10  22  44  71 106 146 187 241 301 360 438
#     4  11  24  45  74 112 146 189 251 304 369 437
#
# _framework density 22.873885999999999
#
# number of rings (size 3 to 8) (size 9 to 14) (size 15 to 20)
#    0.000    0.500    5.000    3.375    7.000    2.500 
#    0.000    1.250    0.000    0.000    0.000    0.000 
#    0.000    0.000    0.000    0.000    0.000    0.000 
#
# Total GULP energy -89395.871719 kJ/mol
# GULP energy per Si atom -5587.241982 kJ/mol
# Density = 2.282182 g / cm^3
# Si number density = 22.873886 Si / 1000 Ang^3
#
#
#
# Elastic Constant Matrix: (Units=GPa)
#
#
# Indices 1 2 3 4 5 6 
#
# 1 103.4054 38.4423 32.8239 16.9914 -17.1091 1.9972
# 2 38.4423 102.9597 24.0295 4.5619 -5.1428 9.0857
# 3 32.8239 24.0295 61.1312 -3.3890 -5.7433 6.8168
# 4 16.9914 4.5619 -3.3890 23.4132 -4.8258 12.6129
# 5 -17.1091 -5.1428 -5.7433 -4.8258 48.4348 6.0784
# 6 1.9972 9.0857 6.8168 12.6129 6.0784 31.3395
#
#
#
# Elastic Compliance Matrix: (Units=1/GPa)
#
#
# Indices 1 2 3 4 5 6 
#
# 1 0.017152 -0.004141 -0.009376 -0.017413 0.001664 0.008832
# 2 -0.004141 0.011939 -0.001862 0.002574 0.000329 -0.003892
# 3 -0.009376 -0.001862 0.024678 0.017680 0.002667 -0.011863
# 4 -0.017413 0.002574 0.017680 0.079164 0.008755 -0.037040
# 5 0.001664 0.000329 0.002667 0.008755 0.023572 -0.008877
# 6 0.008832 -0.003892 -0.011863 -0.037040 -0.008877 0.051683
#
#
# Mechanical properties :
#
#
# Convention : Reuss Voigt Hill
#
# Bulk Modulus (GPa) = 43.45593 50.89863 47.17728
# Shear Modulus (GPa) = 20.27441 32.11755 26.19598
#
# Velocity S-wave (km/s) = 2.98040 3.75122 3.38780
# Velocity P-wave (km/s) = 5.55725 6.40799 5.99772
#
# Compressibility (1/GPa) = 0.02301182
#
# Stress axis : x y z
#
# Youngs Moduli (GPa) = 58.30129 83.75912 40.52169
#
# Poissons Ratio (x) = 0.34682 0.37993
# Poissons Ratio (y) = 0.24141 0.07546
# Poissons Ratio (z) = 0.54663 0.15597
#
# Static dielectric constant tensor:
#      x y z
#    x 1.826550 -0.050100 0.024600 
#    y -0.050100 1.935720 -0.032660 
#    z 0.024600 -0.032660 1.857220 
# 
# From -- ./inp_files/187494.got.cif
#   From: 2010.05.17/outbox.cif.g08.bks.cpg/sg2_94_cif.got.tgz:187494.got - 2010.06.03 11:33:40.
