data_PCOD9034345
_publ_section_title
;
Structure prediction by ZEFSAII (Michael W. Deem and Ramdas Pophale) SiO2 
 PCOD9034345
Probable space group: P -1
;
_chemical_formula_sum "Si O2"
_cell_formula_units_Z 14
_cell_length_a 10.289423
_cell_length_b 14.631850
_cell_length_c 7.506894
_cell_angle_alpha 110.598928
_cell_angle_beta 58.772420
_cell_angle_gamma 148.716973
_cell_volume 491.130786
_symmetry_space_group_name_H-M "P -1"
_symmetry_group_IT_number 2
_symmetry_cell_setting 'triclinic'
loop_
_space_group_symop_operation_xyz
x,y,z
-x,-y,-z
loop_
_atom_site_type_symbol
_atom_site_label
_atom_site_fract_x
_atom_site_fract_y
_atom_site_fract_z
Si Si1 0.388310 0.034827 0.843534
Si Si2 0.078940 0.743239 0.560624
Si Si3 0.828217 0.364647 0.300296
Si Si4 0.191521 0.476861 0.815960
Si Si5 0.216235 0.095944 0.249007
Si Si6 0.309417 0.142584 0.702440
Si Si7 0.474625 0.455917 0.780829
O O1 0.674238 0.130700 0.674163
O O2 0.437251 0.166636 0.805866
O O3 0.181728 0.868820 0.738362
O O4 0.269917 0.011143 0.097130
O O5 0.037074 0.619563 0.617964
O O6 0.794449 0.631916 0.609355
O O7 0.892444 0.511008 0.297307
O O8 0.496541 0.185879 0.453312
O O9 0.938162 0.365521 0.052570
O O10 0.484067 0.691391 0.799095
O O11 0.282013 0.417657 0.766559
O O12 0.000000 0.000000 0.500000
O O13 0.022554 0.044995 0.202759
O O14 0.373187 0.290299 0.735009
O O15 0.500000 0.500000 0.000000
#
# Coordination Sequence:
#
# PCOD9034345 Si02
#       7
#     2   2   2   2   2   2   2
#     4  10  23  42  73 102 142 187 231 300 347 419
#     4  10  22  44  73 106 140 178 246 289 353 413
#     4  10  23  44  70  99 139 186 229 291 348 429
#     4  11  24  44  70  94 148 183 229 286 364 406
#     4  12  24  44  67 102 138 191 231 288 350 426
#     4  11  24  43  72 102 141 179 245 286 357 411
#     4  12  23  40  72 106 134 181 236 295 341 424
#
# _framework density 28.505645000000001
#
# number of rings (size 3 to 8) (size 9 to 14) (size 15 to 20)
#    0.000    1.143    2.857    3.000    2.000    1.714 
#    0.000    0.714    0.000    0.000    0.000    0.000 
#    0.000    0.000    0.000    0.000    0.000    0.000 
#
# Total GULP energy -78347.985371 kJ/mol
# GULP energy per Si atom -5596.284669 kJ/mol
# Density = 2.844077 g / cm^3
# Si number density = 28.505645 Si / 1000 Ang^3
#
#
#
# Elastic Constant Matrix: (Units=GPa)
#
#
# Indices 1 2 3 4 5 6 
#
# 1 192.7611 36.6729 59.2468 7.5362 -10.4555 -4.7821
# 2 36.6729 113.3479 26.0979 -0.2475 -20.6947 -3.1742
# 3 59.2468 26.0979 206.8923 -9.2251 -17.0092 0.6399
# 4 7.5362 -0.2475 -9.2251 43.4369 9.2635 -16.6282
# 5 -10.4555 -20.6947 -17.0092 9.2635 55.1394 3.7948
# 6 -4.7821 -3.1742 0.6399 -16.6282 3.7948 39.7831
#
#
#
# Elastic Compliance Matrix: (Units=1/GPa)
#
#
# Indices 1 2 3 4 5 6 
#
# 1 0.006038 -0.001534 -0.001574 -0.001467 0.000331 -0.000016
# 2 -0.001534 0.010071 -0.000574 -0.000480 0.003385 0.000105
# 3 -0.001574 -0.000574 0.005492 0.001278 0.000957 0.000119
# 4 -0.001467 -0.000480 0.001278 0.029686 -0.005928 0.012738
# 5 0.000331 0.003385 0.000957 -0.005928 0.021049 -0.004191
# 6 -0.000016 0.000105 0.000119 0.012738 -0.004191 0.030865
#
#
# Mechanical properties :
#
#
# Convention : Reuss Voigt Hill
#
# Bulk Modulus (GPa) = 70.24462 84.11519 77.17991
# Shear Modulus (GPa) = 43.36099 53.73746 48.54923
#
# Velocity S-wave (km/s) = 3.90441 4.34654 4.13139
# Velocity P-wave (km/s) = 6.70982 7.40015 7.06342
#
# Compressibility (1/GPa) = 0.01423596
#
# Stress axis : x y z
#
# Youngs Moduli (GPa) = 165.60807 99.29445 182.08773
#
# Poissons Ratio (x) = 0.15237 0.28656
# Poissons Ratio (y) = 0.25412 0.10459
# Poissons Ratio (z) = 0.26063 0.05703
#
# Static dielectric constant tensor:
#      x y z
#    x 2.254280 0.031290 0.122170 
#    y 0.031290 2.253610 0.144250 
#    z 0.122170 0.144250 2.459260 
# 
# From -- ./inp_files/150690.got.cif
#   From: 2010.05.17/outbox.cif.g08.bks.cpg/sg2_76_cif.got.tgz:150690.got - 2010.06.03 11:33:40.
