data_PCOD9034763
_publ_section_title
;
Structure prediction by ZEFSAII (Michael W. Deem and Ramdas Pophale) SiO2 
 PCOD9034763
Probable space group: P -1
;
_chemical_formula_sum "Si O2"
_cell_formula_units_Z 16
_cell_length_a 15.925878
_cell_length_b 19.089951
_cell_length_c 6.784619
_cell_angle_alpha 67.337322
_cell_angle_beta 68.380281
_cell_angle_gamma 20.495162
_cell_volume 666.262643
_symmetry_space_group_name_H-M "P -1"
_symmetry_group_IT_number 2
_symmetry_cell_setting 'triclinic'
loop_
_space_group_symop_operation_xyz
x,y,z
-x,-y,-z
loop_
_atom_site_type_symbol
_atom_site_label
_atom_site_fract_x
_atom_site_fract_y
_atom_site_fract_z
Si Si1 0.179926 0.951057 0.309501
Si Si2 0.472510 0.773095 0.595802
Si Si3 0.322397 0.980952 0.878889
Si Si4 0.518808 0.557603 0.279685
Si Si5 0.923108 0.517441 0.346958
Si Si6 0.839134 0.194475 0.015111
Si Si7 0.823912 0.377345 0.904475
Si Si8 0.700782 0.797089 0.927011
O O1 0.242704 0.922455 0.509491
O O2 0.360519 0.744344 0.316345
O O3 0.267419 0.955858 0.105767
O O4 0.920129 0.129740 0.247827
O O5 0.615066 0.590815 0.762549
O O6 0.678470 0.659431 0.426513
O O7 0.378227 0.900370 0.709960
O O8 0.079391 0.219646 0.834829
O O9 0.549751 0.849635 0.893092
O O10 0.500000 0.500000 0.500000
O O11 0.405217 0.627871 0.086355
O O12 0.765534 0.403098 0.156922
O O13 0.125539 0.309198 0.284408
O O14 0.000000 0.500000 0.500000
O O15 0.867335 0.630941 0.128394
O O16 0.870168 0.260944 0.878296
O O17 0.000000 0.000000 0.000000
O O18 0.500000 0.000000 0.000000
#
# Coordination Sequence:
#
# PCOD9034763 Si02
#       8
#     2   2   2   2   2   2   2   2
#     4  10  22  45  68 100 139 186 232 292 364 422
#     4  12  24  46  75  99 149 190 239 297 365 427
#     4  11  24  47  67 105 146 181 237 306 348 436
#     4  11  22  44  72 100 139 184 240 295 363 428
#     4  11  25  45  73 108 143 197 240 297 365 427
#     4   9  21  44  68  98 141 177 234 300 352 424
#     4  11  25  43  72 100 139 187 237 292 363 429
#     4  11  26  45  74 106 152 190 242 296 363 435
#
# _framework density 24.014555000000001
#
# number of rings (size 3 to 8) (size 9 to 14) (size 15 to 20)
#    0.000    1.250    3.750    1.125    1.750    2.500 
#   13.500    3.750    0.000    0.000    0.000    0.000 
#    0.000    0.000    0.000    0.000    0.000    0.000 
#
# Total GULP energy -89259.585728 kJ/mol
# GULP energy per Si atom -5578.724108 kJ/mol
# Density = 2.395990 g / cm^3
# Si number density = 24.014555 Si / 1000 Ang^3
#
#
#
# Elastic Constant Matrix: (Units=GPa)
#
#
# Indices 1 2 3 4 5 6 
#
# 1 74.1656 15.9081 41.8682 1.7249 31.3278 -8.7722
# 2 15.9081 100.3850 63.3166 17.4006 15.3236 -4.6959
# 3 41.8682 63.3166 121.4489 9.5131 22.4326 -7.5208
# 4 1.7249 17.4006 9.5131 36.8590 -7.3142 5.4247
# 5 31.3278 15.3236 22.4326 -7.3142 52.6181 0.5196
# 6 -8.7722 -4.6959 -7.5208 5.4247 0.5196 41.0824
#
#
#
# Elastic Compliance Matrix: (Units=1/GPa)
#
#
# Indices 1 2 3 4 5 6 
#
# 1 0.022178 0.003382 -0.006601 -0.003982 -0.011974 0.004591
# 2 0.003382 0.016692 -0.008396 -0.007029 -0.004292 0.002075
# 3 -0.006601 -0.008396 0.014855 0.000415 0.000097 0.000294
# 4 -0.003982 -0.007029 0.000415 0.033191 0.008915 -0.006073
# 5 -0.011974 -0.004292 0.000097 0.008915 0.028627 -0.004569
# 6 0.004591 0.002075 0.000294 -0.006073 -0.004569 0.026472
#
#
# Mechanical properties :
#
#
# Convention : Reuss Voigt Hill
#
# Bulk Modulus (GPa) = 32.79335 59.79836 46.29586
# Shear Modulus (GPa) = 28.50471 37.77234 33.13852
#
# Velocity S-wave (km/s) = 3.44899 3.97027 3.71878
# Velocity P-wave (km/s) = 5.43562 6.78029 6.14485
#
# Compressibility (1/GPa) = 0.03049398
#
# Stress axis : x y z
#
# Youngs Moduli (GPa) = 45.09052 59.90809 67.31943
#
# Poissons Ratio (x) = -0.20258 0.44434
# Poissons Ratio (y) = -0.15248 0.56523
# Poissons Ratio (z) = 0.29762 0.50300
#
# Static dielectric constant tensor:
#      x y z
#    x 1.963670 -0.067440 -0.008580 
#    y -0.067440 2.047020 0.005790 
#    z -0.008580 0.005790 1.942310 
# 
# From -- ./inp_files/112346.got.cif
#   From: 2010.05.17/outbox.cif.g08.bks.cpg/sg2_57_cif.got.tgz:112346.got - 2010.06.03 11:33:40.
