data_PCOD9034595
_publ_section_title
;
Structure prediction by ZEFSAII (Michael W. Deem and Ramdas Pophale) SiO2 
 PCOD9034595
Probable space group: P -1
;
_chemical_formula_sum "Si O2"
_cell_formula_units_Z 16
_cell_length_a 9.359530
_cell_length_b 16.827697
_cell_length_c 5.213265
_cell_angle_alpha 100.245397
_cell_angle_beta 90.477067
_cell_angle_gamma 50.854318
_cell_volume 620.793067
_symmetry_space_group_name_H-M "P -1"
_symmetry_group_IT_number 2
_symmetry_cell_setting 'triclinic'
loop_
_space_group_symop_operation_xyz
x,y,z
-x,-y,-z
loop_
_atom_site_type_symbol
_atom_site_label
_atom_site_fract_x
_atom_site_fract_y
_atom_site_fract_z
Si Si1 0.403431 0.597154 0.855871
Si Si2 0.100651 0.028991 0.838047
Si Si3 0.274272 0.797641 0.229166
Si Si4 0.200512 0.163307 0.155793
Si Si5 0.768444 0.475802 0.534751
Si Si6 0.471636 0.846093 0.874295
Si Si7 0.348345 0.334966 0.586549
Si Si8 0.891489 0.712098 0.257867
O O1 0.586231 0.573691 0.734226
O O2 0.298578 0.581176 0.637231
O O3 0.500000 0.500000 0.000000
O O4 0.272703 0.714983 0.020713
O O5 0.943144 0.106229 0.666978
O O6 0.305400 0.922382 0.707011
O O7 0.151315 0.089603 0.042814
O O8 0.000000 0.000000 0.000000
O O9 0.439883 0.716036 0.379650
O O10 0.361229 0.840293 0.092797
O O11 0.411311 0.114983 0.058034
O O12 0.163858 0.201769 0.473256
O O13 0.083957 0.258727 0.003224
O O14 0.792646 0.539616 0.371623
O O15 0.928995 0.396293 0.685418
O O16 0.626343 0.730360 0.697515
O O17 0.265249 0.300198 0.762872
#
# Coordination Sequence:
#
# PCOD9034595 Si02
#       8
#     2   2   2   2   2   2   2   2
#     4  11  23  38  63  94 134 181 218 280 338 410
#     4  10  24  44  71 101 134 177 231 285 344 414
#     4  11  21  41  66  95 135 174 229 281 347 399
#     4  11  24  49  70 103 139 179 227 287 343 410
#     4  11  24  39  63  97 136 180 231 275 343 406
#     4  10  22  45  65  94 135 176 230 280 347 399
#     4  11  22  42  64  97 133 181 225 286 340 406
#     4  11  26  43  73 102 137 181 231 281 340 409
#
# _framework density 25.773485000000001
#
# number of rings (size 3 to 8) (size 9 to 14) (size 15 to 20)
#    0.000    1.250    3.750    1.500    3.500    0.500 
#    9.000    4.375    0.000    0.000    0.000    0.000 
#    0.000    0.000    0.000    0.000    0.000    0.000 
#
# Total GULP energy -89433.796868 kJ/mol
# GULP energy per Si atom -5589.612304 kJ/mol
# Density = 2.571482 g / cm^3
# Si number density = 25.773485 Si / 1000 Ang^3
#
#
#
# Elastic Constant Matrix: (Units=GPa)
#
#
# Indices 1 2 3 4 5 6 
#
# 1 139.5142 43.9201 6.1378 -6.9349 22.6371 0.7463
# 2 43.9201 117.2418 7.5136 -7.0121 17.3681 -12.3411
# 3 6.1378 7.5136 43.8252 -12.3568 7.3277 -9.7156
# 4 -6.9349 -7.0121 -12.3568 33.6893 -5.9298 14.6387
# 5 22.6371 17.3681 7.3277 -5.9298 33.6839 -8.2494
# 6 0.7463 -12.3411 -9.7156 14.6387 -8.2494 48.0123
#
#
#
# Elastic Compliance Matrix: (Units=1/GPa)
#
#
# Indices 1 2 3 4 5 6 
#
# 1 0.008896 -0.002756 -0.000065 0.001289 -0.004827 -0.002082
# 2 -0.002756 0.010227 -0.000433 -0.000006 -0.002813 0.002103
# 3 -0.000065 -0.000433 0.026210 0.007952 -0.003505 0.002167
# 4 0.001289 -0.000006 0.007952 0.037279 0.001644 -0.009496
# 5 -0.004827 -0.002813 -0.003505 0.001644 0.036516 0.004415
# 6 -0.002082 0.002103 0.002167 -0.009496 0.004415 0.025493
#
#
# Mechanical properties :
#
#
# Convention : Reuss Voigt Hill
#
# Bulk Modulus (GPa) = 25.75488 46.19158 35.97323
# Shear Modulus (GPa) = 30.47490 39.27775 34.87633
#
# Velocity S-wave (km/s) = 3.44235 3.90803 3.68256
# Velocity P-wave (km/s) = 5.08077 6.19069 5.66299
#
# Compressibility (1/GPa) = 0.03882759
#
# Stress axis : x y z
#
# Youngs Moduli (GPa) = 112.40427 97.77929 38.15408
#
# Poissons Ratio (x) = 0.26944 0.00246
# Poissons Ratio (y) = 0.30974 0.01651
# Poissons Ratio (z) = 0.00725 0.04230
#
# Static dielectric constant tensor:
#      x y z
#    x 2.076870 0.033360 -0.007650 
#    y 0.033360 2.119570 -0.054460 
#    z -0.007650 -0.054460 2.104150 
# 
# From -- ./inp_files/48354.got.cif
#   From: 2010.05.17/outbox.cif.g08.bks.cpg/sg2_25_cif.got.tgz:48354.got - 2010.06.03 11:33:40.
