data_PCOD9034556
_publ_section_title
;
Structure prediction by ZEFSAII (Michael W. Deem and Ramdas Pophale) SiO2 
 PCOD9034556
Probable space group: P -1
;
_chemical_formula_sum "Si O2"
_cell_formula_units_Z 16
_cell_length_a 8.070545
_cell_length_b 5.069905
_cell_length_c 19.790320
_cell_angle_alpha 105.629448
_cell_angle_beta 70.982957
_cell_angle_gamma 117.396016
_cell_volume 672.782411
_symmetry_space_group_name_H-M "P -1"
_symmetry_group_IT_number 2
_symmetry_cell_setting 'triclinic'
loop_
_space_group_symop_operation_xyz
x,y,z
-x,-y,-z
loop_
_atom_site_type_symbol
_atom_site_label
_atom_site_fract_x
_atom_site_fract_y
_atom_site_fract_z
Si Si1 0.503642 0.848109 0.362090
Si Si2 0.663331 0.402724 0.278071
Si Si3 0.875665 0.931021 0.377652
Si Si4 0.055709 0.142872 0.104226
Si Si5 0.731534 0.630454 0.144403
Si Si6 0.440132 0.652246 0.083786
Si Si7 0.062380 0.603215 0.422575
Si Si8 0.228306 0.822706 0.970589
O O1 0.599414 0.105085 0.310479
O O2 0.658557 0.921208 0.407901
O O3 0.499493 0.533214 0.314315
O O4 0.289754 0.803406 0.403314
O O5 0.700265 0.402302 0.193933
O O6 0.843612 0.679099 0.306731
O O7 0.007859 0.279671 0.370720
O O8 0.950331 0.793395 0.420033
O O9 0.900357 0.945536 0.165904
O O10 0.214640 0.477758 0.114145
O O11 0.180914 0.956979 0.053288
O O12 0.912177 0.139227 0.063712
O O13 0.541028 0.642505 0.140802
O O14 0.804890 0.517606 0.059250
O O15 0.551269 0.993840 0.068653
O O16 0.500000 0.500000 0.000000
O O17 0.000000 0.500000 0.500000
#
# Coordination Sequence:
#
# PCOD9034556 Si02
#       8
#     2   2   2   2   2   2   2   2
#     4  10  23  46  66  96 143 178 218 276 333 369
#     4  10  23  45  65  86 137 186 218 270 328 395
#     4  10  22  45  64 101 144 178 215 275 332 371
#     4   9  19  36  53  84 114 149 193 270 337 370
#     4  11  22  36  60  85 111 165 220 253 323 407
#     4   9  20  37  54  83 117 145 196 271 335 379
#     4  12  24  42  76 109 133 176 228 266 328 400
#     4   9  19  34  58  79 117 146 198 268 325 388
#
# _framework density 23.781835000000001
#
# number of rings (size 3 to 8) (size 9 to 14) (size 15 to 20)
#    0.750    1.250    1.250    2.250    3.500    4.000 
#    4.500    0.000    0.000    0.000    0.000    0.000 
#    0.000    0.000    0.000    0.000    0.000    0.000 
#
# Total GULP energy -89125.038035 kJ/mol
# GULP energy per Si atom -5570.314877 kJ/mol
# Density = 2.372771 g / cm^3
# Si number density = 23.781835 Si / 1000 Ang^3
#
#
#
# Elastic Constant Matrix: (Units=GPa)
#
#
# Indices 1 2 3 4 5 6 
#
# 1 152.4659 68.2277 55.7911 -30.8748 26.4798 16.8560
# 2 68.2277 128.9126 19.9351 -28.7877 8.3725 16.7696
# 3 55.7911 19.9351 72.7070 -18.4773 18.2266 2.1644
# 4 -30.8748 -28.7877 -18.4773 35.2305 -6.7303 1.2560
# 5 26.4798 8.3725 18.2266 -6.7303 28.0113 -6.5748
# 6 16.8560 16.7696 2.1644 1.2560 -6.5748 40.0125
#
#
#
# Elastic Compliance Matrix: (Units=1/GPa)
#
#
# Indices 1 2 3 4 5 6 
#
# 1 0.013218 -0.004083 -0.006000 0.003823 -0.007603 -0.004902
# 2 -0.004083 0.011655 0.001809 0.007033 0.000073 -0.003472
# 3 -0.006000 0.001809 0.021276 0.005982 -0.007463 -0.000796
# 4 0.003823 0.007033 0.005982 0.040588 -0.001354 -0.006378
# 5 -0.007603 0.000073 -0.007463 -0.001354 0.050181 0.011864
# 6 -0.004902 -0.003472 -0.000796 -0.006378 0.011864 0.030705
#
#
# Mechanical properties :
#
#
# Convention : Reuss Voigt Hill
#
# Bulk Modulus (GPa) = 33.77969 71.33258 52.55614
# Shear Modulus (GPa) = 25.76827 34.65964 30.21396
#
# Velocity S-wave (km/s) = 3.29527 3.82173 3.56822
# Velocity P-wave (km/s) = 5.35847 7.03803 6.25488
#
# Compressibility (1/GPa) = 0.02960359
#
# Stress axis : x y z
#
# Youngs Moduli (GPa) = 75.65524 85.79644 47.00056
#
# Poissons Ratio (x) = 0.35027 0.28199
# Poissons Ratio (y) = 0.30887 -0.08504
# Poissons Ratio (z) = 0.45391 -0.15523
#
# Static dielectric constant tensor:
#      x y z
#    x 1.966370 0.007280 -0.024910 
#    y 0.007280 1.971750 0.041550 
#    z -0.024910 0.041550 1.956630 
# 
# From -- ./inp_files/585693.got.cif
#   From: 2010.05.17/outbox.cif.g08.bks.cpg/sg2_293_cif.got.tgz:585693.got - 2010.06.03 11:33:40.
