data_PCOD9034993
_publ_section_title
;
Structure prediction by ZEFSAII (Michael W. Deem and Ramdas Pophale) SiO2 
 PCOD9034993
Probable space group: P -1
;
_chemical_formula_sum "Si O2"
_cell_formula_units_Z 16
_cell_length_a 11.999496
_cell_length_b 5.411530
_cell_length_c 12.274998
_cell_angle_alpha 116.869199
_cell_angle_beta 74.172880
_cell_angle_gamma 96.302378
_cell_volume 683.991557
_symmetry_space_group_name_H-M "P -1"
_symmetry_group_IT_number 2
_symmetry_cell_setting 'triclinic'
loop_
_space_group_symop_operation_xyz
x,y,z
-x,-y,-z
loop_
_atom_site_type_symbol
_atom_site_label
_atom_site_fract_x
_atom_site_fract_y
_atom_site_fract_z
Si Si1 0.714559 0.585714 0.417560
Si Si2 0.984785 0.171298 0.927167
Si Si3 0.788893 0.099911 0.809654
Si Si4 0.589505 0.717523 0.685813
Si Si5 0.377025 0.496184 0.159784
Si Si6 0.409355 0.125614 0.890638
Si Si7 0.767598 0.931906 0.255710
Si Si8 0.931649 0.774053 0.538689
O O1 0.608943 0.676391 0.545150
O O2 0.723390 0.743886 0.331153
O O3 0.824029 0.686509 0.477327
O O4 0.728255 0.253441 0.343388
O O5 0.851859 0.129565 0.913835
O O6 0.093699 0.083379 0.802507
O O7 0.000000 0.500000 0.000000
O O8 0.000000 0.000000 0.000000
O O9 0.744364 0.394912 0.835513
O O10 0.679141 0.927187 0.761158
O O11 0.888472 0.938491 0.687304
O O12 0.623741 0.457379 0.700364
O O13 0.465290 0.829382 0.782531
O O14 0.492041 0.659337 0.128598
O O15 0.390978 0.196139 0.036479
O O16 0.295786 0.170887 0.857631
O O17 0.000000 0.500000 0.500000
O O18 0.000000 0.000000 0.500000
#
# Coordination Sequence:
#
# PCOD9034993 Si02
#       8
#     2   2   2   2   2   2   2   2
#     4  11  26  44  68 103 144 183 230 285 348 425
#     4  12  27  46  70 102 142 186 230 281 350 424
#     4  10  24  39  68  99 132 178 230 288 346 399
#     4  10  24  42  73  99 135 182 240 293 344 407
#     4  10  22  45  70 100 135 177 251 290 347 405
#     4  10  24  43  70 101 135 188 233 297 349 408
#     4  12  27  47  69 104 148 183 229 281 356 427
#     4  11  23  40  68  95 133 182 231 280 334 399
#
# _framework density 23.392105000000001
#
# number of rings (size 3 to 8) (size 9 to 14) (size 15 to 20)
#    0.000    1.250    0.000    4.125   14.000    1.000 
#    0.000    0.000    0.000    0.000    0.000    0.000 
#    0.000    0.000    0.000    0.000    0.000    0.000 
#
# Total GULP energy -89205.410096 kJ/mol
# GULP energy per Si atom -5575.338131 kJ/mol
# Density = 2.333886 g / cm^3
# Si number density = 23.392105 Si / 1000 Ang^3
#
#
#
# Elastic Constant Matrix: (Units=GPa)
#
#
# Indices 1 2 3 4 5 6 
#
# 1 107.6780 11.2390 9.6068 5.3151 14.0360 -13.4117
# 2 11.2390 113.5079 44.0582 -1.7736 -3.7935 -7.6337
# 3 9.6068 44.0582 93.1383 -1.9606 -9.1722 -3.0035
# 4 5.3151 -1.7736 -1.9606 37.4184 -7.2471 3.4058
# 5 14.0360 -3.7935 -9.1722 -7.2471 35.5444 5.1502
# 6 -13.4117 -7.6337 -3.0035 3.4058 5.1502 25.7274
#
#
#
# Elastic Compliance Matrix: (Units=1/GPa)
#
#
# Indices 1 2 3 4 5 6 
#
# 1 0.011473 -0.000315 -0.001540 -0.003735 -0.006820 0.007567
# 2 -0.000315 0.010989 -0.005123 -0.000015 -0.000401 0.002581
# 3 -0.001540 -0.005123 0.013710 0.001670 0.004198 -0.001784
# 4 -0.003735 -0.000015 0.001670 0.029782 0.009065 -0.007514
# 5 -0.006820 -0.000401 0.004198 0.009065 0.035377 -0.011466
# 6 0.007567 0.002581 -0.001784 -0.007514 -0.011466 0.046661
#
#
# Mechanical properties :
#
#
# Convention : Reuss Voigt Hill
#
# Bulk Modulus (GPa) = 45.01339 49.34803 47.18071
# Shear Modulus (GPa) = 29.52386 36.36603 32.94495
#
# Velocity S-wave (km/s) = 3.55650 3.94716 3.75691
# Velocity P-wave (km/s) = 6.01246 6.47419 6.24759
#
# Compressibility (1/GPa) = 0.02221561
#
# Stress axis : x y z
#
# Youngs Moduli (GPa) = 87.16001 90.99665 72.94030
#
# Poissons Ratio (x) = 0.02871 0.11235
# Poissons Ratio (y) = 0.02750 0.37364
# Poissons Ratio (z) = 0.13426 0.46613
#
# Static dielectric constant tensor:
#      x y z
#    x 1.922250 -0.030700 -0.003880 
#    y -0.030700 2.138110 -0.028110 
#    z -0.003880 -0.028110 1.908650 
# 
# From -- ./inp_files/70817.got.cif
#   From: 2010.05.17/outbox.cif.g08.bks.cpg/sg2_36_cif.got.tgz:70817.got - 2010.06.03 11:33:40.
