data_PCOD9034181
_publ_section_title
;
Structure prediction by ZEFSAII (Michael W. Deem and Ramdas Pophale) SiO2 
 PCOD9034181
Probable space group: P -1
;
_chemical_formula_sum "Si O2"
_cell_formula_units_Z 14
_cell_length_a 8.312270
_cell_length_b 8.291451
_cell_length_c 15.162257
_cell_angle_alpha 85.545778
_cell_angle_beta 121.614561
_cell_angle_gamma 129.153824
_cell_volume 637.291469
_symmetry_space_group_name_H-M "P -1"
_symmetry_group_IT_number 2
_symmetry_cell_setting 'triclinic'
loop_
_space_group_symop_operation_xyz
x,y,z
-x,-y,-z
loop_
_atom_site_type_symbol
_atom_site_label
_atom_site_fract_x
_atom_site_fract_y
_atom_site_fract_z
Si Si1 0.301305 0.821774 0.026464
Si Si2 0.066949 0.633422 0.422825
Si Si3 0.252208 0.355481 0.806602
Si Si4 0.181046 0.950488 0.742764
Si Si5 0.669831 0.479629 0.612583
Si Si6 0.765387 0.985648 0.432220
Si Si7 0.844230 0.631634 0.021122
O O1 0.078129 0.798003 0.009945
O O2 0.521958 0.917059 0.157186
O O3 0.180667 0.578941 0.972009
O O4 0.500000 0.000000 0.000000
O O5 0.238522 0.612939 0.417474
O O6 0.000000 0.500000 0.500000
O O7 0.838431 0.562954 0.293557
O O8 0.223075 0.886862 0.488550
O O9 0.124179 0.295482 0.870719
O O10 0.166766 0.132284 0.750583
O O11 0.566584 0.536304 0.908938
O O12 0.922400 0.714468 0.719881
O O13 0.165574 0.879692 0.641783
O O14 0.500000 0.500000 0.500000
O O15 0.485722 0.278859 0.637734
O O16 0.000000 0.000000 0.500000
#
# Coordination Sequence:
#
# PCOD9034181 Si02
#       7
#     2   2   2   2   2   2   2
#     4  10  23  43  70 104 133 174 237 288 352 415
#     4  12  24  42  70 104 139 184 234 283 344 420
#     4  10  22  44  72 100 143 185 233 287 353 415
#     4  11  24  43  66 100 139 180 228 283 347 413
#     4  12  25  43  66  95 138 184 227 283 345 410
#     4  12  23  45  65  97 142 180 227 282 338 415
#     4   9  22  46  71  98 138 184 227 293 352 409
#
# _framework density 21.967970000000001
#
# number of rings (size 3 to 8) (size 9 to 14) (size 15 to 20)
#    0.000    1.143    4.286    0.429    4.000    2.286 
#    0.000    7.857    0.000    0.000    0.000    0.000 
#    0.000    0.000    0.000    0.000    0.000    0.000 
#
# Total GULP energy -78008.356357 kJ/mol
# GULP energy per Si atom -5572.025454 kJ/mol
# Density = 2.191797 g / cm^3
# Si number density = 21.967970 Si / 1000 Ang^3
#
#
#
# Elastic Constant Matrix: (Units=GPa)
#
#
# Indices 1 2 3 4 5 6 
#
# 1 147.0538 37.7789 46.0611 -0.3012 0.1940 4.6874
# 2 37.7789 84.1583 25.0156 7.6068 6.2410 20.6580
# 3 46.0611 25.0156 76.7970 -3.8188 -13.0630 -10.9410
# 4 -0.3012 7.6068 -3.8188 33.2741 -0.7782 -1.8592
# 5 0.1940 6.2410 -13.0630 -0.7782 26.2327 -2.0545
# 6 4.6874 20.6580 -10.9410 -1.8592 -2.0545 39.1056
#
#
#
# Elastic Compliance Matrix: (Units=1/GPa)
#
#
# Indices 1 2 3 4 5 6 
#
# 1 0.009060 -0.001706 -0.005612 -0.000340 -0.002615 -0.001909
# 2 -0.001706 0.020610 -0.009991 -0.006940 -0.011199 -0.014397
# 3 -0.005612 -0.009991 0.024662 0.006219 0.015979 0.013986
# 4 -0.000340 -0.006940 0.006219 0.032908 0.006302 0.007342
# 5 -0.002615 -0.011199 0.015979 0.006302 0.050015 0.013628
# 6 -0.001909 -0.014397 0.013986 0.007342 0.013628 0.038384
#
#
# Mechanical properties :
#
#
# Convention : Reuss Voigt Hill
#
# Bulk Modulus (GPa) = 50.72813 58.41338 54.57075
# Shear Modulus (GPa) = 23.05981 32.99935 28.02958
#
# Velocity S-wave (km/s) = 3.24342 3.87997 3.57589
# Velocity P-wave (km/s) = 6.09659 6.83522 6.47644
#
# Compressibility (1/GPa) = 0.01971293
#
# Stress axis : x y z
#
# Youngs Moduli (GPa) = 110.37721 48.52104 40.54896
#
# Poissons Ratio (x) = 0.08276 0.22756
# Poissons Ratio (y) = 0.18827 0.40514
# Poissons Ratio (z) = 0.61943 0.48479
#
# Static dielectric constant tensor:
#      x y z
#    x 1.793310 0.051580 -0.045310 
#    y 0.051580 1.870900 -0.007700 
#    z -0.045310 -0.007700 1.804090 
# 
# From -- ./inp_files/493046.got.cif
#   From: 2010.05.17/outbox.cif.g08.bks.cpg/sg2_247_cif.got.tgz:493046.got - 2010.06.03 11:33:40.
