data_PCOD9034027
_publ_section_title
;
Structure prediction by ZEFSAII (Michael W. Deem and Ramdas Pophale) SiO2 
 PCOD9034027
Probable space group: P -1
;
_chemical_formula_sum "Si O2"
_cell_formula_units_Z 14
_cell_length_a 14.157655
_cell_length_b 11.307346
_cell_length_c 7.077718
_cell_angle_alpha 120.717473
_cell_angle_beta 138.081430
_cell_angle_gamma 58.996224
_cell_volume 632.516849
_symmetry_space_group_name_H-M "P -1"
_symmetry_group_IT_number 2
_symmetry_cell_setting 'triclinic'
loop_
_space_group_symop_operation_xyz
x,y,z
-x,-y,-z
loop_
_atom_site_type_symbol
_atom_site_label
_atom_site_fract_x
_atom_site_fract_y
_atom_site_fract_z
Si Si1 0.887125 0.761203 0.305604
Si Si2 0.671878 0.431436 0.222415
Si Si3 0.859967 0.052927 0.703274
Si Si4 0.684567 0.835195 0.748662
Si Si5 0.117523 0.660944 0.235007
Si Si6 0.649650 0.134847 0.796503
Si Si7 0.118740 0.376002 0.413715
O O1 0.910338 0.673529 0.461812
O O2 0.015836 0.711188 0.306863
O O3 0.868429 0.924548 0.468420
O O4 0.742529 0.761085 0.970398
O O5 0.731442 0.425970 0.522360
O O6 0.774461 0.517632 0.338578
O O7 0.500000 0.500000 0.000000
O O8 0.699171 0.271087 0.056590
O O9 0.863866 0.199112 0.728308
O O10 0.722554 0.083021 0.662716
O O11 0.000000 0.000000 0.000000
O O12 0.523220 0.824855 0.452768
O O13 0.790243 0.758576 0.678007
O O14 0.687595 0.000262 0.882412
O O15 0.028867 0.581479 0.896478
#
# Coordination Sequence:
#
# PCOD9034027 Si02
#       7
#     2   2   2   2   2   2   2
#     4  11  22  42  73 102 133 176 228 283 346 402
#     4  12  26  46  69  97 143 186 227 278 338 404
#     4  12  21  41  71 105 135 169 230 289 338 403
#     4  10  22  44  71 100 136 179 225 287 346 402
#     4  11  25  43  71 100 139 183 224 282 344 401
#     4  11  23  43  69 101 140 178 229 284 342 403
#     4  11  23  47  69 100 139 177 227 281 340 415
#
# _framework density 22.133800000000001
#
# number of rings (size 3 to 8) (size 9 to 14) (size 15 to 20)
#    0.000    0.857    4.286    3.429    0.000    2.286 
#    5.143    1.429    0.000    0.000    0.000    0.000 
#    0.000    0.000    0.000    0.000    0.000    0.000 
#
# Total GULP energy -78364.880150 kJ/mol
# GULP energy per Si atom -5597.491439 kJ/mol
# Density = 2.208342 g / cm^3
# Si number density = 22.133800 Si / 1000 Ang^3
#
#
#
# Elastic Constant Matrix: (Units=GPa)
#
#
# Indices 1 2 3 4 5 6 
#
# 1 78.5642 20.3791 57.7898 -22.3114 -5.7329 12.7077
# 2 20.3791 81.0643 64.0793 1.3001 12.5369 12.1393
# 3 57.7898 64.0793 151.4058 -15.6452 -0.2780 2.9949
# 4 -22.3114 1.3001 -15.6452 55.3459 2.3204 -0.3331
# 5 -5.7329 12.5369 -0.2780 2.3204 31.4854 1.2625
# 6 12.7077 12.1393 2.9949 -0.3331 1.2625 45.5851
#
#
#
# Elastic Compliance Matrix: (Units=1/GPa)
#
#
# Indices 1 2 3 4 5 6 
#
# 1 0.021011 0.001115 -0.007744 0.006091 0.003092 -0.005686
# 2 0.001115 0.022001 -0.009911 -0.002555 -0.008244 -0.005309
# 3 -0.007744 -0.009911 0.013780 0.000927 0.002436 0.003832
# 4 0.006091 -0.002555 0.000927 0.020813 0.000639 -0.000944
# 5 0.003092 -0.008244 0.002436 0.000639 0.035573 0.000193
# 6 -0.005686 -0.005309 0.003832 -0.000944 0.000193 0.024672
#
#
# Mechanical properties :
#
#
# Convention : Reuss Voigt Hill
#
# Bulk Modulus (GPa) = 42.17433 66.17009 54.17221
# Shear Modulus (GPa) = 27.95899 37.73569 32.84734
#
# Velocity S-wave (km/s) = 3.55798 4.13351 3.85650
# Velocity P-wave (km/s) = 5.99788 7.26234 6.66019
#
# Compressibility (1/GPa) = 0.02371111
#
# Stress axis : x y z
#
# Youngs Moduli (GPa) = 47.59517 45.45233 72.57059
#
# Poissons Ratio (x) = -0.05068 0.56197
# Poissons Ratio (y) = -0.05307 0.71926
# Poissons Ratio (z) = 0.36857 0.45049
#
# Static dielectric constant tensor:
#      x y z
#    x 1.790810 -0.028490 -0.000800 
#    y -0.028490 1.866950 -0.002200 
#    z -0.000800 -0.002200 1.831510 
# 
# From -- ./inp_files/72082.got.cif
#   From: 2010.05.17/outbox.cif.g08.bks.cpg/sg2_37_cif.got.tgz:72082.got - 2010.06.03 11:33:40.
