data_PCOD9034393
_publ_section_title
;
Structure prediction by ZEFSAII (Michael W. Deem and Ramdas Pophale) SiO2 
 PCOD9034393
Probable space group: P -1
;
_chemical_formula_sum "Si O2"
_cell_formula_units_Z 13
_cell_length_a 4.631315
_cell_length_b 16.250568
_cell_length_c 7.919765
_cell_angle_alpha 66.287956
_cell_angle_beta 62.254089
_cell_angle_gamma 92.389338
_cell_volume 463.312982
_symmetry_space_group_name_H-M "P -1"
_symmetry_group_IT_number 2
_symmetry_cell_setting 'triclinic'
loop_
_space_group_symop_operation_xyz
x,y,z
-x,-y,-z
loop_
_atom_site_type_symbol
_atom_site_label
_atom_site_fract_x
_atom_site_fract_y
_atom_site_fract_z
Si Si1 0.758856 0.639252 0.004782
Si Si2 0.827047 0.015289 0.777004
Si Si3 0.253701 0.263152 0.731803
Si Si4 0.493789 0.445034 0.376724
Si Si5 0.000000 0.500000 0.000000
Si Si6 0.698052 0.105948 0.190484
Si Si7 0.159191 0.802725 0.556546
O O1 0.126035 0.563586 0.740356
O O2 0.849263 0.714237 0.771131
O O3 0.628442 0.684395 0.163217
O O4 0.097180 0.607544 0.992475
O O5 0.679437 0.940596 0.729880
O O6 0.127736 0.978570 0.796803
O O7 0.933387 0.121012 0.599234
O O8 0.500000 0.000000 0.000000
O O9 0.222527 0.346884 0.547752
O O10 0.536347 0.223175 0.603206
O O11 0.913255 0.185033 0.939547
O O12 0.500000 0.500000 0.500000
O O13 0.574057 0.523415 0.136038
O O14 0.720924 0.149319 0.333698
#
# Coordination Sequence:
#
# PCOD9034393 Si02
#       7
#     2   2   2   2   1   2   2
#     4   8  16  26  49  88 129 166 217 257 318 384
#     4  12  25  46  68  93 131 169 216 270 322 380
#     4  10  17  32  56  91 128 168 213 264 320 375
#     4   8  13  24  46  81 126 161 208 254 312 372
#     4   8  12  22  42  76 126 160 208 248 314 364
#     4  11  26  44  65  97 128 170 219 263 321 387
#     4  11  20  36  61  88 129 171 214 267 323 377
#
# _framework density 28.058786000000001
#
# number of rings (size 3 to 8) (size 9 to 14) (size 15 to 20)
#    0.923    1.231    3.077    1.385    0.000    0.000 
#    0.000    0.000    0.000    0.000    0.000   30.154 
#    0.000    3.231    0.000    0.000    0.000    2.462 
#
# Total GULP energy -72445.975937 kJ/mol
# GULP energy per Si atom -5572.767380 kJ/mol
# Density = 2.799492 g / cm^3
# Si number density = 28.058786 Si / 1000 Ang^3
#
#
#
# Elastic Constant Matrix: (Units=GPa)
#
#
# Indices 1 2 3 4 5 6 
#
# 1 77.6970 39.2086 49.1128 -8.5220 -2.5394 4.6099
# 2 39.2086 157.1709 104.2279 -1.1357 7.8344 -18.1123
# 3 49.1128 104.2279 254.7130 -23.4841 1.5695 -18.1879
# 4 -8.5220 -1.1357 -23.4841 103.0117 -3.9044 5.3606
# 5 -2.5394 7.8344 1.5695 -3.9044 35.2829 0.2882
# 6 4.6099 -18.1123 -18.1879 5.3606 0.2882 22.4689
#
#
#
# Elastic Compliance Matrix: (Units=1/GPa)
#
#
# Indices 1 2 3 4 5 6 
#
# 1 0.016978 -0.003906 -0.002186 0.001411 0.002414 -0.008769
# 2 -0.003906 0.010302 -0.003074 -0.001374 -0.002641 0.006979
# 3 -0.002186 -0.003074 0.005873 0.001009 0.000355 0.002479
# 4 0.001411 -0.001374 0.001009 0.010255 0.001521 -0.003047
# 5 0.002414 -0.002641 0.000355 0.001521 0.029280 -0.003075
# 6 -0.008769 0.006979 0.002479 -0.003047 -0.003075 0.054704
#
#
# Mechanical properties :
#
#
# Convention : Reuss Voigt Hill
#
# Bulk Modulus (GPa) = 67.47993 97.18661 82.33327
# Shear Modulus (GPa) = 33.18620 51.95481 42.57051
#
# Velocity S-wave (km/s) = 3.44283 4.30774 3.89934
# Velocity P-wave (km/s) = 6.31710 7.71065 7.04840
#
# Compressibility (1/GPa) = 0.01481922
#
# Stress axis : x y z
#
# Youngs Moduli (GPa) = 58.90128 97.07203 170.26146
#
# Poissons Ratio (x) = 0.37920 0.37220
# Poissons Ratio (y) = 0.23009 0.52343
# Poissons Ratio (z) = 0.12876 0.29842
#
# Static dielectric constant tensor:
#      x y z
#    x 2.225560 0.039770 0.007110 
#    y 0.039770 2.764990 0.512100 
#    z 0.007110 0.512100 2.679480 
# 
# From -- ./inp_files/136645.got.cif
#   From: 2010.05.17/outbox.cif.g08.bks.cpg/sg2_69_cif.got.tgz:136645.got - 2010.06.03 11:33:40.
