data_PCOD9034432
_publ_section_title
;
Structure prediction by ZEFSAII (Michael W. Deem and Ramdas Pophale) SiO2 
 PCOD9034432
Probable space group: P -1
;
_chemical_formula_sum "Si O2"
_cell_formula_units_Z 13
_cell_length_a 12.006200
_cell_length_b 4.838177
_cell_length_c 11.687919
_cell_angle_alpha 62.292183
_cell_angle_beta 120.097212
_cell_angle_gamma 115.796695
_cell_volume 501.624583
_symmetry_space_group_name_H-M "P -1"
_symmetry_group_IT_number 2
_symmetry_cell_setting 'triclinic'
loop_
_space_group_symop_operation_xyz
x,y,z
-x,-y,-z
loop_
_atom_site_type_symbol
_atom_site_label
_atom_site_fract_x
_atom_site_fract_y
_atom_site_fract_z
Si Si1 0.372349 0.958442 0.189550
Si Si2 0.877282 0.781757 0.049150
Si Si3 0.500000 0.000000 0.000000
Si Si4 0.302516 0.305006 0.416883
Si Si5 0.875142 0.219493 0.450878
Si Si6 0.814714 0.046057 0.194522
Si Si7 0.387982 0.708767 0.597552
O O1 0.315147 0.608237 0.284892
O O2 0.487017 0.200027 0.274566
O O3 0.254148 0.126797 0.079963
O O4 0.440974 0.930606 0.110290
O O5 0.862527 0.406282 0.095461
O O6 0.873069 0.836878 0.173532
O O7 0.000000 0.000000 0.000000
O O8 0.347379 0.040650 0.871366
O O9 0.375355 0.437082 0.548471
O O10 0.372047 0.034255 0.461695
O O11 0.156669 0.093984 0.420157
O O12 0.869484 0.089046 0.344246
O O13 0.744742 0.355111 0.380024
O O14 0.000000 0.500000 0.500000
#
# Coordination Sequence:
#
# PCOD9034432 Si02
#       7
#     2   2   1   2   2   2   2
#     4  11  23  46  80 111 157 195 256 315 387 456
#     4  11  28  50  74 108 152 207 254 315 378 457
#     4  10  22  44  74 114 144 196 240 322 372 446
#     4  10  24  43  74 111 154 194 251 316 381 460
#     4  10  25  47  73 111 154 203 251 314 386 452
#     4  11  25  48  77 108 154 194 263 313 385 458
#     4  10  23  43  72 115 152 190 252 311 387 453
#
# _framework density 25.915794999999999
#
# number of rings (size 3 to 8) (size 9 to 14) (size 15 to 20)
#    0.923    0.615    1.538    1.385    2.154   10.462 
#    8.308    0.000    0.000    0.000    0.000    0.000 
#    0.000    0.000    0.000    0.000    0.000    0.000 
#
# Total GULP energy -72641.692433 kJ/mol
# GULP energy per Si atom -5587.822495 kJ/mol
# Density = 2.585681 g / cm^3
# Si number density = 25.915795 Si / 1000 Ang^3
#
#
#
# Elastic Constant Matrix: (Units=GPa)
#
#
# Indices 1 2 3 4 5 6 
#
# 1 134.6738 34.9645 43.2029 13.9386 -22.1202 25.8699
# 2 34.9645 120.0302 36.0263 11.4536 -9.2060 16.8772
# 3 43.2029 36.0263 127.9554 21.6920 -20.3057 21.9354
# 4 13.9386 11.4536 21.6920 33.5871 2.8228 4.0067
# 5 -22.1202 -9.2060 -20.3057 2.8228 39.3156 -3.6563
# 6 25.8699 16.8772 21.9354 4.0067 -3.6563 51.7861
#
#
#
# Elastic Compliance Matrix: (Units=1/GPa)
#
#
# Indices 1 2 3 4 5 6 
#
# 1 0.009856 -0.001429 -0.001141 -0.002835 0.004505 -0.003437
# 2 -0.001429 0.009644 -0.001611 -0.001514 0.000583 -0.001588
# 3 -0.001141 -0.001611 0.010918 -0.006108 0.004806 -0.002718
# 4 -0.002835 -0.001514 -0.006108 0.035906 -0.007572 0.001184
# 5 0.004505 0.000583 0.004806 -0.007572 0.030974 -0.001704
# 6 -0.003437 -0.001588 -0.002718 0.001184 -0.001704 0.022484
#
#
# Mechanical properties :
#
#
# Convention : Reuss Voigt Hill
#
# Bulk Modulus (GPa) = 45.33968 67.89408 56.61688
# Shear Modulus (GPa) = 36.90143 42.83547 39.86845
#
# Velocity S-wave (km/s) = 3.77755 4.06996 3.92648
# Velocity P-wave (km/s) = 6.04644 6.95277 6.51538
#
# Compressibility (1/GPa) = 0.02205574
#
# Stress axis : x y z
#
# Youngs Moduli (GPa) = 101.46090 103.69476 91.59161
#
# Poissons Ratio (x) = 0.14822 0.10446
# Poissons Ratio (y) = 0.14502 0.14757
# Poissons Ratio (z) = 0.11572 0.16706
#
# Static dielectric constant tensor:
#      x y z
#    x 2.022840 0.041570 0.039230 
#    y 0.041570 2.059510 -0.066360 
#    z 0.039230 -0.066360 2.055080 
# 
# From -- ./inp_files/407684.got.cif
#   From: 2010.05.17/outbox.cif.g08.bks.cpg/sg2_204_cif.got.tgz:407684.got - 2010.06.03 11:33:40.
