data_PCOD9034648
_publ_section_title
;
Structure prediction by ZEFSAII (Michael W. Deem and Ramdas Pophale) SiO2 
 PCOD9034648
Probable space group: P -1
;
_chemical_formula_sum "Si O2"
_cell_formula_units_Z 16
_cell_length_a 14.726785
_cell_length_b 14.060598
_cell_length_c 5.457953
_cell_angle_alpha 58.463125
_cell_angle_beta 92.647002
_cell_angle_gamma 128.821263
_cell_volume 679.584865
_symmetry_space_group_name_H-M "P -1"
_symmetry_group_IT_number 2
_symmetry_cell_setting 'triclinic'
loop_
_space_group_symop_operation_xyz
x,y,z
-x,-y,-z
loop_
_atom_site_type_symbol
_atom_site_label
_atom_site_fract_x
_atom_site_fract_y
_atom_site_fract_z
Si Si1 0.082345 0.279398 0.273689
Si Si2 0.443347 0.713751 0.401862
Si Si3 0.381166 0.406239 0.800148
Si Si4 0.840945 0.059876 0.250791
Si Si5 0.178320 0.577700 0.603927
Si Si6 0.411226 0.192685 0.222262
Si Si7 0.048613 0.677680 0.431906
Si Si8 0.846768 0.855146 0.224123
O O1 0.167933 0.257106 0.427978
O O2 0.981584 0.144673 0.246839
O O3 0.991585 0.251730 0.509666
O O4 0.150415 0.447446 0.947852
O O5 0.382652 0.537847 0.682866
O O6 0.326477 0.699244 0.387975
O O7 0.525389 0.807739 0.529788
O O8 0.519968 0.773339 0.073323
O O9 0.500000 0.500000 0.500000
O O10 0.243782 0.258039 0.858822
O O11 0.409774 0.326096 0.086403
O O12 0.736981 0.973033 0.568466
O O13 0.797745 0.928697 0.229612
O O14 0.863215 0.198062 0.942428
O O15 0.125604 0.646809 0.617405
O O16 0.085177 0.481341 0.487324
O O17 0.000000 0.000000 0.000000
#
# Coordination Sequence:
#
# PCOD9034648 Si02
#       8
#     2   2   2   2   2   2   2   2
#     4  11  23  38  69  97 134 175 223 286 345 410
#     4  11  25  43  69 100 134 182 234 284 327 406
#     4  10  23  40  65  95 135 187 219 273 341 411
#     4  11  24  41  65  97 136 182 220 274 352 416
#     4  10  24  41  68  98 128 174 233 289 338 401
#     4  11  25  44  67  97 141 185 226 275 342 413
#     4  10  22  45  66  95 133 175 225 284 352 402
#     4  12  23  39  66 103 143 175 225 284 343 421
#
# _framework density 23.543783999999999
#
# number of rings (size 3 to 8) (size 9 to 14) (size 15 to 20)
#    0.000    1.250    1.250    4.125   10.500    0.000 
#    0.000    1.250    0.000    0.000    0.000    0.000 
#    0.000    0.000    0.000    0.000    0.000    0.000 
#
# Total GULP energy -89469.357814 kJ/mol
# GULP energy per Si atom -5591.834863 kJ/mol
# Density = 2.349020 g / cm^3
# Si number density = 23.543784 Si / 1000 Ang^3
#
#
#
# Elastic Constant Matrix: (Units=GPa)
#
#
# Indices 1 2 3 4 5 6 
#
# 1 108.3243 14.3285 47.8195 4.2471 6.2311 22.7145
# 2 14.3285 61.0508 10.2711 10.2132 1.0168 6.8654
# 3 47.8195 10.2711 91.9251 7.7037 -19.2851 13.6136
# 4 4.2471 10.2132 7.7037 25.2942 5.1168 -1.8425
# 5 6.2311 1.0168 -19.2851 5.1168 32.6457 0.7710
# 6 22.7145 6.8654 13.6136 -1.8425 0.7710 19.8289
#
#
#
# Elastic Compliance Matrix: (Units=1/GPa)
#
#
# Indices 1 2 3 4 5 6 
#
# 1 0.015789 -0.001047 -0.008001 0.000875 -0.007565 -0.011856
# 2 -0.001047 0.018619 0.000341 -0.008156 0.001248 -0.006288
# 3 -0.008001 0.000341 0.019562 -0.008095 0.014476 -0.005698
# 4 0.000875 -0.008156 -0.008095 0.048599 -0.012605 0.012385
# 5 -0.007565 0.001248 0.014476 -0.012605 0.042671 -0.004535
# 6 -0.011856 -0.006288 -0.005698 0.012385 -0.004535 0.071428
#
#
# Mechanical properties :
#
#
# Convention : Reuss Voigt Hill
#
# Bulk Modulus (GPa) = 27.35581 45.12646 36.24114
# Shear Modulus (GPa) = 20.30319 28.14582 24.22451
#
# Velocity S-wave (km/s) = 2.93978 3.46130 3.21115
# Velocity P-wave (km/s) = 4.81326 5.93151 5.40140
#
# Compressibility (1/GPa) = 0.03655530
#
# Stress axis : x y z
#
# Youngs Moduli (GPa) = 63.33583 53.70876 51.12056
#
# Poissons Ratio (x) = 0.05622 0.40902
# Poissons Ratio (y) = 0.06630 -0.01742
# Poissons Ratio (z) = 0.50675 -0.01830
#
# Static dielectric constant tensor:
#      x y z
#    x 1.888260 -0.016830 -0.024650 
#    y -0.016830 1.918460 0.013080 
#    z -0.024650 0.013080 1.907590 
# 
# From -- ./inp_files/77949.got.cif
#   From: 2010.05.17/outbox.cif.g08.bks.cpg/sg2_39_cif.got.tgz:77949.got - 2010.06.03 11:33:40.
