data_PCOD9034269
_publ_section_title
;
Structure prediction by ZEFSAII (Michael W. Deem and Ramdas Pophale) SiO2 
 PCOD9034269
Probable space group: P -1
;
_chemical_formula_sum "Si O2"
_cell_formula_units_Z 13
_cell_length_a 18.382029
_cell_length_b 9.034611
_cell_length_c 14.824113
_cell_angle_alpha 45.168278
_cell_angle_beta 158.858683
_cell_angle_gamma 120.913411
_cell_volume 520.712870
_symmetry_space_group_name_H-M "P -1"
_symmetry_group_IT_number 2
_symmetry_cell_setting 'triclinic'
loop_
_space_group_symop_operation_xyz
x,y,z
-x,-y,-z
loop_
_atom_site_type_symbol
_atom_site_label
_atom_site_fract_x
_atom_site_fract_y
_atom_site_fract_z
Si Si1 0.667990 0.841287 0.346835
Si Si2 0.398484 0.036737 0.128918
Si Si3 0.000000 0.000000 0.000000
Si Si4 0.026378 0.995956 0.424609
Si Si5 0.376092 0.618901 0.521677
Si Si6 0.686459 0.770898 0.747424
Si Si7 0.430916 0.464249 0.035217
O O1 0.646704 0.606416 0.431010
O O2 0.553732 0.002228 0.235228
O O3 0.926313 0.795493 0.643393
O O4 0.500000 0.000000 0.000000
O O5 0.309783 0.307998 0.951630
O O6 0.574446 0.832630 0.492288
O O7 0.193589 0.996638 0.878988
O O8 0.081336 0.215375 0.994172
O O9 0.129335 0.881125 0.098673
O O10 0.264091 0.728653 0.779554
O O11 0.000000 0.000000 0.500000
O O12 0.630976 0.570065 0.806737
O O13 0.346019 0.698287 0.562912
O O14 0.500000 0.000000 0.500000
O O15 0.500000 0.500000 0.000000
#
# Coordination Sequence:
#
# PCOD9034269 Si02
#       7
#     2   2   1   2   2   2   2
#     4  12  24  47  68 102 151 182 232 298 356 424
#     4  12  24  45  71 104 142 186 242 290 356 431
#     4  10  22  44  72  94 136 188 236 280 354 406
#     4  12  26  44  71 106 144 193 231 289 373 425
#     4  11  24  45  70 100 144 185 234 296 352 418
#     4  10  23  44  68 100 136 181 236 297 336 415
#     4  12  23  43  72 106 142 183 236 303 351 423
#
# _framework density 24.965774
#
# number of rings (size 3 to 8) (size 9 to 14) (size 15 to 20)
#    0.000    0.615    7.692    0.462    0.000    8.000 
#    0.000    1.538    0.000    0.000    0.000    0.000 
#    0.000    0.000    0.000    0.000    0.000    0.000 
#
# Total GULP energy -72464.431948 kJ/mol
# GULP energy per Si atom -5574.187073 kJ/mol
# Density = 2.490895 g / cm^3
# Si number density = 24.965774 Si / 1000 Ang^3
#
#
#
# Elastic Constant Matrix: (Units=GPa)
#
#
# Indices 1 2 3 4 5 6 
#
# 1 138.3996 40.9609 37.1764 20.1251 4.4931 1.1004
# 2 40.9609 215.0312 50.5114 42.7818 14.6121 27.2183
# 3 37.1764 50.5114 72.8425 35.5850 17.4205 6.1723
# 4 20.1251 42.7818 35.5850 63.3837 2.6822 14.5284
# 5 4.4931 14.6121 17.4205 2.6822 44.3325 9.8066
# 6 1.1004 27.2183 6.1723 14.5284 9.8066 53.0025
#
#
#
# Elastic Compliance Matrix: (Units=1/GPa)
#
#
# Indices 1 2 3 4 5 6 
#
# 1 0.008517 -0.000794 -0.004007 -0.000084 0.000854 0.000562
# 2 -0.000794 0.006098 -0.002670 -0.001837 -0.000271 -0.002250
# 3 -0.004007 -0.002670 0.024906 -0.011286 -0.008531 0.003226
# 4 -0.000084 -0.001837 -0.011286 0.024395 0.004747 -0.005306
# 5 0.000854 -0.000271 -0.008531 0.004747 0.026761 -0.005137
# 6 0.000562 -0.002250 0.003226 -0.005306 -0.005137 0.022040
#
#
# Mechanical properties :
#
#
# Convention : Reuss Voigt Hill
#
# Bulk Modulus (GPa) = 40.68687 75.95229 58.31958
# Shear Modulus (GPa) = 36.80496 51.98537 44.39516
#
# Velocity S-wave (km/s) = 3.84372 4.56814 4.22149
# Velocity P-wave (km/s) = 6.00261 7.63626 6.86818
#
# Compressibility (1/GPa) = 0.02457796
#
# Stress axis : x y z
#
# Youngs Moduli (GPa) = 117.41596 163.99634 40.15174
#
# Poissons Ratio (x) = 0.13014 0.16090
# Poissons Ratio (y) = 0.09317 0.10721
# Poissons Ratio (z) = 0.47052 0.43790
#
# Static dielectric constant tensor:
#      x y z
#    x 1.909960 -0.047990 -0.049870 
#    y -0.047990 1.930390 -0.018850 
#    z -0.049870 -0.018850 0.552610 
# 
# From -- ./inp_files/259218.got.cif
#   From: 2010.05.17/outbox.cif.g08.bks.cpg/sg2_130_cif.got.tgz:259218.got - 2010.06.03 11:33:40.
