data_PCOD9034912
_publ_section_title
;
Structure prediction by ZEFSAII (Michael W. Deem and Ramdas Pophale) SiO2 
 PCOD9034912
Probable space group: P -1
;
_chemical_formula_sum "Si O2"
_cell_formula_units_Z 14
_cell_length_a 5.794416
_cell_length_b 26.802774
_cell_length_c 9.361996
_cell_angle_alpha 31.301641
_cell_angle_beta 111.935529
_cell_angle_gamma 125.631299
_cell_volume 586.819223
_symmetry_space_group_name_H-M "P -1"
_symmetry_group_IT_number 2
_symmetry_cell_setting 'triclinic'
loop_
_space_group_symop_operation_xyz
x,y,z
-x,-y,-z
loop_
_atom_site_type_symbol
_atom_site_label
_atom_site_fract_x
_atom_site_fract_y
_atom_site_fract_z
Si Si1 0.363135 0.745562 0.429695
Si Si2 0.939825 0.925706 0.946626
Si Si3 0.898423 0.759595 0.112619
Si Si4 0.331844 0.525492 0.522482
Si Si5 0.765620 0.156983 0.587033
Si Si6 0.231746 0.903557 0.577386
Si Si7 0.609112 0.600725 0.890601
O O1 0.618462 0.830697 0.169779
O O2 0.418412 0.815832 0.415459
O O3 0.373019 0.637122 0.740292
O O4 0.061629 0.714424 0.358532
O O5 0.964518 0.872881 0.933300
O O6 0.168785 0.928582 0.105395
O O7 0.954533 0.041498 0.643506
O O8 0.553818 0.661307 0.270564
O O9 0.038344 0.794793 0.901217
O O10 0.500000 0.500000 0.500000
O O11 0.000000 0.500000 0.500000
O O12 0.338710 0.449047 0.835394
O O13 0.667266 0.121163 0.489145
O O14 0.082937 0.278879 0.361059
O O15 0.500000 0.000000 0.500000
O O16 0.500000 0.500000 0.000000
#
# Coordination Sequence:
#
# PCOD9034912 Si02
#       7
#     2   2   2   2   2   2   2
#     4  10  22  45  76 108 145 197 254 314 378 467
#     4  10  22  45  69 103 146 197 252 309 377 455
#     4  11  25  47  74 108 151 198 261 321 376 470
#     4  12  30  49  76 114 157 202 254 325 400 461
#     4  10  24  43  70 108 147 194 252 313 376 466
#     4  12  24  46  74 108 148 202 253 315 389 450
#     4  11  25  48  77 108 146 200 257 315 385 463
#
# _framework density 23.857431999999999
#
# number of rings (size 3 to 8) (size 9 to 14) (size 15 to 20)
#    0.000    1.143    1.429    4.286    6.000    2.857 
#   10.286    0.000    0.000    0.000    0.000    0.000 
#    0.000    0.000    0.000    0.000    0.000    0.000 
#
# Total GULP energy -78385.572307 kJ/mol
# GULP energy per Si atom -5598.969450 kJ/mol
# Density = 2.380313 g / cm^3
# Si number density = 23.857432 Si / 1000 Ang^3
#
#
#
# Elastic Constant Matrix: (Units=GPa)
#
#
# Indices 1 2 3 4 5 6 
#
# 1 114.6363 68.7046 45.0494 13.8418 15.2601 -0.9456
# 2 68.7046 147.3848 55.2723 10.3301 2.2699 -2.6254
# 3 45.0494 55.2723 143.8597 18.5215 24.3146 -1.1804
# 4 13.8418 10.3301 18.5215 41.1989 1.2155 -13.2283
# 5 15.2601 2.2699 24.3146 1.2155 31.2138 -8.7589
# 6 -0.9456 -2.6254 -1.1804 -13.2283 -8.7589 50.7667
#
#
#
# Elastic Compliance Matrix: (Units=1/GPa)
#
#
# Indices 1 2 3 4 5 6 
#
# 1 0.013683 -0.005876 -0.000556 -0.003335 -0.006264 -0.002012
# 2 -0.005876 0.010598 -0.003201 0.001093 0.004976 0.001508
# 3 -0.000556 -0.003201 0.010213 -0.004134 -0.007961 -0.002389
# 4 -0.003335 0.001093 -0.004134 0.029576 0.006047 0.008648
# 5 -0.006264 0.004976 -0.007961 0.006047 0.043226 0.008989
# 6 -0.002012 0.001508 -0.002389 0.008648 0.008989 0.023487
#
#
# Mechanical properties :
#
#
# Convention : Reuss Voigt Hill
#
# Bulk Modulus (GPa) = 65.66375 82.65924 74.16150
# Shear Modulus (GPa) = 32.23198 40.42620 36.32909
#
# Velocity S-wave (km/s) = 3.67962 4.12089 3.90649
# Velocity P-wave (km/s) = 6.75544 7.57394 7.17637
#
# Compressibility (1/GPa) = 0.01522910
#
# Stress axis : x y z
#
# Youngs Moduli (GPa) = 73.08340 94.35656 97.91007
#
# Poissons Ratio (x) = 0.55440 0.05441
# Poissons Ratio (y) = 0.42941 0.31345
# Poissons Ratio (z) = 0.04062 0.30207
#
# Static dielectric constant tensor:
#      x y z
#    x 2.051950 0.006730 -0.058400 
#    y 0.006730 1.916090 0.004280 
#    z -0.058400 0.004280 1.942790 
# 
# From -- ./inp_files/143053.got.cif
#   From: 2010.05.17/outbox.cif.g08.bks.cpg/sg2_72_cif.got.tgz:143053.got - 2010.06.03 11:33:40.
