data_PCOD9034350
_publ_section_title
;
Structure prediction by ZEFSAII (Michael W. Deem and Ramdas Pophale) SiO2 
 PCOD9034350
Probable space group: P -1
;
_chemical_formula_sum "Si O2"
_cell_formula_units_Z 14
_cell_length_a 10.154253
_cell_length_b 7.472363
_cell_length_c 8.123867
_cell_angle_alpha 76.885372
_cell_angle_beta 105.504382
_cell_angle_gamma 110.982113
_cell_volume 548.665638
_symmetry_space_group_name_H-M "P -1"
_symmetry_group_IT_number 2
_symmetry_cell_setting 'triclinic'
loop_
_space_group_symop_operation_xyz
x,y,z
-x,-y,-z
loop_
_atom_site_type_symbol
_atom_site_label
_atom_site_fract_x
_atom_site_fract_y
_atom_site_fract_z
Si Si1 0.334989 0.918587 0.165532
Si Si2 0.030443 0.730936 0.978422
Si Si3 0.565031 0.259499 0.083373
Si Si4 0.043775 0.640133 0.657732
Si Si5 0.301829 0.895933 0.525128
Si Si6 0.155048 0.168255 0.540630
Si Si7 0.207053 0.338657 0.869289
O O1 0.163670 0.834575 0.114976
O O2 0.396624 0.144074 0.082377
O O3 0.371565 0.887920 0.373529
O O4 0.394640 0.804209 0.069510
O O5 0.883904 0.764695 0.980264
O O6 0.086356 0.782292 0.801026
O O7 0.000000 0.500000 0.000000
O O8 0.645690 0.487562 0.083524
O O9 0.626955 0.161894 0.276110
O O10 0.095413 0.457063 0.750596
O O11 0.880935 0.641475 0.577359
O O12 0.141875 0.739951 0.516006
O O13 0.272631 0.100182 0.496711
O O14 0.206561 0.211781 0.736214
O O15 0.000000 0.000000 0.500000
#
# Coordination Sequence:
#
# PCOD9034350 Si02
#       7
#     2   2   2   2   2   2   2
#     4  11  20  37  62  83 116 148 191 237 285 335
#     4  10  17  32  56  89 111 137 190 239 275 324
#     4  10  22  39  61  87 109 150 195 238 281 331
#     4   9  18  34  55  87 116 144 190 234 279 330
#     4  10  20  38  56  86 115 151 188 230 288 343
#     4  10  20  34  54  85 119 153 182 230 293 339
#     4  10  19  37  58  84 119 143 195 241 270 337
#
# _framework density 25.516452000000001
#
# number of rings (size 3 to 8) (size 9 to 14) (size 15 to 20)
#    0.000    2.000    4.286    2.571    0.000    3.429 
#    2.571    2.857    0.000    3.429    0.000    0.000 
#    0.000    0.000    0.000    0.000    0.000    0.000 
#
# Total GULP energy -78092.579586 kJ/mol
# GULP energy per Si atom -5578.041399 kJ/mol
# Density = 2.545838 g / cm^3
# Si number density = 25.516452 Si / 1000 Ang^3
#
#
#
# Elastic Constant Matrix: (Units=GPa)
#
#
# Indices 1 2 3 4 5 6 
#
# 1 76.3246 26.2662 22.9092 5.3748 -9.1515 23.9664
# 2 26.2662 123.6073 24.5525 12.7434 -9.2116 8.9026
# 3 22.9092 24.5525 161.7627 25.7889 -26.3567 2.4517
# 4 5.3748 12.7434 25.7889 39.5364 2.3809 2.4871
# 5 -9.1515 -9.2116 -26.3567 2.3809 41.4348 -7.1825
# 6 23.9664 8.9026 2.4517 2.4871 -7.1825 47.5249
#
#
#
# Elastic Compliance Matrix: (Units=1/GPa)
#
#
# Indices 1 2 3 4 5 6 
#
# 1 0.017133 -0.002677 -0.001825 0.000186 0.000638 -0.007958
# 2 -0.002677 0.009083 -0.000408 -0.002375 0.001303 -0.000009
# 3 -0.001825 -0.000408 0.008205 -0.005397 0.005323 0.001661
# 4 0.000186 -0.002375 -0.005397 0.030029 -0.005965 -0.001844
# 5 0.000638 0.001303 0.005323 -0.005965 0.028961 0.003849
# 6 -0.007958 -0.000009 0.001661 -0.001844 0.003849 0.025649
#
#
# Mechanical properties :
#
#
# Convention : Reuss Voigt Hill
#
# Bulk Modulus (GPa) = 40.65044 56.57226 48.61135
# Shear Modulus (GPa) = 36.47488 44.89701 40.68594
#
# Velocity S-wave (km/s) = 3.78493 4.19923 3.99745
# Velocity P-wave (km/s) = 5.92170 6.76242 6.35598
#
# Compressibility (1/GPa) = 0.02459998
#
# Stress axis : x y z
#
# Youngs Moduli (GPa) = 58.36636 110.09945 121.87668
#
# Poissons Ratio (x) = 0.29470 0.22247
# Poissons Ratio (y) = 0.15623 0.04977
# Poissons Ratio (z) = 0.10654 0.04496
#
# Static dielectric constant tensor:
#      x y z
#    x 2.132250 -0.033500 0.066010 
#    y -0.033500 2.111600 -0.101130 
#    z 0.066010 -0.101130 2.206980 
# 
# From -- ./inp_files/239110.got.cif
#   From: 2010.05.17/outbox.cif.g08.bks.cpg/sg2_120_cif.got.tgz:239110.got - 2010.06.03 11:33:40.
