data_PCOD9034873
_publ_section_title
;
Structure prediction by ZEFSAII (Michael W. Deem and Ramdas Pophale) SiO2 
 PCOD9034873
Probable space group: P -1
;
_chemical_formula_sum "Si O2"
_cell_formula_units_Z 14
_cell_length_a 5.361371
_cell_length_b 11.806250
_cell_length_c 12.669509
_cell_angle_alpha 57.821060
_cell_angle_beta 104.763028
_cell_angle_gamma 78.048312
_cell_volume 596.010630
_symmetry_space_group_name_H-M "P -1"
_symmetry_group_IT_number 2
_symmetry_cell_setting 'triclinic'
loop_
_space_group_symop_operation_xyz
x,y,z
-x,-y,-z
loop_
_atom_site_type_symbol
_atom_site_label
_atom_site_fract_x
_atom_site_fract_y
_atom_site_fract_z
Si Si1 0.468805 0.614446 0.845827
Si Si2 0.098279 0.834668 0.553562
Si Si3 0.486563 0.311315 0.495593
Si Si4 0.400646 0.201437 0.062870
Si Si5 0.144829 0.612997 0.356120
Si Si6 0.738142 0.332445 0.885418
Si Si7 0.317047 0.138886 0.700133
O O1 0.158644 0.716497 0.713017
O O2 0.566940 0.729853 0.855091
O O3 0.649219 0.499726 0.832919
O O4 0.500000 0.500000 0.000000
O O5 0.407844 0.769784 0.562589
O O6 0.883835 0.840523 0.434787
O O7 0.000000 0.000000 0.500000
O O8 0.180724 0.448129 0.412615
O O9 0.684602 0.390468 0.516614
O O10 0.552414 0.181250 0.651512
O O11 0.572691 0.026267 0.167353
O O12 0.537300 0.270543 0.955017
O O13 0.069426 0.242690 0.992363
O O14 0.270503 0.661784 0.244187
O O15 0.840525 0.741020 0.287065
#
# Coordination Sequence:
#
# PCOD9034873 Si02
#       7
#     2   2   2   2   2   2   2
#     4  10  22  45  69 100 140 183 234 293 351 425
#     4  11  22  43  68 102 137 175 233 285 361 412
#     4  10  23  42  65  99 134 177 233 291 349 418
#     4  11  26  44  69 104 141 183 236 291 351 421
#     4  10  23  43  67  94 136 179 240 284 349 416
#     4  11  25  45  72 100 138 190 235 286 354 421
#     4  11  25  41  69  99 139 182 230 295 348 417
#
# _framework density 23.489512999999999
#
# number of rings (size 3 to 8) (size 9 to 14) (size 15 to 20)
#    0.000    1.429    2.857    0.857    6.000    4.000 
#    5.143    0.000    0.000    0.000    0.000    0.000 
#    0.000    0.000    0.000    0.000    0.000    0.000 
#
# Total GULP energy -78096.329012 kJ/mol
# GULP energy per Si atom -5578.309215 kJ/mol
# Density = 2.343605 g / cm^3
# Si number density = 23.489513 Si / 1000 Ang^3
#
#
#
# Elastic Constant Matrix: (Units=GPa)
#
#
# Indices 1 2 3 4 5 6 
#
# 1 44.7368 32.2397 18.5388 -4.7325 -2.0128 -4.4006
# 2 32.2397 167.6026 54.9724 -17.9981 -6.0679 -20.3610
# 3 18.5388 54.9724 113.8485 -19.3074 6.1536 -8.7718
# 4 -4.7325 -17.9981 -19.3074 46.5838 3.3131 4.1058
# 5 -2.0128 -6.0679 6.1536 3.3131 38.4102 1.4706
# 6 -4.4006 -20.3610 -8.7718 4.1058 1.4706 21.9721
#
#
#
# Elastic Compliance Matrix: (Units=1/GPa)
#
#
# Indices 1 2 3 4 5 6 
#
# 1 0.026450 -0.004257 -0.002283 -0.000012 0.001066 0.000373
# 2 -0.004257 0.008588 -0.002902 0.001093 0.001288 0.005657
# 3 -0.002283 -0.002902 0.011364 0.003470 -0.002733 0.000925
# 4 -0.000012 0.001093 0.003470 0.023658 -0.002353 -0.001868
# 5 0.001066 0.001288 -0.002733 -0.002353 0.026975 -0.001050
# 6 0.000373 0.005657 0.000925 -0.001868 -0.001050 0.051618
#
#
# Mechanical properties :
#
#
# Convention : Reuss Voigt Hill
#
# Bulk Modulus (GPa) = 36.33826 59.74329 48.04077
# Shear Modulus (GPa) = 28.29511 36.08902 32.19207
#
# Velocity S-wave (km/s) = 3.47448 3.92393 3.70602
# Velocity P-wave (km/s) = 5.62135 6.78372 6.22971
#
# Compressibility (1/GPa) = 0.02751920
#
# Stress axis : x y z
#
# Youngs Moduli (GPa) = 37.80754 116.43599 87.99640
#
# Poissons Ratio (x) = 0.49562 0.20087
# Poissons Ratio (y) = 0.16093 0.25539
# Poissons Ratio (z) = 0.08630 0.33793
#
# Static dielectric constant tensor:
#      x y z
#    x 2.025040 0.004270 0.028490 
#    y 0.004270 1.890180 0.029590 
#    z 0.028490 0.029590 1.967830 
# 
# From -- ./inp_files/66039.got.cif
#   From: 2010.05.17/outbox.cif.g08.bks.cpg/sg2_34_cif.got.tgz:66039.got - 2010.06.03 11:33:40.
