data_PCOD9034078
_publ_section_title
;
Structure prediction by ZEFSAII (Michael W. Deem and Ramdas Pophale) SiO2 
 PCOD9034078
Probable space group: P -1
;
_chemical_formula_sum "Si O2"
_cell_formula_units_Z 14
_cell_length_a 8.797915
_cell_length_b 21.290171
_cell_length_c 5.696289
_cell_angle_alpha 105.600689
_cell_angle_beta 99.292753
_cell_angle_gamma 140.061111
_cell_volume 530.415582
_symmetry_space_group_name_H-M "P -1"
_symmetry_group_IT_number 2
_symmetry_cell_setting 'triclinic'
loop_
_space_group_symop_operation_xyz
x,y,z
-x,-y,-z
loop_
_atom_site_type_symbol
_atom_site_label
_atom_site_fract_x
_atom_site_fract_y
_atom_site_fract_z
Si Si1 0.615616 0.316259 0.624183
Si Si2 0.629752 0.437183 0.455376
Si Si3 0.639511 0.193423 0.779682
Si Si4 0.317251 0.891610 0.658133
Si Si5 0.836668 0.803179 0.241485
Si Si6 0.245404 0.102733 0.968983
Si Si7 0.138595 0.352971 0.398432
O O1 0.779874 0.436830 0.660638
O O2 0.695576 0.288264 0.802440
O O3 0.333799 0.249588 0.607859
O O4 0.505108 0.233203 0.299025
O O5 0.445189 0.424503 0.543855
O O6 0.824936 0.556078 0.464011
O O7 0.389052 0.314980 0.108257
O O8 0.522220 0.104958 0.454659
O O9 0.417205 0.112409 0.863846
O O10 0.955009 0.282187 0.038889
O O11 0.139395 0.875582 0.427937
O O12 0.065398 0.757870 0.583520
O O13 0.500000 0.000000 0.000000
O O14 0.881100 0.890969 0.238936
O O15 0.000000 0.000000 0.000000
#
# Coordination Sequence:
#
# PCOD9034078 Si02
#       7
#     2   2   2   2   2   2   2
#     4  10  22  44  71 103 146 189 244 295 367 430
#     4  10  22  45  75 106 145 198 244 302 359 442
#     4  11  25  47  71 110 147 193 241 306 370 423
#     4  12  27  47  71 110 155 191 243 304 367 440
#     4  10  22  45  74 103 144 197 242 297 369 436
#     4  10  24  47  73 102 145 197 250 298 363 443
#     4  11  24  44  73 110 150 188 250 303 361 432
#
# _framework density 26.394400999999998
#
# number of rings (size 3 to 8) (size 9 to 14) (size 15 to 20)
#    0.000    1.429    2.857    0.857    0.000    8.571 
#    2.571   12.857    0.000    0.000    0.000    0.000 
#    0.000    0.000    0.000    0.000    0.000    0.000 
#
# Total GULP energy -78330.651229 kJ/mol
# GULP energy per Si atom -5595.046516 kJ/mol
# Density = 2.633433 g / cm^3
# Si number density = 26.394401 Si / 1000 Ang^3
#
#
#
# Elastic Constant Matrix: (Units=GPa)
#
#
# Indices 1 2 3 4 5 6 
#
# 1 118.4855 45.6712 22.2269 -5.4324 -9.7900 -21.4873
# 2 45.6712 162.5454 21.2728 3.9294 -12.7399 -33.5723
# 3 22.2269 21.2728 64.6186 -3.1984 -14.5261 -2.4793
# 4 -5.4324 3.9294 -3.1984 28.0489 -8.9825 4.5555
# 5 -9.7900 -12.7399 -14.5261 -8.9825 52.4345 -10.5880
# 6 -21.4873 -33.5723 -2.4793 4.5555 -10.5880 46.1110
#
#
#
# Elastic Compliance Matrix: (Units=1/GPa)
#
#
# Indices 1 2 3 4 5 6 
#
# 1 0.010494 -0.001765 -0.002337 0.002043 0.001987 0.003733
# 2 -0.001765 0.008249 -0.001513 -0.001939 0.002089 0.005773
# 3 -0.002337 -0.001513 0.017972 0.003379 0.004655 -0.000490
# 4 0.002043 -0.001939 0.003379 0.039385 0.007080 -0.002543
# 5 0.001987 0.002089 0.004655 0.007080 0.023967 0.007501
# 6 0.003733 0.005773 -0.000490 -0.002543 0.007501 0.029577
#
#
# Mechanical properties :
#
#
# Convention : Reuss Voigt Hill
#
# Bulk Modulus (GPa) = 39.24102 58.22125 48.73113
# Shear Modulus (GPa) = 33.47374 42.41743 37.94559
#
# Velocity S-wave (km/s) = 3.56506 4.01317 3.79573
# Velocity P-wave (km/s) = 5.64320 6.60152 6.14108
#
# Compressibility (1/GPa) = 0.02548354
#
# Stress axis : x y z
#
# Youngs Moduli (GPa) = 95.29626 121.22411 55.64061
#
# Poissons Ratio (x) = 0.21397 0.13006
# Poissons Ratio (y) = 0.16821 0.08420
# Poissons Ratio (z) = 0.22275 0.18345
#
# Static dielectric constant tensor:
#      x y z
#    x 2.078490 -0.001220 -0.002260 
#    y -0.001220 2.155560 0.001580 
#    z -0.002260 0.001580 2.058670 
# 
# From -- ./inp_files/53296.got.cif
#   From: 2010.05.17/outbox.cif.g08.bks.cpg/sg2_27_cif.got.tgz:53296.got - 2010.06.03 11:33:40.
