data_PCOD9034201
_publ_section_title
;
Structure prediction by ZEFSAII (Michael W. Deem and Ramdas Pophale) SiO2 
 PCOD9034201
Probable space group: P -1
;
_chemical_formula_sum "Si O2"
_cell_formula_units_Z 14
_cell_length_a 7.053486
_cell_length_b 13.188043
_cell_length_c 9.108144
_cell_angle_alpha 85.675934
_cell_angle_beta 107.391614
_cell_angle_gamma 132.236595
_cell_volume 589.086936
_symmetry_space_group_name_H-M "P -1"
_symmetry_group_IT_number 2
_symmetry_cell_setting 'triclinic'
loop_
_space_group_symop_operation_xyz
x,y,z
-x,-y,-z
loop_
_atom_site_type_symbol
_atom_site_label
_atom_site_fract_x
_atom_site_fract_y
_atom_site_fract_z
Si Si1 0.818274 0.715502 0.654858
Si Si2 0.270952 0.855469 0.546953
Si Si3 0.685607 0.416604 0.991062
Si Si4 0.087450 0.841372 0.979525
Si Si5 0.989792 0.651655 0.240655
Si Si6 0.508621 0.855335 0.883115
Si Si7 0.336825 0.566310 0.334715
O O1 0.549049 0.640899 0.508024
O O2 0.839412 0.598689 0.675983
O O3 0.071978 0.850050 0.607974
O O4 0.832388 0.759128 0.819667
O O5 0.056468 0.727770 0.401566
O O6 0.427591 0.833874 0.695792
O O7 0.500000 0.000000 0.500000
O O8 0.536785 0.267274 0.036874
O O9 0.721546 0.508490 0.121582
O O10 0.544753 0.399477 0.807693
O O11 0.000000 0.500000 0.000000
O O12 0.299215 0.855730 0.922366
O O13 0.060703 0.760436 0.122847
O O14 0.207075 0.989976 0.040261
O O15 0.180411 0.617970 0.299447
#
# Coordination Sequence:
#
# PCOD9034201 Si02
#       7
#     2   2   2   2   2   2   2
#     4  10  22  37  59  86 119 149 187 241 296 327
#     4  11  22  36  56  88 119 149 188 238 287 340
#     4  10  17  32  56  86 106 143 197 239 267 331
#     4  10  17  33  58  82 104 154 197 225 271 348
#     4  11  19  35  63  84 110 149 199 235 276 339
#     4  10  19  31  55  81 111 145 191 235 274 327
#     4  10  20  37  60  88 115 145 195 246 278 333
#
# _framework density 23.765592000000002
#
# number of rings (size 3 to 8) (size 9 to 14) (size 15 to 20)
#    0.000    1.714    5.714    2.571    0.000    2.286 
#    0.000    3.571    3.143    1.714    0.000    0.000 
#    0.000    0.000    0.000    0.000    0.000    0.000 
#
# Total GULP energy -78158.567187 kJ/mol
# GULP energy per Si atom -5582.754799 kJ/mol
# Density = 2.371150 g / cm^3
# Si number density = 23.765592 Si / 1000 Ang^3
#
#
#
# Elastic Constant Matrix: (Units=GPa)
#
#
# Indices 1 2 3 4 5 6 
#
# 1 49.3745 16.2731 22.8519 -1.4984 7.4055 -1.6309
# 2 16.2731 168.1502 75.3602 -9.0210 16.9343 -7.2859
# 3 22.8519 75.3602 225.6081 10.5386 10.2552 -12.5756
# 4 -1.4984 -9.0210 10.5386 47.4718 -1.4868 -1.3471
# 5 7.4055 16.9343 10.2552 -1.4868 19.6717 -1.3136
# 6 -1.6309 -7.2859 -12.5756 -1.3471 -1.3136 17.7742
#
#
#
# Elastic Compliance Matrix: (Units=1/GPa)
#
#
# Indices 1 2 3 4 5 6 
#
# 1 0.022339 -0.000631 -0.001770 0.000765 -0.006880 0.000088
# 2 -0.000631 0.007689 -0.002295 0.001830 -0.004963 0.001242
# 3 -0.001770 -0.002295 0.005619 -0.001669 -0.000231 0.002729
# 4 0.000765 0.001830 -0.001669 0.021870 0.000750 0.001352
# 5 -0.006880 -0.004963 -0.000231 0.000750 0.057976 0.001512
# 6 0.000088 0.001242 0.002729 0.001352 0.001512 0.058923
#
#
# Mechanical properties :
#
#
# Convention : Reuss Voigt Hill
#
# Bulk Modulus (GPa) = 38.08898 74.67815 56.38357
# Shear Modulus (GPa) = 25.96624 38.89337 32.42981
#
# Velocity S-wave (km/s) = 3.30903 4.04981 3.69802
# Velocity P-wave (km/s) = 5.53727 7.30472 6.48152
#
# Compressibility (1/GPa) = 0.02625431
#
# Stress axis : x y z
#
# Youngs Moduli (GPa) = 44.76565 130.06385 177.96973
#
# Poissons Ratio (x) = 0.08205 0.31502
# Poissons Ratio (y) = 0.02824 0.40844
# Poissons Ratio (z) = 0.07924 0.29849
#
# Static dielectric constant tensor:
#      x y z
#    x 2.019270 0.049560 0.036480 
#    y 0.049560 1.861690 0.031360 
#    z 0.036480 0.031360 1.942650 
# 
# From -- ./inp_files/181897.got.cif
#   From: 2010.05.17/outbox.cif.g08.bks.cpg/sg2_91_cif.got.tgz:181897.got - 2010.06.03 11:33:40.
