data_PCOD9034020
_publ_section_title
;
Structure prediction by ZEFSAII (Michael W. Deem and Ramdas Pophale) SiO2 
 PCOD9034020
Probable space group: P -1
;
_chemical_formula_sum "Si O2"
_cell_formula_units_Z 16
_cell_length_a 10.063703
_cell_length_b 7.940492
_cell_length_c 11.165760
_cell_angle_alpha 61.532166
_cell_angle_beta 48.602440
_cell_angle_gamma 79.444260
_cell_volume 576.479621
_symmetry_space_group_name_H-M "P -1"
_symmetry_group_IT_number 2
_symmetry_cell_setting 'triclinic'
loop_
_space_group_symop_operation_xyz
x,y,z
-x,-y,-z
loop_
_atom_site_type_symbol
_atom_site_label
_atom_site_fract_x
_atom_site_fract_y
_atom_site_fract_z
Si Si1 0.229889 0.389560 0.068771
Si Si2 0.217429 0.053765 0.335487
Si Si3 0.180465 0.794755 0.223929
Si Si4 0.719781 0.643732 0.210712
Si Si5 0.781041 0.553518 0.556412
Si Si6 0.861175 0.197141 0.025038
Si Si7 0.382015 0.138483 0.584328
Si Si8 0.195353 0.705909 0.608542
O O1 0.010743 0.308666 0.221079
O O2 0.283604 0.281585 0.191659
O O3 0.312328 0.326545 0.918744
O O4 0.240695 0.620427 0.978375
O O5 0.257671 0.954722 0.220798
O O6 0.280692 0.928073 0.446123
O O7 0.000000 0.000000 0.500000
O O8 0.271247 0.606648 0.254650
O O9 0.972981 0.697627 0.416242
O O10 0.172532 0.872553 0.068707
O O11 0.599544 0.742487 0.338743
O O12 0.707788 0.410459 0.315371
O O13 0.928307 0.723332 0.099065
O O14 0.655216 0.698839 0.542133
O O15 0.809568 0.423700 0.466029
O O16 0.791416 0.029887 0.218096
O O17 0.500000 0.000000 0.500000
#
# Coordination Sequence:
#
# PCOD9034020 Si02
#       8
#     2   2   2   2   2   2   2   2
#     4  10  18  30  48  80 113 138 171 223 276 322
#     4   9  18  26  43  76 116 139 160 208 280 324
#     4  10  17  32  56  83 109 135 176 232 272 313
#     4  10  19  34  54  79 109 139 177 226 271 319
#     4   9  18  31  54  81 110 135 177 224 271 311
#     4  11  20  34  55  84 108 140 182 228 274 317
#     4  11  23  38  54  78 110 147 186 222 266 327
#     4   8  14  29  44  74 109 132 164 210 267 318
#
# _framework density 27.754664999999999
#
# number of rings (size 3 to 8) (size 9 to 14) (size 15 to 20)
#    0.000    2.250    3.750    2.625    3.500    0.000 
#    0.000    1.250    0.000    0.000    0.000    8.750 
#    0.000    0.000    0.000    0.000    0.000    0.000 
#
# Total GULP energy -89565.114925 kJ/mol
# GULP energy per Si atom -5597.819683 kJ/mol
# Density = 2.769149 g / cm^3
# Si number density = 27.754665 Si / 1000 Ang^3
#
#
#
# Elastic Constant Matrix: (Units=GPa)
#
#
# Indices 1 2 3 4 5 6 
#
# 1 77.9846 32.2676 33.6267 -0.3205 20.3882 -15.9690
# 2 32.2676 174.5294 43.1841 5.1013 23.1087 -23.2770
# 3 33.6267 43.1841 104.1420 -10.0598 19.4192 -27.5405
# 4 -0.3205 5.1013 -10.0598 44.6133 -7.8329 17.0947
# 5 20.3882 23.1087 19.4192 -7.8329 31.1167 -5.2093
# 6 -15.9690 -23.2770 -27.5405 17.0947 -5.2093 44.6668
#
#
#
# Elastic Compliance Matrix: (Units=1/GPa)
#
#
# Indices 1 2 3 4 5 6 
#
# 1 0.017744 -0.000561 -0.002841 -0.003936 -0.009643 0.004681
# 2 -0.000561 0.007333 -0.001431 -0.003274 -0.004427 0.003475
# 3 -0.002841 -0.001431 0.013558 0.000097 -0.004502 0.006036
# 4 -0.003936 -0.003274 0.000097 0.029633 0.010198 -0.013205
# 5 -0.009643 -0.004427 -0.004502 0.010198 0.045936 -0.007076
# 6 0.004681 0.003475 0.006036 -0.013205 -0.007076 0.033823
#
#
# Mechanical properties :
#
#
# Convention : Reuss Voigt Hill
#
# Bulk Modulus (GPa) = 34.52057 63.86812 49.19434
# Shear Modulus (GPa) = 29.87772 40.58453 35.23113
#
# Velocity S-wave (km/s) = 3.28456 3.82810 3.56670
# Velocity P-wave (km/s) = 5.18162 6.52692 5.89279
#
# Compressibility (1/GPa) = 0.02896824
#
# Stress axis : x y z
#
# Youngs Moduli (GPa) = 56.35790 136.37068 73.75677
#
# Poissons Ratio (x) = 0.07657 0.20951
# Poissons Ratio (y) = 0.03164 0.10556
# Poissons Ratio (z) = 0.16009 0.19518
#
# Static dielectric constant tensor:
#      x y z
#    x 2.164540 -0.009900 -0.044470 
#    y -0.009900 2.208810 -0.023220 
#    z -0.044470 -0.023220 2.141640 
# 
# From -- ./inp_files/419105.got.cif
#   From: 2010.05.17/outbox.cif.g08.bks.cpg/sg2_210_cif.got.tgz:419105.got - 2010.06.03 11:33:40.
