data_PCOD9034370
_publ_section_title
;
Structure prediction by ZEFSAII (Michael W. Deem and Ramdas Pophale) SiO2 
 PCOD9034370
Probable space group: P -1
;
_chemical_formula_sum "Si O2"
_cell_formula_units_Z 16
_cell_length_a 13.398568
_cell_length_b 13.725369
_cell_length_c 8.616594
_cell_angle_alpha 94.187832
_cell_angle_beta 116.892128
_cell_angle_gamma 136.508927
_cell_volume 736.164471
_symmetry_space_group_name_H-M "P -1"
_symmetry_group_IT_number 2
_symmetry_cell_setting 'triclinic'
loop_
_space_group_symop_operation_xyz
x,y,z
-x,-y,-z
loop_
_atom_site_type_symbol
_atom_site_label
_atom_site_fract_x
_atom_site_fract_y
_atom_site_fract_z
Si Si1 0.897754 0.628772 0.812352
Si Si2 0.203610 0.221260 0.185248
Si Si3 0.189055 0.715728 0.197534
Si Si4 0.435209 0.935751 0.701982
Si Si5 0.094927 0.962458 0.524585
Si Si6 0.226447 0.899945 0.828312
Si Si7 0.520143 0.698076 0.377051
Si Si8 0.680428 0.601078 0.022103
O O1 0.856559 0.713835 0.799459
O O2 0.673563 0.406695 0.664053
O O3 0.019445 0.699947 0.745236
O O4 0.069234 0.728898 0.077505
O O5 0.362589 0.293722 0.430464
O O6 0.300069 0.305807 0.091667
O O7 0.000000 0.000000 0.000000
O O8 0.281183 0.781530 0.442037
O O9 0.391376 0.864706 0.239602
O O10 0.000000 0.500000 0.000000
O O11 0.302979 0.894782 0.733999
O O12 0.580148 0.963369 0.895883
O O13 0.171962 0.966645 0.735075
O O14 0.287262 0.104318 0.550942
O O15 0.000000 0.000000 0.500000
O O16 0.900748 0.759002 0.287443
O O17 0.391678 0.551025 0.130111
O O18 0.500000 0.500000 0.000000
#
# Coordination Sequence:
#
# PCOD9034370 Si02
#       8
#     2   2   2   2   2   2   2   2
#     4  10  23  41  64  98 132 174 220 278 327 393
#     4  11  23  42  64  92 135 182 222 263 322 398
#     4  10  22  44  73  99 130 165 228 277 337 401
#     4   9  22  47  69  95 130 178 213 282 337 388
#     4  12  24  40  65  99 133 172 220 267 330 397
#     4  10  23  43  70  94 137 172 220 276 336 393
#     4  11  24  42  60  91 135 174 219 267 324 397
#     4  11  23  38  61  89 127 176 217 271 320 374
#
# _framework density 21.734273000000002
#
# number of rings (size 3 to 8) (size 9 to 14) (size 15 to 20)
#    0.000    1.500    2.500    2.250    7.000    0.000 
#    4.500    9.375    0.000    0.000    0.000    0.000 
#    0.000    0.000    0.000    0.000    0.000    0.000 
#
# Total GULP energy -89373.826741 kJ/mol
# GULP energy per Si atom -5585.864171 kJ/mol
# Density = 2.168480 g / cm^3
# Si number density = 21.734273 Si / 1000 Ang^3
#
#
#
# Elastic Constant Matrix: (Units=GPa)
#
#
# Indices 1 2 3 4 5 6 
#
# 1 82.0569 44.0597 56.8829 -1.8029 17.5230 26.5240
# 2 44.0597 117.5966 62.2447 0.2757 12.8376 36.5704
# 3 56.8829 62.2447 155.0246 -4.4977 8.3498 5.8494
# 4 -1.8029 0.2757 -4.4977 50.2987 0.1567 7.6302
# 5 17.5230 12.8376 8.3498 0.1567 26.8658 1.3864
# 6 26.5240 36.5704 5.8494 7.6302 1.3864 43.5279
#
#
#
# Elastic Compliance Matrix: (Units=1/GPa)
#
#
# Indices 1 2 3 4 5 6 
#
# 1 0.025251 0.001204 -0.008363 0.002511 -0.013672 -0.015280
# 2 0.001204 0.016088 -0.006030 0.001484 -0.005910 -0.013512
# 3 -0.008363 -0.006030 0.011365 -0.000568 0.004364 0.008596
# 4 0.002511 0.001484 -0.000568 0.020874 -0.001967 -0.006297
# 5 -0.013672 -0.005910 0.004364 -0.001967 0.047023 0.011557
# 6 -0.015280 -0.013512 0.008596 -0.006297 0.011557 0.043217
#
#
# Mechanical properties :
#
#
# Convention : Reuss Voigt Hill
#
# Bulk Modulus (GPa) = 37.98594 75.67252 56.82923
# Shear Modulus (GPa) = 25.12935 36.90453 31.01694
#
# Velocity S-wave (km/s) = 3.40400 4.12514 3.78179
# Velocity P-wave (km/s) = 5.74151 7.58826 6.72855
#
# Compressibility (1/GPa) = 0.02632553
#
# Stress axis : x y z
#
# Youngs Moduli (GPa) = 39.60184 62.15855 87.99258
#
# Poissons Ratio (x) = -0.07485 0.73589
# Poissons Ratio (y) = -0.04769 0.53061
# Poissons Ratio (z) = 0.33120 0.37483
#
# Static dielectric constant tensor:
#      x y z
#    x 1.836680 -0.004900 0.024540 
#    y -0.004900 1.841860 0.009650 
#    z 0.024540 0.009650 1.767480 
# 
# From -- ./inp_files/313434.got.cif
#   From: 2010.05.17/outbox.cif.g08.bks.cpg/sg2_157_cif.got.tgz:313434.got - 2010.06.03 11:33:40.
