data_PCOD9034989
_publ_section_title
;
Structure prediction by ZEFSAII (Michael W. Deem and Ramdas Pophale) SiO2 
 PCOD9034989
Probable space group: P -1
;
_chemical_formula_sum "Si O2"
_cell_formula_units_Z 16
_cell_length_a 12.312578
_cell_length_b 14.701574
_cell_length_c 5.727948
_cell_angle_alpha 107.837185
_cell_angle_beta 95.778534
_cell_angle_gamma 130.116595
_cell_volume 688.629277
_symmetry_space_group_name_H-M "P -1"
_symmetry_group_IT_number 2
_symmetry_cell_setting 'triclinic'
loop_
_space_group_symop_operation_xyz
x,y,z
-x,-y,-z
loop_
_atom_site_type_symbol
_atom_site_label
_atom_site_fract_x
_atom_site_fract_y
_atom_site_fract_z
Si Si1 0.617118 0.117573 0.929303
Si Si2 0.875661 0.365977 0.518828
Si Si3 0.364631 0.452787 0.097591
Si Si4 0.366697 0.646291 0.516974
Si Si5 0.403725 0.085870 0.492582
Si Si6 0.138294 0.222780 0.194854
Si Si7 0.879062 0.962662 0.631513
Si Si8 0.150241 0.414745 0.653287
O O1 0.526684 0.138324 0.765377
O O2 0.658975 0.055774 0.719249
O O3 0.757779 0.244142 0.214491
O O4 0.500000 0.000000 0.000000
O O5 0.774766 0.379810 0.651466
O O6 0.000000 0.500000 0.500000
O O7 0.989296 0.361748 0.661210
O O8 0.410931 0.573327 0.355519
O O9 0.286949 0.323761 0.137869
O O10 0.500000 0.500000 0.000000
O O11 0.227115 0.406780 0.872661
O O12 0.511088 0.806477 0.621293
O O13 0.284317 0.566534 0.683530
O O14 0.262862 0.065320 0.523257
O O15 0.177218 0.166629 0.348078
O O16 0.114099 0.312448 0.369013
O O17 0.981176 0.091369 0.929920
O O18 0.000000 0.000000 0.500000
#
# Coordination Sequence:
#
# PCOD9034989 Si02
#       8
#     2   2   2   2   2   2   2   2
#     4  11  24  46  69 101 139 176 224 290 350 406
#     4  10  22  45  69  99 138 177 225 283 346 413
#     4  11  26  42  69 102 141 182 226 286 348 408
#     4  10  24  42  66 105 127 183 229 280 337 419
#     4  11  26  43  71 101 134 181 233 281 349 415
#     4  10  24  45  64 104 132 180 234 280 344 412
#     4  11  25  45  70  98 135 184 233 287 341 409
#     4  10  23  44  68  97 141 182 221 286 350 405
#
# _framework density 23.234563999999999
#
# number of rings (size 3 to 8) (size 9 to 14) (size 15 to 20)
#    0.000    1.500    1.250    1.500    8.750    5.500 
#    4.500    0.000    0.000    0.000    0.000    0.000 
#    0.000    0.000    0.000    0.000    0.000    0.000 
#
# Total GULP energy -89420.308053 kJ/mol
# GULP energy per Si atom -5588.769253 kJ/mol
# Density = 2.318168 g / cm^3
# Si number density = 23.234564 Si / 1000 Ang^3
#
#
#
# Elastic Constant Matrix: (Units=GPa)
#
#
# Indices 1 2 3 4 5 6 
#
# 1 155.6761 54.4608 9.6503 -10.5610 12.6932 4.9645
# 2 54.4608 142.1354 35.2913 -0.6290 2.5717 -2.9200
# 3 9.6503 35.2913 40.3218 1.3551 18.3937 -7.2388
# 4 -10.5610 -0.6290 1.3551 36.5448 0.7813 0.6842
# 5 12.6932 2.5717 18.3937 0.7813 28.9156 -3.8234
# 6 4.9645 -2.9200 -7.2388 0.6842 -3.8234 27.8971
#
#
#
# Elastic Compliance Matrix: (Units=1/GPa)
#
#
# Indices 1 2 3 4 5 6 
#
# 1 0.008324 -0.004095 0.003989 0.002351 -0.006125 -0.001772
# 2 -0.004095 0.011830 -0.013712 -0.000668 0.009449 -0.000280
# 3 0.003989 -0.013712 0.052011 -0.000442 -0.032695 0.006881
# 4 0.002351 -0.000668 -0.000442 0.028112 -0.001652 -0.001519
# 5 -0.006125 0.009449 -0.032695 -0.001652 0.057475 0.001513
# 6 -0.001772 -0.000280 0.006881 -0.001519 0.001513 0.038162
#
#
# Mechanical properties :
#
#
# Convention : Reuss Voigt Hill
#
# Bulk Modulus (GPa) = 22.45684 59.65981 41.05832
# Shear Modulus (GPa) = 20.97378 34.58687 27.78032
#
# Velocity S-wave (km/s) = 3.00775 3.86242 3.46156
# Velocity P-wave (km/s) = 4.66351 6.75455 5.80398
#
# Compressibility (1/GPa) = 0.04452987
#
# Stress axis : x y z
#
# Youngs Moduli (GPa) = 120.12837 84.53431 19.22652
#
# Poissons Ratio (x) = 0.34619 -0.07670
# Poissons Ratio (y) = 0.49195 0.26363
# Poissons Ratio (z) = -0.47920 1.15910
#
# Static dielectric constant tensor:
#      x y z
#    x 1.911610 -0.029340 -0.010000 
#    y -0.029340 1.873650 0.014780 
#    z -0.010000 0.014780 1.910190 
# 
# From -- ./inp_files/78407.got.cif
#   From: 2010.05.17/outbox.cif.g08.bks.cpg/sg2_40_cif.got.tgz:78407.got - 2010.06.03 11:33:40.
