data_PCOD9034661
_publ_section_title
;
Structure prediction by ZEFSAII (Michael W. Deem and Ramdas Pophale) SiO2 
 PCOD9034661
Probable space group: P -1
;
_chemical_formula_sum "Si O2"
_cell_formula_units_Z 16
_cell_length_a 5.430500
_cell_length_b 9.626549
_cell_length_c 13.892519
_cell_angle_alpha 89.431766
_cell_angle_beta 70.377795
_cell_angle_gamma 73.804030
_cell_volume 654.112268
_symmetry_space_group_name_H-M "P -1"
_symmetry_group_IT_number 2
_symmetry_cell_setting 'triclinic'
loop_
_space_group_symop_operation_xyz
x,y,z
-x,-y,-z
loop_
_atom_site_type_symbol
_atom_site_label
_atom_site_fract_x
_atom_site_fract_y
_atom_site_fract_z
Si Si1 0.400827 0.883253 0.955028
Si Si2 0.050198 0.311909 0.126842
Si Si3 0.809610 0.457524 0.656437
Si Si4 0.616634 0.997870 0.592005
Si Si5 0.075615 0.168595 0.914115
Si Si6 0.804696 0.241816 0.500337
Si Si7 0.413334 0.757019 0.682977
Si Si8 0.753675 0.615428 0.234600
O O1 0.644922 0.764104 0.874020
O O2 0.200085 0.994519 0.908000
O O3 0.247059 0.809919 0.052575
O O4 0.500000 0.000000 0.000000
O O5 0.952926 0.484321 0.146076
O O6 0.829263 0.261126 0.218085
O O7 0.074043 0.251203 0.015687
O O8 0.853173 0.377368 0.548307
O O9 0.693508 0.631412 0.668759
O O10 0.084871 0.407247 0.684034
O O11 0.543445 0.411140 0.730082
O O12 0.439444 0.919518 0.678605
O O13 0.914876 0.882229 0.557360
O O14 0.500000 0.000000 0.500000
O O15 0.648064 0.158716 0.594500
O O16 0.224356 0.236924 0.815895
O O17 0.653170 0.277876 0.418624
#
# Coordination Sequence:
#
# PCOD9034661 Si02
#       8
#     2   2   2   2   2   2   2   2
#     4   9  21  41  66  96 134 169 235 270 347 406
#     4  10  23  42  68 100 132 176 228 280 340 412
#     4  11  27  45  68 103 138 179 234 279 340 406
#     4   9  21  41  66  96 134 169 235 270 347 406
#     4  10  22  45  66  97 135 180 221 286 340 406
#     4  10  22  45  66  97 135 180 221 286 340 406
#     4  10  23  42  68 100 132 176 228 280 340 412
#     4  11  27  45  68 103 138 179 234 279 340 406
#
# _framework density 24.460632
#
# number of rings (size 3 to 8) (size 9 to 14) (size 15 to 20)
#    0.000    2.000    0.000    0.750   14.000    1.000 
#   13.500    0.000    0.000    0.000    0.000    0.000 
#    0.000    0.000    0.000    0.000    0.000    0.000 
#
# Total GULP energy -89399.578098 kJ/mol
# GULP energy per Si atom -5587.473631 kJ/mol
# Density = 2.440496 g / cm^3
# Si number density = 24.460632 Si / 1000 Ang^3
#
#
#
# Elastic Constant Matrix: (Units=GPa)
#
#
# Indices 1 2 3 4 5 6 
#
# 1 60.3395 -0.9452 4.6855 -15.2455 -12.2321 6.6508
# 2 -0.9452 64.4478 0.1054 -15.5926 -0.7746 13.8142
# 3 4.6855 0.1054 81.7403 -13.3329 -1.8561 8.0758
# 4 -15.2455 -15.5926 -13.3329 47.4411 13.6997 -0.5420
# 5 -12.2321 -0.7746 -1.8561 13.6997 38.7531 6.2080
# 6 6.6508 13.8142 8.0758 -0.5420 6.2080 37.4423
#
#
#
# Elastic Compliance Matrix: (Units=1/GPa)
#
#
# Indices 1 2 3 4 5 6 
#
# 1 0.019706 0.002946 0.000484 0.005905 0.005087 -0.005450
# 2 0.002946 0.019090 0.001830 0.007661 -0.000053 -0.007842
# 3 0.000484 0.001830 0.013283 0.004508 -0.000203 -0.003527
# 4 0.005905 0.007661 0.004508 0.028881 -0.007465 -0.003192
# 5 0.005087 -0.000053 -0.000203 -0.007465 0.031014 -0.006090
# 6 -0.005450 -0.007842 -0.003527 -0.003192 -0.006090 0.032293
#
#
# Mechanical properties :
#
#
# Convention : Reuss Voigt Hill
#
# Bulk Modulus (GPa) = 15.97482 23.80210 19.88846
# Shear Modulus (GPa) = 32.33865 38.23943 35.28904
#
# Velocity S-wave (km/s) = 3.63997 3.95815 3.80239
# Velocity P-wave (km/s) = 4.92045 5.53545 5.23699
#
# Compressibility (1/GPa) = 0.06259850
#
# Stress axis : x y z
#
# Youngs Moduli (GPa) = 50.74710 52.38234 75.28423
#
# Poissons Ratio (x) = -0.15433 -0.03643
# Poissons Ratio (y) = -0.14951 -0.13775
# Poissons Ratio (z) = -0.02455 -0.09584
#
# Static dielectric constant tensor:
#      x y z
#    x 2.163520 -0.064750 0.015430 
#    y -0.064750 1.938740 -0.037260 
#    z 0.015430 -0.037260 1.973760 
# 
# From -- ./inp_files/111692.got.cif
#   From: 2010.05.17/outbox.cif.g08.bks.cpg/sg2_56_cif.got.tgz:111692.got - 2010.06.03 11:33:40.
