data_PCOD9034561
_publ_section_title
;
Structure prediction by ZEFSAII (Michael W. Deem and Ramdas Pophale) SiO2 
 PCOD9034561
Probable space group: P -1
;
_chemical_formula_sum "Si O2"
_cell_formula_units_Z 14
_cell_length_a 23.779497
_cell_length_b 7.108267
_cell_length_c 24.833684
_cell_angle_alpha 118.973971
_cell_angle_beta 11.606800
_cell_angle_gamma 116.781653
_cell_volume 731.990307
_symmetry_space_group_name_H-M "P -1"
_symmetry_group_IT_number 2
_symmetry_cell_setting 'triclinic'
loop_
_space_group_symop_operation_xyz
x,y,z
-x,-y,-z
loop_
_atom_site_type_symbol
_atom_site_label
_atom_site_fract_x
_atom_site_fract_y
_atom_site_fract_z
Si Si1 0.705574 0.430901 0.748168
Si Si2 0.414689 0.675782 0.953928
Si Si3 0.517084 0.376688 0.235859
Si Si4 0.898458 0.490271 0.260412
Si Si5 0.981676 0.012935 0.954020
Si Si6 0.217294 0.070520 0.414507
Si Si7 0.605439 0.707505 0.458846
O O1 0.532790 0.541029 0.875037
O O2 0.000000 0.500000 0.500000
O O3 0.785540 0.181020 0.621885
O O4 0.500000 0.500000 0.000000
O O5 0.589675 0.856481 0.707547
O O6 0.612123 0.864364 0.788485
O O7 0.089108 0.784332 0.275631
O O8 0.299387 0.490667 0.498845
O O9 0.522225 0.456665 0.179866
O O10 0.825221 0.396655 0.971228
O O11 0.752792 0.613464 0.362265
O O12 0.966423 0.234744 0.148746
O O13 0.195617 0.165999 0.748560
O O14 0.669709 0.123490 0.246998
O O15 0.000000 0.000000 0.000000
O O16 0.500000 0.500000 0.500000
#
# Coordination Sequence:
#
# PCOD9034561 Si02
#       7
#     2   2   2   2   2   2   2
#     4  12  26  40  68 103 128 171 220 262 328 399
#     4  10  22  45  64  92 133 170 214 271 329 364
#     4  10  22  46  66  91 130 183 210 280 322 385
#     4  12  24  44  68  94 136 166 236 264 326 416
#     4  12  26  44  68 100 132 176 216 279 344 390
#     4  10  22  45  64  92 133 170 214 271 329 364
#     4  12  26  44  68 100 132 176 216 279 344 390
#
# _framework density 19.125937
#
# number of rings (size 3 to 8) (size 9 to 14) (size 15 to 20)
#    0.857    0.000    2.857    4.286    2.000    3.429 
#    7.714    0.000    0.000    0.000    0.000    0.000 
#    0.000    0.000    0.000    0.000    0.000    0.000 
#
# Total GULP energy -78035.295797 kJ/mol
# GULP energy per Si atom -5573.949700 kJ/mol
# Density = 1.908241 g / cm^3
# Si number density = 19.125937 Si / 1000 Ang^3
#
#
#
# Elastic Constant Matrix: (Units=GPa)
#
#
# Indices 1 2 3 4 5 6 
#
# 1 173.8152 92.5006 82.3934 8.6785 -11.9153 7.4820
# 2 92.5006 121.5826 63.1965 4.2418 -22.5176 -5.6912
# 3 82.3934 63.1965 176.8652 -5.8145 -20.3658 -2.0929
# 4 8.6785 4.2418 -5.8145 26.9684 -1.1210 -1.7756
# 5 -11.9153 -22.5176 -20.3658 -1.1210 14.7098 0.0418
# 6 7.4820 -5.6912 -2.0929 -1.7756 0.0418 19.3259
#
#
#
# Elastic Compliance Matrix: (Units=1/GPa)
#
#
# Indices 1 2 3 4 5 6 
#
# 1 0.012675 -0.009824 -0.003836 -0.004358 -0.010389 -0.008593
# 2 -0.009824 0.020381 0.000181 0.001628 0.023588 0.009923
# 3 -0.003836 0.000181 0.008606 0.003633 0.009354 0.002784
# 4 -0.004358 0.001628 0.003633 0.039709 0.007002 0.006194
# 5 -0.010389 0.023588 0.009354 0.007002 0.109124 0.012389
# 6 -0.008593 0.009923 0.002784 0.006194 0.012389 0.058837
#
#
# Mechanical properties :
#
#
# Convention : Reuss Voigt Hill
#
# Bulk Modulus (GPa) = 68.00498 105.38266 86.69382
# Shear Modulus (GPa) = 17.78163 27.81231 22.79697
#
# Velocity S-wave (km/s) = 3.05243 3.81749 3.45619
# Velocity P-wave (km/s) = 6.93229 8.64002 7.83284
#
# Compressibility (1/GPa) = 0.01470481
#
# Stress axis : x y z
#
# Youngs Moduli (GPa) = 78.89757 49.06568 116.20212
#
# Poissons Ratio (x) = 0.48200 0.44572
# Poissons Ratio (y) = 0.77505 -0.02104
# Poissons Ratio (z) = 0.30263 -0.00888
#
# Static dielectric constant tensor:
#      x y z
#    x 1.700400 -0.061760 0.003120 
#    y -0.061760 1.764880 -0.021490 
#    z 0.003120 -0.021490 1.674390 
# 
# From -- ./inp_files/613883.got.cif
#   From: 2010.05.17/outbox.cif.g08.bks.cpg/sg2_307_cif.got.tgz:613883.got - 2010.06.03 11:33:40.
