data_PCOD9034688
_publ_section_title
;
Structure prediction by ZEFSAII (Michael W. Deem and Ramdas Pophale) SiO2 
 PCOD9034688
Probable space group: P -1
;
_chemical_formula_sum "Si O2"
_cell_formula_units_Z 14
_cell_length_a 10.692969
_cell_length_b 12.697967
_cell_length_c 9.180300
_cell_angle_alpha 121.818981
_cell_angle_beta 41.269973
_cell_angle_gamma 134.358500
_cell_volume 587.848817
_symmetry_space_group_name_H-M "P -1"
_symmetry_group_IT_number 2
_symmetry_cell_setting 'triclinic'
loop_
_space_group_symop_operation_xyz
x,y,z
-x,-y,-z
loop_
_atom_site_type_symbol
_atom_site_label
_atom_site_fract_x
_atom_site_fract_y
_atom_site_fract_z
Si Si1 0.220164 0.134216 0.696187
Si Si2 0.408690 0.347273 0.049396
Si Si3 0.541614 0.146269 0.665746
Si Si4 0.559160 0.479461 0.594074
Si Si5 0.478953 0.065036 0.219043
Si Si6 0.025378 0.780831 0.846602
Si Si7 0.111109 0.599053 0.833503
O O1 0.336027 0.094862 0.694433
O O2 0.375572 0.312338 0.679760
O O3 0.258600 0.068908 0.466876
O O4 0.988960 0.111757 0.942786
O O5 0.416085 0.387767 0.238893
O O6 0.156121 0.243466 0.133487
O O7 0.500000 0.500000 0.000000
O O8 0.558478 0.283612 0.830617
O O9 0.754751 0.187413 0.409458
O O10 0.507136 0.034284 0.740426
O O11 0.500000 0.500000 0.500000
O O12 0.787591 0.480503 0.401303
O O13 0.683524 0.236240 0.179374
O O14 0.500000 0.000000 0.000000
O O15 0.961713 0.634540 0.888525
O O16 0.000000 0.500000 0.000000
#
# Coordination Sequence:
#
# PCOD9034688 Si02
#       7
#     2   2   2   2   2   2   2
#     4  10  22  45  67 102 137 192 231 295 361 417
#     4  11  23  41  66 106 139 187 238 294 353 416
#     4  11  23  44  71  99 142 185 239 299 353 427
#     4  11  22  41  66  97 148 187 230 290 355 420
#     4  11  26  46  71 105 149 187 234 304 366 421
#     4  11  22  43  73 106 136 183 252 291 350 435
#     4  11  25  45  72 105 142 194 239 295 363 425
#
# _framework density 23.815646999999998
#
# number of rings (size 3 to 8) (size 9 to 14) (size 15 to 20)
#    0.000    1.143    5.714    1.286    4.000    4.000 
#    2.571    0.714    0.000    0.000    0.000    0.000 
#    0.000    0.000    0.000    0.000    0.000    0.000 
#
# Total GULP energy -78214.712578 kJ/mol
# GULP energy per Si atom -5586.765184 kJ/mol
# Density = 2.376144 g / cm^3
# Si number density = 23.815647 Si / 1000 Ang^3
#
#
#
# Elastic Constant Matrix: (Units=GPa)
#
#
# Indices 1 2 3 4 5 6 
#
# 1 75.4641 19.1113 66.7339 8.1095 6.8747 -21.6167
# 2 19.1113 111.0046 68.8593 15.6651 3.9462 -32.5167
# 3 66.7339 68.8593 253.1303 44.4915 -6.2466 -9.4740
# 4 8.1095 15.6651 44.4915 60.0730 0.1011 11.2439
# 5 6.8747 3.9462 -6.2466 0.1011 54.2178 2.7659
# 6 -21.6167 -32.5167 -9.4740 11.2439 2.7659 40.5195
#
#
#
# Elastic Compliance Matrix: (Units=1/GPa)
#
#
# Indices 1 2 3 4 5 6 
#
# 1 0.023098 0.005419 -0.006611 -0.002658 -0.004906 0.016198
# 2 0.005419 0.016581 -0.004551 -0.004803 -0.003261 0.016688
# 3 -0.006611 -0.004551 0.007209 -0.002328 0.002260 -0.005002
# 4 -0.002658 -0.004803 -0.002328 0.022236 0.000992 -0.012055
# 5 -0.004906 -0.003261 0.002260 0.000992 0.019885 -0.006338
# 6 0.016198 0.016688 -0.005002 -0.012055 -0.006338 0.049321
#
#
# Mechanical properties :
#
#
# Convention : Reuss Voigt Hill
#
# Bulk Modulus (GPa) = 28.24749 83.22312 55.73530
# Shear Modulus (GPa) = 30.93735 49.95503 40.44619
#
# Velocity S-wave (km/s) = 3.60812 4.58489 4.12552
# Velocity P-wave (km/s) = 5.40784 7.94034 6.79314
#
# Compressibility (1/GPa) = 0.03540137
#
# Stress axis : x y z
#
# Youngs Moduli (GPa) = 43.29451 60.31054 138.71438
#
# Poissons Ratio (x) = -0.32680 0.91704
# Poissons Ratio (y) = -0.23460 0.63125
# Poissons Ratio (z) = 0.28622 0.27446
#
# Static dielectric constant tensor:
#      x y z
#    x 1.935380 0.058050 -0.022260 
#    y 0.058050 2.045310 -0.091930 
#    z -0.022260 -0.091930 2.062470 
# 
# From -- ./inp_files/262865.got.cif
#   From: 2010.05.17/outbox.cif.g08.bks.cpg/sg2_132_cif.got.tgz:262865.got - 2010.06.03 11:33:40.
