data_PCOD9034878
_publ_section_title
;
Structure prediction by ZEFSAII (Michael W. Deem and Ramdas Pophale) SiO2 
 PCOD9034878
Probable space group: P -1
;
_chemical_formula_sum "Si O2"
_cell_formula_units_Z 16
_cell_length_a 9.600377
_cell_length_b 10.966849
_cell_length_c 11.914297
_cell_angle_alpha 63.958470
_cell_angle_beta 93.562954
_cell_angle_gamma 139.735417
_cell_volume 643.013438
_symmetry_space_group_name_H-M "P -1"
_symmetry_group_IT_number 2
_symmetry_cell_setting 'triclinic'
loop_
_space_group_symop_operation_xyz
x,y,z
-x,-y,-z
loop_
_atom_site_type_symbol
_atom_site_label
_atom_site_fract_x
_atom_site_fract_y
_atom_site_fract_z
Si Si1 0.996894 0.884081 0.764306
Si Si2 0.208051 0.490403 0.713373
Si Si3 0.696332 0.132560 0.190232
Si Si4 0.143622 0.302645 0.547207
Si Si5 0.349328 0.538640 0.246911
Si Si6 0.243895 0.267047 0.950945
Si Si7 0.779188 0.244664 0.529314
Si Si8 0.841603 0.344312 0.881887
O O1 0.872987 0.718135 0.717840
O O2 0.205376 0.943098 0.785084
O O3 0.809310 0.751548 0.913080
O O4 0.082810 0.099174 0.645372
O O5 0.207982 0.413647 0.626818
O O6 0.316736 0.471275 0.816442
O O7 0.293430 0.711536 0.594595
O O8 0.939793 0.301012 0.828790
O O9 0.914306 0.393155 0.155439
O O10 0.451143 0.949550 0.322449
O O11 0.676580 0.173436 0.047221
O O12 0.360415 0.494087 0.391429
O O13 0.908106 0.202317 0.530814
O O14 0.558175 0.677293 0.111688
O O15 0.282588 0.642208 0.205225
O O16 0.000000 0.000000 0.000000
O O17 0.000000 0.500000 0.500000
#
# Coordination Sequence:
#
# PCOD9034878 Si02
#       8
#     2   2   2   2   2   2   2   2
#     4  11  24  46  69 102 133 175 231 277 344 397
#     4  11  23  45  65  98 139 173 230 275 335 410
#     4  10  23  42  72  98 138 178 225 286 337 404
#     4  11  24  45  66  99 139 176 224 272 343 407
#     4  11  26  44  70  98 137 178 224 282 335 407
#     4  12  26  45  68 101 135 182 224 280 340 398
#     4  10  24  43  65  99 136 183 223 275 338 405
#     4  10  22  45  69 101 132 178 233 280 342 397
#
# _framework density 24.882839000000001
#
# number of rings (size 3 to 8) (size 9 to 14) (size 15 to 20)
#    0.000    1.250    3.750    0.750    3.500    4.000 
#    0.000    3.125    0.000    0.000    0.000    0.000 
#    0.000    0.000    0.000    0.000    0.000    0.000 
#
# Total GULP energy -89559.956480 kJ/mol
# GULP energy per Si atom -5597.497280 kJ/mol
# Density = 2.482621 g / cm^3
# Si number density = 24.882839 Si / 1000 Ang^3
#
#
#
# Elastic Constant Matrix: (Units=GPa)
#
#
# Indices 1 2 3 4 5 6 
#
# 1 84.5940 15.6611 7.4493 -3.9946 -7.9556 -10.6942
# 2 15.6611 55.4048 49.3748 1.3249 -3.2399 -12.5196
# 3 7.4493 49.3748 153.1368 1.0202 -10.4296 -4.7742
# 4 -3.9946 1.3249 1.0202 33.1951 -6.7282 -7.3796
# 5 -7.9556 -3.2399 -10.4296 -6.7282 57.8060 -2.5827
# 6 -10.6942 -12.5196 -4.7742 -7.3796 -2.5827 25.8217
#
#
#
# Elastic Compliance Matrix: (Units=1/GPa)
#
#
# Indices 1 2 3 4 5 6 
#
# 1 0.013407 -0.003097 0.000657 0.003407 0.002427 0.005389
# 2 -0.003097 0.029624 -0.009020 0.001417 0.000301 0.011848
# 3 0.000657 -0.009020 0.009416 -0.000120 0.001168 -0.002278
# 4 0.003407 0.001417 -0.000120 0.034260 0.005067 0.012374
# 5 0.002427 0.000301 0.001168 0.005067 0.018660 0.004682
# 6 0.005389 0.011848 -0.002278 0.012374 0.004682 0.050287
#
#
# Mechanical properties :
#
#
# Convention : Reuss Voigt Hill
#
# Bulk Modulus (GPa) = 33.86835 48.67845 41.27340
# Shear Modulus (GPa) = 26.53699 38.07458 32.30578
#
# Velocity S-wave (km/s) = 3.26924 3.91596 3.60712
# Velocity P-wave (km/s) = 5.28122 6.32866 5.82851
#
# Compressibility (1/GPa) = 0.02952609
#
# Stress axis : x y z
#
# Youngs Moduli (GPa) = 74.58739 33.75649 106.20404
#
# Poissons Ratio (x) = 0.10455 -0.06978
# Poissons Ratio (y) = 0.23100 0.95800
# Poissons Ratio (z) = -0.04900 0.30450
#
# Static dielectric constant tensor:
#      x y z
#    x 1.969870 0.042080 0.022760 
#    y 0.042080 2.037420 -0.001310 
#    z 0.022760 -0.001310 1.943870 
# 
# From -- ./inp_files/392361.got.cif
#   From: 2010.05.17/outbox.cif.g08.bks.cpg/sg2_197_cif.got.tgz:392361.got - 2010.06.03 11:33:40.
