data_PCOD9034104
_publ_section_title
;
Structure prediction by ZEFSAII (Michael W. Deem and Ramdas Pophale) SiO2 
 PCOD9034104
Probable space group: P -1
;
_chemical_formula_sum "Si O2"
_cell_formula_units_Z 12
_cell_length_a 9.037592
_cell_length_b 9.717329
_cell_length_c 10.288972
_cell_angle_alpha 137.484326
_cell_angle_beta 59.874813
_cell_angle_gamma 112.056995
_cell_volume 528.136445
_symmetry_space_group_name_H-M "P -1"
_symmetry_group_IT_number 2
_symmetry_cell_setting 'triclinic'
loop_
_space_group_symop_operation_xyz
x,y,z
-x,-y,-z
loop_
_atom_site_type_symbol
_atom_site_label
_atom_site_fract_x
_atom_site_fract_y
_atom_site_fract_z
Si Si1 0.492975 0.351569 0.774703
Si Si2 0.113192 0.839127 0.914186
Si Si3 0.873592 0.549317 0.974490
Si Si4 0.220246 0.888942 0.406997
Si Si5 0.351118 0.517133 0.470115
Si Si6 0.842449 0.900480 0.681940
O O1 0.290777 0.321213 0.820070
O O2 0.608756 0.157666 0.621576
O O3 0.570421 0.467280 0.696929
O O4 0.500000 0.500000 0.000000
O O5 0.250029 0.724324 0.686763
O O6 0.980442 0.669449 0.904538
O O7 0.201349 0.945275 0.074689
O O8 0.000000 0.000000 0.000000
O O9 0.818317 0.330263 0.794198
O O10 0.000000 0.500000 0.000000
O O11 0.048054 0.926143 0.591282
O O12 0.233931 0.041264 0.384852
O O13 0.500000 0.500000 0.500000
O O14 0.223835 0.323468 0.406826
#
# Coordination Sequence:
#
# PCOD9034104 Si02
#       6
#     2   2   2   2   2   2
#     4  10  25  43  74 105 145 195 238 302 365 431
#     4  12  27  44  74 109 141 192 249 302 364 437
#     4  11  21  45  72 101 145 187 242 295 364 435
#     4  10  22  44  71 108 141 195 239 297 368 433
#     4  12  28  49  73 109 150 192 244 310 367 432
#     4  11  25  44  77 103 148 196 246 299 370 441
#
# _framework density 22.721402000000001
#
# number of rings (size 3 to 8) (size 9 to 14) (size 15 to 20)
#    0.000    1.000    3.333    2.000    7.000    3.333 
#    0.000    2.500    0.000    0.000    0.000    0.000 
#    0.000    0.000    0.000    0.000    0.000    0.000 
#
# Total GULP energy -67177.493854 kJ/mol
# GULP energy per Si atom -5598.124488 kJ/mol
# Density = 2.266969 g / cm^3
# Si number density = 22.721402 Si / 1000 Ang^3
#
#
#
# Elastic Constant Matrix: (Units=GPa)
#
#
# Indices 1 2 3 4 5 6 
#
# 1 119.8076 47.3712 25.2331 -7.1853 -12.1510 -15.5189
# 2 47.3712 68.4543 51.0190 -29.7916 -4.7851 -22.4771
# 3 25.2331 51.0190 107.6263 -17.9282 1.0259 4.5123
# 4 -7.1853 -29.7916 -17.9282 38.1674 0.3476 1.7814
# 5 -12.1510 -4.7851 1.0259 0.3476 37.8459 9.2217
# 6 -15.5189 -22.4771 4.5123 1.7814 9.2217 31.3029
#
#
#
# Elastic Compliance Matrix: (Units=1/GPa)
#
#
# Indices 1 2 3 4 5 6 
#
# 1 0.014370 -0.022278 0.005652 -0.011588 0.004255 -0.010281
# 2 -0.022278 0.105677 -0.038190 0.057174 -0.010373 0.070144
# 3 0.005652 -0.038190 0.024571 -0.015916 0.003348 -0.028243
# 4 -0.011588 0.057174 -0.015916 0.059548 -0.005326 0.035783
# 5 0.004255 -0.010373 0.003348 -0.005326 0.029929 -0.014335
# 6 -0.010281 0.070144 -0.028243 0.035783 -0.014335 0.083473
#
#
# Mechanical properties :
#
#
# Convention : Reuss Voigt Hill
#
# Bulk Modulus (GPa) = 28.58333 60.34832 44.46582
# Shear Modulus (GPa) = 11.39314 32.94757 22.17036
#
# Velocity S-wave (km/s) = 2.24169 3.81211 3.12708
# Velocity P-wave (km/s) = 4.39402 6.78189 5.71408
#
# Compressibility (1/GPa) = 0.03498543
#
# Stress axis : x y z
#
# Youngs Moduli (GPa) = 69.59064 9.46284 40.69900
#
# Poissons Ratio (x) = 0.21081 -0.23002
# Poissons Ratio (y) = 1.55033 1.55428
# Poissons Ratio (z) = -0.39331 0.36138
#
# Static dielectric constant tensor:
#      x y z
#    x 1.876740 0.025150 -0.015070 
#    y 0.025150 1.744500 0.045200 
#    z -0.015070 0.045200 1.864460 
# 
# From -- ./inp_files/160287.got.cif
#   From: 2010.05.17/outbox.cif.g08.bks.cpg/sg2_81_cif.got.tgz:160287.got - 2010.06.03 11:33:40.
