data_PCOD9034365
_publ_section_title
;
Structure prediction by ZEFSAII (Michael W. Deem and Ramdas Pophale) SiO2 
 PCOD9034365
Probable space group: P -1
;
_chemical_formula_sum "Si O2"
_cell_formula_units_Z 16
_cell_length_a 17.055260
_cell_length_b 8.247994
_cell_length_c 5.100182
_cell_angle_alpha 100.706089
_cell_angle_beta 114.253379
_cell_angle_gamma 59.374142
_cell_volume 562.632270
_symmetry_space_group_name_H-M "P -1"
_symmetry_group_IT_number 2
_symmetry_cell_setting 'triclinic'
loop_
_space_group_symop_operation_xyz
x,y,z
-x,-y,-z
loop_
_atom_site_type_symbol
_atom_site_label
_atom_site_fract_x
_atom_site_fract_y
_atom_site_fract_z
Si Si1 0.598564 0.359156 0.884844
Si Si2 0.863828 0.433964 0.229633
Si Si3 0.464959 0.274725 0.385054
Si Si4 0.037155 0.068564 0.326915
Si Si5 0.770345 0.848675 0.982984
Si Si6 0.304298 0.463846 0.610797
Si Si7 0.640772 0.918084 0.302682
Si Si8 0.798317 0.135864 0.843847
O O1 0.524602 0.276794 0.731413
O O2 0.532447 0.573323 0.760921
O O3 0.681618 0.240156 0.747655
O O4 0.661383 0.385573 0.210910
O O5 0.980655 0.294926 0.338801
O O6 0.809951 0.461660 0.448593
O O7 0.831291 0.634926 0.110247
O O8 0.824551 0.301351 0.996432
O O9 0.354545 0.370232 0.376659
O O10 0.534013 0.069449 0.301544
O O11 0.000000 0.000000 0.500000
O O12 0.151945 0.960521 0.388323
O O13 0.000000 0.000000 0.000000
O O14 0.716496 0.865167 0.635386
O O15 0.831751 0.956934 0.032064
O O16 0.687720 0.959553 0.125252
O O17 0.354940 0.280358 0.814783
#
# Coordination Sequence:
#
# PCOD9034365 Si02
#       8
#     2   2   2   2   2   2   2   2
#     4  10  23  40  60 101 131 186 236 287 346 419
#     4   9  23  44  70 104 139 181 233 289 343 425
#     4  11  23  38  64  96 135 183 242 287 341 423
#     4  10  23  42  72 109 136 176 233 283 343 426
#     4  11  25  46  69 104 140 187 234 289 346 418
#     4  10  23  39  65  91 137 187 226 286 355 400
#     4  11  26  43  67  98 144 182 240 293 339 417
#     4  10  22  44  73  97 142 186 226 289 360 404
#
# _framework density 28.437757000000001
#
# number of rings (size 3 to 8) (size 9 to 14) (size 15 to 20)
#    0.000    1.750    1.250    0.750    8.750   10.000 
#    0.000    0.000    0.000    9.750    0.000    0.000 
#    0.000    0.000    0.000    0.000    0.000    0.000 
#
# Total GULP energy -89464.532058 kJ/mol
# GULP energy per Si atom -5591.533254 kJ/mol
# Density = 2.837303 g / cm^3
# Si number density = 28.437757 Si / 1000 Ang^3
#
#
#
# Elastic Constant Matrix: (Units=GPa)
#
#
# Indices 1 2 3 4 5 6 
#
# 1 113.2917 54.2863 39.9757 18.7028 -26.8484 -12.9197
# 2 54.2863 206.9138 41.0709 4.1964 -21.2341 -17.9432
# 3 39.9757 41.0709 152.9991 18.7805 -39.3423 -6.3292
# 4 18.7028 4.1964 18.7805 48.2147 -7.8398 -14.2896
# 5 -26.8484 -21.2341 -39.3423 -7.8398 52.1908 11.1037
# 6 -12.9197 -17.9432 -6.3292 -14.2896 11.1037 72.6208
#
#
#
# Elastic Compliance Matrix: (Units=1/GPa)
#
#
# Indices 1 2 3 4 5 6 
#
# 1 0.011817 -0.002421 -0.001058 -0.003293 0.003761 0.000189
# 2 -0.002421 0.005758 -0.000923 0.001177 0.000346 0.001090
# 3 -0.001058 -0.000923 0.008719 -0.002291 0.005511 -0.000950
# 4 -0.003293 0.001177 -0.002291 0.024035 -0.000241 0.004271
# 5 0.003761 0.000346 0.005511 -0.000241 0.025945 -0.002780
# 6 0.000189 0.001090 -0.000950 0.004271 -0.002780 0.015256
#
#
# Mechanical properties :
#
#
# Convention : Reuss Voigt Hill
#
# Bulk Modulus (GPa) = 57.18216 82.65229 69.91722
# Shear Modulus (GPa) = 47.09665 57.13004 52.11334
#
# Velocity S-wave (km/s) = 4.07397 4.48699 4.28546
# Velocity P-wave (km/s) = 6.50240 7.48141 7.00902
#
# Compressibility (1/GPa) = 0.01748797
#
# Stress axis : x y z
#
# Youngs Moduli (GPa) = 84.62449 173.68422 114.68796
#
# Poissons Ratio (x) = 0.42050 0.12138
# Poissons Ratio (y) = 0.20488 0.10591
# Poissons Ratio (z) = 0.08957 0.16039
#
# Static dielectric constant tensor:
#      x y z
#    x 2.296490 0.047550 0.108600 
#    y 0.047550 2.258110 -0.044200 
#    z 0.108600 -0.044200 2.311930 
# 
# From -- ./inp_files/105158.got.cif
#   From: 2010.05.17/outbox.cif.g08.bks.cpg/sg2_53_cif.got.tgz:105158.got - 2010.06.03 11:33:40.
