data_PCOD9034211
_publ_section_title
;
Structure prediction by ZEFSAII (Michael W. Deem and Ramdas Pophale) SiO2 
 PCOD9034211
Probable space group: P -1
;
_chemical_formula_sum "Si O2"
_cell_formula_units_Z 16
_cell_length_a 8.463224
_cell_length_b 5.046232
_cell_length_c 19.552968
_cell_angle_alpha 123.884266
_cell_angle_beta 74.382386
_cell_angle_gamma 123.218377
_cell_volume 579.163616
_symmetry_space_group_name_H-M "P -1"
_symmetry_group_IT_number 2
_symmetry_cell_setting 'triclinic'
loop_
_space_group_symop_operation_xyz
x,y,z
-x,-y,-z
loop_
_atom_site_type_symbol
_atom_site_label
_atom_site_fract_x
_atom_site_fract_y
_atom_site_fract_z
Si Si1 0.154789 0.152343 0.064111
Si Si2 0.284998 0.300428 0.813151
Si Si3 0.271243 0.679653 0.545363
Si Si4 0.995332 0.390372 0.790060
Si Si5 0.335515 0.369684 0.257518
Si Si6 0.682855 0.356784 0.001439
Si Si7 0.997061 0.504619 0.664035
Si Si8 0.502263 0.480469 0.396318
O O1 0.087034 0.334592 0.155472
O O2 0.325173 0.482446 0.048313
O O3 0.181629 0.822424 0.039541
O O4 0.000000 0.000000 0.000000
O O5 0.503659 0.448934 0.791904
O O6 0.264734 0.341884 0.901756
O O7 0.196686 0.534727 0.822696
O O8 0.154236 0.910733 0.734011
O O9 0.068713 0.482318 0.577469
O O10 0.321496 0.459893 0.452511
O O11 0.411289 0.715581 0.596706
O O12 0.340792 0.084376 0.565686
O O13 0.004303 0.271410 0.693905
O O14 0.832689 0.036256 0.795445
O O15 0.446523 0.343868 0.306801
O O16 0.215446 0.565973 0.320757
O O17 0.500000 0.000000 0.000000
#
# Coordination Sequence:
#
# PCOD9034211 Si02
#       8
#     2   2   2   2   2   2   2   2
#     4  12  25  47  70  94 136 178 227 282 346 407
#     4  11  24  45  66  95 138 180 223 286 345 407
#     4  10  22  44  73 100 140 181 228 269 342 403
#     4  11  26  42  68  97 138 180 227 286 345 405
#     4  11  25  42  68 104 137 178 231 282 337 405
#     4  12  27  45  70 100 130 178 232 285 343 407
#     4  11  25  42  69 102 135 183 226 280 339 409
#     4  10  22  44  72 103 136 184 222 280 332 406
#
# _framework density 27.626042999999999
#
# number of rings (size 3 to 8) (size 9 to 14) (size 15 to 20)
#    0.000    1.000    2.500    3.000    8.750    1.500 
#    0.000    0.625    0.000    0.000    0.000    0.000 
#    0.000    0.000    0.000    0.000    0.000    0.000 
#
# Total GULP energy -89643.101594 kJ/mol
# GULP energy per Si atom -5602.693850 kJ/mol
# Density = 2.756316 g / cm^3
# Si number density = 27.626043 Si / 1000 Ang^3
#
#
#
# Elastic Constant Matrix: (Units=GPa)
#
#
# Indices 1 2 3 4 5 6 
#
# 1 93.7118 35.7096 18.3311 -5.3053 -20.5518 10.4284
# 2 35.7096 121.8245 24.2429 -14.7732 -13.6956 11.1999
# 3 18.3311 24.2429 109.9476 -37.4228 -20.6698 -0.1595
# 4 -5.3053 -14.7732 -37.4228 48.2560 3.8543 -2.8525
# 5 -20.5518 -13.6956 -20.6698 3.8543 44.3812 -16.6436
# 6 10.4284 11.1999 -0.1595 -2.8525 -16.6436 43.3224
#
#
#
# Elastic Compliance Matrix: (Units=1/GPa)
#
#
# Indices 1 2 3 4 5 6 
#
# 1 0.013066 -0.003170 -0.000831 -0.000575 0.004495 -0.000640
# 2 -0.003170 0.009720 -0.000939 0.001780 0.000381 -0.001490
# 3 -0.000831 -0.000939 0.014152 0.010300 0.006381 0.003625
# 4 -0.000575 0.001780 0.010300 0.029078 0.003699 0.003052
# 5 0.004495 0.000381 0.006381 0.003699 0.031591 0.011223
# 6 -0.000640 -0.001490 0.003625 0.003052 0.011223 0.028148
#
#
# Mechanical properties :
#
#
# Convention : Reuss Voigt Hill
#
# Bulk Modulus (GPa) = 36.95925 53.56125 45.26025
# Shear Modulus (GPa) = 34.56519 43.67194 39.11856
#
# Velocity S-wave (km/s) = 3.54104 3.98027 3.76706
# Velocity P-wave (km/s) = 5.48872 6.36816 5.94473
#
# Compressibility (1/GPa) = 0.02705683
#
# Stress axis : x y z
#
# Youngs Moduli (GPa) = 76.53400 102.87663 70.66289
#
# Poissons Ratio (x) = 0.32614 0.05873
# Poissons Ratio (y) = 0.24263 0.06638
# Poissons Ratio (z) = 0.06361 0.09664
#
# Static dielectric constant tensor:
#      x y z
#    x 2.201660 0.021240 -0.022880 
#    y 0.021240 2.280690 0.033800 
#    z -0.022880 0.033800 2.134240 
# 
# From -- ./inp_files/51080.got.cif
#   From: 2010.05.17/outbox.cif.g08.bks.cpg/sg2_26_cif.got.tgz:51080.got - 2010.06.03 11:33:40.
