data_PCOD9034216
_publ_section_title
;
Structure prediction by ZEFSAII (Michael W. Deem and Ramdas Pophale) SiO2 
 PCOD9034216
Probable space group: P -1
;
_chemical_formula_sum "Si O2"
_cell_formula_units_Z 11
_cell_length_a 9.092402
_cell_length_b 9.754865
_cell_length_c 16.796979
_cell_angle_alpha 134.353272
_cell_angle_beta 44.908942
_cell_angle_gamma 94.454976
_cell_volume 422.906135
_symmetry_space_group_name_H-M "P -1"
_symmetry_group_IT_number 2
_symmetry_cell_setting 'triclinic'
loop_
_space_group_symop_operation_xyz
x,y,z
-x,-y,-z
loop_
_atom_site_type_symbol
_atom_site_label
_atom_site_fract_x
_atom_site_fract_y
_atom_site_fract_z
Si Si1 0.219194 0.915178 0.221382
Si Si2 0.771936 0.347851 0.262985
Si Si3 0.351979 0.398859 0.912794
Si Si4 0.000000 0.500000 0.500000
Si Si5 0.821873 0.660101 0.794353
Si Si6 0.332434 0.334847 0.715592
O O1 0.137316 0.757112 0.166754
O O2 0.317369 0.860220 0.255047
O O3 0.615197 0.648674 0.914514
O O4 0.972887 0.280314 0.432353
O O5 0.500000 0.500000 0.500000
O O6 0.582248 0.596227 0.362958
O O7 0.057223 0.281797 0.164071
O O8 0.000000 0.000000 0.000000
O O9 0.107263 0.389577 0.005333
O O10 0.438637 0.345315 0.763915
O O11 0.128533 0.407274 0.506676
O O12 0.500000 0.000000 0.000000
O O13 0.500000 0.000000 0.500000
#
# Coordination Sequence:
#
# PCOD9034216 Si02
#       6
#     2   2   2   1   2   2
#     4  10  22  44  72 103 142 193 248 320 377 458
#     4  12  31  50  81 114 158 207 264 327 397 462
#     4  10  24  45  71 102 149 194 251 307 393 458
#     4  10  24  38  74  98 148 184 260 308 384 444
#     4  10  24  43  68 106 148 192 252 318 381 458
#     4  11  27  46  72 105 152 200 256 312 389 475
#
# _framework density 26.0105
#
# number of rings (size 3 to 8) (size 9 to 14) (size 15 to 20)
#    0.000    1.455    1.818    0.000   17.818    1.455 
#    0.000    3.636    0.000    0.000    0.000    0.000 
#    0.000    0.000    0.000    0.000    0.000    0.000 
#
# Total GULP energy -61265.940185 kJ/mol
# GULP energy per Si atom -5569.630926 kJ/mol
# Density = 2.595130 g / cm^3
# Si number density = 26.010500 Si / 1000 Ang^3
#
#
#
# Elastic Constant Matrix: (Units=GPa)
#
#
# Indices 1 2 3 4 5 6 
#
# 1 179.8365 65.6318 31.3432 -8.6524 27.9682 -16.7258
# 2 65.6318 205.3146 48.6224 -1.2704 15.0295 -25.0307
# 3 31.3432 48.6224 64.6076 -7.2468 14.9294 -12.6589
# 4 -8.6524 -1.2704 -7.2468 56.3845 -1.6987 12.3734
# 5 27.9682 15.0295 14.9294 -1.6987 40.6257 -10.7004
# 6 -16.7258 -25.0307 -12.6589 12.3734 -10.7004 52.7775
#
#
#
# Elastic Compliance Matrix: (Units=1/GPa)
#
#
# Indices 1 2 3 4 5 6 
#
# 1 0.006999 -0.001658 -0.001170 0.000724 -0.003683 0.000235
# 2 -0.001658 0.006534 -0.003994 -0.001038 0.000674 0.001995
# 3 -0.001170 -0.003994 0.020645 0.001966 -0.004897 0.001233
# 4 0.000724 -0.001038 0.001966 0.019026 -0.001227 -0.004501
# 5 -0.003683 0.000674 -0.004897 -0.001227 0.029783 0.004304
# 6 0.000235 0.001995 0.001233 -0.004501 0.004304 0.022192
#
#
# Mechanical properties :
#
#
# Convention : Reuss Voigt Hill
#
# Bulk Modulus (GPa) = 48.69754 82.32816 65.51285
# Shear Modulus (GPa) = 39.78760 50.23495 45.01128
#
# Velocity S-wave (km/s) = 3.91535 4.39946 4.16445
# Velocity P-wave (km/s) = 6.26122 7.58470 6.95451
#
# Compressibility (1/GPa) = 0.02053492
#
# Stress axis : x y z
#
# Youngs Moduli (GPa) = 142.88042 153.04812 48.43742
#
# Poissons Ratio (x) = 0.25369 0.05665
# Poissons Ratio (y) = 0.23683 0.19348
# Poissons Ratio (z) = 0.16711 0.61133
#
# Static dielectric constant tensor:
#      x y z
#    x 2.024520 0.036840 -0.110620 
#    y 0.036840 1.969480 0.028160 
#    z -0.110620 0.028160 2.339650 
# 
# From -- ./inp_files/26049.got.cif
#   From: 2010.05.17/outbox.cif.g08.bks.cpg/sg2_14_cif.got.tgz:26049.got - 2010.06.03 11:33:40.
