data_PCOD9034560
_publ_section_title
;
Structure prediction by ZEFSAII (Michael W. Deem and Ramdas Pophale) SiO2 
 PCOD9034560
Probable space group: P -1
;
_chemical_formula_sum "Si O2"
_cell_formula_units_Z 16
_cell_length_a 22.067758
_cell_length_b 9.141957
_cell_length_c 25.068931
_cell_angle_alpha 148.466379
_cell_angle_beta 17.360225
_cell_angle_gamma 146.722343
_cell_volume 780.968766
_symmetry_space_group_name_H-M "P -1"
_symmetry_group_IT_number 2
_symmetry_cell_setting 'triclinic'
loop_
_space_group_symop_operation_xyz
x,y,z
-x,-y,-z
loop_
_atom_site_type_symbol
_atom_site_label
_atom_site_fract_x
_atom_site_fract_y
_atom_site_fract_z
Si Si1 0.516164 0.336821 0.490868
Si Si2 0.143320 0.893259 0.803172
Si Si3 0.657377 0.330697 0.571941
Si Si4 0.763139 0.486710 0.715574
Si Si5 0.412139 0.485784 0.734354
Si Si6 0.912981 0.691668 0.825180
Si Si7 0.640425 0.912401 0.039981
Si Si8 0.479778 0.668881 0.918764
O O1 0.500000 0.500000 0.500000
O O2 0.732941 0.315229 0.331667
O O3 0.413750 0.501790 0.674230
O O4 0.415215 0.007366 0.468033
O O5 0.016869 0.796168 0.826269
O O6 0.291623 0.176738 0.750601
O O7 0.000000 0.000000 0.000000
O O8 0.617109 0.453718 0.585354
O O9 0.524752 0.495009 0.774187
O O10 0.901330 0.376357 0.389227
O O11 0.602919 0.200939 0.778350
O O12 0.646067 0.593026 0.796970
O O13 0.000000 0.500000 0.500000
O O14 0.731269 0.699058 0.856857
O O15 0.336353 0.773278 0.905657
O O16 0.779662 0.902046 0.972702
O O17 0.744024 0.430810 0.900327
O O18 0.500000 0.000000 0.000000
#
# Coordination Sequence:
#
# PCOD9034560 Si02
#       8
#     2   2   2   2   2   2   2   2
#     4  11  24  41  66  98 134 176 219 263 328 393
#     4  11  23  42  64  94 136 177 214 271 322 395
#     4  11  22  44  67  93 135 176 212 271 330 387
#     4  10  22  45  64  91 133 167 220 279 332 379
#     4  11  22  43  64  95 140 169 219 268 325 396
#     4  11  22  42  65  92 133 173 217 266 334 385
#     4  10  24  39  66  97 127 174 218 275 328 390
#     4  11  25  41  67  96 126 168 226 274 325 394
#
# _framework density 20.487376999999999
#
# number of rings (size 3 to 8) (size 9 to 14) (size 15 to 20)
#    0.000    1.250    2.500    3.750    5.250    3.000 
#    2.250    0.000    0.000    0.000    0.000    0.000 
#    0.000    0.000    0.000    0.000    0.000    0.000 
#
# Total GULP energy -89133.352221 kJ/mol
# GULP energy per Si atom -5570.834514 kJ/mol
# Density = 2.044075 g / cm^3
# Si number density = 20.487377 Si / 1000 Ang^3
#
#
#
# Elastic Constant Matrix: (Units=GPa)
#
#
# Indices 1 2 3 4 5 6 
#
# 1 122.7007 34.8876 26.1309 1.3152 -8.2443 -9.7268
# 2 34.8876 71.4227 33.3275 10.0470 -28.5119 -9.3305
# 3 26.1309 33.3275 70.0479 -11.9474 -5.5365 0.2317
# 4 1.3152 10.0470 -11.9474 32.3198 4.1906 -2.8788
# 5 -8.2443 -28.5119 -5.5365 4.1906 29.2588 -4.2524
# 6 -9.7268 -9.3305 0.2317 -2.8788 -4.2524 27.0354
#
#
#
# Elastic Compliance Matrix: (Units=1/GPa)
#
#
# Indices 1 2 3 4 5 6 
#
# 1 0.009824 -0.005281 -0.001141 0.001282 -0.002566 0.001454
# 2 -0.005281 0.067659 -0.031545 -0.038793 0.068145 0.028309
# 3 -0.001141 -0.031545 0.031470 0.024222 -0.030581 -0.013798
# 4 0.001282 -0.038793 0.024222 0.056230 -0.042932 -0.013900
# 5 -0.002566 0.068145 -0.030581 -0.042932 0.105287 0.034846
# 6 0.001454 0.028309 -0.013798 -0.013900 0.034846 0.051401
#
#
# Mechanical properties :
#
#
# Convention : Reuss Voigt Hill
#
# Bulk Modulus (GPa) = 30.28572 50.31814 40.30193
# Shear Modulus (GPa) = 12.23059 29.04449 20.63754
#
# Velocity S-wave (km/s) = 2.44597 3.76929 3.17729
# Velocity P-wave (km/s) = 4.77407 6.59979 5.75973
#
# Compressibility (1/GPa) = 0.03301886
#
# Stress axis : x y z
#
# Youngs Moduli (GPa) = 101.79616 14.77995 31.77632
#
# Poissons Ratio (x) = 0.07805 0.03625
# Poissons Ratio (y) = 0.53758 1.00238
# Poissons Ratio (z) = 0.11614 0.46623
#
# Static dielectric constant tensor:
#      x y z
#    x 1.745160 -0.017680 0.041380 
#    y -0.017680 1.652480 -0.009050 
#    z 0.041380 -0.009050 1.808070 
# 
# From -- ./inp_files/242092.got.cif
#   From: 2010.05.17/outbox.cif.g08.bks.cpg/sg2_122_cif.got.tgz:242092.got - 2010.06.03 11:33:40.
