data_PCOD9034902
_publ_section_title
;
Structure prediction by ZEFSAII (Michael W. Deem and Ramdas Pophale) SiO2 
 PCOD9034902
Probable space group: P -1
;
_chemical_formula_sum "Si O2"
_cell_formula_units_Z 14
_cell_length_a 6.854258
_cell_length_b 21.002256
_cell_length_c 5.253664
_cell_angle_alpha 103.349416
_cell_angle_beta 104.348917
_cell_angle_gamma 118.277214
_cell_volume 589.047838
_symmetry_space_group_name_H-M "P -1"
_symmetry_group_IT_number 2
_symmetry_cell_setting 'triclinic'
loop_
_space_group_symop_operation_xyz
x,y,z
-x,-y,-z
loop_
_atom_site_type_symbol
_atom_site_label
_atom_site_fract_x
_atom_site_fract_y
_atom_site_fract_z
Si Si1 0.886328 0.326017 0.797145
Si Si2 0.676968 0.631298 0.737368
Si Si3 0.405975 0.248515 0.876532
Si Si4 0.228002 0.926485 0.875047
Si Si5 0.149783 0.546870 0.342850
Si Si6 0.022971 0.075564 0.706440
Si Si7 0.006400 0.238278 0.413429
O O1 0.682469 0.293992 0.918889
O O2 0.823352 0.370359 0.614549
O O3 0.875120 0.250864 0.612858
O O4 0.167097 0.384627 0.034905
O O5 0.417365 0.564409 0.478961
O O6 0.871659 0.681513 0.629254
O O7 0.630813 0.693400 0.912680
O O8 0.284533 0.160687 0.872265
O O9 0.238605 0.236473 0.566589
O O10 0.128569 0.910987 0.539290
O O11 0.179997 0.842876 0.865265
O O12 0.090382 0.942457 0.064573
O O13 0.500000 0.000000 0.000000
O O14 0.000000 0.500000 0.500000
O O15 0.000000 0.500000 0.000000
O O16 0.000000 0.000000 0.500000
#
# Coordination Sequence:
#
# PCOD9034902 Si02
#       7
#     2   2   2   2   2   2   2
#     4  11  26  44  78 105 137 203 242 295 375 439
#     4  11  24  47  74 105 145 185 253 295 358 451
#     4  10  22  45  69 102 148 187 248 307 352 428
#     4  11  24  44  67 101 152 186 240 309 358 409
#     4  12  29  51  75 109 152 186 232 311 375 441
#     4  11  24  42  66 103 144 193 241 298 365 423
#     4  10  23  43  71 105 139 192 250 301 351 437
#
# _framework density 23.76717
#
# number of rings (size 3 to 8) (size 9 to 14) (size 15 to 20)
#    0.000    1.143    2.857    1.714    8.000    2.286 
#    0.000    0.000    0.000    0.000    0.000    0.000 
#    0.000    0.000    0.000    0.000    0.000    0.000 
#
# Total GULP energy -78199.868696 kJ/mol
# GULP energy per Si atom -5585.704907 kJ/mol
# Density = 2.371308 g / cm^3
# Si number density = 23.767170 Si / 1000 Ang^3
#
#
#
# Elastic Constant Matrix: (Units=GPa)
#
#
# Indices 1 2 3 4 5 6 
#
# 1 134.0584 47.1955 45.6503 4.9127 0.2092 14.3023
# 2 47.1955 88.0070 29.6705 6.7961 5.7743 20.8467
# 3 45.6503 29.6705 101.6494 4.9014 8.8396 15.5397
# 4 4.9127 6.7961 4.9014 40.2891 -2.5359 -4.0396
# 5 0.2092 5.7743 8.8396 -2.5359 50.7077 -1.9948
# 6 14.3023 20.8467 15.5397 -4.0396 -1.9948 36.2785
#
#
#
# Elastic Compliance Matrix: (Units=1/GPa)
#
#
# Indices 1 2 3 4 5 6 
#
# 1 0.010145 -0.004374 -0.003371 -0.000022 0.001043 0.000013
# 2 -0.004374 0.016295 -0.001324 -0.002937 -0.002049 -0.007512
# 3 -0.003371 -0.001324 0.012543 -0.001389 -0.002231 -0.003561
# 4 -0.000022 -0.002937 -0.001389 0.026153 0.002094 0.005318
# 5 0.001043 -0.002049 -0.002231 0.002094 0.020565 0.003086
# 6 0.000013 -0.007512 -0.003561 0.005318 0.003086 0.034163
#
#
# Mechanical properties :
#
#
# Convention : Reuss Voigt Hill
#
# Bulk Modulus (GPa) = 47.97028 63.19416 55.58222
# Shear Modulus (GPa) = 34.49452 38.86830 36.68141
#
# Velocity S-wave (km/s) = 3.81379 4.04837 3.93283
# Velocity P-wave (km/s) = 6.29449 6.96412 6.63775
#
# Compressibility (1/GPa) = 0.02084624
#
# Stress axis : x y z
#
# Youngs Moduli (GPa) = 98.57125 61.36785 79.72285
#
# Poissons Ratio (x) = 0.26840 0.26875
# Poissons Ratio (y) = 0.43112 0.10556
# Poissons Ratio (z) = 0.33228 0.08125
#
# Static dielectric constant tensor:
#      x y z
#    x 1.864370 -0.044130 0.009650 
#    y -0.044130 2.039500 0.001590 
#    z 0.009650 0.001590 1.954190 
# 
# From -- ./inp_files/11473.got.cif
#   From: 2010.05.17/outbox.cif.g08.bks.cpg/sg2_6_cif.got.tgz:11473.got - 2010.06.03 11:33:40.
