data_PCOD9034964
_publ_section_title
;
Structure prediction by ZEFSAII (Michael W. Deem and Ramdas Pophale) SiO2 
 PCOD9034964
Probable space group: P -1
;
_chemical_formula_sum "Si O2"
_cell_formula_units_Z 16
_cell_length_a 7.941802
_cell_length_b 9.424371
_cell_length_c 11.892624
_cell_angle_alpha 69.955794
_cell_angle_beta 121.573219
_cell_angle_gamma 77.529306
_cell_volume 619.416569
_symmetry_space_group_name_H-M "P -1"
_symmetry_group_IT_number 2
_symmetry_cell_setting 'triclinic'
loop_
_space_group_symop_operation_xyz
x,y,z
-x,-y,-z
loop_
_atom_site_type_symbol
_atom_site_label
_atom_site_fract_x
_atom_site_fract_y
_atom_site_fract_z
Si Si1 0.235636 0.061267 0.872120
Si Si2 0.113748 0.558226 0.284133
Si Si3 0.385850 0.537183 0.174080
Si Si4 0.003304 0.637894 0.875197
Si Si5 0.618154 0.666504 0.362297
Si Si6 0.184776 0.973896 0.230915
Si Si7 0.315001 0.841548 0.561286
Si Si8 0.147253 0.129679 0.577799
O O1 0.098642 0.267673 0.792762
O O2 0.222285 0.018119 0.748485
O O3 0.065716 0.003102 0.887842
O O4 0.500000 0.000000 0.000000
O O5 0.049681 0.418887 0.246906
O O6 0.214666 0.617215 0.199245
O O7 0.304848 0.469222 0.470907
O O8 0.578216 0.584799 0.259172
O O9 0.471379 0.334639 0.279111
O O10 0.259783 0.601836 0.994877
O O11 0.849409 0.836069 0.806611
O O12 0.000000 0.500000 0.000000
O O13 0.820249 0.710145 0.424065
O O14 0.390283 0.852732 0.252787
O O15 0.271949 0.865579 0.407664
O O16 0.107239 0.825033 0.546037
O O17 0.299198 0.013889 0.560136
#
# Coordination Sequence:
#
# PCOD9034964 Si02
#       8
#     2   2   2   2   2   2   2   2
#     4  11  26  45  68  95 145 185 224 276 351 422
#     4  11  23  45  68 102 137 184 228 283 346 408
#     4  11  23  41  69 103 140 174 227 292 343 397
#     4  10  26  42  63 106 142 172 223 293 348 402
#     4  12  23  40  76 104 132 177 238 289 333 410
#     4  11  23  45  73 101 134 185 232 277 349 412
#     4  10  22  45  69  96 141 180 229 279 344 413
#     4  10  25  40  65 103 133 180 227 284 337 411
#
# _framework density 25.830760999999999
#
# number of rings (size 3 to 8) (size 9 to 14) (size 15 to 20)
#    0.000    1.250    2.500    2.625    7.000    4.500 
#    0.000    0.625    0.000    0.000    0.000    0.000 
#    0.000    0.000    0.000    0.000    0.000    0.000 
#
# Total GULP energy -89468.872788 kJ/mol
# GULP energy per Si atom -5591.804549 kJ/mol
# Density = 2.577197 g / cm^3
# Si number density = 25.830761 Si / 1000 Ang^3
#
#
#
# Elastic Constant Matrix: (Units=GPa)
#
#
# Indices 1 2 3 4 5 6 
#
# 1 53.3591 8.2381 12.3365 -8.8161 14.5372 6.9296
# 2 8.2381 141.1195 31.7159 -17.7200 21.5762 21.4354
# 3 12.3365 31.7159 105.3027 -4.8166 35.1430 -1.2422
# 4 -8.8161 -17.7200 -4.8166 50.1002 2.4507 8.5107
# 5 14.5372 21.5762 35.1430 2.4507 30.4348 -0.1941
# 6 6.9296 21.4354 -1.2422 8.5107 -0.1941 38.9147
#
#
#
# Elastic Compliance Matrix: (Units=1/GPa)
#
#
# Indices 1 2 3 4 5 6 
#
# 1 0.024678 0.002777 0.002190 0.007657 -0.016949 -0.007613
# 2 0.002777 0.010167 -0.000316 0.005736 -0.008677 -0.007402
# 3 0.002190 -0.000316 0.015962 0.002833 -0.019484 -0.000423
# 4 0.007657 0.005736 0.002833 0.025981 -0.013152 -0.010180
# 5 -0.016949 -0.008677 -0.019484 -0.013152 0.070728 0.010405
# 6 -0.007613 -0.007402 -0.000423 -0.010180 0.010405 0.033395
#
#
# Mechanical properties :
#
#
# Convention : Reuss Voigt Hill
#
# Bulk Modulus (GPa) = 16.63723 44.92917 30.78320
# Shear Modulus (GPa) = 26.08968 40.38934 33.23951
#
# Velocity S-wave (km/s) = 3.18153 3.95855 3.59112
# Velocity P-wave (km/s) = 4.46666 6.19071 5.39796
#
# Compressibility (1/GPa) = 0.06010617
#
# Stress axis : x y z
#
# Youngs Moduli (GPa) = 40.52267 98.36192 62.64783
#
# Poissons Ratio (x) = -0.27312 -0.13718
# Poissons Ratio (y) = -0.11252 0.01982
# Poissons Ratio (z) = -0.08873 0.03112
#
# Static dielectric constant tensor:
#      x y z
#    x 2.149320 0.055170 0.043910 
#    y 0.055170 2.038950 0.019620 
#    z 0.043910 0.019620 2.069340 
# 
# From -- ./inp_files/278644.got.cif
#   From: 2010.05.17/outbox.cif.g08.bks.cpg/sg2_140_cif.got.tgz:278644.got - 2010.06.03 11:33:40.
