data_PCOD9034844
_publ_section_title
;
Structure prediction by ZEFSAII (Michael W. Deem and Ramdas Pophale) SiO2 
 PCOD9034844
Probable space group: P -1
;
_chemical_formula_sum "Si O2"
_cell_formula_units_Z 14
_cell_length_a 11.283641
_cell_length_b 18.370576
_cell_length_c 16.772071
_cell_angle_alpha 157.337258
_cell_angle_beta 29.290493
_cell_angle_gamma 150.990865
_cell_volume 608.878322
_symmetry_space_group_name_H-M "P -1"
_symmetry_group_IT_number 2
_symmetry_cell_setting 'triclinic'
loop_
_space_group_symop_operation_xyz
x,y,z
-x,-y,-z
loop_
_atom_site_type_symbol
_atom_site_label
_atom_site_fract_x
_atom_site_fract_y
_atom_site_fract_z
Si Si1 0.283673 0.888205 0.075450
Si Si2 0.266282 0.599255 0.305643
Si Si3 0.742754 0.828639 0.509562
Si Si4 0.948874 0.882750 0.826251
Si Si5 0.509064 0.557302 0.839927
Si Si6 0.137693 0.204148 0.895871
Si Si7 0.028541 0.450890 0.839998
O O1 0.013361 0.876256 0.179637
O O2 0.393305 0.030894 0.231869
O O3 0.221320 0.655754 0.895727
O O4 0.500000 0.000000 0.000000
O O5 0.120350 0.743858 0.567439
O O6 0.311766 0.469764 0.222296
O O7 0.551687 0.733298 0.237682
O O8 0.112145 0.419346 0.152494
O O9 0.600620 0.663096 0.360659
O O10 0.839957 0.713735 0.404903
O O11 0.000000 0.000000 0.500000
O O12 0.658919 0.718312 0.847141
O O13 0.017106 0.040412 0.871645
O O14 0.000000 0.000000 0.000000
O O15 0.271061 0.607946 0.069353
O O16 0.000000 0.500000 0.000000
#
# Coordination Sequence:
#
# PCOD9034844 Si02
#       7
#     2   2   2   2   2   2   2
#     4  12  27  43  69 106 140 181 226 287 352 404
#     4  11  24  49  70 100 140 183 235 281 350 413
#     4  11  23  44  72 100 136 187 229 280 345 412
#     4  12  27  43  71 106 134 182 234 290 345 407
#     4  11  23  44  72 103 132 179 237 289 333 413
#     4  11  26  47  68 100 145 183 227 285 352 413
#     4  10  22  45  68  98 134 181 231 273 338 421
#
# _framework density 22.993099000000001
#
# number of rings (size 3 to 8) (size 9 to 14) (size 15 to 20)
#    0.000    0.857    5.714    0.857    6.000    4.000 
#    0.000    0.000    0.000    0.000    0.000    0.000 
#    0.000    0.000    0.000    0.000    0.000    0.000 
#
# Total GULP energy -78151.653967 kJ/mol
# GULP energy per Si atom -5582.260998 kJ/mol
# Density = 2.294077 g / cm^3
# Si number density = 22.993099 Si / 1000 Ang^3
#
#
#
# Elastic Constant Matrix: (Units=GPa)
#
#
# Indices 1 2 3 4 5 6 
#
# 1 63.2036 1.5778 12.4287 17.7326 5.2505 -0.3710
# 2 1.5778 166.7073 17.7729 28.2908 -7.8452 -23.3014
# 3 12.4287 17.7729 85.8870 12.9373 -1.1661 1.0451
# 4 17.7326 28.2908 12.9373 35.2889 -5.1632 -2.9840
# 5 5.2505 -7.8452 -1.1661 -5.1632 37.3381 9.6602
# 6 -0.3710 -23.3014 1.0451 -2.9840 9.6602 38.0612
#
#
#
# Elastic Compliance Matrix: (Units=1/GPa)
#
#
# Indices 1 2 3 4 5 6 
#
# 1 0.019647 0.001933 -0.001616 -0.011334 -0.004401 0.001648
# 2 0.001933 0.007795 -0.000964 -0.006595 -0.000737 0.004487
# 3 -0.001616 -0.000964 0.012560 -0.003081 0.000320 -0.001274
# 4 -0.011334 -0.006595 -0.003081 0.041184 0.006446 -0.002471
# 5 -0.004401 -0.000737 0.000320 0.006446 0.030125 -0.007644
# 6 0.001648 0.004487 -0.001274 -0.002471 -0.007644 0.030818
#
#
# Mechanical properties :
#
#
# Convention : Reuss Voigt Hill
#
# Bulk Modulus (GPa) = 25.83388 42.15074 33.99231
# Shear Modulus (GPa) = 31.98465 41.07220 36.52843
#
# Velocity S-wave (km/s) = 3.73373 4.23103 3.99014
# Velocity P-wave (km/s) = 5.46329 6.49927 6.00367
#
# Compressibility (1/GPa) = 0.03870886
#
# Stress axis : x y z
#
# Youngs Moduli (GPa) = 50.89952 128.29083 79.61522
#
# Poissons Ratio (x) = -0.24798 0.12862
# Poissons Ratio (y) = -0.09839 0.07674
# Poissons Ratio (z) = 0.08223 0.12365
#
# Static dielectric constant tensor:
#      x y z
#    x 1.875590 0.008070 -0.084210 
#    y 0.008070 1.848380 -0.064370 
#    z -0.084210 -0.064370 1.860070 
# 
# From -- ./inp_files/236835.got.cif
#   From: 2010.05.17/outbox.cif.g08.bks.cpg/sg2_119_cif.got.tgz:236835.got - 2010.06.03 11:33:40.
