data_PCOD9034743
_publ_section_title
;
Structure prediction by ZEFSAII (Michael W. Deem and Ramdas Pophale) SiO2 
 PCOD9034743
Probable space group: P -1
;
_chemical_formula_sum "Si O2"
_cell_formula_units_Z 14
_cell_length_a 10.310072
_cell_length_b 4.979295
_cell_length_c 11.315596
_cell_angle_alpha 70.742726
_cell_angle_beta 91.326798
_cell_angle_gamma 83.660428
_cell_volume 543.950830
_symmetry_space_group_name_H-M "P -1"
_symmetry_group_IT_number 2
_symmetry_cell_setting 'triclinic'
loop_
_space_group_symop_operation_xyz
x,y,z
-x,-y,-z
loop_
_atom_site_type_symbol
_atom_site_label
_atom_site_fract_x
_atom_site_fract_y
_atom_site_fract_z
Si Si1 0.556773 0.080782 0.164154
Si Si2 0.364521 0.937113 0.563738
Si Si3 0.163632 0.538162 0.652491
Si Si4 0.880274 0.696187 0.543453
Si Si5 0.006135 0.523404 0.858399
Si Si6 0.143606 0.863068 0.235674
Si Si7 0.388960 0.663354 0.106984
O O1 0.618185 0.010550 0.303180
O O2 0.432231 0.324024 0.149141
O O3 0.512579 0.803258 0.140449
O O4 0.638839 0.220135 0.043621
O O5 0.301326 0.638176 0.607409
O O6 0.500000 0.000000 0.500000
O O7 0.252954 0.113245 0.454155
O O8 0.136013 0.279323 0.603374
O O9 0.025311 0.733556 0.585141
O O10 0.143793 0.532236 0.793258
O O11 0.858149 0.371526 0.626438
O O12 0.962964 0.238973 0.841218
O O13 0.901594 0.804779 0.785618
O O14 0.000000 0.500000 0.000000
O O15 0.276076 0.779658 0.178094
#
# Coordination Sequence:
#
# PCOD9034743 Si02
#       7
#     2   2   2   2   2   2   2
#     4  10  24  42  67  99 139 189 233 292 356 425
#     4  12  27  42  72 108 145 187 241 306 356 429
#     4  10  26  45  72  99 145 190 240 292 366 430
#     4  10  25  45  72 101 143 196 237 294 361 435
#     4  11  26  44  69 106 135 180 243 303 355 417
#     4  11  24  42  74  97 138 186 236 294 362 426
#     4  10  22  45  67  97 141 185 238 286 363 432
#
# _framework density 25.737622999999999
#
# number of rings (size 3 to 8) (size 9 to 14) (size 15 to 20)
#    0.000    1.429    0.000    2.571   16.000    1.714 
#    0.000    0.000    0.000    0.000    0.000    0.000 
#    0.000    0.000    0.000    0.000    0.000    0.000 
#
# Total GULP energy -78078.058498 kJ/mol
# GULP energy per Si atom -5577.004178 kJ/mol
# Density = 2.567904 g / cm^3
# Si number density = 25.737623 Si / 1000 Ang^3
#
#
#
# Elastic Constant Matrix: (Units=GPa)
#
#
# Indices 1 2 3 4 5 6 
#
# 1 119.9544 23.9694 15.5552 0.5381 -11.2202 2.8100
# 2 23.9694 61.1264 9.4938 -4.0736 2.6552 8.3385
# 3 15.5552 9.4938 149.9938 14.9740 -1.2610 8.4411
# 4 0.5381 -4.0736 14.9740 42.5248 -4.1597 10.1906
# 5 -11.2202 2.6552 -1.2610 -4.1597 38.9307 12.5765
# 6 2.8100 8.3385 8.4411 10.1906 12.5765 32.4094
#
#
#
# Elastic Compliance Matrix: (Units=1/GPa)
#
#
# Indices 1 2 3 4 5 6 
#
# 1 0.009482 -0.003572 -0.000703 0.000390 0.003366 -0.001149
# 2 -0.003572 0.018853 -0.000867 0.003393 -0.000277 -0.005274
# 3 -0.000703 -0.000867 0.007079 -0.002348 0.000115 -0.000866
# 4 0.000390 0.003393 -0.002348 0.028108 0.006584 -0.011688
# 5 0.003366 -0.000277 0.000115 0.006584 0.032165 -0.014802
# 6 -0.001149 -0.005274 -0.000866 -0.011688 -0.014802 0.041957
#
#
# Mechanical properties :
#
#
# Convention : Reuss Voigt Hill
#
# Bulk Modulus (GPa) = 39.79624 47.67906 43.73765
# Shear Modulus (GPa) = 31.98914 41.57673 36.78294
#
# Velocity S-wave (km/s) = 3.52929 4.02357 3.78451
# Velocity P-wave (km/s) = 5.66602 6.33646 6.01060
#
# Compressibility (1/GPa) = 0.02512800
#
# Stress axis : x y z
#
# Youngs Moduli (GPa) = 105.46810 53.04279 141.26603
#
# Poissons Ratio (x) = 0.18949 0.09933
# Poissons Ratio (y) = 0.37676 0.12249
# Poissons Ratio (z) = 0.07416 0.04599
#
# Static dielectric constant tensor:
#      x y z
#    x 2.098680 -0.031540 -0.046370 
#    y -0.031540 2.132390 -0.026980 
#    z -0.046370 -0.026980 2.148680 
# 
# From -- ./inp_files/372973.got.cif
#   From: 2010.05.17/outbox.cif.g08.bks.cpg/sg2_187_cif.got.tgz:372973.got - 2010.06.03 11:33:40.
