data_PCOD9034496
_publ_section_title
;
Structure prediction by ZEFSAII (Michael W. Deem and Ramdas Pophale) SiO2 
 PCOD9034496
Probable space group: P -1
;
_chemical_formula_sum "Si O2"
_cell_formula_units_Z 14
_cell_length_a 11.883591
_cell_length_b 5.140729
_cell_length_c 12.093893
_cell_angle_alpha 103.031437
_cell_angle_beta 49.427947
_cell_angle_gamma 86.617175
_cell_volume 525.207718
_symmetry_space_group_name_H-M "P -1"
_symmetry_group_IT_number 2
_symmetry_cell_setting 'triclinic'
loop_
_space_group_symop_operation_xyz
x,y,z
-x,-y,-z
loop_
_atom_site_type_symbol
_atom_site_label
_atom_site_fract_x
_atom_site_fract_y
_atom_site_fract_z
Si Si1 0.097659 0.976975 0.285235
Si Si2 0.240184 0.454087 0.290957
Si Si3 0.233844 0.869699 0.785925
Si Si4 0.252535 0.780110 0.521976
Si Si5 0.500000 0.000000 0.000000
Si Si6 0.217701 0.605013 0.984288
Si Si7 0.508022 0.931180 0.246902
Si Si8 0.000000 0.500000 0.000000
O O1 0.148148 0.744783 0.323172
O O2 0.133170 0.251060 0.331491
O O3 0.210076 0.854477 0.096148
O O4 0.923532 0.044721 0.365114
O O5 0.279439 0.522147 0.396332
O O6 0.383302 0.318161 0.105953
O O7 0.277106 0.714650 0.628753
O O8 0.155546 0.695151 0.904831
O O9 0.382052 0.887729 0.762949
O O10 0.130287 0.179992 0.859867
O O11 0.369852 0.944752 0.419509
O O12 0.459680 0.985829 0.156632
O O13 0.378763 0.382892 0.853387
O O14 0.076668 0.475109 0.082209
#
# Coordination Sequence:
#
# PCOD9034496 Si02
#       8
#     2   2   2   2   1   2   2   1
#     4  12  27  52  82 118 164 206 280 338 398 486
#     4  12  29  51  81 118 156 217 271 343 400 481
#     4  11  25  48  76 118 160 208 264 330 397 497
#     4  12  28  49  77 118 166 209 260 336 420 473
#     4  12  26  54  84 106 156 208 278 324 400 476
#     4  11  24  46  80 113 157 208 270 326 395 482
#     4  11  27  50  78 115 153 210 267 333 398 486
#     4  10  22  44  76 116 150 214 262 318 402 470
#
# _framework density 26.656120999999999
#
# number of rings (size 3 to 8) (size 9 to 14) (size 15 to 20)
#    0.000    0.571    2.857    3.429    6.000    2.857 
#   10.286    0.000    0.000    0.000    0.000    0.000 
#    0.000    0.000    0.000    0.000    0.000    0.000 
#
# Total GULP energy -78149.579436 kJ/mol
# GULP energy per Si atom -5582.112817 kJ/mol
# Density = 2.659545 g / cm^3
# Si number density = 26.656121 Si / 1000 Ang^3
#
#
#
# Elastic Constant Matrix: (Units=GPa)
#
#
# Indices 1 2 3 4 5 6 
#
# 1 99.2780 40.9262 33.7339 -22.3394 7.6705 11.5148
# 2 40.9262 126.8380 34.7273 0.3892 10.2329 8.1020
# 3 33.7339 34.7273 144.0091 -13.6374 31.1869 5.2245
# 4 -22.3394 0.3892 -13.6374 46.4549 0.0194 8.0701
# 5 7.6705 10.2329 31.1869 0.0194 62.3383 0.3412
# 6 11.5148 8.1020 5.2245 8.0701 0.3412 37.8668
#
#
#
# Elastic Compliance Matrix: (Units=1/GPa)
#
#
# Indices 1 2 3 4 5 6 
#
# 1 0.014468 -0.003942 -0.001478 0.007413 -0.000369 -0.004929
# 2 -0.003942 0.009622 -0.001552 -0.002409 -0.000317 -0.000130
# 3 -0.001478 -0.001552 0.008735 0.002010 -0.003930 -0.000817
# 4 0.007413 -0.002409 0.002010 0.027051 -0.001488 -0.007768
# 5 -0.000369 -0.000317 -0.003930 -0.001488 0.018101 0.000876
# 6 -0.004929 -0.000130 -0.000817 -0.007768 0.000876 0.029695
#
#
# Mechanical properties :
#
#
# Convention : Reuss Voigt Hill
#
# Bulk Modulus (GPa) = 52.95857 65.43331 59.19594
# Shear Modulus (GPa) = 39.08999 46.71453 42.90226
#
# Velocity S-wave (km/s) = 3.83359 4.19081 4.01617
# Velocity P-wave (km/s) = 6.28535 6.92948 6.61526
#
# Compressibility (1/GPa) = 0.01888268
#
# Stress axis : x y z
#
# Youngs Moduli (GPa) = 69.11741 103.92770 114.47617
#
# Poissons Ratio (x) = 0.40967 0.16917
# Poissons Ratio (y) = 0.27245 0.17765
# Poissons Ratio (z) = 0.10214 0.16128
#
# Static dielectric constant tensor:
#      x y z
#    x 2.384790 0.166960 -0.037520 
#    y 0.166960 2.245170 -0.070790 
#    z -0.037520 -0.070790 2.120540 
# 
# From -- ./inp_files/410999.got.cif
#   From: 2010.05.17/outbox.cif.g08.bks.cpg/sg2_206_cif.got.tgz:410999.got - 2010.06.03 11:33:40.
