data_PCOD9034582
_publ_section_title
;
Structure prediction by ZEFSAII (Michael W. Deem and Ramdas Pophale) SiO2 
 PCOD9034582
Probable space group: P -1
;
_chemical_formula_sum "Si O2"
_cell_formula_units_Z 16
_cell_length_a 7.294654
_cell_length_b 20.954352
_cell_length_c 5.676288
_cell_angle_alpha 67.949567
_cell_angle_beta 121.125620
_cell_angle_gamma 123.413902
_cell_volume 614.951534
_symmetry_space_group_name_H-M "P -1"
_symmetry_group_IT_number 2
_symmetry_cell_setting 'triclinic'
loop_
_space_group_symop_operation_xyz
x,y,z
-x,-y,-z
loop_
_atom_site_type_symbol
_atom_site_label
_atom_site_fract_x
_atom_site_fract_y
_atom_site_fract_z
Si Si1 0.512855 0.058756 0.223305
Si Si2 0.880607 0.662244 0.592046
Si Si3 0.099909 0.943391 0.886837
Si Si4 0.890282 0.420847 0.400219
Si Si5 0.918151 0.176379 0.568094
Si Si6 0.222744 0.719371 0.131328
Si Si7 0.688213 0.817939 0.558534
Si Si8 0.478503 0.320373 0.984861
O O1 0.705579 0.055674 0.172847
O O2 0.661274 0.142465 0.315720
O O3 0.500000 0.000000 0.500000
O O4 0.245057 0.027953 0.984339
O O5 0.937890 0.592459 0.658076
O O6 0.025246 0.739649 0.419907
O O7 0.966532 0.696802 0.862679
O O8 0.627663 0.648931 0.341508
O O9 0.835942 0.904225 0.650025
O O10 0.089397 0.881837 0.157759
O O11 0.833397 0.352782 0.640958
O O12 0.637495 0.395549 0.139705
O O13 0.000000 0.500000 0.500000
O O14 0.130653 0.183176 0.523179
O O15 0.429094 0.794494 0.297711
O O16 0.357292 0.708981 0.006762
O O17 0.655081 0.752500 0.823095
#
# Coordination Sequence:
#
# PCOD9034582 Si02
#       8
#     2   2   2   2   2   2   2   2
#     4   8  16  26  43  79 114 152 189 233 277 333
#     4  11  22  36  61  88 112 149 193 234 283 343
#     4   9  15  27  48  78 116 149 191 230 282 334
#     4  10  25  43  59  84 117 149 186 235 289 343
#     4  10  18  30  55  82 115 147 191 237 283 332
#     4  10  22  38  59  85 116 148 188 240 284 334
#     4  10  17  32  57  81 116 148 187 241 278 333
#     4  10  21  39  60  86 114 146 194 233 280 348
#
# _framework density 26.01831
#
# number of rings (size 3 to 8) (size 9 to 14) (size 15 to 20)
#    0.000    2.250    2.500    0.000    1.750    2.500 
#    0.000    1.250    0.000    0.750    0.000   48.125 
#    0.000    0.000    0.000    0.000    0.000    0.000 
#
# Total GULP energy -89276.934666 kJ/mol
# GULP energy per Si atom -5579.808417 kJ/mol
# Density = 2.595909 g / cm^3
# Si number density = 26.018310 Si / 1000 Ang^3
#
#
#
# Elastic Constant Matrix: (Units=GPa)
#
#
# Indices 1 2 3 4 5 6 
#
# 1 60.1615 -4.1585 -0.7261 -10.7951 -12.3646 3.6628
# 2 -4.1585 110.5629 20.1250 44.8600 11.3687 -11.9862
# 3 -0.7261 20.1250 161.9180 34.7602 19.9947 9.8681
# 4 -10.7951 44.8600 34.7602 42.6097 11.0354 -1.0570
# 5 -12.3646 11.3687 19.9947 11.0354 35.5646 -4.1807
# 6 3.6628 -11.9862 9.8681 -1.0570 -4.1807 30.3934
#
#
#
# Elastic Compliance Matrix: (Units=1/GPa)
#
#
# Indices 1 2 3 4 5 6 
#
# 1 0.019151 -0.002945 -0.001874 0.007884 0.006000 -0.001761
# 2 -0.002945 0.017634 0.001937 -0.020570 -0.000677 0.005872
# 3 -0.001874 0.001937 0.008341 -0.008438 -0.003637 -0.002512
# 4 0.007884 -0.020570 -0.008438 0.054796 -0.003518 -0.004901
# 5 0.006000 -0.000677 -0.003637 -0.003518 0.034116 0.004761
# 6 -0.001761 0.005872 -0.002512 -0.004901 0.004761 0.036730
#
#
# Mechanical properties :
#
#
# Convention : Reuss Voigt Hill
#
# Bulk Modulus (GPa) = 25.40678 40.34700 32.87689
# Shear Modulus (GPa) = 26.36402 42.87369 34.61885
#
# Velocity S-wave (km/s) = 3.18667 4.06375 3.65164
# Velocity P-wave (km/s) = 4.82970 6.12858 5.51750
#
# Compressibility (1/GPa) = 0.03935957
#
# Stress axis : x y z
#
# Youngs Moduli (GPa) = 52.21731 56.70979 119.89607
#
# Poissons Ratio (x) = 0.16703 0.22470
# Poissons Ratio (y) = 0.15380 -0.23221
# Poissons Ratio (z) = 0.09786 -0.10983
#
# Static dielectric constant tensor:
#      x y z
#    x 2.097510 0.047510 0.015250 
#    y 0.047510 2.040400 0.106240 
#    z 0.015250 0.106240 2.181050 
# 
# From -- ./inp_files/55391.got.cif
#   From: 2010.05.17/outbox.cif.g08.bks.cpg/sg2_28_cif.got.tgz:55391.got - 2010.06.03 11:33:40.
