data_PCOD9034031
_publ_section_title
;
Structure prediction by ZEFSAII (Michael W. Deem and Ramdas Pophale) SiO2 
 PCOD9034031
Probable space group: P -1
;
_chemical_formula_sum "Si O2"
_cell_formula_units_Z 15
_cell_length_a 16.789841
_cell_length_b 8.502780
_cell_length_c 6.769578
_cell_angle_alpha 82.002535
_cell_angle_beta 43.872034
_cell_angle_gamma 75.795777
_cell_volume 648.278926
_symmetry_space_group_name_H-M "P -1"
_symmetry_group_IT_number 2
_symmetry_cell_setting 'triclinic'
loop_
_space_group_symop_operation_xyz
x,y,z
-x,-y,-z
loop_
_atom_site_type_symbol
_atom_site_label
_atom_site_fract_x
_atom_site_fract_y
_atom_site_fract_z
Si Si1 0.028340 0.104562 0.247012
Si Si2 0.737085 0.107519 0.284428
Si Si3 0.170898 0.664679 0.661347
Si Si4 0.635820 0.819560 0.647167
Si Si5 0.168206 0.381315 0.971715
Si Si6 0.546571 0.158653 0.322032
Si Si7 0.500000 0.500000 0.500000
Si Si8 0.300041 0.446752 0.115414
O O1 0.081891 0.260068 0.186715
O O2 0.917527 0.180911 0.296832
O O3 0.000000 0.000000 0.500000
O O4 0.130237 0.988683 0.961480
O O5 0.736415 0.275868 0.367498
O O6 0.680470 0.128271 0.162824
O O7 0.665314 0.996596 0.553305
O O8 0.231527 0.562461 0.386888
O O9 0.112546 0.543428 0.919707
O O10 0.504311 0.817214 0.811318
O O11 0.663410 0.729417 0.818789
O O12 0.725587 0.716738 0.340362
O O13 0.219834 0.436416 0.070951
O O14 0.484075 0.312746 0.535257
O O15 0.500000 0.000000 0.500000
O O16 0.409330 0.523150 0.844222
#
# Coordination Sequence:
#
# PCOD9034031 Si02
#       8
#     2   2   2   2   2   2   1   2
#     4  11  26  44  74 105 138 189 240 301 356 415
#     4  10  23  46  71 100 150 179 239 298 351 430
#     4  11  25  46  71 105 136 195 236 290 363 427
#     4   9  21  45  71 101 138 189 229 288 359 432
#     4  10  22  47  70  97 149 178 235 295 349 428
#     4  10  22  44  71 100 138 191 229 288 361 424
#     4  12  24  44  70 100 148 178 232 308 342 430
#     4  11  25  44  72 106 139 186 240 286 366 429
#
# _framework density 23.138188
#
# number of rings (size 3 to 8) (size 9 to 14) (size 15 to 20)
#    0.000    1.600    1.333    1.600    7.467    1.067 
#    4.800    1.333    0.000    0.000    0.000    0.000 
#    0.000    0.000    0.000    0.000    0.000    0.000 
#
# Total GULP energy -83629.290410 kJ/mol
# GULP energy per Si atom -5575.286027 kJ/mol
# Density = 2.308552 g / cm^3
# Si number density = 23.138188 Si / 1000 Ang^3
#
#
#
# Elastic Constant Matrix: (Units=GPa)
#
#
# Indices 1 2 3 4 5 6 
#
# 1 96.2423 28.5004 52.3978 -24.3840 15.6521 4.0739
# 2 28.5004 123.0709 40.0791 -24.3437 14.1551 11.8237
# 3 52.3978 40.0791 100.1689 -25.5841 16.2788 5.1324
# 4 -24.3840 -24.3437 -25.5841 33.3546 -3.4934 7.7727
# 5 15.6521 14.1551 16.2788 -3.4934 23.0014 -3.0121
# 6 4.0739 11.8237 5.1324 7.7727 -3.0121 42.2063
#
#
#
# Elastic Compliance Matrix: (Units=1/GPa)
#
#
# Indices 1 2 3 4 5 6 
#
# 1 0.016583 0.000733 -0.005517 0.008439 -0.006967 -0.003187
# 2 0.000733 0.011190 -0.001657 0.007978 -0.005640 -0.004876
# 3 -0.005517 -0.001657 0.016605 0.007507 -0.006211 -0.002848
# 4 0.008439 0.007978 0.007507 0.049897 -0.010205 -0.013880
# 5 -0.006967 -0.005640 -0.006211 -0.010205 0.055693 0.008862
# 6 -0.003187 -0.004876 -0.002848 -0.013880 0.008862 0.028901
#
#
# Mechanical properties :
#
#
# Convention : Reuss Voigt Hill
#
# Bulk Modulus (GPa) = 31.74960 62.38186 47.06573
# Shear Modulus (GPa) = 24.72193 32.94609 28.83401
#
# Velocity S-wave (km/s) = 3.27226 3.77753 3.53394
# Velocity P-wave (km/s) = 5.29419 6.78568 6.08580
#
# Compressibility (1/GPa) = 0.03149646
#
# Stress axis : x y z
#
# Youngs Moduli (GPa) = 60.30253 89.36304 60.22434
#
# Poissons Ratio (x) = -0.06551 0.33225
# Poissons Ratio (y) = -0.04421 0.09979
# Poissons Ratio (z) = 0.33268 0.14807
#
# Static dielectric constant tensor:
#      x y z
#    x 1.849030 -0.034050 0.002560 
#    y -0.034050 1.906780 0.006120 
#    z 0.002560 0.006120 1.800640 
# 
# From -- ./inp_files/106625.got.cif
#   From: 2010.05.17/outbox.cif.g08.bks.cpg/sg2_54_cif.got.tgz:106625.got - 2010.06.03 11:33:40.
