data_PCOD9034430
_publ_section_title
;
Structure prediction by ZEFSAII (Michael W. Deem and Ramdas Pophale) SiO2 
 PCOD9034430
Probable space group: P -1
;
_chemical_formula_sum "Si O2"
_cell_formula_units_Z 10
_cell_length_a 9.753303
_cell_length_b 7.152651
_cell_length_c 8.622449
_cell_angle_alpha 54.316345
_cell_angle_beta 122.441568
_cell_angle_gamma 105.118250
_cell_volume 411.142338
_symmetry_space_group_name_H-M "P -1"
_symmetry_group_IT_number 2
_symmetry_cell_setting 'triclinic'
loop_
_space_group_symop_operation_xyz
x,y,z
-x,-y,-z
loop_
_atom_site_type_symbol
_atom_site_label
_atom_site_fract_x
_atom_site_fract_y
_atom_site_fract_z
Si Si1 0.155896 0.048600 0.170601
Si Si2 0.831005 0.442609 0.500361
Si Si3 0.737521 0.582970 0.711701
Si Si4 0.497452 0.988801 0.689336
Si Si5 0.505632 0.272178 0.916659
O O1 0.183830 0.827600 0.406340
O O2 0.308723 0.033138 0.153808
O O3 0.160866 0.274558 0.172144
O O4 0.000000 0.000000 0.000000
O O5 0.833133 0.476435 0.673133
O O6 0.671341 0.593171 0.272076
O O7 0.000000 0.500000 0.500000
O O8 0.606645 0.771582 0.460220
O O9 0.635464 0.406053 0.832611
O O10 0.500000 0.000000 0.500000
O O11 0.439232 0.770297 0.850536
O O12 0.500000 0.000000 0.000000
#
# Coordination Sequence:
#
# PCOD9034430 Si02
#       5
#     2   2   2   2   2
#     4  11  25  48  73 113 162 202 254 325 394 458
#     4  12  26  47  76 117 157 204 263 325 393 465
#     4  11  25  49  79 112 158 201 268 322 379 472
#     4  10  22  44  74 113 148 197 260 313 378 465
#     4  12  23  45  84 117 149 209 260 318 393 463
#
# _framework density 24.322476000000002
#
# number of rings (size 3 to 8) (size 9 to 14) (size 15 to 20)
#    0.000    0.800    4.000    3.000    0.000    4.800 
#    7.200    0.000    0.000    0.000    0.000    0.000 
#    0.000    0.000    0.000    0.000    0.000    0.000 
#
# Total GULP energy -55891.671404 kJ/mol
# GULP energy per Si atom -5589.167140 kJ/mol
# Density = 2.426712 g / cm^3
# Si number density = 24.322476 Si / 1000 Ang^3
#
#
#
# Elastic Constant Matrix: (Units=GPa)
#
#
# Indices 1 2 3 4 5 6 
#
# 1 174.1395 70.4185 71.5520 4.8663 -34.3649 4.3813
# 2 70.4185 163.7842 69.7283 -2.7525 -1.9718 12.8711
# 3 71.5520 69.7283 188.9033 -9.2873 -18.9636 13.7757
# 4 4.8663 -2.7525 -9.2873 48.8767 14.3943 0.4920
# 5 -34.3649 -1.9718 -18.9636 14.3943 49.2553 -7.3163
# 6 4.3813 12.8711 13.7757 0.4920 -7.3163 33.6571
#
#
#
# Elastic Compliance Matrix: (Units=1/GPa)
#
#
# Indices 1 2 3 4 5 6 
#
# 1 0.009321 -0.003348 -0.001943 -0.003581 0.007030 0.002443
# 2 -0.003348 0.008597 -0.001986 0.001537 -0.003629 -0.002850
# 3 -0.001943 -0.001986 0.007015 0.001242 0.000645 -0.001737
# 4 -0.003581 0.001537 0.001242 0.023939 -0.009403 -0.003024
# 5 0.007030 -0.003629 0.000645 -0.009403 0.029047 0.006660
# 6 0.002443 -0.002850 -0.001737 -0.003024 0.006660 0.032686
#
#
# Mechanical properties :
#
#
# Convention : Reuss Voigt Hill
#
# Bulk Modulus (GPa) = 96.35050 105.58051 100.96550
# Shear Modulus (GPa) = 38.87491 47.36638 43.12065
#
# Velocity S-wave (km/s) = 4.00223 4.41776 4.21512
# Velocity P-wave (km/s) = 7.81389 8.33816 8.08028
#
# Compressibility (1/GPa) = 0.01037877
#
# Stress axis : x y z
#
# Youngs Moduli (GPa) = 107.28989 116.32625 142.54574
#
# Poissons Ratio (x) = 0.38941 0.27699
# Poissons Ratio (y) = 0.35916 0.28310
# Poissons Ratio (z) = 0.20849 0.23103
#
# Static dielectric constant tensor:
#      x y z
#    x 2.063490 -0.118880 -0.037740 
#    y -0.118880 2.259230 0.213320 
#    z -0.037740 0.213320 2.146870 
# 
# From -- ./inp_files/156506.got.cif
#   From: 2010.05.17/outbox.cif.g08.bks.cpg/sg2_79_cif.got.tgz:156506.got - 2010.06.03 11:33:40.
