data_PCOD9034620
_publ_section_title
;
Structure prediction by ZEFSAII (Michael W. Deem and Ramdas Pophale) SiO2 
 PCOD9034620
Probable space group: P -1
;
_chemical_formula_sum "Si O2"
_cell_formula_units_Z 16
_cell_length_a 7.005637
_cell_length_b 16.002872
_cell_length_c 23.662174
_cell_angle_alpha 22.474245
_cell_angle_beta 136.343003
_cell_angle_gamma 137.049313
_cell_volume 679.548156
_symmetry_space_group_name_H-M "P -1"
_symmetry_group_IT_number 2
_symmetry_cell_setting 'triclinic'
loop_
_space_group_symop_operation_xyz
x,y,z
-x,-y,-z
loop_
_atom_site_type_symbol
_atom_site_label
_atom_site_fract_x
_atom_site_fract_y
_atom_site_fract_z
Si Si1 0.287155 0.481330 0.646586
Si Si2 0.262742 0.972383 0.353899
Si Si3 0.728166 0.605981 0.559669
Si Si4 0.837356 0.274003 0.075806
Si Si5 0.997774 0.939762 0.206260
Si Si6 0.820319 0.359203 0.887486
Si Si7 0.123421 0.815995 0.607366
Si Si8 0.501105 0.836376 0.261182
O O1 0.209881 0.702735 0.516508
O O2 0.488216 0.569652 0.580294
O O3 0.021227 0.285771 0.691960
O O4 0.497628 0.370736 0.797901
O O5 0.266460 0.010698 0.261682
O O6 0.543753 0.089041 0.374306
O O7 0.031023 0.103772 0.240514
O O8 0.609354 0.716915 0.412081
O O9 0.751141 0.355008 0.701891
O O10 0.999050 0.763194 0.550913
O O11 0.522131 0.096443 0.122392
O O12 0.860519 0.353165 0.966591
O O13 0.000000 0.500000 0.000000
O O14 0.735932 0.871905 0.238106
O O15 0.916351 0.134651 0.030127
O O16 0.019211 0.578658 0.765276
O O17 0.000000 0.000000 0.500000
#
# Coordination Sequence:
#
# PCOD9034620 Si02
#       8
#     2   2   2   2   2   2   2   2
#     4  10  17  32  57  82 108 142 181 236 269 316
#     4  10  20  35  52  83 109 142 188 225 274 330
#     4   9  17  31  56  80 110 141 180 230 263 319
#     4  10  23  38  56  77 113 150 182 228 279 333
#     4   9  19  33  52  80 115 145 180 221 277 327
#     4   9  19  34  53  79 111 143 183 218 278 330
#     4  11  20  33  55  85 114 141 183 230 278 320
#     4   8  17  34  53  78 105 148 187 210 270 329
#
# _framework density 23.545057
#
# number of rings (size 3 to 8) (size 9 to 14) (size 15 to 20)
#    0.000    2.750    2.500    0.750    1.750    3.000 
#    0.000    5.625    0.000    0.750    0.000    0.000 
#    0.000    0.000    0.000    0.000    0.000    0.000 
#
# Total GULP energy -89166.605197 kJ/mol
# GULP energy per Si atom -5572.912825 kJ/mol
# Density = 2.349147 g / cm^3
# Si number density = 23.545057 Si / 1000 Ang^3
#
#
#
# Elastic Constant Matrix: (Units=GPa)
#
#
# Indices 1 2 3 4 5 6 
#
# 1 39.7351 17.4302 27.0773 1.8587 3.2784 -11.7492
# 2 17.4302 184.9624 71.9609 -32.5107 13.7793 -4.4045
# 3 27.0773 71.9609 144.0529 -17.1595 -0.0584 -8.9972
# 4 1.8587 -32.5107 -17.1595 46.4638 -1.7024 4.5051
# 5 3.2784 13.7793 -0.0584 -1.7024 30.7210 4.9666
# 6 -11.7492 -4.4045 -8.9972 4.5051 4.9666 25.7222
#
#
#
# Elastic Compliance Matrix: (Units=1/GPa)
#
#
# Indices 1 2 3 4 5 6 
#
# 1 0.035199 -0.001370 -0.005671 -0.006249 -0.006107 0.016133
# 2 -0.001370 0.007705 -0.003123 0.004238 -0.002990 -0.000564
# 3 -0.005671 -0.003123 0.009751 0.001767 0.002195 -0.000448
# 4 -0.006249 0.004238 0.001767 0.026047 0.001233 -0.006311
# 5 -0.006107 -0.002990 0.002195 0.001233 0.036190 -0.009738
# 6 0.016133 -0.000564 -0.000448 -0.006311 -0.009738 0.048979
#
#
# Mechanical properties :
#
#
# Convention : Reuss Voigt Hill
#
# Bulk Modulus (GPa) = 30.93406 66.85413 48.89409
# Shear Modulus (GPa) = 25.64444 37.40021 31.52232
#
# Velocity S-wave (km/s) = 3.30383 3.98986 3.66294
# Velocity P-wave (km/s) = 5.26502 7.04848 6.22100
#
# Compressibility (1/GPa) = 0.03232683
#
# Stress axis : x y z
#
# Youngs Moduli (GPa) = 28.41014 129.78994 102.54969
#
# Poissons Ratio (x) = 0.17779 0.58157
# Poissons Ratio (y) = 0.03892 0.32027
# Poissons Ratio (z) = 0.16112 0.40534
#
# Static dielectric constant tensor:
#      x y z
#    x 2.020000 0.033590 0.029230 
#    y 0.033590 2.005160 -0.070030 
#    z 0.029230 -0.070030 1.917790 
# 
# From -- ./inp_files/540973.got.cif
#   From: 2010.05.17/outbox.cif.g08.bks.cpg/sg2_271_cif.got.tgz:540973.got - 2010.06.03 11:33:40.
