data_PCOD9034890
_publ_section_title
;
Structure prediction by ZEFSAII (Michael W. Deem and Ramdas Pophale) SiO2 
 PCOD9034890
Probable space group: P -1
;
_chemical_formula_sum "Si O2"
_cell_formula_units_Z 16
_cell_length_a 12.683813
_cell_length_b 17.731285
_cell_length_c 8.461871
_cell_angle_alpha 128.743566
_cell_angle_beta 30.721433
_cell_angle_gamma 132.896033
_cell_volume 708.012721
_symmetry_space_group_name_H-M "P -1"
_symmetry_group_IT_number 2
_symmetry_cell_setting 'triclinic'
loop_
_space_group_symop_operation_xyz
x,y,z
-x,-y,-z
loop_
_atom_site_type_symbol
_atom_site_label
_atom_site_fract_x
_atom_site_fract_y
_atom_site_fract_z
Si Si1 0.670055 0.609307 0.854088
Si Si2 0.533602 0.661053 0.753823
Si Si3 0.021990 0.200856 0.130964
Si Si4 0.022755 0.309655 0.948364
Si Si5 0.160265 0.004367 0.080274
Si Si6 0.032805 0.521497 0.170562
Si Si7 0.837330 0.109932 0.736219
Si Si8 0.408775 0.858906 0.189931
O O1 0.594117 0.640146 0.825805
O O2 0.745944 0.714897 0.998947
O O3 0.890988 0.584476 0.504091
O O4 0.500000 0.500000 0.000000
O O5 0.720094 0.651880 0.383766
O O6 0.290892 0.579637 0.934884
O O7 0.513596 0.772783 0.900914
O O8 0.830034 0.192194 0.490925
O O9 0.977917 0.082512 0.980273
O O10 0.979405 0.247999 0.084355
O O11 0.901174 0.229727 0.861716
O O12 0.953299 0.407201 0.194707
O O13 0.171966 0.951634 0.167647
O O14 0.033447 0.084893 0.363277
O O15 0.420273 0.067583 0.807108
O O16 0.000000 0.500000 0.000000
O O17 0.638167 0.088101 0.839657
#
# Coordination Sequence:
#
# PCOD9034890 Si02
#       8
#     2   2   2   2   2   2   2   2
#     4  12  28  48  69 103 140 180 226 286 348 398
#     4  12  25  45  71  98 140 183 229 280 338 408
#     4  11  26  45  66 103 138 177 225 285 343 400
#     4  11  23  44  69  98 138 180 234 279 337 405
#     4  10  23  45  72  97 137 179 228 278 338 404
#     4  12  25  44  73 100 132 182 233 282 333 411
#     4  10  22  45  69 102 133 178 230 282 329 409
#     4  12  23  43  71 100 140 178 223 285 345 396
#
# _framework density 22.598462999999999
#
# number of rings (size 3 to 8) (size 9 to 14) (size 15 to 20)
#    0.000    0.750    3.750    3.375    3.500    1.500 
#    2.250    0.000    0.000    0.000    0.000    0.000 
#    0.000    0.000    0.000    0.000    0.000    0.000 
#
# Total GULP energy -89367.921017 kJ/mol
# GULP energy per Si atom -5585.495064 kJ/mol
# Density = 2.254703 g / cm^3
# Si number density = 22.598463 Si / 1000 Ang^3
#
#
#
# Elastic Constant Matrix: (Units=GPa)
#
#
# Indices 1 2 3 4 5 6 
#
# 1 86.0162 44.2583 29.2075 11.5482 -8.6327 1.9558
# 2 44.2583 98.8789 16.4082 0.6662 -6.5398 20.8487
# 3 29.2075 16.4082 35.9671 6.6468 -2.4524 -0.5493
# 4 11.5482 0.6662 6.6468 32.8902 -5.6692 3.1634
# 5 -8.6327 -6.5398 -2.4524 -5.6692 24.4605 -0.9960
# 6 1.9558 20.8487 -0.5493 3.1634 -0.9960 45.3718
#
#
#
# Elastic Compliance Matrix: (Units=1/GPa)
#
#
# Indices 1 2 3 4 5 6 
#
# 1 0.020413 -0.007477 -0.012117 -0.004299 0.003107 0.002777
# 2 -0.007477 0.015275 -0.001544 0.003612 0.001845 -0.006927
# 3 -0.012117 -0.001544 0.039017 -0.004070 -0.001641 0.001952
# 4 -0.004299 0.003612 -0.004070 0.034199 0.006814 -0.003759
# 5 0.003107 0.001845 -0.001641 0.006814 0.043866 -0.000514
# 6 0.002777 -0.006927 0.001952 -0.003759 -0.000514 0.025378
#
#
# Mechanical properties :
#
#
# Convention : Reuss Voigt Hill
#
# Bulk Modulus (GPa) = 30.83660 44.51224 37.67442
# Shear Modulus (GPa) = 21.62316 29.27704 25.45010
#
# Velocity S-wave (km/s) = 3.09664 3.60326 3.35951
# Velocity P-wave (km/s) = 5.14399 6.08696 5.63523
#
# Compressibility (1/GPa) = 0.03242899
#
# Stress axis : x y z
#
# Youngs Moduli (GPa) = 48.98745 65.46812 25.62968
#
# Poissons Ratio (x) = 0.48953 0.31056
# Poissons Ratio (y) = 0.36630 0.03956
# Poissons Ratio (z) = 0.59358 0.10106
#
# Static dielectric constant tensor:
#      x y z
#    x 1.846500 0.026110 0.009740 
#    y 0.026110 1.895220 -0.010410 
#    z 0.009740 -0.010410 1.781500 
# 
# From -- ./inp_files/46764.got.cif
#   From: 2010.05.17/outbox.cif.g08.bks.cpg/sg2_24_cif.got.tgz:46764.got - 2010.06.03 11:33:40.
