data_PCOD9034283
_publ_section_title
;
Structure prediction by ZEFSAII (Michael W. Deem and Ramdas Pophale) SiO2 
 PCOD9034283
Probable space group: P -1
;
_chemical_formula_sum "Si O2"
_cell_formula_units_Z 16
_cell_length_a 9.800754
_cell_length_b 6.997203
_cell_length_c 18.099640
_cell_angle_alpha 71.870206
_cell_angle_beta 134.574787
_cell_angle_gamma 78.636845
_cell_volume 663.469991
_symmetry_space_group_name_H-M "P -1"
_symmetry_group_IT_number 2
_symmetry_cell_setting 'triclinic'
loop_
_space_group_symop_operation_xyz
x,y,z
-x,-y,-z
loop_
_atom_site_type_symbol
_atom_site_label
_atom_site_fract_x
_atom_site_fract_y
_atom_site_fract_z
Si Si1 0.113302 0.654627 0.196448
Si Si2 0.060910 0.138289 0.305222
Si Si3 0.733583 0.711223 0.929892
Si Si4 0.442326 0.306413 0.482295
Si Si5 0.682674 0.067293 0.147187
Si Si6 0.618062 0.644974 0.143219
Si Si7 0.748906 0.978003 0.760321
Si Si8 0.772054 0.289494 0.907009
O O1 0.202099 0.469517 0.322166
O O2 0.121905 0.884975 0.196454
O O3 0.310131 0.542143 0.218732
O O4 0.881116 0.720256 0.053960
O O5 0.088928 0.210726 0.223777
O O6 0.942058 0.995371 0.266811
O O7 0.866028 0.367783 0.255850
O O8 0.340332 0.924914 0.458027
O O9 0.481013 0.808097 0.857622
O O10 0.301591 0.110389 0.173020
O O11 0.500000 0.500000 0.500000
O O12 0.490681 0.174391 0.596035
O O13 0.686609 0.832225 0.156670
O O14 0.546741 0.264330 0.003990
O O15 0.444290 0.688030 0.138783
O O16 0.160505 0.565169 0.031513
O O17 0.000000 0.000000 0.000000
#
# Coordination Sequence:
#
# PCOD9034283 Si02
#       8
#     2   2   2   2   2   2   2   2
#     4  11  22  40  72 108 143 182 242 289 353 416
#     4  10  22  44  72  96 148 185 236 285 355 420
#     4  12  25  43  72 112 141 183 237 304 358 421
#     4   8  20  43  74 100 144 196 234 285 350 427
#     4  11  25  40  72 100 147 180 240 283 376 416
#     4  11  25  41  64 107 140 191 225 302 358 422
#     4   9  22  42  73 104 142 188 232 292 350 425
#     4  12  27  43  68 103 148 184 238 303 363 420
#
# _framework density 24.115635999999999
#
# number of rings (size 3 to 8) (size 9 to 14) (size 15 to 20)
#    0.750    0.750    1.250    3.375    7.000    3.000 
#    0.000    1.250    8.250    3.750    0.000    0.000 
#    0.000    0.000    0.000    0.000    0.000    0.000 
#
# Total GULP energy -89221.312456 kJ/mol
# GULP energy per Si atom -5576.332029 kJ/mol
# Density = 2.406075 g / cm^3
# Si number density = 24.115636 Si / 1000 Ang^3
#
#
#
# Elastic Constant Matrix: (Units=GPa)
#
#
# Indices 1 2 3 4 5 6 
#
# 1 154.9439 13.5257 68.0057 -6.3301 5.6502 -18.4023
# 2 13.5257 129.3377 41.8495 7.9481 12.0614 -7.8154
# 3 68.0057 41.8495 106.6644 8.0592 -5.5235 -1.5342
# 4 -6.3301 7.9481 8.0592 39.4649 0.0019 10.7834
# 5 5.6502 12.0614 -5.5235 0.0019 33.5927 3.8422
# 6 -18.4023 -7.8154 -1.5342 10.7834 3.8422 44.4271
#
#
#
# Elastic Compliance Matrix: (Units=1/GPa)
#
#
# Indices 1 2 3 4 5 6 
#
# 1 0.010384 0.001947 -0.007665 0.001653 -0.004203 0.004341
# 2 0.001947 0.009999 -0.005272 -0.001497 -0.005149 0.003192
# 3 -0.007665 -0.005272 0.016811 -0.002666 0.006338 -0.003423
# 4 0.001653 -0.001497 -0.002666 0.028247 0.000572 -0.006576
# 5 -0.004203 -0.005149 0.006338 0.000572 0.033996 -0.005507
# 6 0.004341 0.003192 -0.003423 -0.006576 -0.005507 0.026823
#
#
# Mechanical properties :
#
#
# Convention : Reuss Voigt Hill
#
# Bulk Modulus (GPa) = 65.72656 70.85644 68.29150
# Shear Modulus (GPa) = 32.61347 41.33461 36.97404
#
# Velocity S-wave (km/s) = 3.68146 4.14456 3.91985
# Velocity P-wave (km/s) = 6.73682 7.23525 6.99048
#
# Compressibility (1/GPa) = 0.01521455
#
# Stress axis : x y z
#
# Youngs Moduli (GPa) = 96.29778 100.01001 59.48589
#
# Poissons Ratio (x) = -0.19469 0.45594
# Poissons Ratio (y) = -0.18747 0.31360
# Poissons Ratio (z) = 0.73809 0.52724
#
# Static dielectric constant tensor:
#      x y z
#    x 1.966610 0.047340 -0.061130 
#    y 0.047340 2.096610 -0.000400 
#    z -0.061130 -0.000400 2.011930 
# 
# From -- ./inp_files/593578.got.cif
#   From: 2010.05.17/outbox.cif.g08.bks.cpg/sg2_297_cif.got.tgz:593578.got - 2010.06.03 11:33:40.
