data_PCOD9034816
_publ_section_title
;
Structure prediction by ZEFSAII (Michael W. Deem and Ramdas Pophale) SiO2 
 PCOD9034816
Probable space group: P -1
;
_chemical_formula_sum "Si O2"
_cell_formula_units_Z 15
_cell_length_a 9.309787
_cell_length_b 21.096356
_cell_length_c 21.285806
_cell_angle_alpha 19.246130
_cell_angle_beta 150.360606
_cell_angle_gamma 148.052566
_cell_volume 671.396896
_symmetry_space_group_name_H-M "P -1"
_symmetry_group_IT_number 2
_symmetry_cell_setting 'triclinic'
loop_
_space_group_symop_operation_xyz
x,y,z
-x,-y,-z
loop_
_atom_site_type_symbol
_atom_site_label
_atom_site_fract_x
_atom_site_fract_y
_atom_site_fract_z
Si Si1 0.991739 0.197124 0.402876
Si Si2 0.500000 0.000000 0.500000
Si Si3 0.844791 0.429145 0.632459
Si Si4 0.821731 0.125543 0.016653
Si Si5 0.366331 0.574593 0.249326
Si Si6 0.178849 0.218381 0.868142
Si Si7 0.260426 0.824387 0.456756
Si Si8 0.631254 0.073384 0.260789
O O1 0.747615 0.136897 0.420065
O O2 0.842895 0.191472 0.282728
O O3 0.183833 0.406339 0.295572
O O4 0.199347 0.031991 0.628695
O O5 0.536981 0.170635 0.409959
O O6 0.878783 0.257893 0.853204
O O7 0.513167 0.467098 0.461896
O O8 0.958279 0.357147 0.677196
O O9 0.051003 0.623936 0.551277
O O10 0.819465 0.271993 0.936658
O O11 0.500000 0.000000 0.000000
O O12 0.062892 0.988920 0.245726
O O13 0.644928 0.702388 0.200830
O O14 0.427814 0.207214 0.025534
O O15 0.000000 0.000000 0.000000
O O16 0.436399 0.902449 0.387982
#
# Coordination Sequence:
#
# PCOD9034816 Si02
#       8
#     2   1   2   2   2   2   2   2
#     4  10  23  44  68  96 130 177 220 275 337 391
#     4  10  24  42  72  94 130 174 218 278 328 396
#     4  12  24  44  69  95 138 174 218 275 333 399
#     4  12  25  42  65  99 139 175 218 274 336 396
#     4  12  25  40  67 103 130 174 226 274 327 398
#     4  12  24  42  68 102 133 175 222 276 328 397
#     4  11  23  46  67  99 133 179 222 267 339 389
#     4  10  22  45  68  93 136 176 218 274 334 393
#
# _framework density 22.341477999999999
#
# number of rings (size 3 to 8) (size 9 to 14) (size 15 to 20)
#    0.000    0.800    2.667    4.800    3.733    0.533 
#    2.400    2.000    0.000    0.000    0.000    0.000 
#    0.000    0.000    0.000    0.000    0.000    0.000 
#
# Total GULP energy -83702.687584 kJ/mol
# GULP energy per Si atom -5580.179172 kJ/mol
# Density = 2.229063 g / cm^3
# Si number density = 22.341478 Si / 1000 Ang^3
#
#
#
# Elastic Constant Matrix: (Units=GPa)
#
#
# Indices 1 2 3 4 5 6 
#
# 1 99.5592 -12.5699 12.6303 -18.6761 6.8146 7.9013
# 2 -12.5699 103.3025 8.6958 -26.1567 11.4446 -10.7949
# 3 12.6303 8.6958 52.4960 -12.2822 11.9710 -6.2443
# 4 -18.6761 -26.1567 -12.2822 26.0264 -3.5069 4.7889
# 5 6.8146 11.4446 11.9710 -3.5069 29.0244 0.5908
# 6 7.9013 -10.7949 -6.2443 4.7889 0.5908 24.8037
#
#
#
# Elastic Compliance Matrix: (Units=1/GPa)
#
#
# Indices 1 2 3 4 5 6 
#
# 1 0.014640 0.005875 -0.000434 0.016728 -0.003444 -0.005364
# 2 0.005875 0.016296 0.002367 0.020485 -0.006347 0.002013
# 3 -0.000434 0.002367 0.024201 0.011219 -0.009566 0.005323
# 4 0.016728 0.020485 0.011219 0.076860 -0.007177 -0.008258
# 5 -0.003444 -0.006347 -0.009566 -0.007177 0.040918 -0.003662
# 6 -0.005364 0.002013 0.005323 -0.008258 -0.003662 0.045923
#
#
# Mechanical properties :
#
#
# Convention : Reuss Voigt Hill
#
# Bulk Modulus (GPa) = 14.13404 30.31888 22.22646
# Shear Modulus (GPa) = 22.04505 32.41102 27.22803
#
# Velocity S-wave (km/s) = 3.14464 3.81295 3.49481
# Velocity P-wave (km/s) = 4.41872 5.74325 5.12396
#
# Compressibility (1/GPa) = 0.07075119
#
# Stress axis : x y z
#
# Youngs Moduli (GPa) = 68.30386 61.36392 41.32075
#
# Poissons Ratio (x) = -0.36049 0.01795
# Poissons Ratio (y) = -0.40126 -0.09779
# Poissons Ratio (z) = 0.02968 -0.14523
#
# Static dielectric constant tensor:
#      x y z
#    x 1.855460 0.003630 -0.029180 
#    y 0.003630 1.840410 0.074410 
#    z -0.029180 0.074410 1.876910 
# 
# From -- ./inp_files/77291.got.cif
#   From: 2010.05.17/outbox.cif.g08.bks.cpg/sg2_39_cif.got.tgz:77291.got - 2010.06.03 11:33:40.
