data_PCOD9034462
_publ_section_title
;
Structure prediction by ZEFSAII (Michael W. Deem and Ramdas Pophale) SiO2 
 PCOD9034462
Probable space group: P -1
;
_chemical_formula_sum "Si O2"
_cell_formula_units_Z 14
_cell_length_a 7.908537
_cell_length_b 19.842284
_cell_length_c 5.754323
_cell_angle_alpha 82.679315
_cell_angle_beta 72.616516
_cell_angle_gamma 41.229323
_cell_volume 561.121312
_symmetry_space_group_name_H-M "P -1"
_symmetry_group_IT_number 2
_symmetry_cell_setting 'triclinic'
loop_
_space_group_symop_operation_xyz
x,y,z
-x,-y,-z
loop_
_atom_site_type_symbol
_atom_site_label
_atom_site_fract_x
_atom_site_fract_y
_atom_site_fract_z
Si Si1 0.070607 0.285906 0.231640
Si Si2 0.322925 0.420987 0.380734
Si Si3 0.610654 0.216951 0.107482
Si Si4 0.039363 0.807813 0.389409
Si Si5 0.345733 0.105682 0.890081
Si Si6 0.234697 0.490991 0.886286
Si Si7 0.914282 0.965948 0.713911
O O1 0.360582 0.237514 0.181082
O O2 0.965189 0.269912 0.494389
O O3 0.890359 0.399394 0.164805
O O4 0.109301 0.217534 0.050253
O O5 0.496646 0.303595 0.306840
O O6 0.388213 0.430417 0.606281
O O7 0.000000 0.500000 0.500000
O O8 0.359885 0.453544 0.112102
O O9 0.884964 0.099953 0.123176
O O10 0.705495 0.234705 0.838210
O O11 0.777637 0.887016 0.295492
O O12 0.964912 0.880511 0.595263
O O13 0.603773 0.078292 0.805216
O O14 0.500000 0.000000 0.000000
O O15 0.000000 0.500000 0.000000
O O16 0.000000 0.000000 0.500000
#
# Coordination Sequence:
#
# PCOD9034462 Si02
#       7
#     2   2   2   2   2   2   2
#     4  12  26  45  79 105 147 203 247 314 384 452
#     4  10  22  44  75 109 153 195 253 319 386 459
#     4  12  26  45  75 111 145 195 255 315 379 460
#     4  12  27  46  70 105 152 192 256 307 379 452
#     4  12  25  47  69 103 152 195 244 309 375 451
#     4  10  22  44  75 111 150 197 256 312 391 457
#     4  12  27  45  74 106 147 197 252 313 382 453
#
# _framework density 24.950043000000001
#
# number of rings (size 3 to 8) (size 9 to 14) (size 15 to 20)
#    0.000    0.571    5.714    2.143    6.000    3.429 
#    0.000    1.429    0.000    0.000    0.000    0.000 
#    0.000    0.000    0.000    0.000    0.000    0.000 
#
# Total GULP energy -78109.180436 kJ/mol
# GULP energy per Si atom -5579.227174 kJ/mol
# Density = 2.489326 g / cm^3
# Si number density = 24.950043 Si / 1000 Ang^3
#
#
#
# Elastic Constant Matrix: (Units=GPa)
#
#
# Indices 1 2 3 4 5 6 
#
# 1 89.6973 56.3779 55.0459 -16.0703 -7.2085 -3.9781
# 2 56.3779 105.8942 44.7907 -9.6040 2.1990 18.6100
# 3 55.0459 44.7907 144.2758 -12.8005 -3.0521 12.8791
# 4 -16.0703 -9.6040 -12.8005 60.9661 8.1422 0.1350
# 5 -7.2085 2.1990 -3.0521 8.1422 47.8296 -4.6588
# 6 -3.9781 18.6100 12.8791 0.1350 -4.6588 53.0564
#
#
#
# Elastic Compliance Matrix: (Units=1/GPa)
#
#
# Indices 1 2 3 4 5 6 
#
# 1 0.022280 -0.010611 -0.005533 0.002523 0.003751 0.007059
# 2 -0.010611 0.016588 -0.000553 0.000126 -0.003076 -0.006750
# 3 -0.005533 -0.000553 0.009478 0.000523 -0.000543 -0.002571
# 4 0.002523 0.000126 0.000523 0.017546 -0.002604 -0.000255
# 5 0.003751 -0.003076 -0.000543 -0.002604 0.022360 0.003462
# 6 0.007059 -0.006750 -0.002571 -0.000255 0.003462 0.022674
#
#
# Mechanical properties :
#
#
# Convention : Reuss Voigt Hill
#
# Bulk Modulus (GPa) = 66.87844 72.47736 69.67790
# Shear Modulus (GPa) = 33.48873 44.61392 39.05133
#
# Velocity S-wave (km/s) = 3.66762 4.23322 3.96053
# Velocity P-wave (km/s) = 6.69316 7.28049 6.99299
#
# Compressibility (1/GPa) = 0.01495250
#
# Stress axis : x y z
#
# Youngs Moduli (GPa) = 44.88279 60.28434 105.50467
#
# Poissons Ratio (x) = 0.63968 0.58379
# Poissons Ratio (y) = 0.47625 0.05831
# Poissons Ratio (z) = 0.24835 0.03332
#
# Static dielectric constant tensor:
#      x y z
#    x 2.088920 0.020210 0.010500 
#    y 0.020210 1.902840 -0.014720 
#    z 0.010500 -0.014720 2.025630 
# 
# From -- ./inp_files/52658.got.cif
#   From: 2010.05.17/outbox.cif.g08.bks.cpg/sg2_27_cif.got.tgz:52658.got - 2010.06.03 11:33:40.
