data_PCOD9034259
_publ_section_title
;
Structure prediction by ZEFSAII (Michael W. Deem and Ramdas Pophale) SiO2 
 PCOD9034259
Probable space group: P -1
;
_chemical_formula_sum "Si O2"
_cell_formula_units_Z 16
_cell_length_a 11.397868
_cell_length_b 14.690115
_cell_length_c 13.056282
_cell_angle_alpha 48.216693
_cell_angle_beta 135.527231
_cell_angle_gamma 151.655646
_cell_volume 722.282324
_symmetry_space_group_name_H-M "P -1"
_symmetry_group_IT_number 2
_symmetry_cell_setting 'triclinic'
loop_
_space_group_symop_operation_xyz
x,y,z
-x,-y,-z
loop_
_atom_site_type_symbol
_atom_site_label
_atom_site_fract_x
_atom_site_fract_y
_atom_site_fract_z
Si Si1 0.315215 0.900024 0.562230
Si Si2 0.591836 0.692903 0.903687
Si Si3 0.166099 0.527719 0.491434
Si Si4 0.147200 0.674299 0.036004
Si Si5 0.021340 0.372895 0.814051
Si Si6 0.281061 0.019979 0.845120
Si Si7 0.749420 0.850449 0.664553
Si Si8 0.314347 0.038882 0.098200
O O1 0.457263 0.905885 0.738554
O O2 0.033025 0.682067 0.522853
O O3 0.500000 0.000000 0.500000
O O4 0.267271 0.015303 0.465245
O O5 0.762435 0.824048 0.813286
O O6 0.693170 0.828842 0.960847
O O7 0.294731 0.576619 0.787627
O O8 0.500000 0.500000 0.000000
O O9 0.202325 0.661796 0.337017
O O10 0.455363 0.636533 0.612445
O O11 0.000000 0.500000 0.500000
O O12 0.968725 0.608818 0.071483
O O13 0.432161 0.781744 0.167851
O O14 0.217071 0.845227 0.903267
O O15 0.000000 0.500000 0.000000
O O16 0.943096 0.192093 0.867548
O O17 0.017929 0.947827 0.712109
O O18 0.334670 0.051072 0.978972
#
# Coordination Sequence:
#
# PCOD9034259 Si02
#       8
#     2   2   2   2   2   2   2   2
#     4  12  21  38  65  92 129 183 213 253 321 392
#     4  12  24  36  59 100 136 171 214 267 325 386
#     4  12  21  38  63  93 134 172 216 257 314 400
#     4  10  22  44  72  88 126 169 224 275 334 388
#     4  11  21  38  65  95 121 173 220 263 330 382
#     4  10  25  43  64 100 123 171 219 279 333 377
#     4  12  25  41  62  97 141 169 216 267 320 394
#     4  11  21  40  63  91 133 168 221 262 326 394
#
# _framework density 22.152002
#
# number of rings (size 3 to 8) (size 9 to 14) (size 15 to 20)
#    0.000    0.750    6.250    2.250    0.000    4.000 
#    0.000    0.625    0.000    1.500    0.000    0.000 
#    0.000    0.000    0.000    0.000    0.000    0.000 
#
# Total GULP energy -89280.216824 kJ/mol
# GULP energy per Si atom -5580.013552 kJ/mol
# Density = 2.210158 g / cm^3
# Si number density = 22.152002 Si / 1000 Ang^3
#
#
#
# Elastic Constant Matrix: (Units=GPa)
#
#
# Indices 1 2 3 4 5 6 
#
# 1 66.2197 42.6304 18.4354 6.2694 23.0434 -11.7386
# 2 42.6304 145.1142 29.0755 15.5478 17.1139 -31.1906
# 3 18.4354 29.0755 77.3390 11.3188 17.1745 -9.9253
# 4 6.2694 15.5478 11.3188 37.7938 6.7921 8.3108
# 5 23.0434 17.1139 17.1745 6.7921 34.9244 5.9105
# 6 -11.7386 -31.1906 -9.9253 8.3108 5.9105 46.0798
#
#
#
# Elastic Compliance Matrix: (Units=1/GPa)
#
#
# Indices 1 2 3 4 5 6 
#
# 1 0.023745 -0.004031 -0.000164 -0.000813 -0.014346 0.005272
# 2 -0.004031 0.010528 -0.000912 -0.004508 -0.002362 0.007019
# 3 -0.000164 -0.000912 0.016116 -0.004094 -0.007334 0.004491
# 4 -0.000813 -0.004508 -0.004094 0.031809 0.000250 -0.009910
# 5 -0.014346 -0.002362 -0.007334 0.000250 0.044954 -0.012644
# 6 0.005272 0.007019 0.004491 -0.009910 -0.012644 0.032172
#
#
# Mechanical properties :
#
#
# Convention : Reuss Voigt Hill
#
# Bulk Modulus (GPa) = 24.88976 52.10619 38.49797
# Shear Modulus (GPa) = 27.33269 36.99504 32.16386
#
# Velocity S-wave (km/s) = 3.51646 4.09106 3.81460
# Velocity P-wave (km/s) = 5.26760 6.77413 6.06780
#
# Compressibility (1/GPa) = 0.04017717
#
# Stress axis : x y z
#
# Youngs Moduli (GPa) = 42.11353 94.98163 62.04918
#
# Poissons Ratio (x) = 0.38285 0.01015
# Poissons Ratio (y) = 0.16975 0.05659
# Poissons Ratio (z) = 0.00689 0.08663
#
# Static dielectric constant tensor:
#      x y z
#    x 1.470880 0.691960 1.146610 
#    y 0.691960 0.760180 -1.754040 
#    z 1.146610 -1.754040 -1.105350 
# 
# From -- ./inp_files/521566.got.cif
#   From: 2010.05.17/outbox.cif.g08.bks.cpg/sg2_261_cif.got.tgz:521566.got - 2010.06.03 11:33:40.
