data_PCOD9034460
_publ_section_title
;
Structure prediction by ZEFSAII (Michael W. Deem and Ramdas Pophale) SiO2 
 PCOD9034460
Probable space group: P -1
;
_chemical_formula_sum "Si O2"
_cell_formula_units_Z 14
_cell_length_a 8.950853
_cell_length_b 12.459345
_cell_length_c 19.127283
_cell_angle_alpha 155.502092
_cell_angle_beta 142.006684
_cell_angle_gamma 48.643545
_cell_volume 531.025029
_symmetry_space_group_name_H-M "P -1"
_symmetry_group_IT_number 2
_symmetry_cell_setting 'triclinic'
loop_
_space_group_symop_operation_xyz
x,y,z
-x,-y,-z
loop_
_atom_site_type_symbol
_atom_site_label
_atom_site_fract_x
_atom_site_fract_y
_atom_site_fract_z
Si Si1 0.180736 0.395369 0.613062
Si Si2 0.147823 0.334972 0.715171
Si Si3 0.787361 0.007737 0.732640
Si Si4 0.642719 0.363061 0.414504
Si Si5 0.468879 0.095905 0.793932
Si Si6 0.757560 0.548949 0.779169
Si Si7 0.291344 0.613438 0.190006
O O1 0.142429 0.224916 0.569920
O O2 0.474699 0.533619 0.809949
O O3 0.931291 0.509375 0.594378
O O4 0.153471 0.224706 0.431231
O O5 0.238090 0.167276 0.709802
O O6 0.895341 0.420852 0.693680
O O7 0.346959 0.619330 0.955808
O O8 0.617413 0.955509 0.708348
O O9 0.658771 0.171400 0.725656
O O10 0.042621 0.200405 0.967691
O O11 0.500000 0.500000 0.500000
O O12 0.481073 0.357707 0.281863
O O13 0.607526 0.071288 0.263440
O O14 0.707894 0.336194 0.697139
O O15 0.000000 0.500000 0.000000
#
# Coordination Sequence:
#
# PCOD9034460 Si02
#       7
#     2   2   2   2   2   2   2
#     4  12  25  42  72 108 140 184 248 293 363 421
#     4  10  22  44  75 109 131 192 249 297 353 412
#     4  10  23  43  71 109 134 187 242 303 359 408
#     4  12  28  47  68 109 151 195 238 288 362 437
#     4  10  24  45  74 103 145 185 245 300 356 422
#     4  10  24  47  69  99 152 193 231 290 365 432
#     4  10  23  44  72 102 144 180 238 306 359 420
#
# _framework density 26.364106
#
# number of rings (size 3 to 8) (size 9 to 14) (size 15 to 20)
#    0.000    1.429    2.857    0.429    6.000    5.143 
#    0.000    0.000    0.000    0.000    0.000    0.000 
#    0.000    0.000    0.000    0.000    0.000    0.000 
#
# Total GULP energy -78200.800814 kJ/mol
# GULP energy per Si atom -5585.771487 kJ/mol
# Density = 2.630410 g / cm^3
# Si number density = 26.364106 Si / 1000 Ang^3
#
#
#
# Elastic Constant Matrix: (Units=GPa)
#
#
# Indices 1 2 3 4 5 6 
#
# 1 139.2959 41.0220 53.2514 -23.6287 4.8943 -12.6512
# 2 41.0220 152.8487 52.9092 -42.2579 22.8857 2.8549
# 3 53.2514 52.9092 109.4811 -15.0235 17.8050 -6.5951
# 4 -23.6287 -42.2579 -15.0235 44.3898 -11.0883 9.1565
# 5 4.8943 22.8857 17.8050 -11.0883 55.3895 -12.8991
# 6 -12.6512 2.8549 -6.5951 9.1565 -12.8991 67.8477
#
#
#
# Elastic Compliance Matrix: (Units=1/GPa)
#
#
# Indices 1 2 3 4 5 6 
#
# 1 0.009527 -0.000456 -0.004141 0.003389 0.001647 0.001249
# 2 -0.000456 0.010644 -0.003545 0.008682 -0.002048 -0.002439
# 3 -0.004141 -0.003545 0.013055 -0.001905 -0.002655 0.000398
# 4 0.003389 0.008682 -0.001905 0.033389 0.002490 -0.003951
# 5 0.001647 -0.002048 -0.002655 0.002490 0.020989 0.003790
# 6 0.001249 -0.002439 0.000398 -0.003951 0.003790 0.016367
#
#
# Mechanical properties :
#
#
# Convention : Reuss Voigt Hill
#
# Bulk Modulus (GPa) = 59.02170 77.33232 68.17701
# Shear Modulus (GPa) = 39.71327 50.48827 45.10077
#
# Velocity S-wave (km/s) = 3.88537 4.38086 4.14053
# Velocity P-wave (km/s) = 6.52410 7.41521 6.98388
#
# Compressibility (1/GPa) = 0.01694292
#
# Stress axis : x y z
#
# Youngs Moduli (GPa) = 104.96704 93.94613 76.59688
#
# Poissons Ratio (x) = 0.04288 0.31717
# Poissons Ratio (y) = 0.04792 0.27150
# Poissons Ratio (z) = 0.43465 0.33300
#
# Static dielectric constant tensor:
#      x y z
#    x 2.131810 -0.061290 0.098150 
#    y -0.061290 2.087270 0.008830 
#    z 0.098150 0.008830 2.208520 
# 
# From -- ./inp_files/560223.got.cif
#   From: 2010.05.17/outbox.cif.g08.bks.cpg/sg2_281_cif.got.tgz:560223.got - 2010.06.03 11:33:40.
