data_PCOD9034824
_publ_section_title
;
Structure prediction by ZEFSAII (Michael W. Deem and Ramdas Pophale) SiO2 
 PCOD9034824
Probable space group: P -1
;
_chemical_formula_sum "Si O2"
_cell_formula_units_Z 15
_cell_length_a 14.863276
_cell_length_b 8.889190
_cell_length_c 8.742402
_cell_angle_alpha 124.079239
_cell_angle_beta 51.005710
_cell_angle_gamma 115.428115
_cell_volume 738.246779
_symmetry_space_group_name_H-M "P -1"
_symmetry_group_IT_number 2
_symmetry_cell_setting 'triclinic'
loop_
_space_group_symop_operation_xyz
x,y,z
-x,-y,-z
loop_
_atom_site_type_symbol
_atom_site_label
_atom_site_fract_x
_atom_site_fract_y
_atom_site_fract_z
Si Si1 0.520491 0.203206 0.029383
Si Si2 0.798697 0.958173 0.949105
Si Si3 0.000000 0.000000 0.000000
Si Si4 0.613764 0.477063 0.582639
Si Si5 0.924939 0.562853 0.833264
Si Si6 0.730623 0.322832 0.075560
Si Si7 0.839445 0.569915 0.587134
Si Si8 0.547368 0.830857 0.268317
O O1 0.505806 0.197197 0.860130
O O2 0.423765 0.321171 0.268106
O O3 0.645778 0.290954 0.003098
O O4 0.500000 0.000000 0.000000
O O5 0.834459 0.788230 0.715971
O O6 0.902848 0.030598 0.990366
O O7 0.685246 0.875447 0.121089
O O8 0.763720 0.126305 0.982671
O O9 0.945464 0.781140 0.944711
O O10 0.658682 0.403663 0.334800
O O11 0.718908 0.476358 0.591755
O O12 0.499886 0.348031 0.688170
O O13 0.863914 0.517650 0.706755
O O14 0.049780 0.486327 0.654170
O O15 0.842012 0.462883 0.992723
O O16 0.500000 0.000000 0.500000
#
# Coordination Sequence:
#
# PCOD9034824 Si02
#       8
#     2   2   1   2   2   2   2   2
#     4  12  24  45  64 104 141 177 222 282 338 401
#     4  11  23  45  68  98 137 171 231 280 336 400
#     4  10  24  44  68  94 128 176 230 280 324 406
#     4  12  24  41  70  99 139 184 224 273 342 408
#     4  10  24  44  70  97 131 179 234 281 343 393
#     4  12  25  44  69 103 141 175 225 286 339 404
#     4  10  22  45  68  96 130 182 229 281 334 410
#     4  12  24  43  71 101 135 184 227 274 337 412
#
# _framework density 20.31841
#
# number of rings (size 3 to 8) (size 9 to 14) (size 15 to 20)
#    0.000    0.800    4.000    2.400    3.733    2.667 
#    2.400    2.667    0.000    0.000    0.000    0.000 
#    0.000    0.000    0.000    0.000    0.000    0.000 
#
# Total GULP energy -83629.313517 kJ/mol
# GULP energy per Si atom -5575.287568 kJ/mol
# Density = 2.027216 g / cm^3
# Si number density = 20.318410 Si / 1000 Ang^3
#
#
#
# Elastic Constant Matrix: (Units=GPa)
#
#
# Indices 1 2 3 4 5 6 
#
# 1 72.2939 -14.8592 0.5908 4.3180 3.1874 17.1312
# 2 -14.8592 94.2628 43.5426 -5.2743 -11.6870 0.5119
# 3 0.5908 43.5426 65.3042 9.9086 -6.0641 -20.5326
# 4 4.3180 -5.2743 9.9086 29.5813 -6.0094 -6.4676
# 5 3.1874 -11.6870 -6.0641 -6.0094 30.2672 11.8123
# 6 17.1312 0.5119 -20.5326 -6.4676 11.8123 33.3025
#
#
#
# Elastic Compliance Matrix: (Units=1/GPa)
#
#
# Indices 1 2 3 4 5 6 
#
# 1 0.021008 0.010657 -0.013525 0.000131 0.007828 -0.022061
# 2 0.010657 0.027137 -0.026331 0.009703 0.016145 -0.025975
# 3 -0.013525 -0.026331 0.045663 -0.012996 -0.017468 0.039187
# 4 0.000131 0.009703 -0.012996 0.041189 0.010906 -0.004099
# 5 0.007828 0.016145 -0.017468 0.010906 0.048933 -0.030283
# 6 -0.022061 -0.025975 0.039187 -0.004099 -0.030283 0.075882
#
#
# Mechanical properties :
#
#
# Convention : Reuss Voigt Hill
#
# Bulk Modulus (GPa) = 28.24020 32.26771 30.25395
# Shear Modulus (GPa) = 15.15096 32.13598 23.64347
#
# Velocity S-wave (km/s) = 2.73367 3.98127 3.41493
# Velocity P-wave (km/s) = 4.88804 6.08683 5.52008
#
# Compressibility (1/GPa) = 0.03541051
#
# Stress axis : x y z
#
# Youngs Moduli (GPa) = 47.60091 36.84994 21.89969
#
# Poissons Ratio (x) = -0.39270 0.29619
# Poissons Ratio (y) = -0.50728 0.57663
# Poissons Ratio (z) = 0.64379 0.97028
#
# Static dielectric constant tensor:
#      x y z
#    x 1.726670 0.003540 -0.005520 
#    y 0.003540 1.698140 0.007290 
#    z -0.005520 0.007290 1.712910 
# 
# From -- ./inp_files/185639.got.cif
#   From: 2010.05.17/outbox.cif.g08.bks.cpg/sg2_93_cif.got.tgz:185639.got - 2010.06.03 11:33:40.
