data_PCOD9034663
_publ_section_title
;
Structure prediction by ZEFSAII (Michael W. Deem and Ramdas Pophale) SiO2 
 PCOD9034663
Probable space group: P -1
;
_chemical_formula_sum "Si O2"
_cell_formula_units_Z 14
_cell_length_a 5.472846
_cell_length_b 11.832176
_cell_length_c 10.995054
_cell_angle_alpha 97.800127
_cell_angle_beta 58.970140
_cell_angle_gamma 86.611464
_cell_volume 597.434125
_symmetry_space_group_name_H-M "P -1"
_symmetry_group_IT_number 2
_symmetry_cell_setting 'triclinic'
loop_
_space_group_symop_operation_xyz
x,y,z
-x,-y,-z
loop_
_atom_site_type_symbol
_atom_site_label
_atom_site_fract_x
_atom_site_fract_y
_atom_site_fract_z
Si Si1 0.846196 0.478888 0.907151
Si Si2 0.341345 0.297413 0.686104
Si Si3 0.151595 0.289820 0.170204
Si Si4 0.420209 0.756435 0.641919
Si Si5 0.238918 0.142993 0.899074
Si Si6 0.640138 0.093698 0.092545
Si Si7 0.345016 0.492586 0.407648
O O1 0.894690 0.574106 0.808585
O O2 0.011321 0.357764 0.799879
O O3 0.500000 0.500000 0.000000
O O4 0.000000 0.500000 0.000000
O O5 0.394202 0.250917 0.528832
O O6 0.390072 0.195332 0.756479
O O7 0.536199 0.400518 0.674065
O O8 0.441670 0.205834 0.109046
O O9 0.904851 0.256468 0.315204
O O10 0.112209 0.248408 0.035365
O O11 0.377428 0.868410 0.753728
O O12 0.534221 0.640901 0.675886
O O13 0.432329 0.036279 0.902191
O O14 0.945757 0.089412 0.944859
O O15 0.500000 0.500000 0.500000
O O16 0.000000 0.500000 0.500000
#
# Coordination Sequence:
#
# PCOD9034663 Si02
#       7
#     2   2   2   2   2   2   2
#     4  12  26  43  69 109 143 181 229 294 353 422
#     4  11  23  44  67 106 141 178 231 293 355 414
#     4  11  22  42  66  95 135 181 233 282 350 419
#     4  10  24  40  64  99 135 180 226 287 349 420
#     4  10  22  45  66  98 133 182 237 293 341 416
#     4  10  23  42  71  93 135 186 237 283 353 412
#     4  10  23  41  65  98 142 183 220 274 353 425
#
# _framework density 23.433547000000001
#
# number of rings (size 3 to 8) (size 9 to 14) (size 15 to 20)
#    0.000    1.429    2.857    1.286    6.000    2.857 
#    5.143    0.714    0.000    0.000    0.000    0.000 
#    0.000    0.000    0.000    0.000    0.000    0.000 
#
# Total GULP energy -78071.792721 kJ/mol
# GULP energy per Si atom -5576.556623 kJ/mol
# Density = 2.338021 g / cm^3
# Si number density = 23.433547 Si / 1000 Ang^3
#
#
#
# Elastic Constant Matrix: (Units=GPa)
#
#
# Indices 1 2 3 4 5 6 
#
# 1 87.7677 9.5640 23.7462 -8.3364 -21.1934 -13.2353
# 2 9.5640 121.9013 21.3661 -14.6303 11.4191 -18.9068
# 3 23.7462 21.3661 116.4489 -3.6003 2.2445 1.7005
# 4 -8.3364 -14.6303 -3.6003 50.2642 -2.1965 5.2789
# 5 -21.1934 11.4191 2.2445 -2.1965 30.4001 1.7513
# 6 -13.2353 -18.9068 1.7005 5.2789 1.7513 32.0994
#
#
#
# Elastic Compliance Matrix: (Units=1/GPa)
#
#
# Indices 1 2 3 4 5 6 
#
# 1 0.016248 -0.000650 -0.003431 0.002192 0.011666 0.005501
# 2 -0.000650 0.010055 -0.001653 0.001918 -0.004295 0.005661
# 3 -0.003431 -0.001653 0.009670 -0.000172 -0.002340 -0.002745
# 4 0.002192 0.001918 -0.000172 0.021074 0.002432 -0.001556
# 5 0.011666 -0.004295 -0.002340 0.002432 0.043009 -0.000342
# 6 0.005501 0.005661 -0.002745 -0.001556 -0.000342 0.037176
#
#
# Mechanical properties :
#
#
# Convention : Reuss Voigt Hill
#
# Bulk Modulus (GPa) = 40.80895 48.38561 44.59728
# Shear Modulus (GPa) = 31.87393 40.64885 36.26139
#
# Velocity S-wave (km/s) = 3.69207 4.16942 3.93799
# Velocity P-wave (km/s) = 5.96890 6.62357 6.30473
#
# Compressibility (1/GPa) = 0.02450443
#
# Stress axis : x y z
#
# Youngs Moduli (GPa) = 61.54717 99.45691 103.40894
#
# Poissons Ratio (x) = 0.06463 0.35484
# Poissons Ratio (y) = 0.03999 0.17092
# Poissons Ratio (z) = 0.21119 0.16439
#
# Static dielectric constant tensor:
#      x y z
#    x 2.082890 0.070390 0.047250 
#    y 0.070390 1.922610 -0.016060 
#    z 0.047250 -0.016060 1.932610 
# 
# From -- ./inp_files/51538.got.cif
#   From: 2010.05.17/outbox.cif.g08.bks.cpg/sg2_26_cif.got.tgz:51538.got - 2010.06.03 11:33:40.
