data_PCOD9034598
_publ_section_title
;
Structure prediction by ZEFSAII (Michael W. Deem and Ramdas Pophale) SiO2 
 PCOD9034598
Probable space group: P -1
;
_chemical_formula_sum "Si O2"
_cell_formula_units_Z 14
_cell_length_a 7.848103
_cell_length_b 20.449482
_cell_length_c 6.716605
_cell_angle_alpha 125.118315
_cell_angle_beta 56.455298
_cell_angle_gamma 135.755454
_cell_volume 596.268017
_symmetry_space_group_name_H-M "P -1"
_symmetry_group_IT_number 2
_symmetry_cell_setting 'triclinic'
loop_
_space_group_symop_operation_xyz
x,y,z
-x,-y,-z
loop_
_atom_site_type_symbol
_atom_site_label
_atom_site_fract_x
_atom_site_fract_y
_atom_site_fract_z
Si Si1 0.506373 0.830349 0.646968
Si Si2 0.115686 0.454389 0.058699
Si Si3 0.681873 0.609882 0.842123
Si Si4 0.068993 0.627289 0.365797
Si Si5 0.468022 0.863461 0.177415
Si Si6 0.723200 0.085368 0.278012
Si Si7 0.198035 0.178811 0.848839
O O1 0.295972 0.725699 0.496534
O O2 0.487712 0.914203 0.709517
O O3 0.774002 0.854862 0.447314
O O4 0.430896 0.819086 0.905261
O O5 0.160643 0.405784 0.126652
O O6 0.051229 0.531556 0.285102
O O7 0.390220 0.522009 0.895150
O O8 0.916775 0.377545 0.890556
O O9 0.816903 0.618134 0.565123
O O10 0.710415 0.709751 0.037191
O O11 0.243829 0.849067 0.434295
O O12 0.621347 0.834423 0.155060
O O13 0.639962 0.980796 0.228145
O O14 0.944061 0.126097 0.047375
#
# Coordination Sequence:
#
# PCOD9034598 Si02
#       7
#     2   2   2   2   2   2   2
#     4  11  23  41  65  98 129 167 217 265 315 384
#     4  10  24  42  65  88 125 168 211 268 317 376
#     4  11  22  42  63  93 123 166 216 260 323 376
#     4  11  22  43  63  91 125 166 216 261 318 378
#     4  10  24  42  68  93 133 171 209 264 322 382
#     4  10  22  45  65  95 130 170 216 259 322 384
#     4  11  23  41  65  98 130 163 220 264 314 387
#
# _framework density 23.479372999999999
#
# number of rings (size 3 to 8) (size 9 to 14) (size 15 to 20)
#    0.000    1.429    2.857    1.714    0.000    5.143 
#    2.571    0.000    0.000    0.000    0.000    0.000 
#    0.000    0.000    0.000    0.000    0.000    0.000 
#
# Total GULP energy -78238.551770 kJ/mol
# GULP energy per Si atom -5588.467984 kJ/mol
# Density = 2.342593 g / cm^3
# Si number density = 23.479373 Si / 1000 Ang^3
#
#
#
# Elastic Constant Matrix: (Units=GPa)
#
#
# Indices 1 2 3 4 5 6 
#
# 1 53.9873 5.5043 34.6002 17.2385 -11.6169 -15.9631
# 2 5.5043 63.9162 34.8542 4.1707 -9.1593 -6.8387
# 3 34.6002 34.8542 179.5296 -5.7609 -16.4578 12.7949
# 4 17.2385 4.1707 -5.7609 46.4664 2.0861 -14.4765
# 5 -11.6169 -9.1593 -16.4578 2.0861 40.9392 1.3156
# 6 -15.9631 -6.8387 12.7949 -14.4765 1.3156 30.9335
#
#
#
# Elastic Compliance Matrix: (Units=1/GPa)
#
#
# Indices 1 2 3 4 5 6 
#
# 1 0.032358 0.004946 -0.008032 -0.008511 0.006952 0.016835
# 2 0.004946 0.019439 -0.005022 -0.001907 0.003578 0.007883
# 3 -0.008032 -0.005022 0.008748 0.002031 0.000265 -0.007934
# 4 -0.008511 -0.001907 0.002031 0.027574 -0.003668 0.007406
# 5 0.006952 0.003578 0.000265 -0.003668 0.027449 0.001385
# 6 0.016835 0.007883 -0.007934 0.007406 0.001385 0.049447
#
#
# Mechanical properties :
#
#
# Convention : Reuss Voigt Hill
#
# Bulk Modulus (GPa) = 22.55872 49.70560 36.13216
# Shear Modulus (GPa) = 25.50945 38.49945 32.00445
#
# Velocity S-wave (km/s) = 3.29973 4.05373 3.69601
# Velocity P-wave (km/s) = 4.91389 6.56705 5.79968
#
# Compressibility (1/GPa) = 0.04432876
#
# Stress axis : x y z
#
# Youngs Moduli (GPa) = 30.90440 51.44382 114.31009
#
# Poissons Ratio (x) = -0.25446 0.91815
# Poissons Ratio (y) = -0.15286 0.57409
# Poissons Ratio (z) = 0.24823 0.25836
#
# Static dielectric constant tensor:
#      x y z
#    x 1.875750 0.035960 0.019300 
#    y 0.035960 1.902020 -0.032620 
#    z 0.019300 -0.032620 1.951940 
# 
# From -- ./inp_files/53890.got.cif
#   From: 2010.05.17/outbox.cif.g08.bks.cpg/sg2_27_cif.got.tgz:53890.got - 2010.06.03 11:33:40.
