data_PCOD9034439
_publ_section_title
;
Structure prediction by ZEFSAII (Michael W. Deem and Ramdas Pophale) SiO2 
 PCOD9034439
Probable space group: P -1
;
_chemical_formula_sum "Si O2"
_cell_formula_units_Z 14
_cell_length_a 7.819292
_cell_length_b 12.087386
_cell_length_c 8.863003
_cell_angle_alpha 40.959531
_cell_angle_beta 89.937246
_cell_angle_gamma 93.015266
_cell_volume 547.296767
_symmetry_space_group_name_H-M "P -1"
_symmetry_group_IT_number 2
_symmetry_cell_setting 'triclinic'
loop_
_space_group_symop_operation_xyz
x,y,z
-x,-y,-z
loop_
_atom_site_type_symbol
_atom_site_label
_atom_site_fract_x
_atom_site_fract_y
_atom_site_fract_z
Si Si1 0.635172 0.235043 0.524142
Si Si2 0.867467 0.752895 0.005804
Si Si3 0.336776 0.984724 0.698824
Si Si4 0.500000 0.500000 0.500000
Si Si5 0.000000 0.000000 0.500000
Si Si6 0.222575 0.611743 0.162942
Si Si7 0.796067 0.974608 0.010209
Si Si8 0.702724 0.499715 0.028603
O O1 0.512326 0.100793 0.566040
O O2 0.545760 0.378079 0.472745
O O3 0.748324 0.333449 0.293133
O O4 0.729451 0.125508 0.757813
O O5 0.750719 0.801628 0.094596
O O6 0.944338 0.920707 0.748163
O O7 0.764861 0.645984 0.991103
O O8 0.033147 0.661240 0.153249
O O9 0.198752 0.028027 0.532066
O O10 0.284562 0.034536 0.817512
O O11 0.331087 0.780835 0.922536
O O12 0.325914 0.548887 0.366149
O O13 0.205977 0.489048 0.144553
O O14 0.000000 0.000000 0.000000
O O15 0.500000 0.500000 0.000000
#
# Coordination Sequence:
#
# PCOD9034439 Si02
#       8
#     2   2   2   1   1   2   2   2
#     4  12  28  44  73 108 142 194 237 291 365 423
#     4  11  26  48  74 106 143 189 236 303 352 428
#     4  11  25  46  75 107 140 191 235 304 348 430
#     4  12  24  48  68 104 146 190 234 286 366 418
#     4  10  22  44  74  98 138 184 238 280 360 414
#     4  11  25  48  72 102 149 186 241 293 359 422
#     4  12  24  49  74 108 141 181 253 294 354 425
#     4  12  27  47  70 109 150 187 237 296 359 431
#
# _framework density 25.580272999999998
#
# number of rings (size 3 to 8) (size 9 to 14) (size 15 to 20)
#    0.000    0.571    5.714    1.714    8.000    0.571 
#    2.571    1.429    0.000    0.000    0.000    0.000 
#    0.000    0.000    0.000    0.000    0.000    0.000 
#
# Total GULP energy -77995.339709 kJ/mol
# GULP energy per Si atom -5571.095694 kJ/mol
# Density = 2.552205 g / cm^3
# Si number density = 25.580273 Si / 1000 Ang^3
#
#
#
# Elastic Constant Matrix: (Units=GPa)
#
#
# Indices 1 2 3 4 5 6 
#
# 1 66.4295 20.0101 26.2659 12.6357 29.9102 6.1354
# 2 20.0101 152.1588 11.6474 9.0837 20.2368 3.0056
# 3 26.2659 11.6474 95.1063 24.6596 29.7466 10.7028
# 4 12.6357 9.0837 24.6596 38.6037 15.0818 2.3547
# 5 29.9102 20.2368 29.7466 15.0818 48.4396 5.2049
# 6 6.1354 3.0056 10.7028 2.3547 5.2049 42.5558
#
#
#
# Elastic Compliance Matrix: (Units=1/GPa)
#
#
# Indices 1 2 3 4 5 6 
#
# 1 0.021480 -0.001105 -0.001883 -0.001135 -0.011172 -0.001116
# 2 -0.001105 0.007031 0.000318 -0.000611 -0.002248 -0.000108
# 3 -0.001883 0.000318 0.014745 -0.006485 -0.005748 -0.002397
# 4 -0.001135 -0.000611 -0.006485 0.032583 -0.005279 0.000681
# 5 -0.011172 -0.002248 -0.005748 -0.005279 0.033722 -0.000617
# 6 -0.001116 -0.000108 -0.002397 0.000681 -0.000617 0.024308
#
#
# Mechanical properties :
#
#
# Convention : Reuss Voigt Hill
#
# Bulk Modulus (GPa) = 26.37383 47.72684 37.05034
# Shear Modulus (GPa) = 32.92782 42.97122 37.94952
#
# Velocity S-wave (km/s) = 3.59170 4.10305 3.85586
# Velocity P-wave (km/s) = 5.24719 6.41443 5.85994
#
# Compressibility (1/GPa) = 0.03791637
#
# Stress axis : x y z
#
# Youngs Moduli (GPa) = 46.55449 142.23349 67.82048
#
# Poissons Ratio (x) = 0.15717 0.12768
# Poissons Ratio (y) = 0.05144 -0.02156
# Poissons Ratio (z) = 0.08764 -0.04522
#
# Static dielectric constant tensor:
#      x y z
#    x 1.744200 -0.188020 0.173410 
#    y -0.188020 1.986760 0.033880 
#    z 0.173410 0.033880 1.815500 
# 
# From -- ./inp_files/155448.got.cif
#   From: 2010.05.17/outbox.cif.g08.bks.cpg/sg2_78_cif.got.tgz:155448.got - 2010.06.03 11:33:40.
