data_PCOD9034668
_publ_section_title
;
Structure prediction by ZEFSAII (Michael W. Deem and Ramdas Pophale) SiO2 
 PCOD9034668
Probable space group: P -1
;
_chemical_formula_sum "Si O2"
_cell_formula_units_Z 16
_cell_length_a 12.463844
_cell_length_b 15.506757
_cell_length_c 11.662178
_cell_angle_alpha 53.191426
_cell_angle_beta 47.899607
_cell_angle_gamma 25.121717
_cell_volume 709.782714
_symmetry_space_group_name_H-M "P -1"
_symmetry_group_IT_number 2
_symmetry_cell_setting 'triclinic'
loop_
_space_group_symop_operation_xyz
x,y,z
-x,-y,-z
loop_
_atom_site_type_symbol
_atom_site_label
_atom_site_fract_x
_atom_site_fract_y
_atom_site_fract_z
Si Si1 0.941565 0.012211 0.166130
Si Si2 0.650804 0.336826 0.685221
Si Si3 0.650288 0.983784 0.318435
Si Si4 0.795961 0.674465 0.828979
Si Si5 0.625321 0.032928 0.926910
Si Si6 0.573963 0.443546 0.123373
Si Si7 0.063891 0.730054 0.673076
Si Si8 0.013017 0.323940 0.874619
O O1 0.783485 0.998917 0.279880
O O2 0.195035 0.851132 0.200988
O O3 0.759142 0.223208 0.174194
O O4 0.000000 0.000000 0.000000
O O5 0.636111 0.433980 0.720919
O O6 0.342777 0.525151 0.706131
O O7 0.840461 0.254051 0.511271
O O8 0.885570 0.768312 0.252325
O O9 0.500000 0.000000 0.500000
O O10 0.423328 0.170654 0.240713
O O11 0.935486 0.700738 0.738322
O O12 0.014561 0.446555 0.814231
O O13 0.628553 0.746105 0.007544
O O14 0.834851 0.932930 0.755563
O O15 0.808163 0.873275 0.025834
O O16 0.500000 0.000000 0.000000
O O17 0.500000 0.500000 0.000000
O O18 0.716388 0.470300 0.008256
#
# Coordination Sequence:
#
# PCOD9034668 Si02
#       8
#     2   2   2   2   2   2   2   2
#     4  12  24  43  70  99 129 186 227 279 347 399
#     4  11  24  43  68  98 142 173 228 282 338 417
#     4  11  24  42  66 100 138 170 227 290 340 402
#     4  10  23  40  69  95 132 178 227 276 346 403
#     4   9  20  40  61  92 124 170 221 269 322 400
#     4  12  23  41  67  97 131 174 232 280 328 403
#     4  10  22  45  66  98 143 180 216 286 343 412
#     4  11  22  40  62  96 127 172 223 276 330 401
#
# _framework density 22.542110000000001
#
# number of rings (size 3 to 8) (size 9 to 14) (size 15 to 20)
#    0.000    1.250    3.750    1.500    0.000    3.500 
#    2.250    3.750    0.000    0.000    0.000    0.000 
#    0.000    0.000    0.000    0.000    0.000    0.000 
#
# Total GULP energy -89185.498152 kJ/mol
# GULP energy per Si atom -5574.093635 kJ/mol
# Density = 2.249080 g / cm^3
# Si number density = 22.542110 Si / 1000 Ang^3
#
#
#
# Elastic Constant Matrix: (Units=GPa)
#
#
# Indices 1 2 3 4 5 6 
#
# 1 79.8860 4.8022 22.8888 0.3485 -4.8947 -3.2926
# 2 4.8022 98.2685 23.2997 7.8536 14.4164 18.3099
# 3 22.8888 23.2997 125.8248 20.3006 13.6221 -0.8118
# 4 0.3485 7.8536 20.3006 30.5355 1.5207 6.9753
# 5 -4.8947 14.4164 13.6221 1.5207 38.8184 0.7236
# 6 -3.2926 18.3099 -0.8118 6.9753 0.7236 46.8012
#
#
#
# Elastic Compliance Matrix: (Units=1/GPa)
#
#
# Indices 1 2 3 4 5 6 
#
# 1 0.013604 -0.000697 -0.002916 0.001613 0.002918 0.000894
# 2 -0.000697 0.012085 -0.001591 -0.000791 -0.003900 -0.004626
# 3 -0.002916 -0.001591 0.010176 -0.006536 -0.003122 0.001616
# 4 0.001613 -0.000791 -0.006536 0.038454 0.001386 -0.005443
# 5 0.002918 -0.003900 -0.003122 0.001386 0.028599 0.001028
# 6 0.000894 -0.004626 0.001616 -0.005443 0.001028 0.024063
#
#
# Mechanical properties :
#
#
# Convention : Reuss Voigt Hill
#
# Bulk Modulus (GPa) = 39.28237 45.10672 42.19455
# Shear Modulus (GPa) = 34.27627 40.09692 37.18660
#
# Velocity S-wave (km/s) = 3.90365 4.22211 4.06599
# Velocity P-wave (km/s) = 6.14670 6.61979 6.38763
#
# Compressibility (1/GPa) = 0.02545671
#
# Stress axis : x y z
#
# Youngs Moduli (GPa) = 73.50904 82.74759 98.27478
#
# Poissons Ratio (x) = 0.05766 0.28657
# Poissons Ratio (y) = 0.05122 0.15635
# Poissons Ratio (z) = 0.21435 0.13165
#
# Static dielectric constant tensor:
#      x y z
#    x 2.273660 0.133540 -0.237360 
#    y 0.133540 1.924290 -0.086100 
#    z -0.237360 -0.086100 2.011280 
# 
# From -- ./inp_files/432685.got.cif
#   From: 2010.05.17/outbox.cif.g08.bks.cpg/sg2_217_cif.got.tgz:432685.got - 2010.06.03 11:33:40.
