data_PCOD9034094
_publ_section_title
;
Structure prediction by ZEFSAII (Michael W. Deem and Ramdas Pophale) SiO2 
 PCOD9034094
Probable space group: P -1
;
_chemical_formula_sum "Si O2"
_cell_formula_units_Z 14
_cell_length_a 8.912252
_cell_length_b 18.827140
_cell_length_c 11.281546
_cell_angle_alpha 23.288492
_cell_angle_beta 134.587580
_cell_angle_gamma 121.172125
_cell_volume 475.513229
_symmetry_space_group_name_H-M "P -1"
_symmetry_group_IT_number 2
_symmetry_cell_setting 'triclinic'
loop_
_space_group_symop_operation_xyz
x,y,z
-x,-y,-z
loop_
_atom_site_type_symbol
_atom_site_label
_atom_site_fract_x
_atom_site_fract_y
_atom_site_fract_z
Si Si1 0.565946 0.400001 0.879866
Si Si2 0.637103 0.601746 0.838911
Si Si3 0.319067 0.768201 0.038769
Si Si4 0.764878 0.979473 0.177782
Si Si5 0.975461 0.242036 0.795739
Si Si6 0.312726 0.268934 0.110757
Si Si7 0.144455 0.289695 0.573049
O O1 0.338071 0.573970 0.420318
O O2 0.733097 0.271637 0.063022
O O3 0.512959 0.245669 0.164548
O O4 0.614329 0.536772 0.792317
O O5 0.591809 0.788188 0.615992
O O6 0.925743 0.508095 0.134863
O O7 0.500000 0.500000 0.000000
O O8 0.192058 0.962319 0.754450
O O9 0.593817 0.731007 0.244463
O O10 0.793291 0.150674 0.852653
O O11 0.500000 0.000000 0.000000
O O12 0.896449 0.790610 0.453218
O O13 0.844282 0.485749 0.352316
O O14 0.156356 0.177629 0.104298
O O15 0.103068 0.180628 0.833555
#
# Coordination Sequence:
#
# PCOD9034094 Si02
#       7
#     2   2   2   2   2   2   2
#     4  10  18  34  55  82 116 144 180 237 280 327
#     4   9  20  35  55  84 114 142 187 236 280 326
#     4  10  20  33  56  84 113 145 185 227 283 326
#     4  10  21  35  53  83 115 149 188 227 273 331
#     4  10  17  32  56  84 107 141 191 234 269 324
#     4   9  17  30  57  84 110 137 183 237 281 316
#     4  10  20  35  55  80 110 150 191 224 277 332
#
# _framework density 29.441872
#
# number of rings (size 3 to 8) (size 9 to 14) (size 15 to 20)
#    0.000    2.286    2.857    0.429    0.000    0.571 
#    0.000    0.714    0.000    6.857    0.000    0.000 
#    0.000    0.000    0.000    0.000    0.000    0.000 
#
# Total GULP energy -78145.785521 kJ/mol
# GULP energy per Si atom -5581.841823 kJ/mol
# Density = 2.937486 g / cm^3
# Si number density = 29.441872 Si / 1000 Ang^3
#
#
#
# Elastic Constant Matrix: (Units=GPa)
#
#
# Indices 1 2 3 4 5 6 
#
# 1 178.4319 82.8497 48.1148 -12.3177 0.6598 -38.9674
# 2 82.8497 271.4152 20.6729 9.8827 2.4995 -61.4357
# 3 48.1148 20.6729 58.3438 -32.5629 6.2068 -10.9316
# 4 -12.3177 9.8827 -32.5629 33.8382 -10.2284 6.2066
# 5 0.6598 2.4995 6.2068 -10.2284 54.8264 -15.5369
# 6 -38.9674 -61.4357 -10.9316 6.2066 -15.5369 68.3414
#
#
#
# Elastic Compliance Matrix: (Units=1/GPa)
#
#
# Indices 1 2 3 4 5 6 
#
# 1 0.009163 -0.000968 -0.010468 -0.006844 0.000831 0.003491
# 2 -0.000968 0.005526 -0.004031 -0.006583 0.000241 0.004423
# 3 -0.010468 -0.004031 0.054989 0.051909 0.002359 -0.004974
# 4 -0.006844 -0.006583 0.051909 0.082643 0.007874 -0.007233
# 5 0.000831 0.000241 0.002359 0.007874 0.020865 0.005097
# 6 0.003491 0.004423 -0.004974 -0.007233 0.005097 0.021619
#
#
# Mechanical properties :
#
#
# Convention : Reuss Voigt Hill
#
# Bulk Modulus (GPa) = 25.81019 90.16285 57.98652
# Shear Modulus (GPa) = 20.95082 55.17143 38.06112
#
# Velocity S-wave (km/s) = 2.67048 4.33356 3.59939
# Velocity P-wave (km/s) = 4.27716 7.46527 6.08376
#
# Compressibility (1/GPa) = 0.03874439
#
# Stress axis : x y z
#
# Youngs Moduli (GPa) = 109.12915 180.97434 18.18534
#
# Poissons Ratio (x) = 0.17521 0.19037
# Poissons Ratio (y) = 0.10565 0.07330
# Poissons Ratio (z) = 1.14238 0.72946
#
# Static dielectric constant tensor:
#      x y z
#    x 2.248010 0.018450 -0.001260 
#    y 0.018450 2.370830 0.279350 
#    z -0.001260 0.279350 2.671150 
# 
# From -- ./inp_files/400928.got.cif
#   From: 2010.05.17/outbox.cif.g08.bks.cpg/sg2_201_cif.got.tgz:400928.got - 2010.06.03 11:33:40.
