data_PCOD9034724
_publ_section_title
;
Structure prediction by ZEFSAII (Michael W. Deem and Ramdas Pophale) SiO2 
 PCOD9034724
Probable space group: P -1
;
_chemical_formula_sum "Si O2"
_cell_formula_units_Z 16
_cell_length_a 8.340912
_cell_length_b 16.217227
_cell_length_c 19.857834
_cell_angle_alpha 159.982482
_cell_angle_beta 54.888947
_cell_angle_gamma 130.145536
_cell_volume 698.024044
_symmetry_space_group_name_H-M "P -1"
_symmetry_group_IT_number 2
_symmetry_cell_setting 'triclinic'
loop_
_space_group_symop_operation_xyz
x,y,z
-x,-y,-z
loop_
_atom_site_type_symbol
_atom_site_label
_atom_site_fract_x
_atom_site_fract_y
_atom_site_fract_z
Si Si1 0.393816 0.578312 0.363197
Si Si2 0.673430 0.288242 0.317069
Si Si3 0.363649 0.541041 0.000598
Si Si4 0.642843 0.548887 0.398695
Si Si5 0.895248 0.045889 0.409029
Si Si6 0.072908 0.802479 0.636372
Si Si7 0.214393 0.943998 0.417349
Si Si8 0.732630 0.819088 0.017685
O O1 0.499538 0.446380 0.289350
O O2 0.263115 0.711179 0.539604
O O3 0.585534 0.798416 0.449139
O O4 0.244345 0.392390 0.200729
O O5 0.668179 0.324120 0.265440
O O6 0.464566 0.304167 0.413120
O O7 0.861199 0.554540 0.498176
O O8 0.707407 0.036654 0.141908
O O9 0.241536 0.722095 0.194487
O O10 0.527866 0.680618 0.008311
O O11 0.500000 0.500000 0.000000
O O12 0.194662 0.266030 0.805581
O O13 0.861674 0.774767 0.498673
O O14 0.868262 0.101747 0.380547
O O15 0.776304 0.126520 0.560239
O O16 0.081558 0.029968 0.859364
O O17 0.000000 0.000000 0.500000
#
# Coordination Sequence:
#
# PCOD9034724 Si02
#       8
#     2   2   2   2   2   2   2   2
#     4  12  24  41  68  99 137 175 229 282 342 407
#     4  10  23  45  70  91 132 180 225 287 343 396
#     4  12  25  44  70 103 141 181 230 277 341 418
#     4  10  22  45  67  96 132 176 226 283 345 406
#     4  11  24  42  72 101 137 182 224 280 347 413
#     4  11  24  45  68  98 135 176 232 285 338 403
#     4  12  25  42  66 103 146 180 220 282 348 410
#     4  12  24  40  70  97 131 177 225 278 339 404
#
# _framework density 22.921845000000001
#
# number of rings (size 3 to 8) (size 9 to 14) (size 15 to 20)
#    0.000    0.750    6.250    0.375    1.750    3.500 
#    0.000    0.000    0.000    0.000    0.000    0.000 
#    0.000    0.000    0.000    0.000    0.000    0.000 
#
# Total GULP energy -89452.219045 kJ/mol
# GULP energy per Si atom -5590.763690 kJ/mol
# Density = 2.286967 g / cm^3
# Si number density = 22.921845 Si / 1000 Ang^3
#
#
#
# Elastic Constant Matrix: (Units=GPa)
#
#
# Indices 1 2 3 4 5 6 
#
# 1 56.4816 9.0724 -1.8656 4.1475 14.7888 -9.2336
# 2 9.0724 103.7235 15.8682 19.5752 6.7303 -16.8479
# 3 -1.8656 15.8682 84.6449 -7.6807 6.1366 -10.3565
# 4 4.1475 19.5752 -7.6807 30.9891 -9.6835 -4.7649
# 5 14.7888 6.7303 6.1366 -9.6835 25.3623 -10.3091
# 6 -9.2336 -16.8479 -10.3565 -4.7649 -10.3091 32.2488
#
#
#
# Elastic Compliance Matrix: (Units=1/GPa)
#
#
# Indices 1 2 3 4 5 6 
#
# 1 0.022663 0.000605 0.000907 -0.008255 -0.016502 0.000601
# 2 0.000605 0.012710 -0.002547 -0.010205 -0.005955 0.002584
# 3 0.000907 -0.002547 0.013296 0.005720 0.000871 0.004322
# 4 -0.008255 -0.010205 0.005720 0.052794 0.031129 0.011894
# 5 -0.016502 -0.005955 0.000871 0.031129 0.070230 0.019493
# 6 0.000601 0.002584 0.004322 0.011894 0.019493 0.041908
#
#
# Mechanical properties :
#
#
# Convention : Reuss Voigt Hill
#
# Bulk Modulus (GPa) = 21.45978 32.33335 26.89656
# Shear Modulus (GPa) = 21.62592 32.50502 27.06547
#
# Velocity S-wave (km/s) = 3.07492 3.76983 3.43996
# Velocity P-wave (km/s) = 4.68927 5.75198 5.24760
#
# Compressibility (1/GPa) = 0.04659880
#
# Stress axis : x y z
#
# Youngs Moduli (GPa) = 44.12492 78.67979 75.20846
#
# Poissons Ratio (x) = -0.04763 -0.06821
# Poissons Ratio (y) = -0.02671 0.19159
# Poissons Ratio (z) = -0.04002 0.20043
#
# Static dielectric constant tensor:
#      x y z
#    x 1.940960 -0.052080 0.017510 
#    y -0.052080 1.835750 -0.005570 
#    z 0.017510 -0.005570 1.801980 
# 
# From -- ./inp_files/591074.got.cif
#   From: 2010.05.17/outbox.cif.g08.bks.cpg/sg2_296_cif.got.tgz:591074.got - 2010.06.03 11:33:40.
