data_PCOD9034419
_publ_section_title
;
Structure prediction by ZEFSAII (Michael W. Deem and Ramdas Pophale) SiO2 
 PCOD9034419
Probable space group: P -1
;
_chemical_formula_sum "Si O2"
_cell_formula_units_Z 14
_cell_length_a 13.904345
_cell_length_b 7.997673
_cell_length_c 14.449872
_cell_angle_alpha 53.062868
_cell_angle_beta 150.528989
_cell_angle_gamma 109.143624
_cell_volume 548.497409
_symmetry_space_group_name_H-M "P -1"
_symmetry_group_IT_number 2
_symmetry_cell_setting 'triclinic'
loop_
_space_group_symop_operation_xyz
x,y,z
-x,-y,-z
loop_
_atom_site_type_symbol
_atom_site_label
_atom_site_fract_x
_atom_site_fract_y
_atom_site_fract_z
Si Si1 0.774643 0.861600 0.141491
Si Si2 0.105087 0.625721 0.104411
Si Si3 0.500000 0.500000 0.000000
Si Si4 0.500000 0.500000 0.500000
Si Si5 0.043369 0.660412 0.617562
Si Si6 0.328680 0.907198 0.363915
Si Si7 0.291454 0.212404 0.538955
Si Si8 0.246413 0.811981 0.518354
O O1 0.801499 0.620900 0.192339
O O2 0.846937 0.790633 0.332954
O O3 0.986016 0.884890 0.276215
O O4 0.523165 0.065590 0.838438
O O5 0.303107 0.610170 0.214398
O O6 0.274383 0.437097 0.388677
O O7 0.000000 0.500000 0.000000
O O8 0.915729 0.857843 0.915069
O O9 0.243232 0.724113 0.754515
O O10 0.396046 0.584398 0.782874
O O11 0.374628 0.774432 0.351398
O O12 0.922508 0.685651 0.605305
O O13 0.330397 0.754826 0.503710
O O14 0.500000 0.000000 0.500000
O O15 0.274290 0.031119 0.510955
#
# Coordination Sequence:
#
# PCOD9034419 Si02
#       8
#     2   2   1   1   2   2   2   2
#     4  10  24  47  66 110 150 192 257 311 372 460
#     4  12  27  48  73 114 151 197 263 315 384 465
#     4  10  22  44  74 108 150 202 240 316 398 440
#     4  12  28  50  82 106 150 212 246 326 396 448
#     4  10  23  44  72 105 151 194 254 310 375 464
#     4  12  27  53  79 114 161 200 264 328 380 477
#     4  12  25  45  77 104 148 208 241 314 394 447
#     4  11  25  47  75 110 152 195 254 321 380 462
#
# _framework density 25.524280000000001
#
# number of rings (size 3 to 8) (size 9 to 14) (size 15 to 20)
#    0.000    0.857    4.286    0.857    6.000    3.429 
#    7.714    0.000    0.000    0.000    0.000    0.000 
#    0.000    0.000    0.000    0.000    0.000    0.000 
#
# Total GULP energy -77957.853933 kJ/mol
# GULP energy per Si atom -5568.418138 kJ/mol
# Density = 2.546619 g / cm^3
# Si number density = 25.524280 Si / 1000 Ang^3
#
#
#
# Elastic Constant Matrix: (Units=GPa)
#
#
# Indices 1 2 3 4 5 6 
#
# 1 130.5653 -5.6334 27.6782 -9.8839 8.0306 -20.2253
# 2 -5.6334 82.2987 4.3256 0.7859 12.1745 -11.3858
# 3 27.6782 4.3256 152.8491 -25.1447 -2.8642 -15.2388
# 4 -9.8839 0.7859 -25.1447 29.2338 0.1029 3.8139
# 5 8.0306 12.1745 -2.8642 0.1029 36.6549 -9.0023
# 6 -20.2253 -11.3858 -15.2388 3.8139 -9.0023 37.0194
#
#
#
# Elastic Compliance Matrix: (Units=1/GPa)
#
#
# Indices 1 2 3 4 5 6 
#
# 1 0.008807 0.001452 -0.000976 0.001536 -0.001423 0.004352
# 2 0.001452 0.013385 -0.000451 -0.000748 -0.003848 0.003866
# 3 -0.000976 -0.000451 0.008029 0.006274 0.001554 0.002365
# 4 0.001536 -0.000748 0.006274 0.040266 0.000058 -0.000942
# 5 -0.001423 -0.003848 0.001554 0.000058 0.030487 0.006087
# 6 0.004352 0.003866 0.002365 -0.000942 0.006087 0.033130
#
#
# Mechanical properties :
#
#
# Convention : Reuss Voigt Hill
#
# Bulk Modulus (GPa) = 33.03611 46.49488 39.76549
# Shear Modulus (GPa) = 34.68747 43.20445 38.94596
#
# Velocity S-wave (km/s) = 3.69046 4.11868 3.91044
# Velocity P-wave (km/s) = 5.57947 6.39324 6.00017
#
# Compressibility (1/GPa) = 0.03026991
#
# Stress axis : x y z
#
# Youngs Moduli (GPa) = 113.55245 74.70995 124.55030
#
# Poissons Ratio (x) = -0.10848 0.12154
# Poissons Ratio (y) = -0.16488 0.05623
# Poissons Ratio (z) = 0.11081 0.03373
#
# Static dielectric constant tensor:
#      x y z
#    x 1.908230 -0.252530 0.103540 
#    y -0.252530 1.615100 0.062170 
#    z 0.103540 0.062170 2.182410 
# 
# From -- ./inp_files/528326.got.cif
#   From: 2010.05.17/outbox.cif.g08.bks.cpg/sg2_265_cif.got.tgz:528326.got - 2010.06.03 11:33:40.
