data_PCOD9034686
_publ_section_title
;
Structure prediction by ZEFSAII (Michael W. Deem and Ramdas Pophale) SiO2 
 PCOD9034686
Probable space group: P -1
;
_chemical_formula_sum "Si O2"
_cell_formula_units_Z 16
_cell_length_a 10.833069
_cell_length_b 13.465198
_cell_length_c 7.761612
_cell_angle_alpha 106.510697
_cell_angle_beta 137.399084
_cell_angle_gamma 60.440337
_cell_volume 660.594150
_symmetry_space_group_name_H-M "P -1"
_symmetry_group_IT_number 2
_symmetry_cell_setting 'triclinic'
loop_
_space_group_symop_operation_xyz
x,y,z
-x,-y,-z
loop_
_atom_site_type_symbol
_atom_site_label
_atom_site_fract_x
_atom_site_fract_y
_atom_site_fract_z
Si Si1 0.052530 0.365332 0.958420
Si Si2 0.173239 0.407904 0.750313
Si Si3 0.341027 0.559421 0.214784
Si Si4 0.770339 0.184200 0.364212
Si Si5 0.437845 0.708966 0.117932
Si Si6 0.779953 0.944727 0.120234
Si Si7 0.761303 0.040982 0.795034
Si Si8 0.531739 0.834596 0.726056
O O1 0.078117 0.356736 0.772685
O O2 0.868613 0.354890 0.862825
O O3 0.269874 0.270203 0.204257
O O4 0.000000 0.500000 0.000000
O O5 0.345266 0.320015 0.758001
O O6 0.000000 0.500000 0.500000
O O7 0.283435 0.472297 0.001953
O O8 0.500000 0.500000 0.500000
O O9 0.432312 0.617400 0.201069
O O10 0.596624 0.225559 0.349292
O O11 0.992320 0.144531 0.645868
O O12 0.762389 0.066183 0.229821
O O13 0.711292 0.271738 0.188792
O O14 0.345712 0.829851 0.179764
O O15 0.628525 0.891255 0.989707
O O16 0.745017 0.959261 0.885206
O O17 0.637119 0.058453 0.501019
O O18 0.000000 0.000000 0.000000
#
# Coordination Sequence:
#
# PCOD9034686 Si02
#       8
#     2   2   2   2   2   2   2   2
#     4  10  25  44  66 103 138 183 233 296 354 427
#     4  11  24  45  70 100 143 180 233 296 360 426
#     4  11  26  45  74 102 141 185 241 294 359 445
#     4  10  22  45  67 101 143 176 233 301 354 422
#     4  11  25  44  72 102 139 188 233 294 369 421
#     4  10  23  43  68 101 138 183 234 294 356 423
#     4  11  25  43  67 102 146 188 236 301 355 428
#     4  12  23  42  74  97 141 190 238 282 370 426
#
# _framework density 24.220618999999999
#
# number of rings (size 3 to 8) (size 9 to 14) (size 15 to 20)
#    0.000    1.250    2.500    1.875    8.750    2.000 
#    0.000    0.000    0.000    0.000    0.000    0.000 
#    0.000    0.000    0.000    0.000    0.000    0.000 
#
# Total GULP energy -89461.492093 kJ/mol
# GULP energy per Si atom -5591.343256 kJ/mol
# Density = 2.416549 g / cm^3
# Si number density = 24.220619 Si / 1000 Ang^3
#
#
#
# Elastic Constant Matrix: (Units=GPa)
#
#
# Indices 1 2 3 4 5 6 
#
# 1 131.0266 12.9717 41.0227 -14.3310 6.0412 -8.6129
# 2 12.9717 82.7802 30.9351 -11.2342 7.5541 -15.5793
# 3 41.0227 30.9351 180.5287 -24.5832 2.9903 4.0397
# 4 -14.3310 -11.2342 -24.5832 41.1353 4.5697 5.0658
# 5 6.0412 7.5541 2.9903 4.5697 44.2436 -18.0095
# 6 -8.6129 -15.5793 4.0397 5.0658 -18.0095 41.4904
#
#
#
# Elastic Compliance Matrix: (Units=1/GPa)
#
#
# Indices 1 2 3 4 5 6 
#
# 1 0.008490 -0.000139 -0.001677 0.001822 -0.000654 0.001367
# 2 -0.000139 0.014200 -0.002253 0.001890 -0.000358 0.005136
# 3 -0.001677 -0.002253 0.006857 0.003404 -0.001371 -0.002872
# 4 0.001822 0.001890 0.003404 0.028815 -0.005954 -0.005346
# 5 -0.000654 -0.000358 -0.001371 -0.005954 0.028787 0.013086
# 6 0.001367 0.005136 -0.002872 -0.005346 0.013086 0.032927
#
#
# Mechanical properties :
#
#
# Convention : Reuss Voigt Hill
#
# Bulk Modulus (GPa) = 46.71245 62.68827 54.70036
# Shear Modulus (GPa) = 36.94100 46.00094 41.47097
#
# Velocity S-wave (km/s) = 3.90960 4.36276 4.14238
# Velocity P-wave (km/s) = 6.30144 7.16356 6.74629
#
# Compressibility (1/GPa) = 0.02140757
#
# Stress axis : x y z
#
# Youngs Moduli (GPa) = 117.78311 70.42314 145.83584
#
# Poissons Ratio (x) = 0.00982 0.24457
# Poissons Ratio (y) = 0.01643 0.32860
# Poissons Ratio (z) = 0.19753 0.15868
#
# Static dielectric constant tensor:
#      x y z
#    x 2.014230 -0.050340 -0.092390 
#    y -0.050340 2.125230 0.220840 
#    z -0.092390 0.220840 2.189980 
# 
# From -- ./inp_files/270573.got.cif
#   From: 2010.05.17/outbox.cif.g08.bks.cpg/sg2_136_cif.got.tgz:270573.got - 2010.06.03 11:33:40.
