data_PCOD9034405
_publ_section_title
;
Structure prediction by ZEFSAII (Michael W. Deem and Ramdas Pophale) SiO2 
 PCOD9034405
Probable space group: P -1
;
_chemical_formula_sum "Si O2"
_cell_formula_units_Z 13
_cell_length_a 18.818813
_cell_length_b 12.496788
_cell_length_c 9.502398
_cell_angle_alpha 145.906359
_cell_angle_beta 35.897657
_cell_angle_gamma 155.013757
_cell_volume 512.178918
_symmetry_space_group_name_H-M "P -1"
_symmetry_group_IT_number 2
_symmetry_cell_setting 'triclinic'
loop_
_space_group_symop_operation_xyz
x,y,z
-x,-y,-z
loop_
_atom_site_type_symbol
_atom_site_label
_atom_site_fract_x
_atom_site_fract_y
_atom_site_fract_z
Si Si1 0.051636 0.575930 0.838733
Si Si2 0.286836 0.522617 0.365310
Si Si3 0.836486 0.231227 0.556399
Si Si4 0.500000 0.000000 0.000000
Si Si5 0.953637 0.885183 0.242938
Si Si6 0.289587 0.327797 0.861890
Si Si7 0.375696 0.497692 0.489198
O O1 0.239568 0.691810 0.640359
O O2 0.914172 0.304182 0.668456
O O3 0.000000 0.500000 0.000000
O O4 0.033097 0.770494 0.029475
O O5 0.401943 0.576202 0.367898
O O6 0.327287 0.511301 0.129531
O O7 0.107496 0.207281 0.334826
O O8 0.000000 0.500000 0.500000
O O9 0.787900 0.966757 0.288900
O O10 0.658236 0.143196 0.778273
O O11 0.610777 0.292673 0.215815
O O12 0.844319 0.753023 0.128670
O O13 0.815114 0.791539 0.481815
O O14 0.479437 0.485858 0.673353
#
# Coordination Sequence:
#
# PCOD9034405 Si02
#       7
#     2   2   2   1   2   2   2
#     4  12  25  42  72 106 145 195 255 304 371 448
#     4  12  25  45  73 106 149 187 247 311 367 449
#     4  11  23  44  73 107 148 198 253 305 373 452
#     4  10  22  44  74 106 152 194 254 304 372 442
#     4  12  24  45  74 108 141 197 247 298 372 451
#     4  11  26  44  70 108 147 192 245 307 377 447
#     4  11  24  45  74 103 150 193 241 309 374 445
#
# _framework density 25.381757
#
# number of rings (size 3 to 8) (size 9 to 14) (size 15 to 20)
#    0.000    0.615    4.615    2.769    2.154    0.000 
#    0.000    1.538    0.000    7.385    0.000    0.000 
#    0.000    0.000    0.000    0.000    0.000    0.000 
#
# Total GULP energy -72537.096001 kJ/mol
# GULP energy per Si atom -5579.776615 kJ/mol
# Density = 2.532399 g / cm^3
# Si number density = 25.381757 Si / 1000 Ang^3
#
#
#
# Elastic Constant Matrix: (Units=GPa)
#
#
# Indices 1 2 3 4 5 6 
#
# 1 140.4509 14.7333 71.4744 -11.6772 6.3203 -4.0527
# 2 14.7333 80.2262 18.0329 -14.5337 -15.8672 -2.0845
# 3 71.4744 18.0329 136.6393 -17.4014 9.2303 -14.9547
# 4 -11.6772 -14.5337 -17.4014 36.9030 3.4917 5.2823
# 5 6.3203 -15.8672 9.2303 3.4917 52.1926 1.7981
# 6 -4.0527 -2.0845 -14.9547 5.2823 1.7981 26.6981
#
#
#
# Elastic Compliance Matrix: (Units=1/GPa)
#
#
# Indices 1 2 3 4 5 6 
#
# 1 0.009817 -0.000666 -0.005091 0.000707 -0.000486 -0.001521
# 2 -0.000666 0.014597 -0.001402 0.004589 0.004492 -0.000957
# 3 -0.005091 -0.001402 0.011191 0.002598 -0.002135 0.005016
# 4 0.000707 0.004589 0.002598 0.031051 -0.001084 -0.004150
# 5 -0.000486 0.004492 -0.002135 -0.001084 0.021108 -0.002126
# 6 -0.001521 -0.000957 0.005016 -0.004150 -0.002126 0.040924
#
#
# Mechanical properties :
#
#
# Convention : Reuss Voigt Hill
#
# Bulk Modulus (GPa) = 46.97625 62.86640 54.92133
# Shear Modulus (GPa) = 33.31085 40.03046 36.67065
#
# Velocity S-wave (km/s) = 3.62663 3.97562 3.80513
# Velocity P-wave (km/s) = 6.00705 6.77468 6.40238
#
# Compressibility (1/GPa) = 0.02128735
#
# Stress axis : x y z
#
# Youngs Moduli (GPa) = 101.86055 68.50662 89.36040
#
# Poissons Ratio (x) = 0.04563 0.45493
# Poissons Ratio (y) = 0.06785 0.12527
# Poissons Ratio (z) = 0.51857 0.09603
#
# Static dielectric constant tensor:
#      x y z
#    x 2.058550 -0.009370 -0.020660 
#    y -0.009370 2.031610 0.001530 
#    z -0.020660 0.001530 2.046930 
# 
# From -- ./inp_files/332530.got.cif
#   From: 2010.05.17/outbox.cif.g08.bks.cpg/sg2_167_cif.got.tgz:332530.got - 2010.06.03 11:33:40.
