data_PCOD9034075
_publ_section_title
;
Structure prediction by ZEFSAII (Michael W. Deem and Ramdas Pophale) SiO2 
 PCOD9034075
Probable space group: P -1
;
_chemical_formula_sum "Si O2"
_cell_formula_units_Z 9
_cell_length_a 7.300338
_cell_length_b 5.276563
_cell_length_c 9.645097
_cell_angle_alpha 99.284618
_cell_angle_beta 72.087888
_cell_angle_gamma 63.126553
_cell_volume 294.943086
_symmetry_space_group_name_H-M "P -1"
_symmetry_group_IT_number 2
_symmetry_cell_setting 'triclinic'
loop_
_space_group_symop_operation_xyz
x,y,z
-x,-y,-z
loop_
_atom_site_type_symbol
_atom_site_label
_atom_site_fract_x
_atom_site_fract_y
_atom_site_fract_z
Si Si1 0.000000 0.000000 0.000000
Si Si2 0.499316 0.178199 0.208076
Si Si3 0.115376 0.884761 0.614220
Si Si4 0.249957 0.552579 0.070351
Si Si5 0.543813 0.703202 0.371741
O O1 0.754112 0.024238 0.078454
O O2 0.852325 0.379992 0.052475
O O3 0.299679 0.305720 0.151141
O O4 0.457934 0.481880 0.317802
O O5 0.491082 0.931016 0.278785
O O6 0.337379 0.910956 0.548629
O O7 0.223854 0.543496 0.621626
O O8 0.000000 0.000000 0.500000
O O9 0.943928 0.108549 0.795052
O O10 0.500000 0.500000 0.000000
#
# Coordination Sequence:
#
# PCOD9034075 Si02
#       5
#     1   2   2   2   2
#     4  10  22  46  70  98 146 184 232 286 352 416
#     4  11  24  47  69 106 139 188 235 290 350 424
#     4  11  23  45  71 105 144 184 236 291 355 418
#     4  10  22  44  71 103 140 188 236 289 350 422
#     4  11  26  44  72 105 142 181 239 290 354 416
#
# _framework density 30.514365999999999
#
# number of rings (size 3 to 8) (size 9 to 14) (size 15 to 20)
#    0.000    1.333    4.444    0.000    0.000    7.111 
#    0.000    5.556    0.000    0.000    0.000    0.000 
#    0.000    0.000    0.000    0.000    0.000    0.000 
#
# Total GULP energy -50110.895335 kJ/mol
# GULP energy per Si atom -5567.877259 kJ/mol
# Density = 3.044491 g / cm^3
# Si number density = 30.514366 Si / 1000 Ang^3
#
#
#
# Elastic Constant Matrix: (Units=GPa)
#
#
# Indices 1 2 3 4 5 6 
#
# 1 54.7945 55.2858 -0.2039 -18.0788 2.1278 -40.6324
# 2 55.2858 373.8858 64.1359 -53.3977 -7.3627 -48.2295
# 3 -0.2039 64.1359 98.1020 -10.2209 -35.9422 1.4124
# 4 -18.0788 -53.3977 -10.2209 79.0974 -6.6520 -7.8997
# 5 2.1278 -7.3627 -35.9422 -6.6520 73.7614 -2.7074
# 6 -40.6324 -48.2295 1.4124 -7.8997 -2.7074 70.8137
#
#
#
# Elastic Compliance Matrix: (Units=1/GPa)
#
#
# Indices 1 2 3 4 5 6 
#
# 1 0.041285 -0.001937 0.002841 0.011010 0.001859 0.023613
# 2 -0.001937 0.003912 -0.002588 0.001996 -0.000568 0.001805
# 3 0.002841 -0.002588 0.014551 0.001360 0.006872 -0.000008
# 4 0.011010 0.001996 0.001360 0.017867 0.002513 0.009739
# 5 0.001859 -0.000568 0.006872 0.002513 0.017076 0.001476
# 6 0.023613 0.001805 -0.000008 0.009739 0.001476 0.030043
#
#
# Mechanical properties :
#
#
# Convention : Reuss Voigt Hill
#
# Bulk Modulus (GPa) = 17.73689 85.02421 51.38055
# Shear Modulus (GPa) = 34.03801 71.90546 52.97173
#
# Velocity S-wave (km/s) = 3.34350 4.85959 4.17101
# Velocity P-wave (km/s) = 4.55308 7.70789 6.33017
#
# Compressibility (1/GPa) = 0.05637968
#
# Stress axis : x y z
#
# Youngs Moduli (GPa) = 24.22171 255.64532 68.72534
#
# Poissons Ratio (x) = 0.49519 -0.19522
# Poissons Ratio (y) = 0.04692 0.17783
# Poissons Ratio (z) = -0.06880 0.66150
#
# Static dielectric constant tensor:
#      x y z
#    x 2.494440 0.386220 -0.046230 
#    y 0.386220 2.218520 0.376260 
#    z -0.046230 0.376260 2.407650 
# 
# From -- ./inp_files/129953.got.cif
#   From: 2010.05.17/outbox.cif.g08.bks.cpg/sg2_65_cif.got.tgz:129953.got - 2010.06.03 11:33:40.
