data_PCOD9034564
_publ_section_title
;
Structure prediction by ZEFSAII (Michael W. Deem and Ramdas Pophale) SiO2 
 PCOD9034564
Probable space group: P -1
;
_chemical_formula_sum "Si O2"
_cell_formula_units_Z 16
_cell_length_a 7.801215
_cell_length_b 8.686610
_cell_length_c 14.719973
_cell_angle_alpha 59.863857
_cell_angle_beta 114.835453
_cell_angle_gamma 83.880997
_cell_volume 715.998285
_symmetry_space_group_name_H-M "P -1"
_symmetry_group_IT_number 2
_symmetry_cell_setting 'triclinic'
loop_
_space_group_symop_operation_xyz
x,y,z
-x,-y,-z
loop_
_atom_site_type_symbol
_atom_site_label
_atom_site_fract_x
_atom_site_fract_y
_atom_site_fract_z
Si Si1 0.475176 0.925219 0.655248
Si Si2 0.934324 0.846470 0.584461
Si Si3 0.147456 0.465544 0.628494
Si Si4 0.387229 0.663833 0.000819
Si Si5 0.534418 0.504249 0.733684
Si Si6 0.580306 0.964030 0.184912
Si Si7 0.059341 0.115655 0.216211
Si Si8 0.827403 0.126983 0.853218
O O1 0.488497 0.723888 0.677832
O O2 0.713685 0.885970 0.731591
O O3 0.311391 0.088290 0.506152
O O4 0.384539 0.982158 0.719767
O O5 0.990793 0.869969 0.693235
O O6 0.046608 0.629499 0.634029
O O7 0.000000 0.000000 0.500000
O O8 0.352024 0.495435 0.634673
O O9 0.238389 0.239499 0.743550
O O10 0.000000 0.500000 0.500000
O O11 0.141012 0.717987 0.923849
O O12 0.424723 0.857059 0.929580
O O13 0.500000 0.500000 0.000000
O O14 0.469207 0.586104 0.141178
O O15 0.749614 0.357059 0.783617
O O16 0.368599 0.929376 0.152672
O O17 0.096564 0.931160 0.215166
O O18 0.000000 0.000000 0.000000
#
# Coordination Sequence:
#
# PCOD9034564 Si02
#       8
#     2   2   2   2   2   2   2   2
#     4  11  22  44  68  98 136 181 225 279 336 401
#     4  12  23  45  73  96 135 178 230 281 338 405
#     4  11  23  41  67 101 130 173 222 278 343 396
#     4  12  23  41  68 104 131 175 234 273 336 403
#     4  11  23  41  68  97 136 180 228 277 335 405
#     4  10  23  41  71  97 138 178 222 281 335 400
#     4  11  26  43  67 100 136 178 230 279 340 405
#     4  10  22  45  64  94 140 178 223 275 339 402
#
# _framework density 22.346422
#
# number of rings (size 3 to 8) (size 9 to 14) (size 15 to 20)
#    0.000    1.000    5.000    1.875    0.000    3.500 
#    2.250    0.625    0.000    0.000    0.000    0.000 
#    0.000    0.000    0.000    0.000    0.000    0.000 
#
# Total GULP energy -89379.029875 kJ/mol
# GULP energy per Si atom -5586.189367 kJ/mol
# Density = 2.229556 g / cm^3
# Si number density = 22.346422 Si / 1000 Ang^3
#
#
#
# Elastic Constant Matrix: (Units=GPa)
#
#
# Indices 1 2 3 4 5 6 
#
# 1 64.5960 31.6240 27.7251 -5.2330 26.4504 -1.8098
# 2 31.6240 170.8199 48.3602 -22.6749 6.7533 -35.3762
# 3 27.7251 48.3602 92.8186 -0.0744 28.2903 -8.7799
# 4 -5.2330 -22.6749 -0.0744 52.8507 -3.5000 6.6896
# 5 26.4504 6.7533 28.2903 -3.5000 42.3945 3.4543
# 6 -1.8098 -35.3762 -8.7799 6.6896 3.4543 38.8678
#
#
#
# Elastic Compliance Matrix: (Units=1/GPa)
#
#
# Indices 1 2 3 4 5 6 
#
# 1 0.023039 -0.003727 -0.001144 0.000008 -0.012900 -0.001433
# 2 -0.003727 0.009352 -0.004143 0.003023 0.003314 0.006587
# 3 -0.001144 -0.004143 0.016403 -0.002677 -0.009893 0.001221
# 4 0.000008 0.003023 -0.002677 0.020636 0.003141 -0.001684
# 5 -0.012900 0.003314 -0.009893 0.003141 0.038276 -0.003762
# 6 -0.001433 0.006587 0.001221 -0.001684 -0.003762 0.032557
#
#
# Mechanical properties :
#
#
# Convention : Reuss Voigt Hill
#
# Bulk Modulus (GPa) = 32.50453 60.40591 46.45522
# Shear Modulus (GPa) = 29.66547 41.52430 35.59488
#
# Velocity S-wave (km/s) = 3.64748 4.31537 3.99540
# Velocity P-wave (km/s) = 5.68472 7.20556 6.48985
#
# Compressibility (1/GPa) = 0.03076495
#
# Stress axis : x y z
#
# Youngs Moduli (GPa) = 43.40441 106.93293 60.96577
#
# Poissons Ratio (x) = 0.39856 0.06972
# Poissons Ratio (y) = 0.16178 0.25261
# Poissons Ratio (z) = 0.04963 0.44308
#
# Static dielectric constant tensor:
#      x y z
#    x 1.905400 -0.007170 0.015210 
#    y -0.007170 1.830330 0.004550 
#    z 0.015210 0.004550 1.800260 
# 
# From -- ./inp_files/222211.got.cif
#   From: 2010.05.17/outbox.cif.g08.bks.cpg/sg2_112_cif.got.tgz:222211.got - 2010.06.03 11:33:40.
