data_PCOD9034473
_publ_section_title
;
Structure prediction by ZEFSAII (Michael W. Deem and Ramdas Pophale) SiO2 
 PCOD9034473
Probable space group: P -1
;
_chemical_formula_sum "Si O2"
_cell_formula_units_Z 15
_cell_length_a 8.976485
_cell_length_b 17.737888
_cell_length_c 10.915392
_cell_angle_alpha 138.986974
_cell_angle_beta 67.060975
_cell_angle_gamma 140.646631
_cell_volume 640.063742
_symmetry_space_group_name_H-M "P -1"
_symmetry_group_IT_number 2
_symmetry_cell_setting 'triclinic'
loop_
_space_group_symop_operation_xyz
x,y,z
-x,-y,-z
loop_
_atom_site_type_symbol
_atom_site_label
_atom_site_fract_x
_atom_site_fract_y
_atom_site_fract_z
Si Si1 0.372921 0.891788 0.279150
Si Si2 0.576202 0.270569 0.133908
Si Si3 0.415911 0.776720 0.523667
Si Si4 0.181179 0.109664 0.278005
Si Si5 0.629599 0.551659 0.391997
Si Si6 0.796105 0.527863 0.965730
Si Si7 0.000000 0.500000 0.500000
Si Si8 0.724811 0.685712 0.991108
O O1 0.500000 0.000000 0.500000
O O2 0.412841 0.027257 0.349628
O O3 0.480296 0.851864 0.105664
O O4 0.068716 0.681795 0.140606
O O5 0.316516 0.150935 0.155358
O O6 0.678397 0.444111 0.246794
O O7 0.797975 0.360604 0.273760
O O8 0.607076 0.803432 0.576936
O O9 0.274732 0.623084 0.275424
O O10 0.188230 0.686038 0.579772
O O11 0.145331 0.227411 0.433485
O O12 0.925919 0.892760 0.129429
O O13 0.500000 0.500000 0.500000
O O14 0.390344 0.448459 0.250625
O O15 0.831466 0.655039 0.016756
O O16 0.535963 0.405386 0.977926
#
# Coordination Sequence:
#
# PCOD9034473 Si02
#       8
#     2   2   2   2   2   2   1   2
#     4  12  28  48  71 108 153 200 244 292 364 454
#     4  10  24  46  72 110 144 191 240 304 367 427
#     4  11  23  44  74 106 140 190 245 301 362 431
#     4  10  22  45  76 108 137 183 246 304 371 426
#     4  10  23  44  68 107 144 181 231 311 371 417
#     4  11  25  46  71 104 144 192 245 298 359 431
#     4  10  22  44  76 100 142 188 240 304 354 430
#     4  11  24  44  73 102 145 187 240 306 358 439
#
# _framework density 23.435167
#
# number of rings (size 3 to 8) (size 9 to 14) (size 15 to 20)
#    0.000    1.333    4.000    0.000    1.867    8.533 
#    4.800    0.000    0.000    0.000    0.000    0.000 
#    0.000    0.000    0.000    0.000    0.000    0.000 
#
# Total GULP energy -83543.170227 kJ/mol
# GULP energy per Si atom -5569.544682 kJ/mol
# Density = 2.338183 g / cm^3
# Si number density = 23.435167 Si / 1000 Ang^3
#
#
#
# Elastic Constant Matrix: (Units=GPa)
#
#
# Indices 1 2 3 4 5 6 
#
# 1 56.6919 36.2332 56.9567 -7.5604 -11.2411 -14.8249
# 2 36.2332 98.1049 68.8706 16.2037 -13.1021 -14.6288
# 3 56.9567 68.8706 171.2220 -0.1278 -18.3421 5.8064
# 4 -7.5604 16.2037 -0.1278 43.0517 -23.6039 13.5776
# 5 -11.2411 -13.1021 -18.3421 -23.6039 35.2758 22.3868
# 6 -14.8249 -14.6288 5.8064 13.5776 22.3868 15.3009
#
#
#
# Elastic Compliance Matrix: (Units=1/GPa)
#
#
# Indices 1 2 3 4 5 6 
#
# 1 0.035232 -0.007510 -0.007871 0.012435 0.009318 0.005276
# 2 -0.007510 0.013430 -0.001500 0.002256 0.009842 -0.010268
# 3 -0.007871 -0.001500 0.007926 -0.007557 -0.008373 0.006889
# 4 0.012435 0.002256 -0.007557 0.007287 -0.013774 0.030760
# 5 0.009318 0.009842 -0.008373 -0.013774 -0.001000 0.035301
# 6 0.005276 -0.010268 0.006889 0.030760 0.035301 -0.020909
#
#
# Mechanical properties :
#
#
# Convention : Reuss Voigt Hill
#
# Bulk Modulus (GPa) = 43.80699 72.23772 58.02235
# Shear Modulus (GPa) = 59.99939 29.65624 44.82781
#
# Velocity S-wave (km/s) = 5.06536 3.56119 4.37835
# Velocity P-wave (km/s) = 7.27626 6.91381 7.09735
#
# Compressibility (1/GPa) = 0.02282741
#
# Stress axis : x y z
#
# Youngs Moduli (GPa) = 28.38349 74.45981 126.17312
#
# Poissons Ratio (x) = 0.55916 0.99307
# Poissons Ratio (y) = 0.21315 0.18923
# Poissons Ratio (z) = 0.22340 0.11167
#
# Static dielectric constant tensor:
#      x y z
#    x 1.883400 0.092970 0.019400 
#    y 0.092970 1.847340 -0.043600 
#    z 0.019400 -0.043600 1.871580 
# 
# From -- ./inp_files/403359.got.cif
#   From: 2010.05.17/outbox.cif.g08.bks.cpg/sg2_202_cif.got.tgz:403359.got - 2010.06.03 11:33:40.
