data_PCOD9034057
_publ_section_title
;
Structure prediction by ZEFSAII (Michael W. Deem and Ramdas Pophale) SiO2 
 PCOD9034057
Probable space group: P -1
;
_chemical_formula_sum "Si O2"
_cell_formula_units_Z 16
_cell_length_a 14.696890
_cell_length_b 5.351524
_cell_length_c 8.521464
_cell_angle_alpha 98.541390
_cell_angle_beta 105.108653
_cell_angle_gamma 101.345886
_cell_volume 620.113178
_symmetry_space_group_name_H-M "P -1"
_symmetry_group_IT_number 2
_symmetry_cell_setting 'triclinic'
loop_
_space_group_symop_operation_xyz
x,y,z
-x,-y,-z
loop_
_atom_site_type_symbol
_atom_site_label
_atom_site_fract_x
_atom_site_fract_y
_atom_site_fract_z
Si Si1 0.082101 0.072629 0.414371
Si Si2 0.199541 0.720525 0.321413
Si Si3 0.371656 0.662861 0.919891
Si Si4 0.288522 0.444456 0.563693
Si Si5 0.169210 0.442536 0.978427
Si Si6 0.945887 0.128924 0.118767
Si Si7 0.525846 0.932916 0.237149
Si Si8 0.387903 0.153940 0.390699
O O1 0.190530 0.220831 0.526095
O O2 0.104563 0.828813 0.309381
O O3 0.000000 0.000000 0.500000
O O4 0.029573 0.235295 0.292722
O O5 0.240562 0.673579 0.506865
O O6 0.285983 0.941388 0.302873
O O7 0.184879 0.475624 0.175863
O O8 0.354824 0.464068 0.747805
O O9 0.268441 0.581578 0.949653
O O10 0.400298 0.928167 0.852647
O O11 0.452555 0.694233 0.093681
O O12 0.354745 0.415300 0.440004
O O13 0.132442 0.138073 0.886615
O O14 0.099106 0.634272 0.927416
O O15 0.000000 0.000000 0.000000
O O16 0.567985 0.894225 0.423462
O O17 0.457212 0.128168 0.276851
#
# Coordination Sequence:
#
# PCOD9034057 Si02
#       8
#     2   2   2   2   2   2   2   2
#     4  11  26  43  69  99 137 186 236 300 357 434
#     4  11  23  44  67  98 138 187 231 291 362 436
#     4  11  24  43  69 107 141 188 232 311 361 429
#     4  11  25  43  69  98 140 183 239 290 372 428
#     4  12  27  45  74 104 153 189 242 306 371 427
#     4  12  26  48  73 108 141 193 249 301 357 442
#     4  10  22  44  71 101 145 176 248 295 363 443
#     4  10  22  45  69  99 137 188 231 299 356 440
#
# _framework density 25.801742999999998
#
# number of rings (size 3 to 8) (size 9 to 14) (size 15 to 20)
#    0.000    1.000    3.750    1.875    5.250    2.500 
#    0.000    2.500    0.000    0.000    0.000    0.000 
#    0.000    0.000    0.000    0.000    0.000    0.000 
#
# Total GULP energy -89341.081197 kJ/mol
# GULP energy per Si atom -5583.817575 kJ/mol
# Density = 2.574302 g / cm^3
# Si number density = 25.801743 Si / 1000 Ang^3
#
#
#
# Elastic Constant Matrix: (Units=GPa)
#
#
# Indices 1 2 3 4 5 6 
#
# 1 109.6789 27.3900 25.3697 -4.4157 -5.0131 20.0114
# 2 27.3900 77.1315 14.9527 1.2079 15.0036 10.0856
# 3 25.3697 14.9527 122.3819 9.7254 14.7387 0.1611
# 4 -4.4157 1.2079 9.7254 40.7943 4.3297 4.4228
# 5 -5.0131 15.0036 14.7387 4.3297 39.2759 -10.5727
# 6 20.0114 10.0856 0.1611 4.4228 -10.5727 36.7781
#
#
#
# Elastic Compliance Matrix: (Units=1/GPa)
#
#
# Indices 1 2 3 4 5 6 
#
# 1 0.011648 -0.003452 -0.002420 0.002264 0.002105 -0.005047
# 2 -0.003452 0.016467 -0.000375 0.000621 -0.008008 -0.005013
# 3 -0.002420 -0.000375 0.009279 -0.002200 -0.003211 0.000720
# 4 0.002264 0.000621 -0.002200 0.026240 -0.003511 -0.005557
# 5 0.002105 -0.008008 -0.003211 -0.003511 0.033363 0.011078
# 6 -0.005047 -0.005013 0.000720 -0.005557 0.011078 0.035161
#
#
# Mechanical properties :
#
#
# Convention : Reuss Voigt Hill
#
# Bulk Modulus (GPa) = 40.15888 49.40192 44.78040
# Shear Modulus (GPa) = 32.69045 39.46830 36.07938
#
# Velocity S-wave (km/s) = 3.56334 3.91535 3.74348
# Velocity P-wave (km/s) = 5.70333 6.29510 6.00651
#
# Compressibility (1/GPa) = 0.02490109
#
# Stress axis : x y z
#
# Youngs Moduli (GPa) = 85.85525 60.72816 107.76867
#
# Poissons Ratio (x) = 0.20963 0.26075
# Poissons Ratio (y) = 0.29637 0.04038
# Poissons Ratio (z) = 0.20773 0.02275
#
# Static dielectric constant tensor:
#      x y z
#    x 2.011430 0.005370 0.007780 
#    y 0.005370 2.154050 0.066760 
#    z 0.007780 0.066760 2.071220 
# 
# From -- ./inp_files/289084.got.cif
#   From: 2010.05.17/outbox.cif.g08.bks.cpg/sg2_145_cif.got.tgz:289084.got - 2010.06.03 11:33:40.
