data_PCOD9034456
_publ_section_title
;
Structure prediction by ZEFSAII (Michael W. Deem and Ramdas Pophale) SiO2 
 PCOD9034456
Probable space group: P -1
;
_chemical_formula_sum "Si O2"
_cell_formula_units_Z 16
_cell_length_a 8.777256
_cell_length_b 18.973511
_cell_length_c 5.319174
_cell_angle_alpha 105.571149
_cell_angle_beta 55.655449
_cell_angle_gamma 105.082488
_cell_volume 697.931911
_symmetry_space_group_name_H-M "P -1"
_symmetry_group_IT_number 2
_symmetry_cell_setting 'triclinic'
loop_
_space_group_symop_operation_xyz
x,y,z
-x,-y,-z
loop_
_atom_site_type_symbol
_atom_site_label
_atom_site_fract_x
_atom_site_fract_y
_atom_site_fract_z
Si Si1 0.558609 0.635189 0.508892
Si Si2 0.922885 0.568629 0.264552
Si Si3 0.772660 0.770748 0.225832
Si Si4 0.678209 0.468229 0.691891
Si Si5 0.455791 0.093047 0.372083
Si Si6 0.310661 0.926603 0.360670
Si Si7 0.020074 0.793946 0.521332
Si Si8 0.734458 0.327549 0.834405
O O1 0.737239 0.597004 0.367219
O O2 0.629007 0.694783 0.288810
O O3 0.397831 0.568022 0.533694
O O4 0.462134 0.680760 0.850794
O O5 0.844825 0.534754 0.573147
O O6 0.084624 0.635895 0.144409
O O7 0.000000 0.500000 0.000000
O O8 0.657577 0.838810 0.429571
O O9 0.909035 0.772168 0.344255
O O10 0.885331 0.777564 0.868508
O O11 0.727764 0.395642 0.714606
O O12 0.500000 0.500000 0.000000
O O13 0.586468 0.088659 0.489738
O O14 0.321083 0.014862 0.412624
O O15 0.577176 0.098327 0.009038
O O16 0.108044 0.879346 0.504880
O O17 0.196194 0.749316 0.371891
#
# Coordination Sequence:
#
# PCOD9034456 Si02
#       8
#     2   2   2   2   2   2   2   2
#     4  12  27  46  67  99 139 183 236 294 360 424
#     4  12  24  47  68  96 133 173 238 297 357 431
#     4  12  28  45  70 104 148 186 238 294 350 418
#     4  12  26  43  72  96 127 183 232 298 364 423
#     4  10  22  44  75 107 143 189 233 294 342 422
#     4  10  22  44  75 107 143 187 241 281 353 418
#     4  12  28  45  70 105 144 191 235 294 349 421
#     4  12  27  45  69  96 138 185 233 297 356 425
#
# _framework density 22.924872000000001
#
# number of rings (size 3 to 8) (size 9 to 14) (size 15 to 20)
#    0.000    0.500    3.750    3.750    8.750    1.000 
#    0.000    0.000    0.000    0.000    0.000    0.000 
#    0.000    0.000    0.000    0.000    0.000    0.000 
#
# Total GULP energy -89400.013899 kJ/mol
# GULP energy per Si atom -5587.500869 kJ/mol
# Density = 2.287269 g / cm^3
# Si number density = 22.924872 Si / 1000 Ang^3
#
#
#
# Elastic Constant Matrix: (Units=GPa)
#
#
# Indices 1 2 3 4 5 6 
#
# 1 61.0384 8.4580 18.0319 4.3946 -2.4773 -5.5656
# 2 8.4580 92.2514 10.6647 -12.2657 -13.5301 6.0219
# 3 18.0319 10.6647 95.0227 -18.0829 -6.6882 8.0411
# 4 4.3946 -12.2657 -18.0829 38.4947 -4.9688 -14.1230
# 5 -2.4773 -13.5301 -6.6882 -4.9688 37.4500 1.5793
# 6 -5.5656 6.0219 8.0411 -14.1230 1.5793 36.2058
#
#
#
# Elastic Compliance Matrix: (Units=1/GPa)
#
#
# Indices 1 2 3 4 5 6 
#
# 1 0.018419 -0.002018 -0.004301 -0.003917 -0.000909 0.002634
# 2 -0.002018 0.012408 0.000307 0.004673 0.005059 -0.000840
# 3 -0.004301 0.000307 0.012875 0.006619 0.003051 -0.001123
# 4 -0.003917 0.004673 0.006619 0.035897 0.006916 0.010851
# 5 -0.000909 0.005059 0.003051 0.006916 0.029944 -0.000267
# 6 0.002634 -0.000840 -0.001123 0.010851 -0.000267 0.032658
#
#
# Mechanical properties :
#
#
# Convention : Reuss Voigt Hill
#
# Bulk Modulus (GPa) = 31.56841 35.84686 33.70763
# Shear Modulus (GPa) = 30.34294 36.50728 33.42511
#
# Velocity S-wave (km/s) = 3.64205 3.99491 3.82256
# Velocity P-wave (km/s) = 5.61127 6.07863 5.84962
#
# Compressibility (1/GPa) = 0.03167724
#
# Stress axis : x y z
#
# Youngs Moduli (GPa) = 54.29303 80.59561 77.67072
#
# Poissons Ratio (x) = 0.16261 0.33407
# Poissons Ratio (y) = 0.10954 -0.02383
# Poissons Ratio (z) = 0.23352 -0.02472
#
# Static dielectric constant tensor:
#      x y z
#    x 1.982710 0.042060 0.058010 
#    y 0.042060 1.887410 0.017350 
#    z 0.058010 0.017350 1.886050 
# 
# From -- ./inp_files/13447.got.cif
#   From: 2010.05.17/outbox.cif.g08.bks.cpg/sg2_7_cif.got.tgz:13447.got - 2010.06.03 11:33:40.
