data_PCOD9034871
_publ_section_title
;
Structure prediction by ZEFSAII (Michael W. Deem and Ramdas Pophale) SiO2 
 PCOD9034871
Probable space group: P -1
;
_chemical_formula_sum "Si O2"
_cell_formula_units_Z 16
_cell_length_a 5.646254
_cell_length_b 25.029597
_cell_length_c 4.840039
_cell_angle_alpha 101.807999
_cell_angle_beta 80.585285
_cell_angle_gamma 62.925307
_cell_volume 569.717173
_symmetry_space_group_name_H-M "P -1"
_symmetry_group_IT_number 2
_symmetry_cell_setting 'triclinic'
loop_
_space_group_symop_operation_xyz
x,y,z
-x,-y,-z
loop_
_atom_site_type_symbol
_atom_site_label
_atom_site_fract_x
_atom_site_fract_y
_atom_site_fract_z
Si Si1 0.478059 0.430362 0.281179
Si Si2 0.688587 0.015913 0.785667
Si Si3 0.220425 0.687049 0.587610
Si Si4 0.258170 0.752997 0.174163
Si Si5 0.050411 0.544964 0.830300
Si Si6 0.217821 0.130843 0.811313
Si Si7 0.160010 0.900743 0.761391
Si Si8 0.629968 0.783916 0.745475
O O1 0.608171 0.387214 0.482738
O O2 0.247938 0.500941 0.495822
O O3 0.745559 0.428806 0.081763
O O4 0.268664 0.409133 0.160981
O O5 0.494754 0.063443 0.631714
O O6 0.765147 0.057388 0.011946
O O7 0.966177 0.948352 0.607303
O O8 0.500000 0.000000 0.000000
O O9 0.363196 0.716368 0.401046
O O10 0.914407 0.720740 0.548818
O O11 0.185785 0.712106 0.934175
O O12 0.981448 0.822227 0.337406
O O13 0.466295 0.763902 0.963587
O O14 0.000000 0.500000 0.000000
O O15 0.295011 0.172585 0.034698
O O16 0.028189 0.115503 0.026372
O O17 0.434334 0.832244 0.593728
#
# Coordination Sequence:
#
# PCOD9034871 Si02
#       8
#     2   2   2   2   2   2   2   2
#     4  10  24  41  67 103 134 176 230 272 335 401
#     4   8  12  20  43  78 112 157 203 261 320 386
#     4  11  25  41  64  96 128 170 219 267 322 393
#     4  10  23  41  60  90 126 169 216 269 329 387
#     4  10  22  45  69 100 137 179 219 280 334 395
#     4   8  15  30  49  79 116 157 211 259 325 385
#     4   8  13  24  46  77 117 155 206 261 322 387
#     4   9  19  36  56  84 121 166 208 269 324 392
#
# _framework density 28.084109999999999
#
# number of rings (size 3 to 8) (size 9 to 14) (size 15 to 20)
#    0.000    2.750    0.000    0.375    3.500    2.000 
#    0.000    0.000    0.000    0.750    0.000  170.625 
#    0.000    0.000    0.000    0.000    0.000    0.000 
#
# Total GULP energy -89507.623283 kJ/mol
# GULP energy per Si atom -5594.226455 kJ/mol
# Density = 2.802019 g / cm^3
# Si number density = 28.084110 Si / 1000 Ang^3
#
#
#
# Elastic Constant Matrix: (Units=GPa)
#
#
# Indices 1 2 3 4 5 6 
#
# 1 190.9137 51.5027 33.8196 -8.2431 -22.3367 -7.7543
# 2 51.5027 165.9584 23.4329 -25.1922 -0.4647 -31.6106
# 3 33.8196 23.4329 114.5859 -12.7633 2.3500 2.7634
# 4 -8.2431 -25.1922 -12.7633 34.6024 -4.4730 -5.2075
# 5 -22.3367 -0.4647 2.3500 -4.4730 34.9585 -8.4091
# 6 -7.7543 -31.6106 2.7634 -5.2075 -8.4091 49.5181
#
#
#
# Elastic Compliance Matrix: (Units=1/GPa)
#
#
# Indices 1 2 3 4 5 6 
#
# 1 0.006543 -0.001500 -0.001677 0.000592 0.004590 0.001002
# 2 -0.001500 0.008921 -0.000789 0.007048 0.001686 0.006532
# 3 -0.001677 -0.000789 0.009694 0.002163 -0.001790 -0.001384
# 4 0.000592 0.007048 0.002163 0.037385 0.007435 0.009665
# 5 0.004590 0.001686 -0.001790 0.007435 0.034694 0.008569
# 6 0.001002 0.006532 -0.001384 0.009665 0.008569 0.027070
#
#
# Mechanical properties :
#
#
# Convention : Reuss Voigt Hill
#
# Bulk Modulus (GPa) = 58.04737 76.55203 67.29970
# Shear Modulus (GPa) = 36.23700 47.99597 42.11649
#
# Velocity S-wave (km/s) = 3.59598 4.13850 3.87674
# Velocity P-wave (km/s) = 6.16079 7.08192 6.63735
#
# Compressibility (1/GPa) = 0.01722731
#
# Stress axis : x y z
#
# Youngs Moduli (GPa) = 152.83451 112.09346 103.15453
#
# Poissons Ratio (x) = 0.16815 0.17296
# Poissons Ratio (y) = 0.22926 0.08136
# Poissons Ratio (z) = 0.25626 0.08841
#
# Static dielectric constant tensor:
#      x y z
#    x 2.369430 -0.038090 0.041400 
#    y -0.038090 2.239180 -0.000490 
#    z 0.041400 -0.000490 2.107850 
# 
# From -- ./inp_files/13270.got.cif
#   From: 2010.05.17/outbox.cif.g08.bks.cpg/sg2_7_cif.got.tgz:13270.got - 2010.06.03 11:33:40.
