data_PCOD9034054
_publ_section_title
;
Structure prediction by ZEFSAII (Michael W. Deem and Ramdas Pophale) SiO2 
 PCOD9034054
Probable space group: P -1
;
_chemical_formula_sum "Si O2"
_cell_formula_units_Z 14
_cell_length_a 7.734130
_cell_length_b 10.690019
_cell_length_c 16.484543
_cell_angle_alpha 136.793626
_cell_angle_beta 142.776521
_cell_angle_gamma 53.098467
_cell_volume 563.786406
_symmetry_space_group_name_H-M "P -1"
_symmetry_group_IT_number 2
_symmetry_cell_setting 'triclinic'
loop_
_space_group_symop_operation_xyz
x,y,z
-x,-y,-z
loop_
_atom_site_type_symbol
_atom_site_label
_atom_site_fract_x
_atom_site_fract_y
_atom_site_fract_z
Si Si1 0.879461 0.771160 0.931055
Si Si2 0.385202 0.516708 0.055032
Si Si3 0.213864 0.126458 0.804088
Si Si4 0.427633 0.839552 0.462164
Si Si5 0.771897 0.225807 0.277554
Si Si6 0.195020 0.420126 0.626059
Si Si7 0.303610 0.089467 0.229053
O O1 0.566281 0.769409 0.848940
O O2 0.819017 0.749265 0.800712
O O3 0.086916 0.628854 0.988179
O O4 0.040590 0.959812 0.083980
O O5 0.333158 0.313291 0.968764
O O6 0.500000 0.500000 0.000000
O O7 0.626771 0.611209 0.241215
O O8 0.914298 0.169226 0.667078
O O9 0.142466 0.987024 0.783559
O O10 0.454497 0.025668 0.788952
O O11 0.581432 0.657165 0.395589
O O12 0.554354 0.868073 0.612134
O O13 0.500000 0.000000 0.500000
O O14 0.870836 0.364976 0.312269
O O15 0.913282 0.310371 0.451929
#
# Coordination Sequence:
#
# PCOD9034054 Si02
#       7
#     2   2   2   2   2   2   2
#     4  10  22  44  71 101 140 184 234 284 347 418
#     4  12  26  45  73 103 140 185 236 290 346 420
#     4  11  24  45  73 106 139 188 233 288 350 416
#     4  12  24  42  73 107 141 183 233 295 347 411
#     4  10  24  48  69 104 142 186 230 290 352 415
#     4  11  26  48  68 103 148 182 234 290 354 416
#     4  10  23  44  71 103 144 182 237 286 346 416
#
# _framework density 24.832097000000001
#
# number of rings (size 3 to 8) (size 9 to 14) (size 15 to 20)
#    0.000    1.143    2.857    2.143    0.000    8.571 
#    0.000    4.286    0.000    0.000    0.000    0.000 
#    0.000    0.000    0.000    0.000    0.000    0.000 
#
# Total GULP energy -78359.257794 kJ/mol
# GULP energy per Si atom -5597.089842 kJ/mol
# Density = 2.477558 g / cm^3
# Si number density = 24.832097 Si / 1000 Ang^3
#
#
#
# Elastic Constant Matrix: (Units=GPa)
#
#
# Indices 1 2 3 4 5 6 
#
# 1 73.7462 7.5221 43.0402 -18.5474 -5.5547 0.5854
# 2 7.5221 106.0186 27.0396 -12.6129 -0.4492 9.6417
# 3 43.0402 27.0396 158.7197 -49.2515 1.7320 -0.3355
# 4 -18.5474 -12.6129 -49.2515 50.7169 7.8424 14.2132
# 5 -5.5547 -0.4492 1.7320 7.8424 54.9385 -12.8935
# 6 0.5854 9.6417 -0.3355 14.2132 -12.8935 33.2075
#
#
#
# Elastic Compliance Matrix: (Units=1/GPa)
#
#
# Indices 1 2 3 4 5 6 
#
# 1 0.016448 0.000182 -0.003712 0.002559 0.001177 -0.001018
# 2 0.000182 0.010517 -0.000655 0.003801 -0.001670 -0.005339
# 3 -0.003712 -0.000655 0.010985 0.011402 -0.003756 -0.005972
# 4 0.002559 0.003801 0.011402 0.040825 -0.011268 -0.022882
# 5 0.001177 -0.001670 -0.003756 -0.011268 0.023398 0.014334
# 6 -0.001018 -0.005339 -0.005972 -0.022882 0.014334 0.046980
#
#
# Mechanical properties :
#
#
# Convention : Reuss Voigt Hill
#
# Bulk Modulus (GPa) = 33.80670 54.85427 44.33049
# Shear Modulus (GPa) = 29.87130 45.16475 37.51802
#
# Velocity S-wave (km/s) = 3.47209 4.26937 3.89121
# Velocity P-wave (km/s) = 5.45138 6.81479 6.17086
#
# Compressibility (1/GPa) = 0.02957993
#
# Stress axis : x y z
#
# Youngs Moduli (GPa) = 60.79628 95.08423 91.03373
#
# Poissons Ratio (x) = -0.01728 0.33795
# Poissons Ratio (y) = -0.01105 0.05960
# Poissons Ratio (z) = 0.22569 0.06225
#
# Static dielectric constant tensor:
#      x y z
#    x 2.004340 -0.027160 -0.033860 
#    y -0.027160 2.129160 0.012410 
#    z -0.033860 0.012410 1.923110 
# 
# From -- ./inp_files/213597.got.cif
#   From: 2010.05.17/outbox.cif.g08.bks.cpg/sg2_107_cif.got.tgz:213597.got - 2010.06.03 11:33:40.
