data_PCOD9034388
_publ_section_title
;
Structure prediction by ZEFSAII (Michael W. Deem and Ramdas Pophale) SiO2 
 PCOD9034388
Probable space group: P -1
;
_chemical_formula_sum "Si O2"
_cell_formula_units_Z 14
_cell_length_a 11.509838
_cell_length_b 9.025585
_cell_length_c 22.922487
_cell_angle_alpha 29.040247
_cell_angle_beta 29.542925
_cell_angle_gamma 39.629602
_cell_volume 569.499316
_symmetry_space_group_name_H-M "P -1"
_symmetry_group_IT_number 2
_symmetry_cell_setting 'triclinic'
loop_
_space_group_symop_operation_xyz
x,y,z
-x,-y,-z
loop_
_atom_site_type_symbol
_atom_site_label
_atom_site_fract_x
_atom_site_fract_y
_atom_site_fract_z
Si Si1 0.022414 0.348612 0.851208
Si Si2 0.986908 0.813357 0.286788
Si Si3 0.432606 0.346219 0.992339
Si Si4 0.214616 0.224480 0.346345
Si Si5 0.355909 0.213264 0.649903
Si Si6 0.713479 0.227882 0.327788
Si Si7 0.662095 0.734736 0.076483
O O1 0.119099 0.286452 0.765529
O O2 0.229726 0.537416 0.726449
O O3 0.783334 0.517808 0.921957
O O4 0.000000 0.000000 0.000000
O O5 0.735816 0.792603 0.373069
O O6 0.105568 0.477851 0.351603
O O7 0.940777 0.992238 0.304826
O O8 0.122278 0.048753 0.105681
O O9 0.486064 0.982077 0.100452
O O10 0.659558 0.556803 0.831742
O O11 0.397692 0.359836 0.931553
O O12 0.448116 0.045323 0.329893
O O13 0.000000 0.000000 0.500000
O O14 0.500000 0.500000 0.500000
O O15 0.704394 0.448372 0.198590
O O16 0.500000 0.000000 0.500000
#
# Coordination Sequence:
#
# PCOD9034388 Si02
#       7
#     2   2   2   2   2   2   2
#     4  12  25  45  69 106 145 180 239 303 353 428
#     4  11  23  45  75  99 132 197 244 284 357 438
#     4  10  22  44  74 103 137 188 249 294 349 433
#     4  11  23  42  68 103 143 182 238 296 354 434
#     4  12  24  44  70 102 147 192 233 292 371 430
#     4  12  26  44  69 106 145 181 241 303 363 424
#     4  10  22  45  74 100 135 188 241 291 358 428
#
# _framework density 24.582998
#
# number of rings (size 3 to 8) (size 9 to 14) (size 15 to 20)
#    0.000    0.857    4.286    3.000    0.000    0.000 
#    5.143    2.857    0.000    0.000    0.000    0.000 
#    0.000    0.000    0.000    0.000    0.000    0.000 
#
# Total GULP energy -78026.742276 kJ/mol
# GULP energy per Si atom -5573.338734 kJ/mol
# Density = 2.452705 g / cm^3
# Si number density = 24.582998 Si / 1000 Ang^3
#
#
#
# Elastic Constant Matrix: (Units=GPa)
#
#
# Indices 1 2 3 4 5 6 
#
# 1 70.4689 42.9976 11.1179 1.3592 -24.9171 10.3996
# 2 42.9976 238.3362 46.2997 -5.3038 -3.2809 -3.0400
# 3 11.1179 46.2997 115.9790 -10.7479 -39.9369 8.5483
# 4 1.3592 -5.3038 -10.7479 54.6183 3.6514 -4.9521
# 5 -24.9171 -3.2809 -39.9369 3.6514 38.7069 1.3016
# 6 10.3996 -3.0400 8.5483 -4.9521 1.3016 43.0766
#
#
#
# Elastic Compliance Matrix: (Units=1/GPa)
#
#
# Indices 1 2 3 4 5 6 
#
# 1 0.029117 -0.007170 0.011028 -0.002250 0.030092 -0.010892
# 2 -0.007170 0.006492 -0.005544 0.000718 -0.009976 0.003673
# 3 0.011028 -0.005544 0.019783 0.000557 0.027249 -0.007739
# 4 -0.002250 0.000718 0.000557 0.018973 -0.002695 0.002746
# 5 0.030092 -0.009976 0.027249 -0.002695 0.073265 -0.015900
# 6 -0.010892 0.003673 -0.007739 0.002746 -0.015900 0.028435
#
#
# Mechanical properties :
#
#
# Convention : Reuss Voigt Hill
#
# Bulk Modulus (GPa) = 19.22358 69.51272 44.36815
# Shear Modulus (GPa) = 25.40952 48.90495 37.15724
#
# Velocity S-wave (km/s) = 3.21849 4.46509 3.89202
# Velocity P-wave (km/s) = 4.65278 7.41086 6.18745
#
# Compressibility (1/GPa) = 0.05201944
#
# Stress axis : x y z
#
# Youngs Moduli (GPa) = 34.34445 154.04306 50.54799
#
# Poissons Ratio (x) = 1.10447 -0.55742
# Poissons Ratio (y) = 0.24625 0.28023
# Poissons Ratio (z) = -0.37873 0.85398
#
# Static dielectric constant tensor:
#      x y z
#    x 1.919510 -0.013710 -0.064490 
#    y -0.013710 2.015720 0.008350 
#    z -0.064490 0.008350 1.937050 
# 
# From -- ./inp_files/186855.got.cif
#   From: 2010.05.17/outbox.cif.g08.bks.cpg/sg2_94_cif.got.tgz:186855.got - 2010.06.03 11:33:40.
