data_PCOD9034052
_publ_section_title
;
Structure prediction by ZEFSAII (Michael W. Deem and Ramdas Pophale) SiO2 
 PCOD9034052
Probable space group: P -1
;
_chemical_formula_sum "Si O2"
_cell_formula_units_Z 11
_cell_length_a 11.808381
_cell_length_b 5.064150
_cell_length_c 17.416064
_cell_angle_alpha 85.144397
_cell_angle_beta 31.049052
_cell_angle_gamma 74.904776
_cell_volume 498.173100
_symmetry_space_group_name_H-M "P -1"
_symmetry_group_IT_number 2
_symmetry_cell_setting 'triclinic'
loop_
_space_group_symop_operation_xyz
x,y,z
-x,-y,-z
loop_
_atom_site_type_symbol
_atom_site_label
_atom_site_fract_x
_atom_site_fract_y
_atom_site_fract_z
Si Si1 0.163638 0.216306 0.112747
Si Si2 0.408026 0.436208 0.326893
Si Si3 0.095106 0.721206 0.898360
Si Si4 0.465948 0.612574 0.910318
Si Si5 0.045516 0.423197 0.340642
Si Si6 0.000000 0.000000 0.500000
O O1 0.318584 0.409648 0.002534
O O2 0.338058 0.891178 0.028249
O O3 0.021488 0.332315 0.270783
O O4 0.001013 0.228907 0.133525
O O5 0.620433 0.398119 0.261594
O O6 0.524155 0.283270 0.185121
O O7 0.196157 0.353348 0.488313
O O8 0.262877 0.758413 0.375459
O O9 0.000000 0.500000 0.000000
O O10 0.000000 0.000000 0.000000
O O11 0.737112 0.472627 0.782478
O O12 0.107761 0.156749 0.368659
#
# Coordination Sequence:
#
# PCOD9034052 Si02
#       6
#     2   2   2   2   2   1
#     4  12  25  44  72 106 138 184 235 289 344 413
#     4  10  22  44  71 101 139 186 233 280 351 418
#     4  12  24  46  72  99 139 186 235 284 348 419
#     4  12  23  45  70 104 141 183 230 286 352 416
#     4  10  24  43  69 108 141 182 233 291 349 410
#     4   8  22  42  68 100 142 178 228 276 362 394
#
# _framework density 22.080677999999999
#
# number of rings (size 3 to 8) (size 9 to 14) (size 15 to 20)
#    1.091    0.000    3.636    2.727    0.000    2.182 
#    0.000    0.000    0.000    4.364    0.000    0.000 
#    0.000    0.000    0.000    0.000    0.000    0.000 
#
# Total GULP energy -61237.555463 kJ/mol
# GULP energy per Si atom -5567.050497 kJ/mol
# Density = 2.203042 g / cm^3
# Si number density = 22.080678 Si / 1000 Ang^3
#
#
#
# Elastic Constant Matrix: (Units=GPa)
#
#
# Indices 1 2 3 4 5 6 
#
# 1 146.0557 37.2835 74.1146 -15.7587 -10.3116 16.3317
# 2 37.2835 -751.3268-1207.2591 723.6104 727.7539 -523.9107
# 3 74.1146-1207.2591-1713.4487 1065.9356 1068.9091 -795.9285
# 4 -15.7587 723.6104 1065.9356 -599.3198 -630.1092 468.6024
# 5 -10.3116 727.7539 1068.9091 -630.1092 -577.9913 472.2665
# 6 16.3317 -523.9107 -795.9285 468.6024 472.2665 -322.1490
#
#
#
# Elastic Compliance Matrix: (Units=1/GPa)
#
#
# Indices 1 2 3 4 5 6 
#
# 1 0.007744 -0.000321 -0.002577 -0.002342 -0.002078 0.000828
# 2 -0.000321 0.014394 -0.003941 0.001772 0.000854 -0.009857
# 3 -0.002577 -0.003941 0.009418 0.006232 0.003884 -0.002230
# 4 -0.002342 0.001772 0.006232 0.024136 -0.005761 0.008264
# 5 -0.002078 0.000854 0.003884 -0.005761 0.015484 0.003230
# 6 0.000828 -0.009857 -0.002230 0.008264 0.003230 0.035234
#
#
# Mechanical properties :
#
#
# Convention : Reuss Voigt Hill
#
# Bulk Modulus (GPa) = 55.93416 -501.16019 -222.61301
# Shear Modulus (GPa) = 39.66715 -381.41593 -170.87439
#
# Velocity S-wave (km/s) = 4.24307 -13.15722 -8.80650
# Velocity P-wave (km/s) = 7.02791 21.40741 14.29835
#
# Compressibility (1/GPa) = 0.01787816
#
# Stress axis : x y z
#
# Youngs Moduli (GPa) = 129.12805 69.47478 106.17717
#
# Poissons Ratio (x) = 0.02227 0.27362
# Poissons Ratio (y) = 0.04139 0.41850
# Poissons Ratio (z) = 0.33276 0.27383
#
# Static dielectric constant tensor:
#      x y z
#    x 1.854200 0.060950 0.008340 
#    y 0.060950 1.822130 0.013690 
#    z 0.008340 0.013690 1.849300 
# 
# From -- ./inp_files/72946.got.cif
#   From: 2010.05.17/outbox.cif.g08.bks.cpg/sg2_37_cif.got.tgz:72946.got - 2010.06.03 11:33:40.
