data_PCOD9034015
_publ_section_title
;
Structure prediction by ZEFSAII (Michael W. Deem and Ramdas Pophale) SiO2 
 PCOD9034015
Probable space group: P -1
;
_chemical_formula_sum "Si O2"
_cell_formula_units_Z 14
_cell_length_a 11.773720
_cell_length_b 9.007725
_cell_length_c 7.142934
_cell_angle_alpha 97.505013
_cell_angle_beta 100.063906
_cell_angle_gamma 129.975269
_cell_volume 541.164505
_symmetry_space_group_name_H-M "P -1"
_symmetry_group_IT_number 2
_symmetry_cell_setting 'triclinic'
loop_
_space_group_symop_operation_xyz
x,y,z
-x,-y,-z
loop_
_atom_site_type_symbol
_atom_site_label
_atom_site_fract_x
_atom_site_fract_y
_atom_site_fract_z
Si Si1 0.844970 0.459749 0.906444
Si Si2 0.007312 0.339110 0.391308
Si Si3 0.276333 0.120866 0.355017
Si Si4 0.570713 0.984812 0.830120
Si Si5 0.923930 0.797817 0.251060
Si Si6 0.322979 0.948227 0.667633
Si Si7 0.611299 0.682166 0.208589
O O1 0.703997 0.219989 0.848794
O O2 0.872567 0.554816 0.726359
O O3 0.848180 0.598430 0.075130
O O4 0.000000 0.500000 0.000000
O O5 0.822658 0.170098 0.251039
O O6 0.000000 0.500000 0.500000
O O7 0.049301 0.252273 0.544060
O O8 0.369479 0.131525 0.208342
O O9 0.258513 0.956753 0.455767
O O10 0.093430 0.000545 0.251244
O O11 0.370276 0.315046 0.556079
O O12 0.410951 0.871823 0.646088
O O13 0.500000 0.000000 0.000000
O O14 0.791869 0.808002 0.223916
O O15 0.434317 0.184393 0.796938
O O16 0.500000 0.500000 0.000000
#
# Coordination Sequence:
#
# PCOD9034015 Si02
#       7
#     2   2   2   2   2   2   2
#     4  12  22  40  66 103 140 176 233 288 349 422
#     4  11  22  40  67 105 138 176 232 287 353 423
#     4   9  21  39  68  97 132 180 230 282 349 403
#     4  12  23  40  65 104 142 178 224 292 354 415
#     4  11  22  43  72 100 140 185 232 291 346 420
#     4   9  22  40  66  97 137 174 231 283 350 405
#     4  10  22  44  70  99 142 189 236 288 347 413
#
# _framework density 25.870138000000001
#
# number of rings (size 3 to 8) (size 9 to 14) (size 15 to 20)
#    0.857    0.571    2.857    3.429    0.000    0.000 
#    0.000    2.143    0.000    3.429    0.000    0.000 
#    0.000    0.000    0.000    0.000    0.000    0.000 
#
# Total GULP energy -78058.900206 kJ/mol
# GULP energy per Si atom -5575.635729 kJ/mol
# Density = 2.581126 g / cm^3
# Si number density = 25.870138 Si / 1000 Ang^3
#
#
#
# Elastic Constant Matrix: (Units=GPa)
#
#
# Indices 1 2 3 4 5 6 
#
# 1 158.4024 21.0589 45.5327 8.5601 0.9936 2.5364
# 2 21.0589 57.7379 29.6975 14.6417 -5.0980 15.3293
# 3 45.5327 29.6975 113.5624 29.6220 -23.8198 15.2312
# 4 8.5601 14.6417 29.6220 46.6063 -7.5211 -7.0779
# 5 0.9936 -5.0980 -23.8198 -7.5211 50.1417 -0.6699
# 6 2.5364 15.3293 15.2312 -7.0779 -0.6699 38.4060
#
#
#
# Elastic Compliance Matrix: (Units=1/GPa)
#
#
# Indices 1 2 3 4 5 6 
#
# 1 0.007480 -0.001969 -0.003496 0.001474 -0.001762 0.001919
# 2 -0.001969 0.023552 -0.002171 -0.007099 0.000207 -0.009714
# 3 -0.003496 -0.002171 0.014933 -0.008206 0.005628 -0.006239
# 4 0.001474 -0.007099 -0.008206 0.030403 0.000066 0.011595
# 5 -0.001762 0.000207 0.005628 0.000066 0.022659 -0.001791
# 6 0.001919 -0.009714 -0.006239 0.011595 -0.001791 0.034368
#
#
# Mechanical properties :
#
#
# Convention : Reuss Voigt Hill
#
# Bulk Modulus (GPa) = 32.58067 58.03122 45.30595
# Shear Modulus (GPa) = 31.46644 42.59172 37.02908
#
# Velocity S-wave (km/s) = 3.49137 4.06195 3.78742
# Velocity P-wave (km/s) = 5.37346 6.66931 6.05614
#
# Compressibility (1/GPa) = 0.03069304
#
# Stress axis : x y z
#
# Youngs Moduli (GPa) = 133.68334 42.45855 66.96593
#
# Poissons Ratio (x) = 0.08361 0.23410
# Poissons Ratio (y) = 0.26324 0.14542
# Poissons Ratio (z) = 0.46732 0.09220
#
# Static dielectric constant tensor:
#      x y z
#    x 2.207560 -0.001740 0.290980 
#    y -0.001740 2.127570 -0.221330 
#    z 0.290980 -0.221330 2.829220 
# 
# From -- ./inp_files/239890.got.cif
#   From: 2010.05.17/outbox.cif.g08.bks.cpg/sg2_120_cif.got.tgz:239890.got - 2010.06.03 11:33:40.
