data_PCOD9034968
_publ_section_title
;
Structure prediction by ZEFSAII (Michael W. Deem and Ramdas Pophale) SiO2 
 PCOD9034968
Probable space group: P -1
;
_chemical_formula_sum "Si O2"
_cell_formula_units_Z 16
_cell_length_a 14.158543
_cell_length_b 23.147356
_cell_length_c 13.440534
_cell_angle_alpha 159.659329
_cell_angle_beta 29.159897
_cell_angle_gamma 151.963370
_cell_volume 691.026078
_symmetry_space_group_name_H-M "P -1"
_symmetry_group_IT_number 2
_symmetry_cell_setting 'triclinic'
loop_
_space_group_symop_operation_xyz
x,y,z
-x,-y,-z
loop_
_atom_site_type_symbol
_atom_site_label
_atom_site_fract_x
_atom_site_fract_y
_atom_site_fract_z
Si Si1 0.766395 0.233759 0.125764
Si Si2 0.080731 0.681903 0.354790
Si Si3 0.313091 0.153239 0.483268
Si Si4 0.404707 0.204261 0.698375
Si Si5 0.258445 0.230633 0.090199
Si Si6 0.520387 0.129476 0.834845
Si Si7 0.345517 0.595995 0.688402
Si Si8 0.792116 0.520768 0.914099
O O1 0.564435 0.208600 0.336222
O O2 0.704302 0.281516 0.150448
O O3 0.982706 0.395481 0.212115
O O4 0.787432 0.042083 0.788325
O O5 0.247048 0.788477 0.292901
O O6 0.184929 0.595462 0.201480
O O7 0.968329 0.795413 0.701317
O O8 0.874398 0.520093 0.243543
O O9 0.270171 0.157101 0.646157
O O10 0.252136 0.304254 0.730576
O O11 0.598669 0.394309 0.823223
O O12 0.500591 0.052865 0.386853
O O13 0.272096 0.209624 0.926646
O O14 0.393113 0.440334 0.335432
O O15 0.365554 0.115327 0.864072
O O16 0.498085 0.273800 0.166791
#
# Coordination Sequence:
#
# PCOD9034968 Si02
#       8
#     2   2   2   2   2   2   2   2
#     4  10  22  45  69  97 131 167 226 274 318 390
#     4   9  23  39  66  93 128 172 220 260 321 385
#     4  11  24  45  70  96 130 174 220 275 325 384
#     4  12  25  43  66 102 134 172 217 269 331 394
#     4  10  23  41  62  94 133 174 211 267 324 385
#     4  12  21  43  66  95 136 171 217 268 324 386
#     4   9  20  41  66  95 126 171 219 267 314 392
#     4  11  23  43  67  94 133 177 209 268 335 383
#
# _framework density 23.153974999999999
#
# number of rings (size 3 to 8) (size 9 to 14) (size 15 to 20)
#    0.750    0.750    2.500    2.625    0.000    1.000 
#    2.250    0.000    0.000    0.000    0.000    0.000 
#    0.000    0.000    0.000    0.000    0.000    0.000 
#
# Total GULP energy -89424.822797 kJ/mol
# GULP energy per Si atom -5589.051425 kJ/mol
# Density = 2.310128 g / cm^3
# Si number density = 23.153975 Si / 1000 Ang^3
#
#
#
# Elastic Constant Matrix: (Units=GPa)
#
#
# Indices 1 2 3 4 5 6 
#
# 1 38.4901 9.8925 2.9147 -3.4060 2.2606 -1.6397
# 2 9.8925 70.1650 10.4066 6.7715 2.9396 1.6412
# 3 2.9147 10.4066 80.4634 6.9737 -5.8771 -1.5942
# 4 -3.4060 6.7715 6.9737 34.3841 -5.0435 0.3936
# 5 2.2606 2.9396 -5.8771 -5.0435 39.7968 3.1968
# 6 -1.6397 1.6412 -1.5942 0.3936 3.1968 18.5886
#
#
#
# Elastic Compliance Matrix: (Units=1/GPa)
#
#
# Indices 1 2 3 4 5 6 
#
# 1 0.027603 -0.004130 -0.000798 0.003506 -0.001166 0.002857
# 2 -0.004130 0.015505 -0.001706 -0.003312 -0.001457 -0.001559
# 3 -0.000798 -0.001706 0.013009 -0.002136 0.001746 0.000941
# 4 0.003506 -0.003312 -0.002136 0.031075 0.003739 -0.000882
# 5 -0.001166 -0.001457 0.001746 0.003739 0.026390 -0.004442
# 6 0.002857 -0.001559 0.000941 -0.000882 -0.004442 0.055050
#
#
# Mechanical properties :
#
#
# Convention : Reuss Voigt Hill
#
# Bulk Modulus (GPa) = 23.33781 26.17180 24.75481
# Shear Modulus (GPa) = 25.48668 29.61422 27.55045
#
# Velocity S-wave (km/s) = 3.32135 3.58021 3.45321
# Velocity P-wave (km/s) = 4.98094 5.33089 5.15889
#
# Compressibility (1/GPa) = 0.04284891
#
# Stress axis : x y z
#
# Youngs Moduli (GPa) = 36.22805 64.49719 76.87057
#
# Poissons Ratio (x) = 0.26635 0.06136
# Poissons Ratio (y) = 0.14961 0.13113
# Poissons Ratio (z) = 0.02892 0.11003
#
# Static dielectric constant tensor:
#      x y z
#    x 1.815120 0.024670 0.022910 
#    y 0.024670 1.886390 0.010640 
#    z 0.022910 0.010640 1.901080 
# 
# From -- ./inp_files/535430.got.cif
#   From: 2010.05.17/outbox.cif.g08.bks.cpg/sg2_268_cif.got.tgz:535430.got - 2010.06.03 11:33:40.
