data_PCOD9034670
_publ_section_title
;
Structure prediction by ZEFSAII (Michael W. Deem and Ramdas Pophale) SiO2 
 PCOD9034670
Probable space group: P -1
;
_chemical_formula_sum "Si O2"
_cell_formula_units_Z 14
_cell_length_a 5.104638
_cell_length_b 10.175875
_cell_length_c 22.427864
_cell_angle_alpha 144.164892
_cell_angle_beta 58.266139
_cell_angle_gamma 113.349710
_cell_volume 579.027338
_symmetry_space_group_name_H-M "P -1"
_symmetry_group_IT_number 2
_symmetry_cell_setting 'triclinic'
loop_
_space_group_symop_operation_xyz
x,y,z
-x,-y,-z
loop_
_atom_site_type_symbol
_atom_site_label
_atom_site_fract_x
_atom_site_fract_y
_atom_site_fract_z
Si Si1 0.753927 0.951821 0.754285
Si Si2 0.647944 0.325016 0.371074
Si Si3 0.651750 0.996459 0.065404
Si Si4 0.859508 0.449375 0.933904
Si Si5 0.608816 0.370945 0.120961
Si Si6 0.255407 0.282080 0.580585
Si Si7 0.555057 0.197854 0.638921
O O1 0.599403 0.858213 0.679725
O O2 0.462754 0.990206 0.848580
O O3 0.022383 0.783852 0.687545
O O4 0.902643 0.188955 0.815706
O O5 0.500000 0.500000 0.500000
O O6 0.677275 0.476103 0.363755
O O7 0.514021 0.230155 0.137779
O O8 0.503065 0.782536 0.975127
O O9 0.000000 0.000000 0.000000
O O10 0.028905 0.603917 0.923927
O O11 0.500000 0.500000 0.000000
O O12 0.000000 0.500000 0.000000
O O13 0.487722 0.628722 0.237594
O O14 0.324597 0.266860 0.637481
O O15 0.903226 0.237384 0.590848
O O16 0.456480 0.070014 0.449525
#
# Coordination Sequence:
#
# PCOD9034670 Si02
#       7
#     2   2   2   2   2   2   2
#     4  12  27  48  75 102 150 194 240 301 373 425
#     4  12  27  47  73 104 141 194 249 300 357 442
#     4  11  25  43  72 106 141 184 239 299 359 444
#     4  12  26  48  69 103 147 192 234 291 357 442
#     4  11  25  41  70 103 139 178 242 284 362 428
#     4  10  22  45  66  99 140 173 240 287 365 402
#     4  10  23  41  70 100 133 185 222 305 347 427
#
# _framework density 24.178477000000001
#
# number of rings (size 3 to 8) (size 9 to 14) (size 15 to 20)
#    0.000    0.857    1.429    4.714   10.000    0.000 
#    5.143    0.000    0.000    0.000    0.000    0.000 
#    0.000    0.000    0.000    0.000    0.000    0.000 
#
# Total GULP energy -78329.515595 kJ/mol
# GULP energy per Si atom -5594.965400 kJ/mol
# Density = 2.412345 g / cm^3
# Si number density = 24.178477 Si / 1000 Ang^3
#
#
#
# Elastic Constant Matrix: (Units=GPa)
#
#
# Indices 1 2 3 4 5 6 
#
# 1 107.3297 15.0386 33.2946 2.0287 -1.5252 20.9568
# 2 15.0386 83.8238 21.4350 6.6258 2.7638 18.9076
# 3 33.2946 21.4350 140.5907 15.8432 11.0000 22.2576
# 4 2.0287 6.6258 15.8432 20.6903 5.2748 4.7292
# 5 -1.5252 2.7638 11.0000 5.2748 47.9117 6.7888
# 6 20.9568 18.9076 22.2576 4.7292 6.7888 31.9165
#
#
#
# Elastic Compliance Matrix: (Units=1/GPa)
#
#
# Indices 1 2 3 4 5 6 
#
# 1 0.011186 -0.000242 -0.001883 0.001499 0.001550 -0.006440
# 2 -0.000242 0.013994 -0.000679 -0.002405 0.000660 -0.007442
# 3 -0.001883 -0.000679 0.008907 -0.005355 -0.000970 -0.003574
# 4 0.001499 -0.002405 -0.005355 0.054821 -0.004186 -0.003058
# 5 0.001550 0.000660 -0.000970 -0.004186 0.022253 -0.004845
# 6 -0.006440 -0.007442 -0.003574 -0.003058 -0.004845 0.043945
#
#
# Mechanical properties :
#
#
# Convention : Reuss Voigt Hill
#
# Bulk Modulus (GPa) = 35.11279 52.36450 43.73864
# Shear Modulus (GPa) = 29.37591 37.56878 33.47234
#
# Velocity S-wave (km/s) = 3.48941 3.94612 3.72477
# Velocity P-wave (km/s) = 5.54874 6.51667 6.05208
#
# Compressibility (1/GPa) = 0.02847965
#
# Stress axis : x y z
#
# Youngs Moduli (GPa) = 89.39509 71.46059 112.26818
#
# Poissons Ratio (x) = 0.01732 0.21138
# Poissons Ratio (y) = 0.02167 0.07619
# Poissons Ratio (z) = 0.16831 0.04849
#
# Static dielectric constant tensor:
#      x y z
#    x 1.928130 -0.047350 -0.039580 
#    y -0.047350 1.929510 -0.017390 
#    z -0.039580 -0.017390 2.064000 
# 
# From -- ./inp_files/615512.got.cif
#   From: 2010.05.17/outbox.cif.g08.bks.cpg/sg2_308_cif.got.tgz:615512.got - 2010.06.03 11:33:40.
