data_PCOD9034617
_publ_section_title
;
Structure prediction by ZEFSAII (Michael W. Deem and Ramdas Pophale) SiO2 
 PCOD9034617
Probable space group: P -1
;
_chemical_formula_sum "Si O2"
_cell_formula_units_Z 16
_cell_length_a 14.160711
_cell_length_b 13.843904
_cell_length_c 12.009962
_cell_angle_alpha 29.471002
_cell_angle_beta 39.558611
_cell_angle_gamma 40.655484
_cell_volume 708.407869
_symmetry_space_group_name_H-M "P -1"
_symmetry_group_IT_number 2
_symmetry_cell_setting 'triclinic'
loop_
_space_group_symop_operation_xyz
x,y,z
-x,-y,-z
loop_
_atom_site_type_symbol
_atom_site_label
_atom_site_fract_x
_atom_site_fract_y
_atom_site_fract_z
Si Si1 0.974673 0.916198 0.414911
Si Si2 0.702301 0.051289 0.817737
Si Si3 0.081410 0.767916 0.015472
Si Si4 0.602677 0.407336 0.393351
Si Si5 0.201018 0.286651 0.376010
Si Si6 0.235662 0.991197 0.831279
Si Si7 0.161174 0.336163 0.036734
Si Si8 0.503144 0.255287 0.994711
O O1 0.941850 0.792258 0.460761
O O2 0.887785 0.827377 0.676995
O O3 0.148575 0.891343 0.322711
O O4 0.897756 0.147918 0.211362
O O5 0.659712 0.174122 0.616231
O O6 0.752365 0.807985 0.997467
O O7 0.562770 0.126612 0.956714
O O8 0.176307 0.848773 0.941855
O O9 0.131949 0.526250 0.215674
O O10 0.903470 0.880148 0.093565
O O11 0.500000 0.500000 0.500000
O O12 0.735066 0.523878 0.156020
O O13 0.510745 0.507573 0.265020
O O14 0.270516 0.163012 0.547517
O O15 0.340899 0.243299 0.204422
O O16 0.369914 0.848787 0.925164
O O17 0.000000 0.500000 0.000000
#
# Coordination Sequence:
#
# PCOD9034617 Si02
#       8
#     2   2   2   2   2   2   2   2
#     4  11  23  40  69  98 133 178 224 277 336 393
#     4  11  25  44  66  97 142 184 220 283 334 398
#     4  10  23  42  71  98 134 174 224 286 332 407
#     4  10  24  44  62  96 137 178 221 275 331 402
#     4  11  24  42  71 102 130 173 234 278 338 404
#     4  10  22  45  66 100 135 172 225 280 346 396
#     4  12  25  41  69 100 133 181 239 274 328 408
#     4  11  23  44  67  96 141 177 222 277 341 405
#
# _framework density 22.585858999999999
#
# number of rings (size 3 to 8) (size 9 to 14) (size 15 to 20)
#    0.000    1.250    3.750    1.125    3.500    2.500 
#    0.000    3.750    0.000    0.000    0.000    0.000 
#    0.000    0.000    0.000    0.000    0.000    0.000 
#
# Total GULP energy -89303.410426 kJ/mol
# GULP energy per Si atom -5581.463152 kJ/mol
# Density = 2.253445 g / cm^3
# Si number density = 22.585859 Si / 1000 Ang^3
#
#
#
# Elastic Constant Matrix: (Units=GPa)
#
#
# Indices 1 2 3 4 5 6 
#
# 1 79.3200 47.8029 45.7975 -14.8790 18.3325 -30.0595
# 2 47.8029 121.6030 44.3888 -26.2884 1.6719 -11.1163
# 3 45.7975 44.3888 115.2171 -10.2629 27.0519 -9.0466
# 4 -14.8790 -26.2884 -10.2629 45.0324 -6.7574 4.7846
# 5 18.3325 1.6719 27.0519 -6.7574 40.6746 -7.6297
# 6 -30.0595 -11.1163 -9.0466 4.7846 -7.6297 29.7864
#
#
#
# Elastic Compliance Matrix: (Units=1/GPa)
#
#
# Indices 1 2 3 4 5 6 
#
# 1 0.032282 -0.007512 -0.006663 0.001264 -0.004656 0.026355
# 2 -0.007512 0.013142 -0.003050 0.005614 0.005212 -0.003169
# 3 -0.006663 -0.003050 0.013646 -0.001382 -0.007177 -0.005334
# 4 0.001264 0.005614 -0.001382 0.026268 0.004459 -0.000127
# 5 -0.004656 0.005212 -0.007177 0.004459 0.032485 0.002671
# 6 0.026355 -0.003169 -0.005334 -0.000127 0.002671 0.058071
#
#
# Mechanical properties :
#
#
# Convention : Reuss Voigt Hill
#
# Bulk Modulus (GPa) = 40.61485 65.79096 53.20291
# Shear Modulus (GPa) = 22.87812 34.97542 28.92677
#
# Velocity S-wave (km/s) = 3.18612 3.93944 3.58264
# Velocity P-wave (km/s) = 5.61753 7.06291 6.38128
#
# Compressibility (1/GPa) = 0.02462154
#
# Stress axis : x y z
#
# Youngs Moduli (GPa) = 30.97709 76.09298 73.28272
#
# Poissons Ratio (x) = 0.57159 0.48825
# Poissons Ratio (y) = 0.23269 0.22349
# Poissons Ratio (z) = 0.20639 0.23206
#
# Static dielectric constant tensor:
#      x y z
#    x 1.809850 0.183850 0.028220 
#    y 0.183850 1.392220 0.066110 
#    z 0.028220 0.066110 1.882180 
# 
# From -- ./inp_files/454316.got.cif
#   From: 2010.05.17/outbox.cif.g08.bks.cpg/sg2_228_cif.got.tgz:454316.got - 2010.06.03 11:33:40.
