data_PCOD9034453
_publ_section_title
;
Structure prediction by ZEFSAII (Michael W. Deem and Ramdas Pophale) SiO2 
 PCOD9034453
Probable space group: P -1
;
_chemical_formula_sum "Si O2"
_cell_formula_units_Z 16
_cell_length_a 8.834258
_cell_length_b 11.480698
_cell_length_c 9.033865
_cell_angle_alpha 69.464633
_cell_angle_beta 81.275856
_cell_angle_gamma 52.713078
_cell_volume 680.374618
_symmetry_space_group_name_H-M "P -1"
_symmetry_group_IT_number 2
_symmetry_cell_setting 'triclinic'
loop_
_space_group_symop_operation_xyz
x,y,z
-x,-y,-z
loop_
_atom_site_type_symbol
_atom_site_label
_atom_site_fract_x
_atom_site_fract_y
_atom_site_fract_z
Si Si1 0.815027 0.650134 0.037032
Si Si2 0.197422 0.406509 0.596017
Si Si3 0.729227 0.340406 0.600768
Si Si4 0.487117 0.746086 0.844902
Si Si5 0.959655 0.794194 0.766328
Si Si6 0.317066 0.172208 0.444353
Si Si7 0.047333 0.008909 0.817705
Si Si8 0.382712 0.580402 0.727182
O O1 0.829089 0.620331 0.220809
O O2 0.610043 0.696039 0.996876
O O3 0.839099 0.780166 0.916302
O O4 0.000000 0.500000 0.000000
O O5 0.261161 0.517442 0.506214
O O6 0.305656 0.243071 0.572075
O O7 0.000000 0.500000 0.500000
O O8 0.920388 0.187941 0.705630
O O9 0.559517 0.413345 0.714159
O O10 0.673643 0.310995 0.461185
O O11 0.632288 0.741652 0.713049
O O12 0.455845 0.626936 0.831569
O O13 0.277168 0.909495 0.813025
O O14 0.855346 0.818696 0.613586
O O15 0.174522 0.636138 0.786058
O O16 0.985355 0.923197 0.759420
O O17 0.500000 0.000000 0.500000
O O18 0.000000 0.000000 0.000000
#
# Coordination Sequence:
#
# PCOD9034453 Si02
#       8
#     2   2   2   2   2   2   2   2
#     4  11  25  47  79 109 152 191 253 312 375 449
#     4  12  26  46  77 110 147 196 252 311 366 443
#     4  11  25  44  74 113 144 189 255 302 373 438
#     4  10  24  47  70 107 145 196 242 302 375 442
#     4  10  25  48  70 111 145 195 243 302 377 438
#     4  11  25  43  74 108 148 198 251 304 372 440
#     4  11  28  46  75 107 155 197 244 309 379 450
#     4  10  22  44  75 105 146 191 242 310 364 440
#
# _framework density 23.516456999999999
#
# number of rings (size 3 to 8) (size 9 to 14) (size 15 to 20)
#    0.000    1.250    1.250    3.000    7.000    5.000 
#    0.000    6.875    0.000    0.000    0.000    0.000 
#    0.000    0.000    0.000    0.000    0.000    0.000 
#
# Total GULP energy -89407.797931 kJ/mol
# GULP energy per Si atom -5587.987371 kJ/mol
# Density = 2.346293 g / cm^3
# Si number density = 23.516457 Si / 1000 Ang^3
#
#
#
# Elastic Constant Matrix: (Units=GPa)
#
#
# Indices 1 2 3 4 5 6 
#
# 1 142.0848 45.8307 52.9038 4.5405 19.8398 -19.6031
# 2 45.8307 143.7119 55.9805 8.0284 11.7067 -13.9647
# 3 52.9038 55.9805 157.0535 15.3744 7.2846 -10.0980
# 4 4.5405 8.0284 15.3744 39.1490 -11.9965 5.0644
# 5 19.8398 11.7067 7.2846 -11.9965 36.7006 -2.5813
# 6 -19.6031 -13.9647 -10.0980 5.0644 -2.5813 31.1055
#
#
#
# Elastic Compliance Matrix: (Units=1/GPa)
#
#
# Indices 1 2 3 4 5 6 
#
# 1 0.009600 -0.001303 -0.002038 -0.002109 -0.004724 0.004755
# 2 -0.001303 0.008756 -0.002263 -0.001696 -0.002019 0.002484
# 3 -0.002038 -0.002263 0.008219 -0.002836 -0.000680 0.000773
# 4 -0.002109 -0.001696 -0.002836 0.031909 0.012168 -0.007196
# 5 -0.004724 -0.002019 -0.000680 0.012168 0.034330 -0.003237
# 6 0.004755 0.002484 0.000773 -0.007196 -0.003237 0.037414
#
#
# Mechanical properties :
#
#
# Convention : Reuss Voigt Hill
#
# Bulk Modulus (GPa) = 65.07144 83.58667 74.32905
# Shear Modulus (GPa) = 34.11586 40.60003 37.35794
#
# Velocity S-wave (km/s) = 3.81297 4.15957 3.99003
# Velocity P-wave (km/s) = 6.86408 7.66097 7.27345
#
# Compressibility (1/GPa) = 0.01536772
#
# Stress axis : x y z
#
# Youngs Moduli (GPa) = 104.16318 114.20938 121.66586
#
# Poissons Ratio (x) = 0.14881 0.24798
# Poissons Ratio (y) = 0.13572 0.27529
# Poissons Ratio (z) = 0.21230 0.25842
#
# Static dielectric constant tensor:
#      x y z
#    x 1.983020 0.021140 0.025400 
#    y 0.021140 1.804940 0.045670 
#    z 0.025400 0.045670 1.885410 
# 
# From -- ./inp_files/186691.got.cif
#   From: 2010.05.17/outbox.cif.g08.bks.cpg/sg2_94_cif.got.tgz:186691.got - 2010.06.03 11:33:40.
