data_PCOD9034589
_publ_section_title
;
Structure prediction by ZEFSAII (Michael W. Deem and Ramdas Pophale) SiO2 
 PCOD9034589
Probable space group: P -1
;
_chemical_formula_sum "Si O2"
_cell_formula_units_Z 16
_cell_length_a 17.174293
_cell_length_b 7.727640
_cell_length_c 8.255597
_cell_angle_alpha 49.550944
_cell_angle_beta 62.067540
_cell_angle_gamma 87.087432
_cell_volume 682.454203
_symmetry_space_group_name_H-M "P -1"
_symmetry_group_IT_number 2
_symmetry_cell_setting 'triclinic'
loop_
_space_group_symop_operation_xyz
x,y,z
-x,-y,-z
loop_
_atom_site_type_symbol
_atom_site_label
_atom_site_fract_x
_atom_site_fract_y
_atom_site_fract_z
Si Si1 0.810884 0.895247 0.214903
Si Si2 0.864892 0.449288 0.329914
Si Si3 0.723346 0.946275 0.924909
Si Si4 0.212042 0.492873 0.972504
Si Si5 0.052533 0.553261 0.245054
Si Si6 0.541287 0.659029 0.117567
Si Si7 0.367632 0.428831 0.233840
Si Si8 0.404878 0.770946 0.705932
O O1 0.858565 0.697827 0.255845
O O2 0.732165 0.769800 0.502253
O O3 0.751730 0.928391 0.094490
O O4 0.891127 0.157373 0.013129
O O5 0.967200 0.441696 0.269693
O O6 0.785698 0.212005 0.633226
O O7 0.842271 0.469016 0.153760
O O8 0.754871 0.736670 0.936639
O O9 0.611908 0.873663 0.028865
O O10 0.136251 0.449340 0.215421
O O11 0.306525 0.741615 0.738413
O O12 0.000000 0.500000 0.500000
O O13 0.429095 0.556313 0.255276
O O14 0.559272 0.419793 0.305778
O O15 0.580390 0.694206 0.869736
O O16 0.365818 0.651199 0.991316
O O17 0.500000 0.000000 0.500000
#
# Coordination Sequence:
#
# PCOD9034589 Si02
#       8
#     2   2   2   2   2   2   2   2
#     4  11  25  44  65  95 135 170 220 273 333 388
#     4  11  25  46  65  94 129 179 216 272 331 385
#     4  10  22  45  65  93 138 169 217 269 326 399
#     4  10  25  42  70  96 127 176 217 268 330 389
#     4  12  26  45  68  98 129 174 220 279 329 381
#     4   8  19  37  61  94 129 167 214 265 316 394
#     4   9  20  37  64  95 126 173 216 266 326 380
#     4   9  19  35  63 100 128 160 216 268 312 389
#
# _framework density 23.444799
#
# number of rings (size 3 to 8) (size 9 to 14) (size 15 to 20)
#    0.750    1.250    1.250    0.750    7.000    1.000 
#    2.250    0.625    0.000    0.000    0.000    0.000 
#    0.000    0.000    0.000    0.000    0.000    0.000 
#
# Total GULP energy -89283.114669 kJ/mol
# GULP energy per Si atom -5580.194667 kJ/mol
# Density = 2.339144 g / cm^3
# Si number density = 23.444799 Si / 1000 Ang^3
#
#
#
# Elastic Constant Matrix: (Units=GPa)
#
#
# Indices 1 2 3 4 5 6 
#
# 1 87.2112 0.5100 3.3466 -10.6061 -14.5538 21.3327
# 2 0.5100 34.4715 7.6636 -15.6420 -4.3495 2.8841
# 3 3.3466 7.6636 115.4561 -15.5297 -19.5956 6.3433
# 4 -10.6061 -15.6420 -15.5297 34.4043 9.2489 -8.1664
# 5 -14.5538 -4.3495 -19.5956 9.2489 32.8527 -11.6359
# 6 21.3327 2.8841 6.3433 -8.1664 -11.6359 26.3188
#
#
#
# Elastic Compliance Matrix: (Units=1/GPa)
#
#
# Indices 1 2 3 4 5 6 
#
# 1 0.014741 0.002009 0.000853 0.002618 0.002932 -0.010265
# 2 0.002009 0.036875 -0.000045 0.017127 0.000950 0.000076
# 3 0.000853 -0.000045 0.010010 0.003366 0.005534 0.000392
# 4 0.002618 0.017127 0.003366 0.041783 -0.004078 0.006352
# 5 0.002932 0.000950 0.005534 -0.004078 0.040921 0.013012
# 6 -0.010265 0.000076 0.000392 0.006352 0.013012 0.053937
#
#
# Mechanical properties :
#
#
# Convention : Reuss Voigt Hill
#
# Bulk Modulus (GPa) = 14.86779 28.90879 21.88829
# Shear Modulus (GPa) = 23.25013 33.75642 28.50327
#
# Velocity S-wave (km/s) = 3.15254 3.79862 3.49056
# Velocity P-wave (km/s) = 4.42795 5.62109 5.05981
#
# Compressibility (1/GPa) = 0.06725949
#
# Stress axis : x y z
#
# Youngs Moduli (GPa) = 67.84001 27.11877 99.89976
#
# Poissons Ratio (x) = -0.05448 -0.08523
# Poissons Ratio (y) = -0.13629 0.00450
# Poissons Ratio (z) = -0.05788 0.00122
#
# Static dielectric constant tensor:
#      x y z
#    x 1.926660 0.000590 0.008150 
#    y 0.000590 1.976210 0.035560 
#    z 0.008150 0.035560 1.874800 
# 
# From -- ./inp_files/328388.got.cif
#   From: 2010.05.17/outbox.cif.g08.bks.cpg/sg2_165_cif.got.tgz:328388.got - 2010.06.03 11:33:40.
