data_PCOD9034882
_publ_section_title
;
Structure prediction by ZEFSAII (Michael W. Deem and Ramdas Pophale) SiO2 
 PCOD9034882
Probable space group: P -1
;
_chemical_formula_sum "Si O2"
_cell_formula_units_Z 15
_cell_length_a 11.474317
_cell_length_b 11.953902
_cell_length_c 15.249984
_cell_angle_alpha 28.730167
_cell_angle_beta 140.838221
_cell_angle_gamma 130.524224
_cell_volume 631.824756
_symmetry_space_group_name_H-M "P -1"
_symmetry_group_IT_number 2
_symmetry_cell_setting 'triclinic'
loop_
_space_group_symop_operation_xyz
x,y,z
-x,-y,-z
loop_
_atom_site_type_symbol
_atom_site_label
_atom_site_fract_x
_atom_site_fract_y
_atom_site_fract_z
Si Si1 0.712147 0.960215 0.180260
Si Si2 0.688489 0.605817 0.562415
Si Si3 0.722888 0.495212 0.852049
Si Si4 0.937737 0.656602 0.021492
Si Si5 0.000000 0.000000 0.000000
Si Si6 0.642501 0.785890 0.887669
Si Si7 0.589055 0.415338 0.248047
Si Si8 0.018880 0.815589 0.323527
O O1 0.719330 0.826010 0.369089
O O2 0.760717 0.225053 0.032726
O O3 0.843684 0.814535 0.286784
O O4 0.500000 0.000000 0.000000
O O5 0.500000 0.500000 0.500000
O O6 0.700446 0.644183 0.647306
O O7 0.857953 0.408061 0.778507
O O8 0.536520 0.552796 0.760723
O O9 0.884323 0.530777 0.990315
O O10 0.801328 0.608950 0.053614
O O11 0.912048 0.927890 0.797544
O O12 0.970223 0.832301 0.181236
O O13 0.769613 0.991907 0.844250
O O14 0.485131 0.787961 0.718287
O O15 0.563521 0.657430 0.012305
O O16 0.804942 0.362611 0.431255
#
# Coordination Sequence:
#
# PCOD9034882 Si02
#       8
#     2   2   2   2   1   2   2   2
#     4  12  26  46  71 101 140 182 229 284 349 411
#     4  12  24  44  70  97 138 182 225 284 344 402
#     4  11  25  46  70 102 141 178 231 284 340 414
#     4  10  22  45  69 101 140 175 231 286 337 411
#     4  10  24  38  68 100 134 178 224 284 344 400
#     4   9  21  43  65  98 137 177 229 284 341 409
#     4  10  23  45  71 100 137 183 230 287 337 416
#     4  11  24  45  72 100 139 181 229 281 345 411
#
# _framework density 23.740760999999999
#
# number of rings (size 3 to 8) (size 9 to 14) (size 15 to 20)
#    0.000    1.333    2.667    1.200    1.867    9.067 
#    9.600    0.000    0.000    0.000    0.000    0.000 
#    0.000    0.000    0.000    0.000    0.000    0.000 
#
# Total GULP energy -83551.721179 kJ/mol
# GULP energy per Si atom -5570.114745 kJ/mol
# Density = 2.368673 g / cm^3
# Si number density = 23.740761 Si / 1000 Ang^3
#
#
#
# Elastic Constant Matrix: (Units=GPa)
#
#
# Indices 1 2 3 4 5 6 
#
# 1 155.1463 8.9849 67.5702 25.8727 -23.5693 6.2593
# 2 8.9849 77.4803 17.1001 13.1019 -1.6674 10.8551
# 3 67.5702 17.1001 109.3634 19.8498 -15.7595 -5.7396
# 4 25.8727 13.1019 19.8498 38.0620 6.7599 -2.6382
# 5 -23.5693 -1.6674 -15.7595 6.7599 48.5585 8.1807
# 6 6.2593 10.8551 -5.7396 -2.6382 8.1807 30.7854
#
#
#
# Elastic Compliance Matrix: (Units=1/GPa)
#
#
# Indices 1 2 3 4 5 6 
#
# 1 0.010837 0.001996 -0.005309 -0.006680 0.005536 -0.005941
# 2 0.001996 0.015435 -0.002466 -0.006423 0.002877 -0.007623
# 3 -0.005309 -0.002466 0.013721 -0.002698 0.001514 0.003874
# 4 -0.006680 -0.006423 -0.002698 0.037034 -0.011049 0.009230
# 5 0.005536 0.002877 0.001514 -0.011049 0.027095 -0.010004
# 6 -0.005941 -0.007623 0.003874 0.009230 -0.010004 0.040550
#
#
# Mechanical properties :
#
#
# Convention : Reuss Voigt Hill
#
# Bulk Modulus (GPa) = 35.16918 58.81116 46.99017
# Shear Modulus (GPa) = 30.17325 40.03682 35.10504
#
# Velocity S-wave (km/s) = 3.56890 4.11106 3.84954
# Velocity P-wave (km/s) = 5.64170 6.88189 6.29242
#
# Compressibility (1/GPa) = 0.02843398
#
# Stress axis : x y z
#
# Youngs Moduli (GPa) = 92.27728 64.78581 72.88041
#
# Poissons Ratio (x) = -0.12931 0.38695
# Poissons Ratio (y) = -0.18419 0.17976
# Poissons Ratio (z) = 0.48993 0.15979
#
# Static dielectric constant tensor:
#      x y z
#    x 1.935460 -0.011570 -0.016530 
#    y -0.011570 2.002110 -0.026890 
#    z -0.016530 -0.026890 1.870670 
# 
# From -- ./inp_files/518626.got.cif
#   From: 2010.05.17/outbox.cif.g08.bks.cpg/sg2_260_cif.got.tgz:518626.got - 2010.06.03 11:33:40.
