data_PCOD9034119
_publ_section_title
;
Structure prediction by ZEFSAII (Michael W. Deem and Ramdas Pophale) SiO2 
 PCOD9034119
Probable space group: P -1
;
_chemical_formula_sum "Si O2"
_cell_formula_units_Z 16
_cell_length_a 5.160016
_cell_length_b 31.213399
_cell_length_c 28.796843
_cell_angle_alpha 171.081437
_cell_angle_beta 118.736972
_cell_angle_gamma 62.650327
_cell_volume 626.339396
_symmetry_space_group_name_H-M "P -1"
_symmetry_group_IT_number 2
_symmetry_cell_setting 'triclinic'
loop_
_space_group_symop_operation_xyz
x,y,z
-x,-y,-z
loop_
_atom_site_type_symbol
_atom_site_label
_atom_site_fract_x
_atom_site_fract_y
_atom_site_fract_z
Si Si1 0.880511 0.874930 0.807558
Si Si2 0.391531 0.952549 0.717600
Si Si3 0.949642 0.269653 0.146031
Si Si4 0.265774 0.306378 0.873476
Si Si5 0.366628 0.726757 0.263676
Si Si6 0.723049 0.211048 0.370443
Si Si7 0.768152 0.600278 0.925469
Si Si8 0.124927 0.694513 0.962725
O O1 0.531944 0.756314 0.653253
O O2 0.026259 0.597679 0.509581
O O3 0.000000 0.000000 0.000000
O O4 0.910306 0.113221 0.025448
O O5 0.422238 0.773557 0.575130
O O6 0.373327 0.722450 0.430100
O O7 0.073256 0.066424 0.812575
O O8 0.656391 0.194971 0.008694
O O9 0.191564 0.098390 0.959950
O O10 0.980923 0.267353 0.772964
O O11 0.468980 0.053936 0.616260
O O12 0.417216 0.606198 0.190101
O O13 0.145089 0.309435 0.918506
O O14 0.500000 0.500000 0.000000
O O15 0.006231 0.435741 0.641862
O O16 0.015227 0.633430 0.941644
O O17 0.477796 0.752906 0.051850
#
# Coordination Sequence:
#
# PCOD9034119 Si02
#       8
#     2   2   2   2   2   2   2   2
#     4  11  25  42  63  96 127 168 227 285 337 403
#     4  10  23  39  64  93 134 174 224 271 343 411
#     4  11  23  41  68  88 130 171 220 275 342 409
#     4  10  24  42  66 102 132 176 232 281 338 410
#     4  10  22  44  71  92 136 180 229 279 348 399
#     4  10  23  39  64  93 127 177 218 276 339 413
#     4  11  26  41  65 105 135 179 229 286 340 409
#     4  11  24  42  66  96 140 179 226 279 347 410
#
# _framework density 25.545254
#
# number of rings (size 3 to 8) (size 9 to 14) (size 15 to 20)
#    0.000    1.500    2.500    0.750    7.000    2.000 
#    0.000    0.000    0.000    0.000    0.000    0.000 
#    0.000    0.000    0.000    0.000    0.000    0.000 
#
# Total GULP energy -89412.889316 kJ/mol
# GULP energy per Si atom -5588.305582 kJ/mol
# Density = 2.548711 g / cm^3
# Si number density = 25.545254 Si / 1000 Ang^3
#
#
#
# Elastic Constant Matrix: (Units=GPa)
#
#
# Indices 1 2 3 4 5 6 
#
# 1 77.4938 16.8175 31.5245 9.4191 -15.0829 8.2784
# 2 16.8175 103.2569 57.4986 9.5920 3.6121 11.3114
# 3 31.5245 57.4986 135.3368 18.0411 -23.7780 -4.0473
# 4 9.4191 9.5920 18.0411 47.4818 -3.4030 -4.0580
# 5 -15.0829 3.6121 -23.7780 -3.4030 36.4108 7.5790
# 6 8.2784 11.3114 -4.0473 -4.0580 7.5790 27.0961
#
#
#
# Elastic Compliance Matrix: (Units=1/GPa)
#
#
# Indices 1 2 3 4 5 6 
#
# 1 0.016322 -0.000598 -0.002283 -0.002398 0.006623 -0.007290
# 2 -0.000598 0.014572 -0.006995 -0.001022 -0.005181 -0.005649
# 3 -0.002283 -0.006995 0.012508 -0.002108 0.007054 0.003197
# 4 -0.002398 -0.001022 -0.002108 0.022857 -0.001084 0.004571
# 5 0.006623 -0.005181 0.007054 -0.001084 0.037177 -0.009368
# 6 -0.007290 -0.005649 0.003197 0.004571 -0.009368 0.045273
#
#
# Mechanical properties :
#
#
# Convention : Reuss Voigt Hill
#
# Bulk Modulus (GPa) = 42.27932 58.64097 50.46015
# Shear Modulus (GPa) = 28.35369 36.21420 32.28394
#
# Velocity S-wave (km/s) = 3.33519 3.76925 3.55884
# Velocity P-wave (km/s) = 5.60518 6.47677 6.05667
#
# Compressibility (1/GPa) = 0.02365222
#
# Stress axis : x y z
#
# Youngs Moduli (GPa) = 61.26768 68.62528 79.94567
#
# Poissons Ratio (x) = 0.04101 0.18249
# Poissons Ratio (y) = 0.03661 0.55920
# Poissons Ratio (z) = 0.13986 0.48001
#
# Static dielectric constant tensor:
#      x y z
#    x 2.118220 0.067980 0.076530 
#    y 0.067980 2.047820 0.046540 
#    z 0.076530 0.046540 2.077540 
# 
# From -- ./inp_files/12396.got.cif
#   From: 2010.05.17/outbox.cif.g08.bks.cpg/sg2_7_cif.got.tgz:12396.got - 2010.06.03 11:33:40.
