data_PCOD9034258
_publ_section_title
;
Structure prediction by ZEFSAII (Michael W. Deem and Ramdas Pophale) SiO2 
 PCOD9034258
Probable space group: P -1
;
_chemical_formula_sum "Si O2"
_cell_formula_units_Z 14
_cell_length_a 13.505983
_cell_length_b 11.287957
_cell_length_c 5.329147
_cell_angle_alpha 65.985790
_cell_angle_beta 79.456841
_cell_angle_gamma 43.879423
_cell_volume 506.528979
_symmetry_space_group_name_H-M "P -1"
_symmetry_group_IT_number 2
_symmetry_cell_setting 'triclinic'
loop_
_space_group_symop_operation_xyz
x,y,z
-x,-y,-z
loop_
_atom_site_type_symbol
_atom_site_label
_atom_site_fract_x
_atom_site_fract_y
_atom_site_fract_z
Si Si1 0.500000 0.000000 0.000000
Si Si2 0.263442 0.502318 0.253439
Si Si3 0.773398 0.051808 0.386869
Si Si4 0.533835 0.237557 0.997569
Si Si5 0.005992 0.289954 0.060391
Si Si6 0.000000 0.000000 0.000000
Si Si7 0.709137 0.296753 0.593586
Si Si8 0.824217 0.634291 0.237249
O O1 0.522411 0.136439 0.887260
O O2 0.674767 0.817042 0.024460
O O3 0.385074 0.392071 0.082787
O O4 0.316854 0.535033 0.438250
O O5 0.223576 0.396751 0.462275
O O6 0.109374 0.698284 0.038341
O O7 0.652549 0.077722 0.284769
O O8 0.692760 0.253408 0.363421
O O9 0.862130 0.897823 0.694533
O O10 0.887343 0.000217 0.182674
O O11 0.604316 0.302050 0.800982
O O12 0.910591 0.455514 0.169177
O O13 0.075672 0.331980 0.806864
O O14 0.119537 0.871727 0.286605
#
# Coordination Sequence:
#
# PCOD9034258 Si02
#       8
#     1   2   2   2   2   1   2   2
#     4  12  26  54  74 104 156 202 266 316 396 454
#     4  12  26  48  78 114 161 204 259 319 393 459
#     4  11  25  47  80 113 158 202 256 322 391 465
#     4  11  28  48  76 114 152 210 258 324 386 467
#     4  11  25  50  76 116 156 202 265 323 385 460
#     4  10  22  44  72 116 148 206 248 312 386 458
#     4  11  24  45  75 116 156 203 256 312 390 475
#     4  11  27  45  78 111 151 208 264 326 380 464
#
# _framework density 27.639092000000002
#
# number of rings (size 3 to 8) (size 9 to 14) (size 15 to 20)
#    0.000    0.857    1.429    3.857    4.000   10.286 
#    0.000    1.429    0.000    0.000    0.000    0.000 
#    0.000    0.000    0.000    0.000    0.000    0.000 
#
# Total GULP energy -78110.615194 kJ/mol
# GULP energy per Si atom -5579.329657 kJ/mol
# Density = 2.757618 g / cm^3
# Si number density = 27.639092 Si / 1000 Ang^3
#
#
#
# Elastic Constant Matrix: (Units=GPa)
#
#
# Indices 1 2 3 4 5 6 
#
# 1 151.1571 30.5085 18.7605 -9.9156 -18.4927 -28.3300
# 2 30.5085 131.9494 22.2336 -0.9724 -11.2908 -19.3833
# 3 18.7605 22.2336 72.0133 -2.4086 -22.3554 -8.4488
# 4 -9.9156 -0.9724 -2.4086 36.6983 -5.4810 -7.5633
# 5 -18.4927 -11.2908 -22.3554 -5.4810 34.7933 0.6946
# 6 -28.3300 -19.3833 -8.4488 -7.5633 0.6946 51.5549
#
#
#
# Elastic Compliance Matrix: (Units=1/GPa)
#
#
# Indices 1 2 3 4 5 6 
#
# 1 0.008561 -0.000842 0.000307 0.004085 0.005019 0.004970
# 2 -0.000842 0.008548 -0.001706 0.000602 0.001275 0.002543
# 3 0.000307 -0.001706 0.018537 0.003658 0.012038 0.002940
# 4 0.004085 0.000602 0.003658 0.031596 0.009543 0.007577
# 5 0.005019 0.001275 0.012038 0.009543 0.040939 0.006058
# 6 0.004970 0.002543 0.002940 0.007577 0.006058 0.024596
#
#
# Mechanical properties :
#
#
# Convention : Reuss Voigt Hill
#
# Bulk Modulus (GPa) = 32.08655 55.34723 43.71689
# Shear Modulus (GPa) = 33.86516 43.51711 38.69113
#
# Velocity S-wave (km/s) = 3.50417 3.97227 3.74554
# Velocity P-wave (km/s) = 5.29213 6.41148 5.87851
#
# Compressibility (1/GPa) = 0.03116570
#
# Stress axis : x y z
#
# Youngs Moduli (GPa) = 116.81255 116.99072 53.94577
#
# Poissons Ratio (x) = 0.09845 -0.01658
# Poissons Ratio (y) = 0.09830 0.09201
# Poissons Ratio (z) = -0.03589 0.19955
#
# Static dielectric constant tensor:
#      x y z
#    x 1.921990 -0.033050 -0.030280 
#    y -0.033050 1.998340 -0.140070 
#    z -0.030280 -0.140070 2.144660 
# 
# From -- ./inp_files/69088.got.cif
#   From: 2010.05.17/outbox.cif.g08.bks.cpg/sg2_35_cif.got.tgz:69088.got - 2010.06.03 11:33:40.
