data_PCOD9034013
_publ_section_title
;
Structure prediction by ZEFSAII (Michael W. Deem and Ramdas Pophale) SiO2 
 PCOD9034013
Probable space group: P -1
;
_chemical_formula_sum "Si O2"
_cell_formula_units_Z 16
_cell_length_a 7.376185
_cell_length_b 8.671080
_cell_length_c 11.961638
_cell_angle_alpha 70.163369
_cell_angle_beta 93.629124
_cell_angle_gamma 90.898295
_cell_volume 718.207788
_symmetry_space_group_name_H-M "P -1"
_symmetry_group_IT_number 2
_symmetry_cell_setting 'triclinic'
loop_
_space_group_symop_operation_xyz
x,y,z
-x,-y,-z
loop_
_atom_site_type_symbol
_atom_site_label
_atom_site_fract_x
_atom_site_fract_y
_atom_site_fract_z
Si Si1 0.086505 0.407908 0.420941
Si Si2 0.802414 0.905941 0.809504
Si Si3 0.397574 0.534117 0.267810
Si Si4 0.812672 0.259861 0.115479
Si Si5 0.693399 0.567868 0.952414
Si Si6 0.624266 0.137084 0.914784
Si Si7 0.293633 0.725500 0.652804
Si Si8 0.794632 0.942484 0.536384
O O1 0.232577 0.535743 0.347153
O O2 0.204834 0.237688 0.476859
O O3 0.000000 0.500000 0.500000
O O4 0.909350 0.349126 0.356653
O O5 0.709622 0.760547 0.913163
O O6 0.756074 0.921645 0.672469
O O7 0.010235 0.847441 0.831082
O O8 0.754664 0.063551 0.842004
O O9 0.297963 0.461631 0.172020
O O10 0.473165 0.709263 0.187876
O O11 0.558679 0.411709 0.338585
O O12 0.687393 0.236301 0.224150
O O13 0.831952 0.456739 0.056226
O O14 0.734136 0.207689 0.006547
O O15 0.500000 0.500000 0.000000
O O16 0.500000 0.000000 0.000000
O O17 0.316992 0.899028 0.549397
O O18 0.000000 0.000000 0.500000
#
# Coordination Sequence:
#
# PCOD9034013 Si02
#       8
#     2   2   2   2   2   2   2   2
#     4  11  25  46  70 103 141 180 233 293 340 410
#     4  12  22  44  71 100 138 182 229 288 352 411
#     4  11  24  46  69 100 141 187 225 287 360 406
#     4  11  22  42  72 101 133 182 234 283 355 418
#     4  11  21  40  69  97 137 175 227 286 343 420
#     4  11  28  45  64 103 146 177 230 297 349 415
#     4  11  24  46  75 103 139 188 237 279 352 426
#     4  10  22  44  70  99 141 179 231 291 337 418
#
# _framework density 22.277674000000001
#
# number of rings (size 3 to 8) (size 9 to 14) (size 15 to 20)
#    0.000    1.000    5.000    2.250    3.500    2.000 
#    4.500    0.000    0.000    0.000    0.000    0.000 
#    0.000    0.000    0.000    0.000    0.000    0.000 
#
# Total GULP energy -89270.541335 kJ/mol
# GULP energy per Si atom -5579.408833 kJ/mol
# Density = 2.222697 g / cm^3
# Si number density = 22.277674 Si / 1000 Ang^3
#
#
#
# Elastic Constant Matrix: (Units=GPa)
#
#
# Indices 1 2 3 4 5 6 
#
# 1 74.4294 28.6496 40.8066 -12.5883 -11.9368 -27.1702
# 2 28.6496 109.8823 68.5938 -11.7583 0.1560 -25.6085
# 3 40.8066 68.5938 144.0596 -24.8919 -8.2154 -27.2925
# 4 -12.5883 -11.7583 -24.8919 49.1089 -11.0784 -7.9504
# 5 -11.9368 0.1560 -8.2154 -11.0784 42.6586 -6.4644
# 6 -27.1702 -25.6085 -27.2925 -7.9504 -6.4644 35.6804
#
#
#
# Elastic Compliance Matrix: (Units=1/GPa)
#
#
# Indices 1 2 3 4 5 6 
#
# 1 0.029651 0.000569 0.001218 0.017375 0.017740 0.031004
# 2 0.000569 0.014039 -0.004986 0.002374 0.000883 0.007384
# 3 0.001218 -0.004986 0.012831 0.008803 0.006682 0.010336
# 4 0.017375 0.002374 0.008803 0.040510 0.022334 0.034742
# 5 0.017740 0.000883 0.006682 0.022334 0.040267 0.031526
# 6 0.031004 0.007384 0.010336 0.034742 0.031526 0.078295
#
#
# Mechanical properties :
#
#
# Convention : Reuss Voigt Hill
#
# Bulk Modulus (GPa) = 19.95149 67.16347 43.55748
# Shear Modulus (GPa) = 20.94703 38.17767 29.56235
#
# Velocity S-wave (km/s) = 3.06971 4.14420 3.64675
# Velocity P-wave (km/s) = 4.64106 7.28786 6.10952
#
# Compressibility (1/GPa) = 0.05012158
#
# Stress axis : x y z
#
# Youngs Moduli (GPa) = 33.72605 71.23234 77.93737
#
# Poissons Ratio (x) = -0.04050 -0.09494
# Poissons Ratio (y) = -0.01917 0.38859
# Poissons Ratio (z) = -0.04108 0.35516
#
# Static dielectric constant tensor:
#      x y z
#    x 1.885930 0.010440 0.013800 
#    y 0.010440 1.864400 -0.040980 
#    z 0.013800 -0.040980 1.828400 
# 
# From -- ./inp_files/381357.got.cif
#   From: 2010.05.17/outbox.cif.g08.bks.cpg/sg2_191_cif.got.tgz:381357.got - 2010.06.03 11:33:40.
