data_PCOD9034286
_publ_section_title
;
Structure prediction by ZEFSAII (Michael W. Deem and Ramdas Pophale) SiO2 
 PCOD9034286
Probable space group: P -1
;
_chemical_formula_sum "Si O2"
_cell_formula_units_Z 12
_cell_length_a 16.806465
_cell_length_b 13.403540
_cell_length_c 11.027603
_cell_angle_alpha 37.880675
_cell_angle_beta 21.302129
_cell_angle_gamma 36.371477
_cell_volume 526.277432
_symmetry_space_group_name_H-M "P -1"
_symmetry_group_IT_number 2
_symmetry_cell_setting 'triclinic'
loop_
_space_group_symop_operation_xyz
x,y,z
-x,-y,-z
loop_
_atom_site_type_symbol
_atom_site_label
_atom_site_fract_x
_atom_site_fract_y
_atom_site_fract_z
Si Si1 0.284367 0.520539 0.878093
Si Si2 0.693371 0.917316 0.033778
Si Si3 0.017949 0.605318 0.752980
Si Si4 0.533723 0.305873 0.953859
Si Si5 0.231429 0.851919 0.782261
Si Si6 0.571540 0.802145 0.548197
O O1 0.500000 0.500000 0.500000
O O2 0.378919 0.395795 0.976148
O O3 0.199426 0.709685 0.874302
O O4 0.091060 0.468183 0.131200
O O5 0.430053 0.922145 0.376920
O O6 0.751542 0.805528 0.183730
O O7 0.862862 0.803105 0.804556
O O8 0.677505 0.111409 0.895505
O O9 0.280242 0.598786 0.372324
O O10 0.000000 0.500000 0.000000
O O11 0.389114 0.298089 0.286777
O O12 0.356879 0.773845 0.805858
O O13 0.000000 0.000000 0.000000
O O14 0.500000 0.000000 0.500000
#
# Coordination Sequence:
#
# PCOD9034286 Si02
#       6
#     2   2   2   2   2   2
#     4  12  24  46  66 101 143 180 226 289 338 405
#     4   9  21  44  71  97 136 178 227 281 342 400
#     4  12  24  44  70 100 138 186 223 283 346 407
#     4  11  23  43  71 103 135 177 231 283 343 408
#     4  10  22  44  72  97 138 181 228 280 346 401
#     4   8  19  42  67  91 134 173 217 278 338 388
#
# _framework density 22.801662
#
# number of rings (size 3 to 8) (size 9 to 14) (size 15 to 20)
#    1.000    0.667    3.333    0.500    0.000    5.333 
#    3.000    1.667    0.000    0.000    0.000    0.000 
#    0.000    0.000    0.000    0.000    0.000    0.000 
#
# Total GULP energy -67040.537549 kJ/mol
# GULP energy per Si atom -5586.711462 kJ/mol
# Density = 2.274976 g / cm^3
# Si number density = 22.801662 Si / 1000 Ang^3
#
#
#
# Elastic Constant Matrix: (Units=GPa)
#
#
# Indices 1 2 3 4 5 6 
#
# 1 173.5299 61.7771 50.7566 -14.1072 -24.5941 11.8208
# 2 61.7771 131.1908 41.6890 13.0437 -3.5630 24.5307
# 3 50.7566 41.6890 78.0065 -15.4732 -20.2117 -0.9807
# 4 -14.1072 13.0437 -15.4732 33.0131 3.7874 6.0026
# 5 -24.5941 -3.5630 -20.2117 3.7874 37.5205 -5.3504
# 6 11.8208 24.5307 -0.9807 6.0026 -5.3504 48.1833
#
#
#
# Elastic Compliance Matrix: (Units=1/GPa)
#
#
# Indices 1 2 3 4 5 6 
#
# 1 0.008453 -0.003608 -0.001844 0.003800 0.003774 -0.000329
# 2 -0.003608 0.013832 -0.008363 -0.009251 -0.005447 -0.005779
# 3 -0.001844 -0.008363 0.023459 0.011455 0.010175 0.004891
# 4 0.003800 -0.009251 0.011455 0.040647 0.003587 -0.000655
# 5 0.003774 -0.005447 0.010175 0.003587 0.034503 0.005439
# 6 -0.000329 -0.005779 0.004891 -0.000655 0.005439 0.024562
#
#
# Mechanical properties :
#
#
# Convention : Reuss Voigt Hill
#
# Bulk Modulus (GPa) = 55.21134 76.79695 66.00415
# Shear Modulus (GPa) = 27.91350 38.97702 33.44526
#
# Velocity S-wave (km/s) = 3.50263 4.13897 3.83402
# Velocity P-wave (km/s) = 6.37371 7.52296 6.97206
#
# Compressibility (1/GPa) = 0.01811222
#
# Stress axis : x y z
#
# Youngs Moduli (GPa) = 118.30289 72.29719 42.62742
#
# Poissons Ratio (x) = 0.26087 0.07861
# Poissons Ratio (y) = 0.42687 0.35651
# Poissons Ratio (z) = 0.21816 0.60465
#
# Static dielectric constant tensor:
#      x y z
#    x 1.832820 0.018690 0.012290 
#    y 0.018690 1.890590 0.000760 
#    z 0.012290 0.000760 1.833170 
# 
# From -- ./inp_files/466003.got.cif
#   From: 2010.05.17/outbox.cif.g08.bks.cpg/sg2_234_cif.got.tgz:466003.got - 2010.06.03 11:33:40.
