data_PCOD9034537
_publ_section_title
;
Structure prediction by ZEFSAII (Michael W. Deem and Ramdas Pophale) SiO2 
 PCOD9034537
Probable space group: P -1
;
_chemical_formula_sum "Si O2"
_cell_formula_units_Z 16
_cell_length_a 6.729686
_cell_length_b 10.802971
_cell_length_c 12.869369
_cell_angle_alpha 78.304476
_cell_angle_beta 58.471481
_cell_angle_gamma 90.000000
_cell_volume 774.615734
_symmetry_space_group_name_H-M "P -1"
_symmetry_group_IT_number 2
_symmetry_cell_setting 'triclinic'
loop_
_space_group_symop_operation_xyz
x,y,z
-x,-y,-z
loop_
_atom_site_type_symbol
_atom_site_label
_atom_site_fract_x
_atom_site_fract_y
_atom_site_fract_z
Si Si1 0.497796 0.860055 0.977824
Si Si2 0.010635 0.688683 0.139159
Si Si3 0.722795 0.130687 0.527257
Si Si4 0.046556 0.360055 0.477824
Si Si5 0.722691 0.630687 0.027257
Si Si6 0.242102 0.455046 0.194283
Si Si7 0.130668 0.044953 0.305717
Si Si8 0.788953 0.811317 0.360841
O O1 0.609502 0.762869 0.040076
O O2 0.664948 0.876979 0.828879
O O3 0.236109 0.792573 0.038451
O O4 0.500000 0.000000 0.000000
O O5 0.099815 0.576843 0.202635
O O6 0.821098 0.750000 0.250000
O O7 0.907427 0.633279 0.068344
O O8 0.755232 0.013389 0.614601
O O9 0.455885 0.133279 0.568344
O O10 0.810345 0.262869 0.540076
O O11 0.914563 0.118121 0.387563
O O12 0.177293 0.376979 0.328879
O O13 0.186988 0.292573 0.538451
O O14 0.000000 0.500000 0.500000
O O15 0.810312 0.618121 0.887563
O O16 0.515565 0.513389 0.114601
O O17 0.005086 0.923157 0.297365
#
# Coordination Sequence:
#
# PCOD9034537 Si02
#       8
#     2   2   2   2   2   2   2   2
#     4  11  23  40  64  94 131 169 210 264 322 377
#     4  11  23  39  66  99 128 166 218 264 319 384
#     4  10  24  40  66  91 127 171 214 264 317 383
#     4  11  23  40  64  94 131 169 210 264 322 377
#     4  10  24  40  66  91 127 171 214 264 317 383
#     4  10  22  45  62  90 131 170 211 264 325 376
#     4  10  22  45  62  90 131 170 211 264 325 376
#     4  11  23  39  66  99 128 166 218 264 319 384
#
# _framework density 20.655404000000001
#
# number of rings (size 3 to 8) (size 9 to 14) (size 15 to 20)
#    0.000    1.500    2.500    1.500    3.500    3.000 
#    0.000    7.500    0.000    0.000    0.000    0.000 
#    0.000    0.000    0.000    0.000    0.000    0.000 
#
# Total GULP energy -89399.389437 kJ/mol
# GULP energy per Si atom -5587.461840 kJ/mol
# Density = 2.060839 g / cm^3
# Si number density = 20.655404 Si / 1000 Ang^3
#
#
#
# Elastic Constant Matrix: (Units=GPa)
#
#
# Indices 1 2 3 4 5 6 
#
# 1 97.8243 18.7200 53.1496 -3.9707 0.0000 0.0000
# 2 18.7200 73.9992 20.7134 3.9174 0.0000 0.0000
# 3 53.1496 20.7134 137.3985 -4.9167 0.0000 -0.0001
# 4 -3.9707 3.9174 -4.9167 33.8530 0.0000 0.0000
# 5 0.0000 0.0000 0.0000 0.0000 20.6581 10.2723
# 6 0.0000 0.0000 -0.0001 0.0000 10.2723 21.0739
#
#
#
# Elastic Compliance Matrix: (Units=1/GPa)
#
#
# Indices 1 2 3 4 5 6 
#
# 1 0.013260 -0.002076 -0.004777 0.001102 0.000000 0.000000
# 2 -0.002076 0.014563 -0.001469 -0.002142 0.000000 0.000000
# 3 -0.004777 -0.001469 0.009382 0.000972 0.000000 0.000000
# 4 0.001102 -0.002142 0.000972 0.030058 0.000000 0.000000
# 5 0.000000 0.000000 0.000000 0.000000 0.063894 -0.031145
# 6 0.000000 0.000000 0.000000 0.000000 -0.031145 0.062633
#
#
# Mechanical properties :
#
#
# Convention : Reuss Voigt Hill
#
# Bulk Modulus (GPa) = 48.63376 54.93200 51.78288
# Shear Modulus (GPa) = 23.01098 29.55961 26.28529
#
# Velocity S-wave (km/s) = 3.34135 3.78707 3.57117
# Velocity P-wave (km/s) = 6.20343 6.76571 6.49066
#
# Compressibility (1/GPa) = 0.02056185
#
# Stress axis : x y z
#
# Youngs Moduli (GPa) = 75.41659 68.66536 106.58452
#
# Poissons Ratio (x) = 0.14252 0.50914
# Poissons Ratio (y) = 0.15653 0.15660
# Poissons Ratio (z) = 0.36026 0.10089
#
# Static dielectric constant tensor:
#      x y z
#    x 1.697610 0.000000 0.000000 
#    y 0.000000 1.775170 0.039020 
#    z 0.000000 0.039020 1.740480 
# 
# From -- ./inp_files/85170.got.cif
#   From: 2010.05.17/outbox.cif.g08.bks.cpg/sg2_43_cif.got.tgz:85170.got - 2010.06.03 11:33:40.
