data_PCOD9034838
_publ_section_title
;
Structure prediction by ZEFSAII (Michael W. Deem and Ramdas Pophale) SiO2 
 PCOD9034838
Probable space group: P -1
;
_chemical_formula_sum "Si O2"
_cell_formula_units_Z 13
_cell_length_a 10.271476
_cell_length_b 11.267417
_cell_length_c 7.682190
_cell_angle_alpha 40.482604
_cell_angle_beta 75.251921
_cell_angle_gamma 64.406243
_cell_volume 516.397557
_symmetry_space_group_name_H-M "P -1"
_symmetry_group_IT_number 2
_symmetry_cell_setting 'triclinic'
loop_
_space_group_symop_operation_xyz
x,y,z
-x,-y,-z
loop_
_atom_site_type_symbol
_atom_site_label
_atom_site_fract_x
_atom_site_fract_y
_atom_site_fract_z
Si Si1 0.000000 0.500000 0.500000
Si Si2 0.837203 0.433939 0.998582
Si Si3 0.575213 0.624133 0.107422
Si Si4 0.274184 0.880001 0.761244
Si Si5 0.574444 0.186673 0.579384
Si Si6 0.013891 0.287191 0.459468
Si Si7 0.307058 0.190834 0.824988
O O1 0.918629 0.350502 0.592012
O O2 0.139997 0.299877 0.727039
O O3 0.689500 0.597437 0.940724
O O4 0.799637 0.275069 0.083682
O O5 0.931823 0.334053 0.250069
O O6 0.923591 0.533282 0.737727
O O7 0.575232 0.403381 0.369799
O O8 0.638317 0.701345 0.161453
O O9 0.414152 0.773997 0.950733
O O10 0.342764 0.902537 0.526752
O O11 0.147601 0.081892 0.635620
O O12 0.410133 0.196339 0.624425
O O13 0.655075 0.031014 0.874839
#
# Coordination Sequence:
#
# PCOD9034838 Si02
#       7
#     1   2   2   2   2   2   2
#     4  12  28  46  66  98 134 188 224 270 334 404
#     4  10  22  45  68  97 137 176 222 282 330 394
#     4  11  23  44  68 106 132 174 222 284 331 398
#     4  11  25  41  75 106 128 174 229 279 339 393
#     4  10  24  44  71  99 136 173 222 280 334 396
#     4  11  25  45  68  95 139 179 224 274 334 398
#     4  11  25  46  66  96 140 182 222 270 335 401
#
# _framework density 25.174403000000002
#
# number of rings (size 3 to 8) (size 9 to 14) (size 15 to 20)
#    0.000    1.231    1.538    3.692   10.769    1.231 
#    0.000    1.538    0.000    0.000    0.000    0.000 
#    0.000    0.000    0.000    0.000    0.000    0.000 
#
# Total GULP energy -72681.375384 kJ/mol
# GULP energy per Si atom -5590.875030 kJ/mol
# Density = 2.511711 g / cm^3
# Si number density = 25.174403 Si / 1000 Ang^3
#
#
#
# Elastic Constant Matrix: (Units=GPa)
#
#
# Indices 1 2 3 4 5 6 
#
# 1 110.8046 23.4422 53.4290 -10.5556 36.0033 8.6031
# 2 23.4422 154.9773 40.3893 -14.0324 12.3553 11.2385
# 3 53.4290 40.3893 86.5154 1.8427 28.7567 -2.0874
# 4 -10.5556 -14.0324 1.8427 32.0597 -13.9351 6.3616
# 5 36.0033 12.3553 28.7567 -13.9351 52.5456 -0.4630
# 6 8.6031 11.2385 -2.0874 6.3616 -0.4630 31.4830
#
#
#
# Elastic Compliance Matrix: (Units=1/GPa)
#
#
# Indices 1 2 3 4 5 6 
#
# 1 0.015635 0.001321 -0.008981 0.005488 -0.004711 -0.006518
# 2 0.001321 0.008509 -0.005639 0.006258 0.001796 -0.005010
# 3 -0.008981 -0.005639 0.022897 -0.011921 -0.008140 0.008274
# 4 0.005488 0.006258 -0.011921 0.044745 0.013041 -0.013374
# 5 -0.004711 0.001796 -0.008140 0.013041 0.029731 -0.002091
# 6 -0.006518 -0.005010 0.008274 -0.013374 -0.002091 0.038553
#
#
# Mechanical properties :
#
#
# Convention : Reuss Voigt Hill
#
# Bulk Modulus (GPa) = 48.91775 65.20204 57.05990
# Shear Modulus (GPa) = 25.84202 38.88679 32.36440
#
# Velocity S-wave (km/s) = 3.20741 3.93453 3.58943
# Velocity P-wave (km/s) = 5.76111 6.82620 6.31615
#
# Compressibility (1/GPa) = 0.02044248
#
# Stress axis : x y z
#
# Youngs Moduli (GPa) = 63.95735 117.51874 43.67469
#
# Poissons Ratio (x) = -0.15519 0.39223
# Poissons Ratio (y) = -0.08446 0.24629
# Poissons Ratio (z) = 0.57438 0.66271
#
# Static dielectric constant tensor:
#      x y z
#    x 2.057000 -0.287390 -0.178090 
#    y -0.287390 3.883390 0.997930 
#    z -0.178090 0.997930 2.467350 
# 
# From -- ./inp_files/173789.got.cif
#   From: 2010.05.17/outbox.cif.g08.bks.cpg/sg2_87_cif.got.tgz:173789.got - 2010.06.03 11:33:40.
