data_PCOD9034997
_publ_section_title
;
Structure prediction by ZEFSAII (Michael W. Deem and Ramdas Pophale) SiO2 
 PCOD9034997
Probable space group: P -1
;
_chemical_formula_sum "Si O2"
_cell_formula_units_Z 14
_cell_length_a 16.807120
_cell_length_b 9.360191
_cell_length_c 17.079441
_cell_angle_alpha 33.997653
_cell_angle_beta 23.548005
_cell_angle_gamma 37.044473
_cell_volume 591.420571
_symmetry_space_group_name_H-M "P -1"
_symmetry_group_IT_number 2
_symmetry_cell_setting 'triclinic'
loop_
_space_group_symop_operation_xyz
x,y,z
-x,-y,-z
loop_
_atom_site_type_symbol
_atom_site_label
_atom_site_fract_x
_atom_site_fract_y
_atom_site_fract_z
Si Si1 0.738546 0.977345 0.275129
Si Si2 0.218590 0.457042 0.780699
Si Si3 0.239274 0.933796 0.616269
Si Si4 0.725795 0.039181 0.796922
Si Si5 0.630595 0.124970 0.137970
Si Si6 0.100021 0.607670 0.646646
Si Si7 0.867451 0.271238 0.724176
O O1 0.850433 0.682591 0.299826
O O2 0.500000 0.000000 0.500000
O O3 0.822193 0.082466 0.230539
O O4 0.739888 0.118768 0.126532
O O5 0.339580 0.643133 0.635514
O O6 0.192382 0.572869 0.665108
O O7 0.306681 0.156112 0.831702
O O8 0.000000 0.500000 0.000000
O O9 0.395526 0.130744 0.368738
O O10 0.042069 0.032059 0.699255
O O11 0.794500 0.209660 0.587393
O O12 0.764563 0.191390 0.773316
O O13 0.870911 0.758098 0.793207
O O14 0.500000 0.000000 0.000000
O O15 0.706537 0.314343 0.921209
O O16 0.000000 0.500000 0.500000
#
# Coordination Sequence:
#
# PCOD9034997 Si02
#       7
#     2   2   2   2   2   2   2
#     4   9  21  44  66 106 140 179 227 290 356 428
#     4  11  20  42  69 103 134 177 227 294 351 427
#     4  11  22  42  69 101 142 175 233 289 358 418
#     4  11  25  46  73 103 138 192 249 290 350 424
#     4  10  23  42  71 101 136 185 226 286 362 419
#     4  10  22  45  70 100 143 184 234 291 352 420
#     4  12  26  46  69 102 142 185 240 295 349 422
#
# _framework density 23.671817000000001
#
# number of rings (size 3 to 8) (size 9 to 14) (size 15 to 20)
#    0.000    1.429    2.857    1.286    2.000    1.143 
#   10.286    7.143    0.000    0.000    0.000    0.000 
#    0.000    0.000    0.000    0.000    0.000    0.000 
#
# Total GULP energy -78269.567993 kJ/mol
# GULP energy per Si atom -5590.683428 kJ/mol
# Density = 2.361794 g / cm^3
# Si number density = 23.671817 Si / 1000 Ang^3
#
#
#
# Elastic Constant Matrix: (Units=GPa)
#
#
# Indices 1 2 3 4 5 6 
#
# 1 129.0413 58.6085 68.3209 -2.6183 -0.9753 18.7429
# 2 58.6085 92.1496 15.8699 6.3414 -2.1078 8.8712
# 3 68.3209 15.8699 148.5519 9.1072 -1.4764 -7.0547
# 4 -2.6183 6.3414 9.1072 32.1530 -5.1124 -2.2674
# 5 -0.9753 -2.1078 -1.4764 -5.1124 41.0740 9.0641
# 6 18.7429 8.8712 -7.0547 -2.2674 9.0641 40.3954
#
#
#
# Elastic Compliance Matrix: (Units=1/GPa)
#
#
# Indices 1 2 3 4 5 6 
#
# 1 0.017087 -0.009170 -0.007524 0.005118 0.001929 -0.007374
# 2 -0.009170 0.016443 0.002792 -0.004727 -0.000056 0.000879
# 3 -0.007524 0.002792 0.010349 -0.003952 -0.001200 0.004733
# 4 0.005118 -0.004727 -0.003952 0.034167 0.004223 -0.001056
# 5 0.001929 -0.000056 -0.001200 0.004223 0.026366 -0.006771
# 6 -0.007374 0.000879 0.004733 -0.001056 -0.006771 0.030270
#
#
# Mechanical properties :
#
#
# Convention : Reuss Voigt Hill
#
# Bulk Modulus (GPa) = 62.20922 72.81570 67.51246
# Shear Modulus (GPa) = 29.78943 37.85405 33.82174
#
# Velocity S-wave (km/s) = 3.55129 4.00324 3.78402
# Velocity P-wave (km/s) = 6.56905 7.22462 6.90462
#
# Compressibility (1/GPa) = 0.01607479
#
# Stress axis : x y z
#
# Youngs Moduli (GPa) = 58.52265 60.81619 96.62969
#
# Poissons Ratio (x) = 0.55770 0.72703
# Poissons Ratio (y) = 0.53667 -0.26978
# Poissons Ratio (z) = 0.44031 -0.16979
#
# Static dielectric constant tensor:
#      x y z
#    x 1.905770 0.011270 -0.031630 
#    y 0.011270 1.947340 0.008820 
#    z -0.031630 0.008820 2.000610 
# 
# From -- ./inp_files/529250.got.cif
#   From: 2010.05.17/outbox.cif.g08.bks.cpg/sg2_265_cif.got.tgz:529250.got - 2010.06.03 11:33:40.
