data_PCOD9034716
_publ_section_title
;
Structure prediction by ZEFSAII (Michael W. Deem and Ramdas Pophale) SiO2 
 PCOD9034716
Probable space group: P -1
;
_chemical_formula_sum "Si O2"
_cell_formula_units_Z 16
_cell_length_a 7.734222
_cell_length_b 11.721601
_cell_length_c 8.988637
_cell_angle_alpha 55.531584
_cell_angle_beta 65.171692
_cell_angle_gamma 79.357680
_cell_volume 608.197889
_symmetry_space_group_name_H-M "P -1"
_symmetry_group_IT_number 2
_symmetry_cell_setting 'triclinic'
loop_
_space_group_symop_operation_xyz
x,y,z
-x,-y,-z
loop_
_atom_site_type_symbol
_atom_site_label
_atom_site_fract_x
_atom_site_fract_y
_atom_site_fract_z
Si Si1 0.114336 0.696638 0.758358
Si Si2 0.165439 0.821556 0.201990
Si Si3 0.223317 0.130188 0.677522
Si Si4 0.276556 0.579922 0.509672
Si Si5 0.953761 0.920069 0.789114
Si Si6 0.318042 0.286449 0.777835
Si Si7 0.749608 0.632302 0.755149
Si Si8 0.336255 0.669687 0.008442
O O1 0.273004 0.636936 0.638362
O O2 0.201863 0.687743 0.898580
O O3 0.042729 0.854179 0.657502
O O4 0.920277 0.618271 0.822756
O O5 0.136691 0.680193 0.408211
O O6 0.966593 0.842501 0.177275
O O7 0.174435 0.950165 0.218820
O O8 0.316594 0.792815 0.042978
O O9 0.373593 0.171080 0.720449
O O10 0.237108 0.239486 0.458817
O O11 0.155540 0.983146 0.743390
O O12 0.217453 0.418068 0.648885
O O13 0.480508 0.626842 0.326527
O O14 0.810567 0.791051 0.993336
O O15 0.553372 0.656758 0.892762
O O16 0.729498 0.483085 0.792142
#
# Coordination Sequence:
#
# PCOD9034716 Si02
#       8
#     2   2   2   2   2   2   2   2
#     4  12  25  45  69 103 140 187 225 290 354 413
#     4  10  24  46  67 100 135 184 230 279 347 413
#     4  10  22  45  67  94 136 184 222 284 341 410
#     4  11  26  43  71 105 135 179 234 289 354 404
#     4  10  26  43  69 100 142 182 234 279 347 426
#     4  11  24  43  71 103 138 175 238 294 335 423
#     4  11  25  44  69 104 143 178 235 298 340 421
#     4  11  26  43  71 104 139 184 237 284 357 409
#
# _framework density 26.307227000000001
#
# number of rings (size 3 to 8) (size 9 to 14) (size 15 to 20)
#    0.750    0.500    1.250    3.000    8.750    5.500 
#    2.250    1.250    0.000    0.000    0.000    0.000 
#    0.000    0.000    0.000    0.000    0.000    0.000 
#
# Total GULP energy -89074.431824 kJ/mol
# GULP energy per Si atom -5567.151989 kJ/mol
# Density = 2.624735 g / cm^3
# Si number density = 26.307227 Si / 1000 Ang^3
#
#
#
# Elastic Constant Matrix: (Units=GPa)
#
#
# Indices 1 2 3 4 5 6 
#
# 1 60.8426 6.4183 15.6918 -6.1499 -8.2606 -1.1134
# 2 6.4183 150.8976 32.7637 -2.4560 -11.7659 -3.9515
# 3 15.6918 32.7637 102.7574 -13.3433 -7.6122 0.9516
# 4 -6.1499 -2.4560 -13.3433 43.5073 2.0257 -2.3728
# 5 -8.2606 -11.7659 -7.6122 2.0257 34.8380 0.7453
# 6 -1.1134 -3.9515 0.9516 -2.3728 0.7453 35.5981
#
#
#
# Elastic Compliance Matrix: (Units=1/GPa)
#
#
# Indices 1 2 3 4 5 6 
#
# 1 0.017679 0.000060 -0.002239 0.001683 0.003611 0.000656
# 2 0.000060 0.007280 -0.002231 -0.000313 0.001986 0.000807
# 3 -0.002239 -0.002231 0.011245 0.002935 0.001011 -0.000444
# 4 0.001683 -0.000313 0.002935 0.024214 -0.000507 0.001564
# 5 0.003611 0.001986 0.001011 -0.000507 0.030490 -0.000366
# 6 0.000656 0.000807 -0.000444 0.001564 -0.000366 0.028325
#
#
# Mechanical properties :
#
#
# Convention : Reuss Voigt Hill
#
# Bulk Modulus (GPa) = 36.51713 47.13836 41.82775
# Shear Modulus (GPa) = 36.44806 40.09694 38.27250
#
# Velocity S-wave (km/s) = 3.72624 3.90831 3.81836
# Velocity P-wave (km/s) = 5.69423 6.19062 5.94761
#
# Compressibility (1/GPa) = 0.02738441
#
# Stress axis : x y z
#
# Youngs Moduli (GPa) = 56.56303 137.36546 88.92693
#
# Poissons Ratio (x) = -0.00829 0.19910
# Poissons Ratio (y) = -0.00341 0.19843
# Poissons Ratio (z) = 0.12664 0.30651
#
# Static dielectric constant tensor:
#      x y z
#    x 2.160110 -0.017840 0.057480 
#    y -0.017840 2.068560 -0.017160 
#    z 0.057480 -0.017160 2.192870 
# 
# From -- ./inp_files/176122.got.cif
#   From: 2010.05.17/outbox.cif.g08.bks.cpg/sg2_89_cif.got.tgz:176122.got - 2010.06.03 11:33:40.
