data_PCOD9034372
_publ_section_title
;
Structure prediction by ZEFSAII (Michael W. Deem and Ramdas Pophale) SiO2 
 PCOD9034372
Probable space group: P -1
;
_chemical_formula_sum "Si O2"
_cell_formula_units_Z 16
_cell_length_a 8.381955
_cell_length_b 27.604392
_cell_length_c 14.522060
_cell_angle_alpha 21.848140
_cell_angle_beta 141.436384
_cell_angle_gamma 130.274255
_cell_volume 732.547733
_symmetry_space_group_name_H-M "P -1"
_symmetry_group_IT_number 2
_symmetry_cell_setting 'triclinic'
loop_
_space_group_symop_operation_xyz
x,y,z
-x,-y,-z
loop_
_atom_site_type_symbol
_atom_site_label
_atom_site_fract_x
_atom_site_fract_y
_atom_site_fract_z
Si Si1 0.727163 0.955337 0.293807
Si Si2 0.225171 0.523420 0.124413
Si Si3 0.133081 0.239032 0.137686
Si Si4 0.809027 0.496817 0.653002
Si Si5 0.114018 0.008098 0.893217
Si Si6 0.287525 0.742850 0.630665
Si Si7 0.711552 0.263441 0.752792
Si Si8 0.085321 0.720508 0.381921
O O1 0.890439 0.870659 0.603152
O O2 0.894605 0.920460 0.335961
O O3 0.436862 0.933465 0.189485
O O4 0.652153 0.120484 0.977499
O O5 0.103794 0.564098 0.098487
O O6 0.477687 0.380483 0.494790
O O7 0.317798 0.634671 0.916842
O O8 0.000000 0.500000 0.000000
O O9 0.450248 0.212975 0.321165
O O10 0.988781 0.392264 0.843236
O O11 0.992136 0.231711 0.990830
O O12 0.500000 0.500000 0.500000
O O13 0.867689 0.641266 0.419596
O O14 0.975977 0.123901 0.701272
O O15 0.980159 0.888547 0.038284
O O16 0.249161 0.683115 0.618649
O O17 0.737952 0.313352 0.572672
#
# Coordination Sequence:
#
# PCOD9034372 Si02
#       8
#     2   2   2   2   2   2   2   2
#     4  10  22  44  74 100 139 174 228 278 338 397
#     4  12  25  43  71 100 130 180 232 283 335 403
#     4  12  26  44  68 101 138 184 221 278 344 408
#     4  12  27  46  67  98 135 179 225 282 344 399
#     4  10  22  45  71 106 134 174 226 289 327 397
#     4  12  25  42  72 103 135 178 231 276 339 406
#     4  11  26  45  66 102 143 176 223 282 343 397
#     4  11  25  45  68  98 135 178 223 282 334 400
#
# _framework density 21.841581000000001
#
# number of rings (size 3 to 8) (size 9 to 14) (size 15 to 20)
#    0.000    0.750    3.750    3.000    3.500    2.000 
#    2.250    1.250    0.000    0.000    0.000    0.000 
#    0.000    0.000    0.000    0.000    0.000    0.000 
#
# Total GULP energy -89453.245912 kJ/mol
# GULP energy per Si atom -5590.827870 kJ/mol
# Density = 2.179187 g / cm^3
# Si number density = 21.841581 Si / 1000 Ang^3
#
#
#
# Elastic Constant Matrix: (Units=GPa)
#
#
# Indices 1 2 3 4 5 6 
#
# 1 73.3862 28.8981 19.0618 -9.5329 -14.9679 0.1206
# 2 28.8981 87.3714 18.1870 -5.4045 -13.1429 6.7947
# 3 19.0618 18.1870 52.2556 -11.2278 -14.5094 6.9326
# 4 -9.5329 -5.4045 -11.2278 30.6307 4.4317 -3.3481
# 5 -14.9679 -13.1429 -14.5094 4.4317 31.9314 -6.6493
# 6 0.1206 6.7947 6.9326 -3.3481 -6.6493 38.1743
#
#
#
# Elastic Compliance Matrix: (Units=1/GPa)
#
#
# Indices 1 2 3 4 5 6 
#
# 1 0.017614 -0.004405 -0.003139 0.003084 0.005100 0.002457
# 2 -0.004405 0.013855 -0.002448 -0.000326 0.002227 -0.001648
# 3 -0.003139 -0.002448 0.024875 0.006386 0.007478 -0.002209
# 4 0.003084 -0.000326 0.006386 0.036165 -0.000391 0.001992
# 5 0.005100 0.002227 0.007478 -0.000391 0.039120 0.005009
# 6 0.002457 -0.001648 -0.002209 0.001992 0.005009 0.027930
#
#
# Mechanical properties :
#
#
# Convention : Reuss Voigt Hill
#
# Bulk Modulus (GPa) = 27.50337 38.36744 32.93540
# Shear Modulus (GPa) = 26.08750 29.93836 28.01293
#
# Velocity S-wave (km/s) = 3.45975 3.70632 3.58516
# Velocity P-wave (km/s) = 5.34597 5.99334 5.67889
#
# Compressibility (1/GPa) = 0.03635919
#
# Stress axis : x y z
#
# Youngs Moduli (GPa) = 56.77452 72.17547 40.20055
#
# Poissons Ratio (x) = 0.31796 0.12619
# Poissons Ratio (y) = 0.25011 0.09842
# Poissons Ratio (z) = 0.17821 0.17669
#
# Static dielectric constant tensor:
#      x y z
#    x 2.467080 -0.183260 -0.816320 
#    y -0.183260 1.842420 0.196220 
#    z -0.816320 0.196220 2.703490 
# 
# From -- ./inp_files/508994.got.cif
#   From: 2010.05.17/outbox.cif.g08.bks.cpg/sg2_255_cif.got.tgz:508994.got - 2010.06.03 11:33:40.
