data_PCOD9034697
_publ_section_title
;
Structure prediction by ZEFSAII (Michael W. Deem and Ramdas Pophale) SiO2 
 PCOD9034697
Probable space group: P -1
;
_chemical_formula_sum "Si O2"
_cell_formula_units_Z 14
_cell_length_a 7.420380
_cell_length_b 9.147028
_cell_length_c 9.869588
_cell_angle_alpha 64.730790
_cell_angle_beta 79.513799
_cell_angle_gamma 84.734523
_cell_volume 595.599808
_symmetry_space_group_name_H-M "P -1"
_symmetry_group_IT_number 2
_symmetry_cell_setting 'triclinic'
loop_
_space_group_symop_operation_xyz
x,y,z
-x,-y,-z
loop_
_atom_site_type_symbol
_atom_site_label
_atom_site_fract_x
_atom_site_fract_y
_atom_site_fract_z
Si Si1 0.886835 0.102864 0.586062
Si Si2 0.539749 0.361413 0.233216
Si Si3 0.417356 0.264861 0.841202
Si Si4 0.290455 0.176339 0.162098
Si Si5 0.590230 0.322973 0.529779
Si Si6 0.980088 0.834490 0.153538
Si Si7 0.917154 0.325673 0.048670
O O1 0.802917 0.278225 0.485030
O O2 0.978822 0.136085 0.706470
O O3 0.719290 0.980059 0.682576
O O4 0.000000 0.000000 0.500000
O O5 0.570805 0.550564 0.181603
O O6 0.370960 0.325325 0.174170
O O7 0.501500 0.277758 0.416298
O O8 0.725804 0.298695 0.160393
O O9 0.561651 0.242807 0.711726
O O10 0.223414 0.233553 0.807945
O O11 0.414048 0.157303 0.018785
O O12 0.083229 0.213390 0.127461
O O13 0.500000 0.500000 0.500000
O O14 0.102565 0.709433 0.095675
O O15 0.000000 0.000000 0.000000
O O16 0.000000 0.500000 0.000000
#
# Coordination Sequence:
#
# PCOD9034697 Si02
#       7
#     2   2   2   2   2   2   2
#     4  12  27  48  72 109 151 197 246 304 380 446
#     4  11  23  44  70 102 148 191 241 305 364 445
#     4  10  22  45  67 105 143 182 248 301 367 435
#     4  11  24  42  71 106 139 193 247 297 370 437
#     4  10  26  46  68 103 146 192 246 299 370 440
#     4  11  23  44  72 106 146 187 246 314 365 441
#     4  11  22  41  71 108 141 187 243 302 371 437
#
# _framework density 23.505714999999999
#
# number of rings (size 3 to 8) (size 9 to 14) (size 15 to 20)
#    0.000    1.143    5.714    1.286    4.000    3.429 
#    0.000    1.429    0.000    0.000    0.000    0.000 
#    0.000    0.000    0.000    0.000    0.000    0.000 
#
# Total GULP energy -78060.868314 kJ/mol
# GULP energy per Si atom -5575.776308 kJ/mol
# Density = 2.345221 g / cm^3
# Si number density = 23.505715 Si / 1000 Ang^3
#
#
#
# Elastic Constant Matrix: (Units=GPa)
#
#
# Indices 1 2 3 4 5 6 
#
# 1 73.9997 50.5135 20.2805 26.6387 4.2058 2.5281
# 2 50.5135 133.1931 36.7403 31.7272 0.4064 -5.1314
# 3 20.2805 36.7403 131.3973 52.0990 0.9631 -1.6961
# 4 26.6387 31.7272 52.0990 46.1348 -4.1710 -2.9558
# 5 4.2058 0.4064 0.9631 -4.1710 29.7755 8.7602
# 6 2.5281 -5.1314 -1.6961 -2.9558 8.7602 47.2858
#
#
#
# Elastic Compliance Matrix: (Units=1/GPa)
#
#
# Indices 1 2 3 4 5 6 
#
# 1 0.021644 -0.006203 0.003379 -0.012548 -0.004343 -0.001689
# 2 -0.006203 0.010816 -0.001004 -0.002639 0.000008 0.001303
# 3 0.003379 -0.001004 0.014520 -0.017980 -0.003373 -0.000268
# 4 -0.012548 -0.002639 -0.017980 0.051962 0.009297 0.001265
# 5 -0.004343 0.000008 -0.003373 0.009297 0.037446 -0.006244
# 6 -0.001689 0.001303 -0.000268 0.001265 -0.006244 0.022606
#
#
# Mechanical properties :
#
#
# Convention : Reuss Voigt Hill
#
# Bulk Modulus (GPa) = 25.42981 61.51765 43.47373
# Shear Modulus (GPa) = 27.81527 40.04296 33.92911
#
# Velocity S-wave (km/s) = 3.44370 4.13188 3.80339
# Velocity P-wave (km/s) = 5.16277 6.99938 6.15002
#
# Compressibility (1/GPa) = 0.03932393
#
# Stress axis : x y z
#
# Youngs Moduli (GPa) = 46.20311 92.45478 68.87055
#
# Poissons Ratio (x) = 0.57352 -0.23274
# Poissons Ratio (y) = 0.28661 0.06914
# Poissons Ratio (z) = -0.15614 0.09282
#
# Static dielectric constant tensor:
#      x y z
#    x 1.926890 -0.093150 -0.016240 
#    y -0.093150 1.977480 -0.041680 
#    z -0.016240 -0.041680 2.000110 
# 
# From -- ./inp_files/154039.got.cif
#   From: 2010.05.17/outbox.cif.g08.bks.cpg/sg2_78_cif.got.tgz:154039.got - 2010.06.03 11:33:40.
