data_PCOD9034063
_publ_section_title
;
Structure prediction by ZEFSAII (Michael W. Deem and Ramdas Pophale) SiO2 
 PCOD9034063
Probable space group: P -1
;
_chemical_formula_sum "Si O2"
_cell_formula_units_Z 14
_cell_length_a 19.688733
_cell_length_b 9.105674
_cell_length_c 7.476773
_cell_angle_alpha 71.940740
_cell_angle_beta 118.532250
_cell_angle_gamma 149.262458
_cell_volume 586.610463
_symmetry_space_group_name_H-M "P -1"
_symmetry_group_IT_number 2
_symmetry_cell_setting 'triclinic'
loop_
_space_group_symop_operation_xyz
x,y,z
-x,-y,-z
loop_
_atom_site_type_symbol
_atom_site_label
_atom_site_fract_x
_atom_site_fract_y
_atom_site_fract_z
Si Si1 0.810288 0.770359 0.698640
Si Si2 0.304600 0.239020 0.965978
Si Si3 0.361245 0.084387 0.822941
Si Si4 0.896224 0.812079 0.265645
Si Si5 0.672164 0.245276 0.833630
Si Si6 0.331482 0.157286 0.395933
Si Si7 0.325919 0.681267 0.573297
O O1 0.754315 0.547376 0.856493
O O2 0.770685 0.874090 0.662175
O O3 0.712396 0.548768 0.486831
O O4 0.981862 0.040165 0.774919
O O5 0.460644 0.596045 0.048969
O O6 0.306185 0.109321 0.170609
O O7 0.301755 0.142485 0.812887
O O8 0.173197 0.136113 0.868007
O O9 0.319965 0.007220 0.590411
O O10 0.302940 0.847189 0.961275
O O11 0.767366 0.481740 0.302623
O O12 0.000000 0.000000 0.500000
O O13 0.711954 0.276391 0.662848
O O14 0.497940 0.985078 0.713330
O O15 0.500000 0.500000 0.500000
#
# Coordination Sequence:
#
# PCOD9034063 Si02
#       7
#     2   2   2   2   2   2   2
#     4   9  19  33  54  80 115 140 181 239 268 331
#     4  10  21  33  58  84 111 151 188 224 277 331
#     4  10  19  35  59  82 113 146 185 235 272 327
#     4  10  17  32  56  83 112 146 191 221 274 337
#     4   9  17  30  57  82 113 143 185 230 282 315
#     4  10  22  36  56  86 113 144 191 232 273 329
#     4   8  16  28  54  82 112 140 188 224 272 327
#
# _framework density 23.865921
#
# number of rings (size 3 to 8) (size 9 to 14) (size 15 to 20)
#    0.857    1.714    1.429    1.714    4.000    0.571 
#    0.000    3.571    3.143    0.857    0.000    0.000 
#    0.000    0.000    0.000    0.000    0.000    0.000 
#
# Total GULP energy -78137.124750 kJ/mol
# GULP energy per Si atom -5581.223196 kJ/mol
# Density = 2.381160 g / cm^3
# Si number density = 23.865921 Si / 1000 Ang^3
#
#
#
# Elastic Constant Matrix: (Units=GPa)
#
#
# Indices 1 2 3 4 5 6 
#
# 1 52.8018 11.5836 14.4060 5.2729 -0.6834 14.4903
# 2 11.5836 88.3902 22.5260 -24.6187 7.3752 19.2999
# 3 14.4060 22.5260 122.1221 -39.4644 3.7259 -0.6663
# 4 5.2729 -24.6187 -39.4644 60.0279 0.5103 4.6260
# 5 -0.6834 7.3752 3.7259 0.5103 38.5727 0.3363
# 6 14.4903 19.2999 -0.6663 4.6260 0.3363 32.9945
#
#
#
# Elastic Compliance Matrix: (Units=1/GPa)
#
#
# Indices 1 2 3 4 5 6 
#
# 1 0.023267 -0.001497 -0.004060 -0.004661 0.001229 -0.008783
# 2 -0.001497 0.015984 -0.000408 0.007191 -0.003054 -0.009678
# 3 -0.004060 -0.000408 0.011199 0.007469 -0.001185 0.001213
# 4 -0.004661 0.007191 0.007469 0.025376 -0.002466 -0.005541
# 5 0.001229 -0.003054 -0.001185 -0.002466 0.026667 0.001297
# 6 -0.008783 -0.009678 0.001213 -0.005541 0.001297 0.040614
#
#
# Mechanical properties :
#
#
# Convention : Reuss Voigt Hill
#
# Bulk Modulus (GPa) = 25.96038 40.03835 32.99936
# Shear Modulus (GPa) = 29.78389 40.63895 35.21142
#
# Velocity S-wave (km/s) = 3.53649 4.13098 3.84524
# Velocity P-wave (km/s) = 5.25137 6.29016 5.79409
#
# Compressibility (1/GPa) = 0.03852024
#
# Stress axis : x y z
#
# Youngs Moduli (GPa) = 42.98009 62.56145 89.29411
#
# Poissons Ratio (x) = 0.09367 0.36253
# Poissons Ratio (y) = 0.06435 0.03640
# Poissons Ratio (z) = 0.17450 0.02550
#
# Static dielectric constant tensor:
#      x y z
#    x 1.647630 0.511010 0.295980 
#    y 0.511010 0.972060 -0.763560 
#    z 0.295980 -0.763560 1.531520 
# 
# From -- ./inp_files/345159.got.cif
#   From: 2010.05.17/outbox.cif.g08.bks.cpg/sg2_173_cif.got.tgz:345159.got - 2010.06.03 11:33:40.
