data_PCOD9034475
_publ_section_title
;
Structure prediction by ZEFSAII (Michael W. Deem and Ramdas Pophale) SiO2 
 PCOD9034475
Probable space group: P -1
;
_chemical_formula_sum "Si O2"
_cell_formula_units_Z 16
_cell_length_a 11.280661
_cell_length_b 14.604894
_cell_length_c 13.304480
_cell_angle_alpha 148.446781
_cell_angle_beta 30.495179
_cell_angle_gamma 141.656161
_cell_volume 571.655672
_symmetry_space_group_name_H-M "P -1"
_symmetry_group_IT_number 2
_symmetry_cell_setting 'triclinic'
loop_
_space_group_symop_operation_xyz
x,y,z
-x,-y,-z
loop_
_atom_site_type_symbol
_atom_site_label
_atom_site_fract_x
_atom_site_fract_y
_atom_site_fract_z
Si Si1 0.069569 0.514343 0.659431
Si Si2 0.939229 0.015113 0.228327
Si Si3 0.359284 0.316582 0.379577
Si Si4 0.079689 0.281066 0.210553
Si Si5 0.934604 0.292990 0.819738
Si Si6 0.648806 0.125071 0.116325
Si Si7 0.398972 0.579930 0.959488
Si Si8 0.270631 0.169633 0.602140
O O1 0.260989 0.389594 0.418893
O O2 0.170075 0.689523 0.815968
O O3 0.048631 0.581501 0.626136
O O4 0.812753 0.434512 0.816891
O O5 0.754280 0.951816 0.393890
O O6 0.939082 0.189598 0.325159
O O7 0.189870 0.018028 0.106456
O O8 0.917936 0.866217 0.017478
O O9 0.500000 0.500000 0.500000
O O10 0.526298 0.174808 0.148721
O O11 0.119938 0.263476 0.570486
O O12 0.353100 0.347218 0.101219
O O13 0.014632 0.174932 0.740617
O O14 0.685652 0.295486 0.949003
O O15 0.000000 0.500000 0.000000
O O16 0.441629 0.112058 0.339645
O O17 0.373068 0.375177 0.748586
#
# Coordination Sequence:
#
# PCOD9034475 Si02
#       8
#     2   2   2   2   2   2   2   2
#     4   9  16  30  51  77 105 135 173 220 263 306
#     4  10  21  37  54  78 107 148 183 211 262 326
#     4   8  14  24  46  75 102 126 163 222 265 298
#     4  10  20  34  55  76 110 148 181 214 259 327
#     4   8  16  26  46  81 101 126 171 218 266 313
#     4   9  17  32  54  83 106 134 179 222 268 320
#     4  10  17  32  57  79 106 140 178 224 274 305
#     4  10  18  33  58  80 105 138 178 229 268 308
#
# _framework density 27.988876999999999
#
# number of rings (size 3 to 8) (size 9 to 14) (size 15 to 20)
#    0.000    2.750    2.500    0.375    1.750    0.000 
#    0.000    8.750    2.750    6.750    0.000    0.000 
#    0.000    0.000    0.000    0.000    0.000    0.000 
#
# Total GULP energy -89676.739169 kJ/mol
# GULP energy per Si atom -5604.796198 kJ/mol
# Density = 2.792517 g / cm^3
# Si number density = 27.988877 Si / 1000 Ang^3
#
#
#
# Elastic Constant Matrix: (Units=GPa)
#
#
# Indices 1 2 3 4 5 6 
#
# 1 227.3961 84.6767 34.7564 -5.8086 -29.0365 -42.0974
# 2 84.6767 151.8145 47.8778 10.4353 -19.3257 -45.3236
# 3 34.7564 47.8778 95.9929 -7.0274 -17.4863 -15.7235
# 4 -5.8086 10.4353 -7.0274 50.5044 -2.7042 6.7338
# 5 -29.0365 -19.3257 -17.4863 -2.7042 40.7327 -12.4577
# 6 -42.0974 -45.3236 -15.7235 6.7338 -12.4577 60.2702
#
#
#
# Elastic Compliance Matrix: (Units=1/GPa)
#
#
# Indices 1 2 3 4 5 6 
#
# 1 0.006518 -0.001863 0.000275 0.000892 0.005225 0.004203
# 2 -0.001863 0.012195 -0.003320 -0.004050 0.005384 0.008569
# 3 0.000275 -0.003320 0.013428 0.002599 0.005162 0.001975
# 4 0.000892 -0.004050 0.002599 0.021656 -0.000006 -0.004165
# 5 0.005225 0.005384 0.005162 -0.000006 0.038228 0.016947
# 6 0.004203 0.008569 0.001975 -0.004165 0.016947 0.030455
#
#
# Mechanical properties :
#
#
# Convention : Reuss Voigt Hill
#
# Bulk Modulus (GPa) = 44.79485 89.98059 67.38772
# Shear Modulus (GPa) = 35.78115 50.82765 43.30440
#
# Velocity S-wave (km/s) = 3.57936 4.26607 3.93771
# Velocity P-wave (km/s) = 5.75514 7.51560 6.69350
#
# Compressibility (1/GPa) = 0.02232399
#
# Stress axis : x y z
#
# Youngs Moduli (GPa) = 153.43304 81.99859 74.47188
#
# Poissons Ratio (x) = 0.15280 -0.02049
# Poissons Ratio (y) = 0.28591 0.24725
# Poissons Ratio (z) = -0.04221 0.27224
#
# Static dielectric constant tensor:
#      x y z
#    x 2.129490 0.025860 0.050070 
#    y 0.025860 2.254850 0.033550 
#    z 0.050070 0.033550 2.137360 
# 
# From -- ./inp_files/521721.got.cif
#   From: 2010.05.17/outbox.cif.g08.bks.cpg/sg2_261_cif.got.tgz:521721.got - 2010.06.03 11:33:40.
