data_PCOD9034684
_publ_section_title
;
Structure prediction by ZEFSAII (Michael W. Deem and Ramdas Pophale) SiO2 
 PCOD9034684
Probable space group: P -1
;
_chemical_formula_sum "Si O2"
_cell_formula_units_Z 12
_cell_length_a 11.294246
_cell_length_b 7.229322
_cell_length_c 8.985076
_cell_angle_alpha 81.299248
_cell_angle_beta 93.946809
_cell_angle_gamma 143.745177
_cell_volume 427.082271
_symmetry_space_group_name_H-M "P -1"
_symmetry_group_IT_number 2
_symmetry_cell_setting 'triclinic'
loop_
_space_group_symop_operation_xyz
x,y,z
-x,-y,-z
loop_
_atom_site_type_symbol
_atom_site_label
_atom_site_fract_x
_atom_site_fract_y
_atom_site_fract_z
Si Si1 0.849703 0.654792 0.454052
Si Si2 0.793036 0.235022 0.331085
Si Si3 0.009550 0.304581 0.091396
Si Si4 0.552687 0.704801 0.608696
Si Si5 0.687802 0.829272 0.895763
Si Si6 0.374356 0.801641 0.221047
O O1 0.922867 0.576247 0.361753
O O2 0.671762 0.508660 0.348650
O O3 0.726490 0.405267 0.611175
O O4 0.000000 0.000000 0.500000
O O5 0.909233 0.219341 0.254856
O O6 0.689368 0.027525 0.496539
O O7 0.608974 0.055763 0.227219
O O8 0.238604 0.539121 0.110588
O O9 0.000000 0.500000 0.000000
O O10 0.875880 0.029100 0.993144
O O11 0.500000 0.500000 0.500000
O O12 0.671366 0.739550 0.737235
O O13 0.654471 0.011187 0.833531
O O14 0.500000 0.500000 0.000000
#
# Coordination Sequence:
#
# PCOD9034684 Si02
#       6
#     2   2   2   2   2   2
#     4  11  24  41  71 104 137 182 238 295 344 405
#     4  11  22  47  74  97 140 191 224 302 347 398
#     4  10  25  41  68 105 138 182 233 276 356 423
#     4  11  23  43  71 104 137 183 239 283 350 418
#     4  11  22  41  67 100 143 181 225 287 349 416
#     4  10  22  45  67 101 140 176 239 282 344 416
#
# _framework density 28.097631
#
# number of rings (size 3 to 8) (size 9 to 14) (size 15 to 20)
#    0.000    1.333    3.333    2.000    4.667    6.000 
#    0.000    0.000    0.000   11.000    0.000    0.000 
#    0.000    0.000    0.000    0.000    0.000    0.000 
#
# Total GULP energy -67099.028988 kJ/mol
# GULP energy per Si atom -5591.585749 kJ/mol
# Density = 2.803368 g / cm^3
# Si number density = 28.097631 Si / 1000 Ang^3
#
#
#
# Elastic Constant Matrix: (Units=GPa)
#
#
# Indices 1 2 3 4 5 6 
#
# 1 108.2420 43.3766 30.0855 17.6402 22.9698 13.7058
# 2 43.3766 179.3798 84.8937 36.4803 13.9552 6.1008
# 3 30.0855 84.8937 147.7878 23.4082 9.8479 4.0880
# 4 17.6402 36.4803 23.4082 73.5485 0.4354 17.6789
# 5 22.9698 13.9552 9.8479 0.4354 38.7420 10.3900
# 6 13.7058 6.1008 4.0880 17.6789 10.3900 43.0981
#
#
#
# Elastic Compliance Matrix: (Units=1/GPa)
#
#
# Indices 1 2 3 4 5 6 
#
# 1 0.011765 -0.001707 -0.000779 -0.001334 -0.005747 -0.001493
# 2 -0.001707 0.008543 -0.004059 -0.002815 -0.001321 0.001192
# 3 -0.000779 -0.004059 0.009426 -0.000902 -0.000579 0.000438
# 4 -0.001334 -0.002815 -0.000902 0.017280 0.003739 -0.007081
# 5 -0.005747 -0.001321 -0.000579 0.003739 0.031707 -0.007108
# 6 -0.001493 0.001192 0.000438 -0.007081 -0.007108 0.028086
#
#
# Mechanical properties :
#
#
# Convention : Reuss Voigt Hill
#
# Bulk Modulus (GPa) = 60.08026 83.56902 71.82464
# Shear Modulus (GPa) = 39.85813 49.54798 44.70306
#
# Velocity S-wave (km/s) = 3.77046 4.20387 3.99305
# Velocity P-wave (km/s) = 6.35486 7.30550 6.84670
#
# Compressibility (1/GPa) = 0.01664440
#
# Stress axis : x y z
#
# Youngs Moduli (GPa) = 84.99596 117.05081 106.08992
#
# Poissons Ratio (x) = 0.19983 0.08263
# Poissons Ratio (y) = 0.14510 0.43063
# Poissons Ratio (z) = 0.06620 0.47512
#
# Static dielectric constant tensor:
#      x y z
#    x 2.432120 -0.035210 -0.072640 
#    y -0.035210 2.483120 0.173760 
#    z -0.072640 0.173760 2.496980 
# 
# From -- ./inp_files/156656.got.cif
#   From: 2010.05.17/outbox.cif.g08.bks.cpg/sg2_79_cif.got.tgz:156656.got - 2010.06.03 11:33:40.
