data_PCOD9034004
_publ_section_title
;
Structure prediction by ZEFSAII (Michael W. Deem and Ramdas Pophale) SiO2 
 PCOD9034004
Probable space group: P -1
;
_chemical_formula_sum "Si O2"
_cell_formula_units_Z 16
_cell_length_a 11.370582
_cell_length_b 9.257720
_cell_length_c 14.316907
_cell_angle_alpha 114.594840
_cell_angle_beta 64.113164
_cell_angle_gamma 61.736272
_cell_volume 738.070078
_symmetry_space_group_name_H-M "P -1"
_symmetry_group_IT_number 2
_symmetry_cell_setting 'triclinic'
loop_
_space_group_symop_operation_xyz
x,y,z
-x,-y,-z
loop_
_atom_site_type_symbol
_atom_site_label
_atom_site_fract_x
_atom_site_fract_y
_atom_site_fract_z
Si Si1 0.995203 0.112141 0.439988
Si Si2 0.166178 0.930628 0.691930
Si Si3 0.127040 0.493338 0.024375
Si Si4 0.697091 0.707806 0.728593
Si Si5 0.357355 0.983378 0.314663
Si Si6 0.872412 0.249834 0.175700
Si Si7 0.802488 0.787139 0.901747
Si Si8 0.464442 0.852275 0.446024
O O1 0.915758 0.092245 0.373123
O O2 0.828405 0.418037 0.599495
O O3 0.000000 0.000000 0.500000
O O4 0.232906 0.959969 0.302003
O O5 0.231024 0.752605 0.705506
O O6 0.347894 0.874297 0.576289
O O7 0.975225 0.233708 0.872945
O O8 0.105855 0.435661 0.118931
O O9 0.383446 0.258501 0.852968
O O10 0.000000 0.500000 0.000000
O O11 0.779940 0.735779 0.793082
O O12 0.726470 0.774580 0.639674
O O13 0.439660 0.933875 0.900502
O O14 0.320756 0.996445 0.440795
O O15 0.686641 0.536383 0.267480
O O16 0.044438 0.208773 0.146126
O O17 0.000000 0.000000 0.000000
O O18 0.500000 0.000000 0.500000
#
# Coordination Sequence:
#
# PCOD9034004 Si02
#       8
#     2   2   2   2   2   2   2   2
#     4  12  25  42  67 101 146 175 223 295 348 403
#     4  12  26  44  69 103 141 178 228 290 356 405
#     4  11  23  46  70  99 137 184 237 279 339 424
#     4  10  24  42  71  99 135 182 234 283 335 414
#     4  11  24  44  70  97 133 184 232 279 343 409
#     4  12  27  44  71 103 142 180 229 292 353 410
#     4  10  22  44  70  99 134 185 234 278 341 418
#     4  12  27  45  70 100 138 186 231 283 345 426
#
# _framework density 21.678158
#
# number of rings (size 3 to 8) (size 9 to 14) (size 15 to 20)
#    0.000    0.750    1.250    6.000    5.250    2.500 
#    0.000    0.000    0.000    0.000    0.000    0.000 
#    0.000    0.000    0.000    0.000    0.000    0.000 
#
# Total GULP energy -89574.247446 kJ/mol
# GULP energy per Si atom -5598.390465 kJ/mol
# Density = 2.162882 g / cm^3
# Si number density = 21.678158 Si / 1000 Ang^3
#
#
#
# Elastic Constant Matrix: (Units=GPa)
#
#
# Indices 1 2 3 4 5 6 
#
# 1 98.1862 40.0133 27.4036 7.9227 -0.1597 18.3686
# 2 40.0133 176.4686 46.1473 4.1667 6.8214 13.4910
# 3 27.4036 46.1473 68.5002 9.7345 1.3779 7.2198
# 4 7.9227 4.1667 9.7345 40.6077 7.2263 -2.2509
# 5 -0.1597 6.8214 1.3779 7.2263 34.3513 -4.5106
# 6 18.3686 13.4910 7.2198 -2.2509 -4.5106 34.5629
#
#
#
# Elastic Compliance Matrix: (Units=1/GPa)
#
#
# Indices 1 2 3 4 5 6 
#
# 1 0.012966 -0.001624 -0.003222 -0.001937 0.000172 -0.005688
# 2 -0.001624 0.007272 -0.004198 0.000795 -0.001616 -0.001258
# 3 -0.003222 -0.004198 0.019321 -0.003747 0.000722 -0.000835
# 4 -0.001937 0.000795 -0.003747 0.026913 -0.005342 0.002557
# 5 0.000172 -0.001616 0.000722 -0.005342 0.031065 0.004094
# 6 -0.005688 -0.001258 -0.000835 0.002557 0.004094 0.033322
#
#
# Mechanical properties :
#
#
# Convention : Reuss Voigt Hill
#
# Bulk Modulus (GPa) = 46.56923 63.36482 54.96703
# Shear Modulus (GPa) = 32.02981 37.21042 34.62011
#
# Velocity S-wave (km/s) = 3.84802 4.14755 4.00059
# Velocity P-wave (km/s) = 6.42431 7.22700 6.83744
#
# Compressibility (1/GPa) = 0.02147341
#
# Stress axis : x y z
#
# Youngs Moduli (GPa) = 77.12293 137.50567 51.75618
#
# Poissons Ratio (x) = 0.22324 0.16677
# Poissons Ratio (y) = 0.12521 0.21725
# Poissons Ratio (z) = 0.24851 0.57720
#
# Static dielectric constant tensor:
#      x y z
#    x 1.748480 -0.010440 -0.027500 
#    y -0.010440 1.768390 -0.028260 
#    z -0.027500 -0.028260 1.793610 
# 
# From -- ./inp_files/515914.got.cif
#   From: 2010.05.17/outbox.cif.g08.bks.cpg/sg2_258_cif.got.tgz:515914.got - 2010.06.03 11:33:40.
