data_PCOD9034437
_publ_section_title
;
Structure prediction by ZEFSAII (Michael W. Deem and Ramdas Pophale) SiO2 
 PCOD9034437
Probable space group: P -1
;
_chemical_formula_sum "Si O2"
_cell_formula_units_Z 16
_cell_length_a 14.513142
_cell_length_b 9.708695
_cell_length_c 11.987804
_cell_angle_alpha 112.543624
_cell_angle_beta 30.155306
_cell_angle_gamma 102.989693
_cell_volume 762.671019
_symmetry_space_group_name_H-M "P -1"
_symmetry_group_IT_number 2
_symmetry_cell_setting 'triclinic'
loop_
_space_group_symop_operation_xyz
x,y,z
-x,-y,-z
loop_
_atom_site_type_symbol
_atom_site_label
_atom_site_fract_x
_atom_site_fract_y
_atom_site_fract_z
Si Si1 0.779719 0.549149 0.993300
Si Si2 0.456324 0.623896 0.961485
Si Si3 0.030536 0.645606 0.079978
Si Si4 0.288972 0.206650 0.367742
Si Si5 0.679754 0.105267 0.646532
Si Si6 0.605047 0.893657 0.258315
Si Si7 0.042990 0.968794 0.076208
Si Si8 0.876102 0.548869 0.536292
O O1 0.666576 0.483378 0.995429
O O2 0.804218 0.428696 0.030387
O O3 0.992396 0.544265 0.726765
O O4 0.680411 0.723132 0.175111
O O5 0.352339 0.743052 0.198889
O O6 0.337649 0.469213 0.240300
O O7 0.527083 0.726445 0.822557
O O8 0.071257 0.787290 0.012441
O O9 0.840626 0.714780 0.370122
O O10 0.000000 0.500000 0.000000
O O11 0.164713 0.272514 0.407401
O O12 0.332291 0.029359 0.295188
O O13 0.522630 0.117224 0.718723
O O14 0.874510 0.056136 0.359577
O O15 0.500000 0.000000 0.500000
O O16 0.775808 0.966956 0.065748
O O17 0.000000 0.000000 0.000000
O O18 0.000000 0.500000 0.500000
#
# Coordination Sequence:
#
# PCOD9034437 Si02
#       8
#     2   2   2   2   2   2   2   2
#     4  11  25  44  66 104 138 175 231 285 337 418
#     4  10  23  42  69 101 135 181 226 275 346 404
#     4  10  22  44  74  96 136 186 226 281 346 403
#     4   8  21  41  64  98 136 174 222 281 331 405
#     4  11  23  44  70  96 142 180 227 280 341 414
#     4  12  27  44  69 101 136 177 234 283 344 404
#     4  11  24  46  69  99 138 179 227 286 341 401
#     4   9  20  40  63  94 139 173 221 276 338 396
#
# _framework density 20.978902000000001
#
# number of rings (size 3 to 8) (size 9 to 14) (size 15 to 20)
#    0.750    1.000    1.250    1.875    3.500    6.000 
#    0.000    4.375    0.000    0.000    0.000    0.000 
#    0.000    0.000    0.000    0.000    0.000    0.000 
#
# Total GULP energy -89281.724500 kJ/mol
# GULP energy per Si atom -5580.107781 kJ/mol
# Density = 2.093115 g / cm^3
# Si number density = 20.978902 Si / 1000 Ang^3
#
#
#
# Elastic Constant Matrix: (Units=GPa)
#
#
# Indices 1 2 3 4 5 6 
#
# 1 84.8688 42.5438 29.0655 12.4106 -0.8695 -2.2908
# 2 42.5438 162.3676 69.8739 16.7696 9.7139 -11.7325
# 3 29.0655 69.8739 93.7514 11.8702 -8.2681 8.0396
# 4 12.4106 16.7696 11.8702 35.8603 -0.0097 0.6229
# 5 -0.8695 9.7139 -8.2681 -0.0097 24.6815 -2.3585
# 6 -2.2908 -11.7325 8.0396 0.6229 -2.3585 44.5766
#
#
#
# Elastic Compliance Matrix: (Units=1/GPa)
#
#
# Indices 1 2 3 4 5 6 
#
# 1 0.014241 -0.002508 -0.002132 -0.003059 0.000825 0.000543
# 2 -0.002508 0.011314 -0.008397 -0.001715 -0.006971 0.004019
# 3 -0.002132 -0.008397 0.019035 -0.001542 0.009104 -0.005250
# 4 -0.003059 -0.001715 -0.001542 0.030270 -0.000009 -0.000754
# 5 0.000825 -0.006971 0.009104 -0.000009 0.046244 -0.000988
# 6 0.000543 0.004019 -0.005250 -0.000754 -0.000988 0.024424
#
#
# Mechanical properties :
#
#
# Convention : Reuss Voigt Hill
#
# Bulk Modulus (GPa) = 54.01199 69.32826 61.67012
# Shear Modulus (GPa) = 28.12537 34.32399 31.22468
#
# Velocity S-wave (km/s) = 3.66546 4.04929 3.86214
# Velocity P-wave (km/s) = 6.61180 7.41490 7.02483
#
# Compressibility (1/GPa) = 0.01851441
#
# Stress axis : x y z
#
# Youngs Moduli (GPa) = 70.22071 88.38290 52.53585
#
# Poissons Ratio (x) = 0.22167 0.11202
# Poissons Ratio (y) = 0.17611 0.44117
# Poissons Ratio (z) = 0.14973 0.74219
#
# Static dielectric constant tensor:
#      x y z
#    x 1.766080 -0.050740 -0.023840 
#    y -0.050740 1.760840 0.005450 
#    z -0.023840 0.005450 1.775520 
# 
# From -- ./inp_files/447731.got.cif
#   From: 2010.05.17/outbox.cif.g08.bks.cpg/sg2_224_cif.got.tgz:447731.got - 2010.06.03 11:33:40.
