data_PCOD9034367
_publ_section_title
;
Structure prediction by ZEFSAII (Michael W. Deem and Ramdas Pophale) SiO2 
 PCOD9034367
Probable space group: P -1
;
_chemical_formula_sum "Si O2"
_cell_formula_units_Z 16
_cell_length_a 16.142656
_cell_length_b 11.483997
_cell_length_c 12.375467
_cell_angle_alpha 28.197685
_cell_angle_beta 35.160924
_cell_angle_gamma 38.780179
_cell_volume 609.400046
_symmetry_space_group_name_H-M "P -1"
_symmetry_group_IT_number 2
_symmetry_cell_setting 'triclinic'
loop_
_space_group_symop_operation_xyz
x,y,z
-x,-y,-z
loop_
_atom_site_type_symbol
_atom_site_label
_atom_site_fract_x
_atom_site_fract_y
_atom_site_fract_z
Si Si1 0.880037 0.498307 0.723510
Si Si2 0.907963 0.912902 0.532141
Si Si3 0.282379 0.700108 0.108849
Si Si4 0.020376 0.176230 0.030068
Si Si5 0.212561 0.575847 0.518999
Si Si6 0.497956 0.921094 0.816459
Si Si7 0.459724 0.527837 0.693278
Si Si8 0.650923 0.835511 0.022670
O O1 0.877629 0.735861 0.609160
O O2 0.737035 0.469589 0.832759
O O3 0.000000 0.500000 0.500000
O O4 0.929834 0.273160 0.939968
O O5 0.074980 0.813343 0.478047
O O6 0.915850 0.162863 0.254270
O O7 0.788225 0.890647 0.766209
O O8 0.272679 0.551561 0.351586
O O9 0.134827 0.919597 0.088563
O O10 0.422627 0.825674 0.870023
O O11 0.123972 0.359908 0.804687
O O12 0.361904 0.555747 0.441712
O O13 0.572270 0.163202 0.514227
O O14 0.363650 0.062040 0.923738
O O15 0.566960 0.668660 0.021559
O O16 0.371561 0.442326 0.757398
O O17 0.500000 0.000000 0.000000
#
# Coordination Sequence:
#
# PCOD9034367 Si02
#       8
#     2   2   2   2   2   2   2   2
#     4  11  19  32  57  91 127 167 201 258 319 385
#     4  10  22  38  60  96 128 162 216 262 321 382
#     4  10  18  31  58  89 123 161 207 249 320 379
#     4  10  17  32  56  89 130 161 201 258 321 377
#     4   9  18  34  58  93 123 160 204 265 312 380
#     4  10  21  39  64  92 119 168 220 262 314 381
#     4  10  20  40  67  91 120 171 219 259 320 380
#     4  10  23  46  66  88 123 171 217 268 319 383
#
# _framework density 26.255330000000001
#
# number of rings (size 3 to 8) (size 9 to 14) (size 15 to 20)
#    0.000    2.000    5.000    0.750    0.000    0.000 
#   18.000   10.625    0.000    7.500    0.000    0.000 
#    0.000    0.000    0.000    0.000    0.000    0.000 
#
# Total GULP energy -89347.592101 kJ/mol
# GULP energy per Si atom -5584.224506 kJ/mol
# Density = 2.619557 g / cm^3
# Si number density = 26.255330 Si / 1000 Ang^3
#
#
#
# Elastic Constant Matrix: (Units=GPa)
#
#
# Indices 1 2 3 4 5 6 
#
# 1 143.8095 30.0150 51.3991 2.0044 -15.7379 14.5323
# 2 30.0150 69.6927 42.4634 19.4615 -13.2660 6.4719
# 3 51.3991 42.4634 162.2142 -10.5069 -10.2144 7.1175
# 4 2.0044 19.4615 -10.5069 42.4655 1.1229 -7.7174
# 5 -15.7379 -13.2660 -10.2144 1.1229 50.0181 -16.4407
# 6 14.5323 6.4719 7.1175 -7.7174 -16.4407 40.1050
#
#
#
# Elastic Compliance Matrix: (Units=1/GPa)
#
#
# Indices 1 2 3 4 5 6 
#
# 1 0.008402 -0.001849 -0.002051 -0.000454 0.001078 -0.002027
# 2 -0.001849 0.023316 -0.005979 -0.012714 0.003692 -0.002965
# 3 -0.002051 -0.005979 0.008654 0.005179 -0.000226 0.001076
# 4 -0.000454 -0.012714 0.005179 0.031992 -0.000838 0.007109
# 5 0.001078 0.003692 -0.000226 -0.000838 0.024178 0.008804
# 6 -0.002027 -0.002965 0.001076 0.007109 0.008804 0.030934
#
#
# Mechanical properties :
#
#
# Convention : Reuss Voigt Hill
#
# Bulk Modulus (GPa) = 48.50814 69.27460 58.89137
# Shear Modulus (GPa) = 32.44586 43.30700 37.87643
#
# Velocity S-wave (km/s) = 3.51918 4.06575 3.80230
# Velocity P-wave (km/s) = 5.91849 6.96295 6.46186
#
# Compressibility (1/GPa) = 0.02061510
#
# Stress axis : x y z
#
# Youngs Moduli (GPa) = 119.02446 42.88875 115.55937
#
# Poissons Ratio (x) = 0.07929 0.23698
# Poissons Ratio (y) = 0.22004 0.69090
# Poissons Ratio (z) = 0.24409 0.25642
#
# Static dielectric constant tensor:
#      x y z
#    x 2.061660 -0.011250 0.030720 
#    y -0.011250 2.144230 -0.065030 
#    z 0.030720 -0.065030 2.190740 
# 
# From -- ./inp_files/464245.got.cif
#   From: 2010.05.17/outbox.cif.g08.bks.cpg/sg2_233_cif.got.tgz:464245.got - 2010.06.03 11:33:40.
