data_PCOD9034974
_publ_section_title
;
Structure prediction by ZEFSAII (Michael W. Deem and Ramdas Pophale) SiO2 
 PCOD9034974
Probable space group: P -1
;
_chemical_formula_sum "Si O2"
_cell_formula_units_Z 14
_cell_length_a 9.430043
_cell_length_b 8.341349
_cell_length_c 7.749022
_cell_angle_alpha 90.378981
_cell_angle_beta 109.451753
_cell_angle_gamma 109.728159
_cell_volume 536.120534
_symmetry_space_group_name_H-M "P -1"
_symmetry_group_IT_number 2
_symmetry_cell_setting 'triclinic'
loop_
_space_group_symop_operation_xyz
x,y,z
-x,-y,-z
loop_
_atom_site_type_symbol
_atom_site_label
_atom_site_fract_x
_atom_site_fract_y
_atom_site_fract_z
Si Si1 0.988089 0.135533 0.854028
Si Si2 0.374180 0.576381 0.369509
Si Si3 0.684111 0.108530 0.558036
Si Si4 0.492146 0.259566 0.944637
Si Si5 0.921390 0.610196 0.591444
Si Si6 0.809036 0.034718 0.258288
Si Si7 0.756827 0.563064 0.177707
O O1 0.082877 0.341795 0.869656
O O2 0.801479 0.110919 0.762501
O O3 0.074161 0.069431 0.733688
O O4 0.000000 0.000000 0.000000
O O5 0.500000 0.500000 0.500000
O O6 0.322613 0.704565 0.472723
O O7 0.447220 0.682133 0.226544
O O8 0.195833 0.434072 0.288885
O O9 0.758163 0.034975 0.434668
O O10 0.500000 0.000000 0.500000
O O11 0.367993 0.353478 0.945757
O O12 0.366162 0.062266 0.903901
O O13 0.655346 0.358562 0.118207
O O14 0.798715 0.624250 0.392246
O O15 0.000000 0.500000 0.500000
O O16 0.073752 0.769961 0.719219
#
# Coordination Sequence:
#
# PCOD9034974 Si02
#       7
#     2   2   2   2   2   2   2
#     4  11  26  47  75 110 148 200 248 309 376 444
#     4  12  25  42  73 109 142 191 246 299 364 444
#     4  12  25  46  75 112 149 190 255 312 362 445
#     4  10  23  43  68 102 140 191 232 304 362 428
#     4  12  24  44  70 105 140 190 245 300 358 443
#     4  11  24  47  75 103 147 198 246 305 372 436
#     4  10  22  45  69  97 147 187 239 296 372 427
#
# _framework density 26.113530999999998
#
# number of rings (size 3 to 8) (size 9 to 14) (size 15 to 20)
#    0.000    0.857    5.714    0.429    6.000    0.000 
#    5.143    2.857    0.000    0.000    0.000    0.000 
#    0.000    0.000    0.000    0.000    0.000    0.000 
#
# Total GULP energy -77978.069808 kJ/mol
# GULP energy per Si atom -5569.862129 kJ/mol
# Density = 2.605410 g / cm^3
# Si number density = 26.113531 Si / 1000 Ang^3
#
#
#
# Elastic Constant Matrix: (Units=GPa)
#
#
# Indices 1 2 3 4 5 6 
#
# 1 172.5897 58.0794 44.1244 -4.1855 30.0625 36.2139
# 2 58.0794 94.1876 40.1037 23.2716 25.8075 29.8000
# 3 44.1244 40.1037 72.5988 4.8319 13.6358 6.1356
# 4 -4.1855 23.2716 4.8319 32.3626 8.5303 5.5439
# 5 30.0625 25.8075 13.6358 8.5303 52.1269 4.5783
# 6 36.2139 29.8000 6.1356 5.5439 4.5783 66.9831
#
#
#
# Elastic Compliance Matrix: (Units=1/GPa)
#
#
# Indices 1 2 3 4 5 6 
#
# 1 0.009296 -0.004035 -0.002926 0.005962 -0.003289 -0.003231
# 2 -0.004035 0.022883 -0.008002 -0.013685 -0.004155 -0.005849
# 3 -0.002926 -0.008002 0.019589 0.001923 -0.000070 0.003194
# 4 0.005962 -0.013685 0.001923 0.042386 -0.004054 -0.000542
# 5 -0.003289 -0.004155 -0.000070 -0.004054 0.023613 0.002355
# 6 -0.003231 -0.005849 0.003194 -0.000542 0.002355 0.018869
#
#
# Mechanical properties :
#
#
# Convention : Reuss Voigt Hill
#
# Bulk Modulus (GPa) = 45.78973 69.33235 57.56104
# Shear Modulus (GPa) = 28.76127 43.43243 36.09685
#
# Velocity S-wave (km/s) = 3.32232 4.08268 3.72197
# Velocity P-wave (km/s) = 5.68243 6.98801 6.36877
#
# Compressibility (1/GPa) = 0.02183896
#
# Stress axis : x y z
#
# Youngs Moduli (GPa) = 107.57620 43.70002 51.04967
#
# Poissons Ratio (x) = 0.17635 0.14940
# Poissons Ratio (y) = 0.43412 0.40852
# Poissons Ratio (z) = 0.31482 0.34971
#
# Static dielectric constant tensor:
#      x y z
#    x 1.968520 0.004620 -0.024890 
#    y 0.004620 1.725640 0.033880 
#    z -0.024890 0.033880 2.163390 
# 
# From -- ./inp_files/158904.got.cif
#   From: 2010.05.17/outbox.cif.g08.bks.cpg/sg2_80_cif.got.tgz:158904.got - 2010.06.03 11:33:40.
