data_PCOD9034301
_publ_section_title
;
Structure prediction by ZEFSAII (Michael W. Deem and Ramdas Pophale) SiO2 
 PCOD9034301
Probable space group: P -1
;
_chemical_formula_sum "Si O2"
_cell_formula_units_Z 14
_cell_length_a 15.637420
_cell_length_b 21.219088
_cell_length_c 12.938487
_cell_angle_alpha 152.707862
_cell_angle_beta 153.530537
_cell_angle_gamma 21.729754
_cell_volume 664.656683
_symmetry_space_group_name_H-M "P -1"
_symmetry_group_IT_number 2
_symmetry_cell_setting 'triclinic'
loop_
_space_group_symop_operation_xyz
x,y,z
-x,-y,-z
loop_
_atom_site_type_symbol
_atom_site_label
_atom_site_fract_x
_atom_site_fract_y
_atom_site_fract_z
Si Si1 0.815800 0.967549 0.790375
Si Si2 0.992974 0.126103 0.908950
Si Si3 0.281812 0.311962 0.018946
Si Si4 0.274434 0.286200 0.739208
Si Si5 0.284678 0.901018 0.699921
Si Si6 0.386607 0.943484 0.644196
Si Si7 0.964436 0.609001 0.721357
O O1 0.831799 0.819923 0.527660
O O2 0.527141 0.154974 0.752121
O O3 0.890648 0.900020 0.891288
O O4 0.000000 0.000000 0.000000
O O5 0.803164 0.085902 0.646500
O O6 0.209969 0.996566 0.870434
O O7 0.882066 0.321343 0.031420
O O8 0.346641 0.301210 0.953093
O O9 0.294253 0.141540 0.808710
O O10 0.472249 0.297513 0.285339
O O11 0.000000 0.500000 0.000000
O O12 0.076637 0.478346 0.750620
O O13 0.383994 0.926660 0.741156
O O14 0.000000 0.000000 0.500000
O O15 0.667534 0.780269 0.667772
O O16 0.000000 0.500000 0.500000
#
# Coordination Sequence:
#
# PCOD9034301 Si02
#       7
#     2   2   2   2   2   2   2
#     4  11  23  42  70  95 139 178 223 285 351 402
#     4  11  23  44  70  99 136 179 229 282 343 414
#     4  12  24  44  75 102 139 182 231 290 352 409
#     4  11  25  42  65 105 135 177 230 282 344 408
#     4  10  22  44  72  99 135 185 229 281 346 413
#     4  11  25  44  72  98 138 184 228 283 347 408
#     4  12  25  43  71 100 140 182 230 279 341 416
#
# _framework density 21.063506
#
# number of rings (size 3 to 8) (size 9 to 14) (size 15 to 20)
#    0.000    0.857    4.286    2.143    6.000    1.714 
#    0.000    5.714    0.000    0.000    0.000    0.000 
#    0.000    0.000    0.000    0.000    0.000    0.000 
#
# Total GULP energy -78038.245433 kJ/mol
# GULP energy per Si atom -5574.160388 kJ/mol
# Density = 2.101556 g / cm^3
# Si number density = 21.063506 Si / 1000 Ang^3
#
#
#
# Elastic Constant Matrix: (Units=GPa)
#
#
# Indices 1 2 3 4 5 6 
#
# 1 81.3914 31.4173 13.0283 5.4828 -13.1061 -0.7864
# 2 31.4173 143.7897 35.7143 -3.5401 5.9879 7.9639
# 3 13.0283 35.7143 64.7160 -22.8891 13.1354 -2.5224
# 4 5.4828 -3.5401 -22.8891 26.7346 9.0686 -0.6159
# 5 -13.1061 5.9879 13.1354 9.0686 44.1500 -12.0072
# 6 -0.7864 7.9639 -2.5224 -0.6159 -12.0072 26.2147
#
#
#
# Elastic Compliance Matrix: (Units=1/GPa)
#
#
# Indices 1 2 3 4 5 6 
#
# 1 0.019313 -0.002649 -0.012558 -0.020295 0.015896 0.006980
# 2 -0.002649 0.009046 -0.005340 -0.002603 -0.000931 -0.003829
# 3 -0.012558 -0.005340 0.043234 0.048027 -0.027363 -0.005999
# 4 -0.020295 -0.002603 0.048027 0.096734 -0.043299 -0.012756
# 5 0.015896 -0.000931 -0.027363 -0.043299 0.049968 0.019997
# 6 0.006980 -0.003829 -0.005999 -0.012756 0.019997 0.047801
#
#
# Mechanical properties :
#
#
# Convention : Reuss Voigt Hill
#
# Bulk Modulus (GPa) = 32.78832 50.02409 41.40620
# Shear Modulus (GPa) = 15.75505 33.40234 24.57869
#
# Velocity S-wave (km/s) = 2.73789 3.98652 3.41968
# Velocity P-wave (km/s) = 5.05914 6.70750 5.94077
#
# Compressibility (1/GPa) = 0.03049867
#
# Stress axis : x y z
#
# Youngs Moduli (GPa) = 51.77831 110.54003 23.12999
#
# Poissons Ratio (x) = 0.29279 0.29048
# Poissons Ratio (y) = 0.13715 0.12352
# Poissons Ratio (z) = 0.65026 0.59031
#
# Static dielectric constant tensor:
#      x y z
#    x 1.752470 -0.030310 0.012090 
#    y -0.030310 2.092720 -0.114960 
#    z 0.012090 -0.114960 1.873810 
# 
# From -- ./inp_files/305333.got.cif
#   From: 2010.05.17/outbox.cif.g08.bks.cpg/sg2_153_cif.got.tgz:305333.got - 2010.06.03 11:33:40.
