data_PCOD9034103
_publ_section_title
;
Structure prediction by ZEFSAII (Michael W. Deem and Ramdas Pophale) SiO2 
 PCOD9034103
Probable space group: P -1
;
_chemical_formula_sum "Si O2"
_cell_formula_units_Z 11
_cell_length_a 4.682611
_cell_length_b 8.281247
_cell_length_c 17.846225
_cell_angle_alpha 37.093181
_cell_angle_beta 100.834986
_cell_angle_gamma 91.652947
_cell_volume 401.278927
_symmetry_space_group_name_H-M "P -1"
_symmetry_group_IT_number 2
_symmetry_cell_setting 'triclinic'
loop_
_space_group_symop_operation_xyz
x,y,z
-x,-y,-z
loop_
_atom_site_type_symbol
_atom_site_label
_atom_site_fract_x
_atom_site_fract_y
_atom_site_fract_z
Si Si1 0.500000 0.000000 0.500000
Si Si2 0.220561 0.095038 0.728753
Si Si3 0.400823 0.828004 0.684420
Si Si4 0.844040 0.793728 0.914321
Si Si5 0.747026 0.736963 0.092263
Si Si6 0.048859 0.574656 0.641450
O O1 0.689021 0.887076 0.634771
O O2 0.724718 0.752811 0.552132
O O3 0.269832 0.031369 0.667943
O O4 0.487977 0.883289 0.861138
O O5 0.932844 0.010314 0.781248
O O6 0.195052 0.404472 0.640721
O O7 0.400674 0.530049 0.828785
O O8 0.263167 0.776273 0.609864
O O9 0.919725 0.790231 0.007060
O O10 0.000000 0.500000 0.000000
O O11 0.939243 0.644847 0.209977
O O12 0.500000 0.000000 0.000000
#
# Coordination Sequence:
#
# PCOD9034103 Si02
#       6
#     1   2   2   2   2   2
#     4  12  26  48  80  94 150 194 258 304 368 426
#     4  12  27  45  76 110 149 192 248 298 382 430
#     4  10  26  48  70 108 141 195 242 313 356 443
#     4  12  24  43  71 115 153 192 233 302 370 457
#     4  10  22  44  71 107 150 186 236 302 371 439
#     4  10  26  47  70 107 144 194 247 305 361 442
#
# _framework density 27.412354000000001
#
# number of rings (size 3 to 8) (size 9 to 14) (size 15 to 20)
#    1.091    0.000    3.636    1.091   10.182    1.455 
#    0.000    1.818    0.000    0.000    0.000    0.000 
#    0.000    0.000    0.000    0.000    0.000    0.000 
#
# Total GULP energy -61396.558683 kJ/mol
# GULP energy per Si atom -5581.505335 kJ/mol
# Density = 2.734996 g / cm^3
# Si number density = 27.412354 Si / 1000 Ang^3
#
#
#
# Elastic Constant Matrix: (Units=GPa)
#
#
# Indices 1 2 3 4 5 6 
#
# 1 74.3523 53.3209 28.9076 1.3835 -3.8805 -6.7027
# 2 53.3209 285.0730 95.9161 -11.1113 -15.7882 -45.5263
# 3 28.9076 95.9161 125.8804 -8.0676 -16.9211 -15.2966
# 4 1.3835 -11.1113 -8.0676 70.2491 -27.6983 -6.1428
# 5 -3.8805 -15.7882 -16.9211 -27.6983 61.5387 0.0750
# 6 -6.7027 -45.5263 -15.2966 -6.1428 0.0750 35.7972
#
#
#
# Elastic Compliance Matrix: (Units=1/GPa)
#
#
# Indices 1 2 3 4 5 6 
#
# 1 0.015989 -0.002645 -0.002049 -0.001447 -0.000883 -0.001492
# 2 -0.002645 0.006188 -0.003032 0.001786 0.001383 0.006383
# 3 -0.002049 -0.003032 0.011429 0.002241 0.003243 0.001022
# 4 -0.001447 0.001786 0.002241 0.019126 0.009584 0.006221
# 5 -0.000883 0.001383 0.003243 0.009584 0.021749 0.004579
# 6 -0.001492 0.006383 0.001022 0.006221 0.004579 0.037268
#
#
# Mechanical properties :
#
#
# Convention : Reuss Voigt Hill
#
# Bulk Modulus (GPa) = 55.08387 93.51056 74.29722
# Shear Modulus (GPa) = 37.52255 53.99441 45.75848
#
# Velocity S-wave (km/s) = 3.70377 4.44296 4.09010
# Velocity P-wave (km/s) = 6.19909 7.77859 7.03332
#
# Compressibility (1/GPa) = 0.01815413
#
# Stress axis : x y z
#
# Youngs Moduli (GPa) = 62.54203 161.59681 87.50030
#
# Poissons Ratio (x) = 0.42738 0.17933
# Poissons Ratio (y) = 0.16541 0.26528
# Poissons Ratio (z) = 0.12818 0.48992
#
# Static dielectric constant tensor:
#      x y z
#    x 2.153300 0.159170 -0.005720 
#    y 0.159170 2.110090 0.030380 
#    z -0.005720 0.030380 2.327370 
# 
# From -- ./inp_files/546386.got.cif
#   From: 2010.05.17/outbox.cif.g08.bks.cpg/sg2_274_cif.got.tgz:546386.got - 2010.06.03 11:33:40.
