data_PCOD9034351
_publ_section_title
;
Structure prediction by ZEFSAII (Michael W. Deem and Ramdas Pophale) SiO2 
 PCOD9034351
Probable space group: P -1
;
_chemical_formula_sum "Si O2"
_cell_formula_units_Z 16
_cell_length_a 5.150424
_cell_length_b 12.782151
_cell_length_c 11.915658
_cell_angle_alpha 108.346317
_cell_angle_beta 98.997088
_cell_angle_gamma 65.938271
_cell_volume 679.522027
_symmetry_space_group_name_H-M "P -1"
_symmetry_group_IT_number 2
_symmetry_cell_setting 'triclinic'
loop_
_space_group_symop_operation_xyz
x,y,z
-x,-y,-z
loop_
_atom_site_type_symbol
_atom_site_label
_atom_site_fract_x
_atom_site_fract_y
_atom_site_fract_z
Si Si1 0.984517 0.570721 0.846560
Si Si2 0.495442 0.254292 0.246939
Si Si3 0.253486 0.550243 0.618430
Si Si4 0.501364 0.789474 0.178419
Si Si5 0.661329 0.695101 0.512678
Si Si6 0.682985 0.080455 0.023859
Si Si7 0.308168 0.926332 0.432264
Si Si8 0.148727 0.630276 0.119338
O O1 0.773643 0.701132 0.837830
O O2 0.135204 0.523473 0.721683
O O3 0.822298 0.486484 0.847160
O O4 0.137994 0.591399 0.975248
O O5 0.590695 0.363869 0.307466
O O6 0.427781 0.225141 0.355212
O O7 0.708712 0.145727 0.161223
O O8 0.430639 0.418183 0.540522
O O9 0.998418 0.623123 0.538499
O O10 0.420808 0.833537 0.060948
O O11 0.335708 0.897872 0.290222
O O12 0.847373 0.729765 0.177387
O O13 0.388796 0.684242 0.161925
O O14 0.493266 0.790499 0.441165
O O15 0.500000 0.000000 0.000000
O O16 0.000000 0.000000 0.000000
O O17 0.500000 0.000000 0.500000
O O18 0.000000 0.000000 0.500000
#
# Coordination Sequence:
#
# PCOD9034351 Si02
#       8
#     2   2   2   2   2   2   2   2
#     4  10  23  38  68 106 145 180 231 284 370 436
#     4  11  24  43  74 102 144 180 248 301 367 435
#     4  10  22  44  73 108 142 189 245 309 374 430
#     4  12  26  49  71 103 144 184 247 291 362 430
#     4  10  25  44  71 106 144 192 247 306 368 431
#     4  12  29  46  76 103 141 190 242 303 357 425
#     4  12  30  49  74 104 147 200 250 301 363 440
#     4  11  24  42  71 108 145 188 221 297 366 441
#
# _framework density 23.545960000000001
#
# number of rings (size 3 to 8) (size 9 to 14) (size 15 to 20)
#    0.000    1.000    1.250    3.375   12.250    1.000 
#    0.000    0.000    0.000    0.000    0.000    0.000 
#    0.000    0.000    0.000    0.000    0.000    0.000 
#
# Total GULP energy -89281.877738 kJ/mol
# GULP energy per Si atom -5580.117359 kJ/mol
# Density = 2.349237 g / cm^3
# Si number density = 23.545960 Si / 1000 Ang^3
#
#
#
# Elastic Constant Matrix: (Units=GPa)
#
#
# Indices 1 2 3 4 5 6 
#
# 1 93.2282 15.1190 34.4284 3.9807 -9.5699 -1.5581
# 2 15.1190 58.7642 8.9493 10.2901 -0.3430 -4.5448
# 3 34.4284 8.9493 115.9951 29.4664 -22.4110 -3.6620
# 4 3.9807 10.2901 29.4664 46.5849 -5.4751 -2.2581
# 5 -9.5699 -0.3430 -22.4110 -5.4751 36.4034 11.1766
# 6 -1.5581 -4.5448 -3.6620 -2.2581 11.1766 34.1412
#
#
#
# Elastic Compliance Matrix: (Units=1/GPa)
#
#
# Indices 1 2 3 4 5 6 
#
# 1 0.012683 -0.003096 -0.003808 0.002153 0.001462 -0.000578
# 2 -0.003096 0.018699 0.000228 -0.004107 -0.001957 0.002741
# 3 -0.003808 0.000228 0.012677 -0.007085 0.006126 -0.001258
# 4 0.002153 -0.004107 -0.007085 0.026699 0.000011 0.000554
# 5 0.001462 -0.001957 0.006126 0.000011 0.034982 -0.010988
# 6 -0.000578 0.002741 -0.001258 0.000554 -0.010988 0.033127
#
#
# Mechanical properties :
#
#
# Convention : Reuss Voigt Hill
#
# Bulk Modulus (GPa) = 32.56615 42.77567 37.67091
# Shear Modulus (GPa) = 30.77734 37.39195 34.08464
#
# Velocity S-wave (km/s) = 3.61933 3.98935 3.80883
# Velocity P-wave (km/s) = 5.59705 6.27903 5.94782
#
# Compressibility (1/GPa) = 0.03070673
#
# Stress axis : x y z
#
# Youngs Moduli (GPa) = 78.84328 53.47926 78.87996
#
# Poissons Ratio (x) = 0.16559 0.30040
# Poissons Ratio (y) = 0.24413 -0.01800
# Poissons Ratio (z) = 0.30026 -0.01221
#
# Static dielectric constant tensor:
#      x y z
#    x 1.976130 -0.002500 -0.083330 
#    y -0.002500 1.895500 -0.103030 
#    z -0.083330 -0.103030 2.097190 
# 
# From -- ./inp_files/365055.got.cif
#   From: 2010.05.17/outbox.cif.g08.bks.cpg/sg2_183_cif.got.tgz:365055.got - 2010.06.03 11:33:40.
