data_PCOD9034202
_publ_section_title
;
Structure prediction by ZEFSAII (Michael W. Deem and Ramdas Pophale) SiO2 
 PCOD9034202
Probable space group: P -1
;
_chemical_formula_sum "Si O2"
_cell_formula_units_Z 13
_cell_length_a 12.560533
_cell_length_b 9.556963
_cell_length_c 8.604946
_cell_angle_alpha 48.466940
_cell_angle_beta 49.002335
_cell_angle_gamma 47.229718
_cell_volume 526.316680
_symmetry_space_group_name_H-M "P -1"
_symmetry_group_IT_number 2
_symmetry_cell_setting 'triclinic'
loop_
_space_group_symop_operation_xyz
x,y,z
-x,-y,-z
loop_
_atom_site_type_symbol
_atom_site_label
_atom_site_fract_x
_atom_site_fract_y
_atom_site_fract_z
Si Si1 0.679381 0.493667 0.173060
Si Si2 0.236335 0.363228 0.693514
Si Si3 0.146563 0.011773 0.167672
Si Si4 0.198816 0.943205 0.526130
Si Si5 0.500000 0.000000 0.500000
Si Si6 0.563381 0.293016 0.995260
Si Si7 0.078453 0.400606 0.336614
O O1 0.696387 0.559031 0.283355
O O2 0.686396 0.263865 0.344993
O O3 0.519866 0.649474 0.133012
O O4 0.816148 0.507296 0.923529
O O5 0.364224 0.232058 0.538743
O O6 0.076140 0.558356 0.647843
O O7 0.172443 0.204409 0.940295
O O8 0.212488 0.962208 0.315345
O O9 0.250244 0.809272 0.119019
O O10 0.968163 0.059833 0.292634
O O11 0.186878 0.158173 0.444682
O O12 0.524278 0.122415 0.240942
O O13 0.500000 0.500000 0.000000
O O14 0.000000 0.500000 0.500000
#
# Coordination Sequence:
#
# PCOD9034202 Si02
#       7
#     2   2   2   2   1   2   2
#     4  12  26  46  76 105 140 193 239 298 352 432
#     4  11  22  48  72 105 146 187 245 288 362 419
#     4  10  22  44  72 102 141 191 230 297 346 433
#     4  11  24  43  74 104 139 184 243 289 356 418
#     4  10  26  46  74  98 150 190 226 300 356 426
#     4  11  28  48  69 104 146 187 240 293 362 419
#     4  12  26  44  74 106 144 190 236 299 361 420
#
# _framework density 24.699956
#
# number of rings (size 3 to 8) (size 9 to 14) (size 15 to 20)
#    0.000    0.923    3.077    3.231    6.462    7.385 
#    2.769    0.000    0.000    0.000    0.000    0.000 
#    0.000    0.000    0.000    0.000    0.000    0.000 
#
# Total GULP energy -72583.671966 kJ/mol
# GULP energy per Si atom -5583.359382 kJ/mol
# Density = 2.464374 g / cm^3
# Si number density = 24.699956 Si / 1000 Ang^3
#
#
#
# Elastic Constant Matrix: (Units=GPa)
#
#
# Indices 1 2 3 4 5 6 
#
# 1 63.0991 -5.7418 3.2606 5.4884 2.6597 -6.1287
# 2 -5.7418 112.4297 32.3763 -5.3659 -8.2127 -6.2173
# 3 3.2606 32.3763 103.4801 -10.8164 7.8401 -8.9259
# 4 5.4884 -5.3659 -10.8164 52.5989 -2.7792 4.1045
# 5 2.6597 -8.2127 7.8401 -2.7792 15.3790 -0.7980
# 6 -6.1287 -6.2173 -8.9259 4.1045 -0.7980 26.5750
#
#
#
# Elastic Compliance Matrix: (Units=1/GPa)
#
#
# Indices 1 2 3 4 5 6 
#
# 1 0.016653 0.000960 -0.000522 -0.002192 -0.002282 0.004160
# 2 0.000960 0.010699 -0.003766 0.000495 0.007640 0.001613
# 3 -0.000522 -0.003766 0.011802 0.001504 -0.007536 0.002504
# 4 -0.002192 0.000495 0.001504 0.020001 0.003342 -0.002874
# 5 -0.002282 0.007640 -0.007536 0.003342 0.073966 0.000435
# 6 0.004160 0.001613 0.002504 -0.002874 0.000435 0.040264
#
#
# Mechanical properties :
#
#
# Convention : Reuss Voigt Hill
#
# Bulk Modulus (GPa) = 30.77154 37.64436 34.20795
# Shear Modulus (GPa) = 26.19510 35.51815 30.85663
#
# Velocity S-wave (km/s) = 3.26011 3.79619 3.53832
# Velocity P-wave (km/s) = 5.16297 5.87269 5.52923
#
# Compressibility (1/GPa) = 0.03249756
#
# Stress axis : x y z
#
# Youngs Moduli (GPa) = 60.04814 93.46916 84.72819
#
# Poissons Ratio (x) = -0.08970 0.04427
# Poissons Ratio (y) = -0.05763 0.31906
# Poissons Ratio (z) = 0.03137 0.35197
#
# Static dielectric constant tensor:
#      x y z
#    x 2.024180 -0.001310 -0.010620 
#    y -0.001310 2.001120 0.007970 
#    z -0.010620 0.007970 1.905330 
# 
# From -- ./inp_files/241835.got.cif
#   From: 2010.05.17/outbox.cif.g08.bks.cpg/sg2_121_cif.got.tgz:241835.got - 2010.06.03 11:33:40.
