data_PCOD9034268
_publ_section_title
;
Structure prediction by ZEFSAII (Michael W. Deem and Ramdas Pophale) SiO2 
 PCOD9034268
Probable space group: P -1
;
_chemical_formula_sum "Si O2"
_cell_formula_units_Z 13
_cell_length_a 13.166762
_cell_length_b 10.384697
_cell_length_c 7.782424
_cell_angle_alpha 45.046077
_cell_angle_beta 44.773053
_cell_angle_gamma 45.741762
_cell_volume 487.494511
_symmetry_space_group_name_H-M "P -1"
_symmetry_group_IT_number 2
_symmetry_cell_setting 'triclinic'
loop_
_space_group_symop_operation_xyz
x,y,z
-x,-y,-z
loop_
_atom_site_type_symbol
_atom_site_label
_atom_site_fract_x
_atom_site_fract_y
_atom_site_fract_z
Si Si1 0.500000 0.500000 0.500000
Si Si2 0.279061 0.704369 0.888259
Si Si3 0.190565 0.520466 0.703773
Si Si4 0.898751 0.719685 0.687705
Si Si5 0.976587 0.099312 0.216617
Si Si6 0.335733 0.292586 0.308926
Si Si7 0.330986 0.970080 0.848078
O O1 0.362065 0.628160 0.679216
O O2 0.365045 0.508065 0.509379
O O3 0.093355 0.800675 0.977147
O O4 0.331308 0.859953 0.771761
O O5 0.324462 0.512720 0.131860
O O6 0.085044 0.722735 0.742687
O O7 0.078000 0.558284 0.637601
O O8 0.188026 0.339017 0.993946
O O9 0.803749 0.701563 0.652900
O O10 0.903070 0.935842 0.481945
O O11 0.164279 0.997570 0.099007
O O12 0.504850 0.164121 0.134623
O O13 0.333401 0.178598 0.593492
#
# Coordination Sequence:
#
# PCOD9034268 Si02
#       7
#     1   2   2   2   2   2   2
#     4  10  22  44  72  94 130 174 224 264 330 402
#     4  11  23  45  68  97 133 175 220 274 333 392
#     4  10  24  45  66 104 133 173 222 271 337 391
#     4  11  22  43  68  99 137 171 223 274 330 392
#     4  11  23  43  70  97 132 176 220 273 332 394
#     4  11  24  46  64  98 138 173 226 269 328 396
#     4  11  26  45  66  99 134 177 224 271 329 392
#
# _framework density 26.666968000000001
#
# number of rings (size 3 to 8) (size 9 to 14) (size 15 to 20)
#    0.000    1.231    4.615    1.385    2.154    1.846 
#   11.077    4.615    0.000    0.000    0.000    0.000 
#    0.000    0.000    0.000    0.000    0.000    0.000 
#
# Total GULP energy -72596.792500 kJ/mol
# GULP energy per Si atom -5584.368654 kJ/mol
# Density = 2.660627 g / cm^3
# Si number density = 26.666968 Si / 1000 Ang^3
#
#
#
# Elastic Constant Matrix: (Units=GPa)
#
#
# Indices 1 2 3 4 5 6 
#
# 1 161.2037 27.4059 19.6363 14.0956 -20.8960 -46.3426
# 2 27.4059 91.6414 43.2656 2.7994 -6.9082 -19.0257
# 3 19.6363 43.2656 79.5812 -10.5065 -12.0667 -6.1902
# 4 14.0956 2.7994 -10.5065 56.2302 -7.7252 -2.9014
# 5 -20.8960 -6.9082 -12.0667 -7.7252 37.2005 8.5754
# 6 -46.3426 -19.0257 -6.1902 -2.9014 8.5754 59.6448
#
#
#
# Elastic Compliance Matrix: (Units=1/GPa)
#
#
# Indices 1 2 3 4 5 6 
#
# 1 0.008644 -0.000527 -0.001206 -0.001696 0.002640 0.005961
# 2 -0.000527 0.015985 -0.008802 -0.002322 -0.001561 0.003887
# 3 -0.001206 -0.008802 0.018931 0.004897 0.005379 -0.002315
# 4 -0.001696 -0.002322 0.004897 0.019808 0.004606 -0.001249
# 5 0.002640 -0.001561 0.005379 0.004606 0.031274 -0.002161
# 6 0.005961 0.003887 -0.002315 -0.001249 -0.002161 0.022647
#
#
# Mechanical properties :
#
#
# Convention : Reuss Voigt Hill
#
# Bulk Modulus (GPa) = 44.46382 57.00467 50.73425
# Shear Modulus (GPa) = 34.28050 46.75634 40.51842
#
# Velocity S-wave (km/s) = 3.58928 4.19184 3.90221
# Velocity P-wave (km/s) = 5.82127 6.69713 6.27450
#
# Compressibility (1/GPa) = 0.02249019
#
# Stress axis : x y z
#
# Youngs Moduli (GPa) = 115.68777 62.55677 52.82459
#
# Poissons Ratio (x) = 0.03298 0.06371
# Poissons Ratio (y) = 0.06100 0.46494
# Poissons Ratio (z) = 0.13953 0.55060
#
# Static dielectric constant tensor:
#      x y z
#    x 2.117930 -0.012590 0.068350 
#    y -0.012590 2.070490 0.008650 
#    z 0.068350 0.008650 2.118960 
# 
# From -- ./inp_files/299966.got.cif
#   From: 2010.05.17/outbox.cif.g08.bks.cpg/sg2_150_cif.got.tgz:299966.got - 2010.06.03 11:33:40.
