data_PCOD9034903
_publ_section_title
;
Structure prediction by ZEFSAII (Michael W. Deem and Ramdas Pophale) SiO2 
 PCOD9034903
Probable space group: P -1
;
_chemical_formula_sum "Si O2"
_cell_formula_units_Z 14
_cell_length_a 12.015248
_cell_length_b 11.906424
_cell_length_c 8.161970
_cell_angle_alpha 111.316307
_cell_angle_beta 120.109485
_cell_angle_gamma 37.408923
_cell_volume 612.269370
_symmetry_space_group_name_H-M "P -1"
_symmetry_group_IT_number 2
_symmetry_cell_setting 'triclinic'
loop_
_space_group_symop_operation_xyz
x,y,z
-x,-y,-z
loop_
_atom_site_type_symbol
_atom_site_label
_atom_site_fract_x
_atom_site_fract_y
_atom_site_fract_z
Si Si1 0.602432 0.041329 0.323879
Si Si2 0.585798 0.432897 0.845790
Si Si3 0.140864 0.544164 0.958905
Si Si4 0.050187 0.325216 0.453150
Si Si5 0.232856 0.224798 0.981905
Si Si6 0.838726 0.101093 0.650049
Si Si7 0.834373 0.286610 0.456515
O O1 0.678327 0.121154 0.464869
O O2 0.675799 0.948941 0.147387
O O3 0.372035 0.173890 0.206637
O O4 0.723347 0.872575 0.452674
O O5 0.751001 0.214175 0.813788
O O6 0.396517 0.540390 0.652350
O O7 0.500000 0.500000 0.000000
O O8 0.678110 0.495747 0.901226
O O9 0.038699 0.657699 0.774727
O O10 0.211332 0.355242 0.915032
O O11 0.974779 0.665460 0.039050
O O12 0.933128 0.344876 0.526229
O O13 0.000000 0.500000 0.500000
O O14 0.865022 0.197298 0.602259
O O15 0.045618 0.882661 0.675966
#
# Coordination Sequence:
#
# PCOD9034903 Si02
#       7
#     2   2   2   2   2   2   2
#     4  10  22  45  69 103 133 178 234 286 347 411
#     4  12  25  44  67 101 141 184 228 282 348 409
#     4  11  24  42  65 103 138 184 228 283 348 415
#     4  11  22  41  66  98 138 179 222 288 348 405
#     4  10  23  43  72  99 135 183 232 285 343 417
#     4  10  24  43  72 101 132 187 231 285 337 422
#     4  10  23  44  68 100 135 178 233 285 342 409
#
# _framework density 22.865752000000001
#
# number of rings (size 3 to 8) (size 9 to 14) (size 15 to 20)
#    0.000    1.429    2.857    1.286    6.000    2.286 
#    0.000    1.429    0.000    0.000    0.000    0.000 
#    0.000    0.000    0.000    0.000    0.000    0.000 
#
# Total GULP energy -78228.568722 kJ/mol
# GULP energy per Si atom -5587.754909 kJ/mol
# Density = 2.281371 g / cm^3
# Si number density = 22.865752 Si / 1000 Ang^3
#
#
#
# Elastic Constant Matrix: (Units=GPa)
#
#
# Indices 1 2 3 4 5 6 
#
# 1 134.3976 44.2865 23.1747 11.4997 14.4836 14.3148
# 2 44.2865 79.2580 18.9162 4.9436 -5.3257 0.5111
# 3 23.1747 18.9162 64.2979 -1.4373 -0.9288 7.0963
# 4 11.4997 4.9436 -1.4373 54.0801 0.4739 -4.0803
# 5 14.4836 -5.3257 -0.9288 0.4739 25.6462 -1.2393
# 6 14.3148 0.5111 7.0963 -4.0803 -1.2393 41.1297
#
#
#
# Elastic Compliance Matrix: (Units=1/GPa)
#
#
# Indices 1 2 3 4 5 6 
#
# 1 0.011274 -0.006203 -0.001963 -0.002112 -0.007878 -0.003955
# 2 -0.006203 0.017283 -0.003045 -0.000203 0.007115 0.002664
# 3 -0.001963 -0.003045 0.017430 0.000988 0.000985 -0.002159
# 4 -0.002112 -0.000203 0.000988 0.019165 0.000953 0.002497
# 5 -0.007878 0.007115 0.000985 0.000953 0.045127 0.003938
# 6 -0.003955 0.002664 -0.002159 0.002497 0.003938 0.026396
#
#
# Mechanical properties :
#
#
# Convention : Reuss Voigt Hill
#
# Bulk Modulus (GPa) = 42.43390 50.07870 46.25630
# Shear Modulus (GPa) = 29.94853 36.94293 33.44573
#
# Velocity S-wave (km/s) = 3.62298 4.02387 3.82867
# Velocity P-wave (km/s) = 6.00828 6.59829 6.31018
#
# Compressibility (1/GPa) = 0.02356607
#
# Stress axis : x y z
#
# Youngs Moduli (GPa) = 88.69835 57.85904 57.37092
#
# Poissons Ratio (x) = 0.35891 0.11262
# Poissons Ratio (y) = 0.55022 0.17467
# Poissons Ratio (z) = 0.17412 0.17616
#
# Static dielectric constant tensor:
#      x y z
#    x 1.817290 -0.015900 0.008960 
#    y -0.015900 1.885850 0.036650 
#    z 0.008960 0.036650 1.939650 
# 
# From -- ./inp_files/259596.got.cif
#   From: 2010.05.17/outbox.cif.g08.bks.cpg/sg2_130_cif.got.tgz:259596.got - 2010.06.03 11:33:40.
