data_PCOD9034246
_publ_section_title
;
Structure prediction by ZEFSAII (Michael W. Deem and Ramdas Pophale) SiO2 
 PCOD9034246
Probable space group: P -1
;
_chemical_formula_sum "Si O2"
_cell_formula_units_Z 15
_cell_length_a 6.742240
_cell_length_b 16.991755
_cell_length_c 11.167837
_cell_angle_alpha 44.857630
_cell_angle_beta 59.311129
_cell_angle_gamma 46.982021
_cell_volume 658.914527
_symmetry_space_group_name_H-M "P -1"
_symmetry_group_IT_number 2
_symmetry_cell_setting 'triclinic'
loop_
_space_group_symop_operation_xyz
x,y,z
-x,-y,-z
loop_
_atom_site_type_symbol
_atom_site_label
_atom_site_fract_x
_atom_site_fract_y
_atom_site_fract_z
Si Si1 0.800641 0.908385 0.555608
Si Si2 0.307741 0.555207 0.383488
Si Si3 0.822339 0.661618 0.742821
Si Si4 0.328712 0.365764 0.919647
Si Si5 0.638450 0.879743 0.899265
Si Si6 0.315799 0.321477 0.496083
Si Si7 0.000000 0.000000 0.000000
Si Si8 0.210000 0.940154 0.254874
O O1 0.916491 0.765073 0.616012
O O2 0.765071 0.895956 0.720102
O O3 0.983167 0.962548 0.396322
O O4 0.500000 0.000000 0.500000
O O5 0.500000 0.500000 0.500000
O O6 0.394837 0.644522 0.191132
O O7 0.355919 0.434578 0.415801
O O8 0.995335 0.633483 0.433204
O O9 0.648300 0.690417 0.645547
O O10 0.082928 0.514700 0.817145
O O11 0.665541 0.673034 0.901806
O O12 0.273818 0.271329 0.957862
O O13 0.750718 0.936694 0.900769
O O14 0.313237 0.959361 0.907697
O O15 0.515183 0.185614 0.646865
O O16 0.123233 0.920230 0.173944
#
# Coordination Sequence:
#
# PCOD9034246 Si02
#       8
#     2   2   2   2   2   2   1   2
#     4  11  22  47  77 101 141 189 240 302 359 425
#     4  11  24  45  71 106 146 193 232 292 360 423
#     4  10  22  44  72 109 138 183 239 290 362 412
#     4  10  23  45  73 100 151 185 229 297 353 429
#     4  11  26  45  72 107 139 193 240 292 370 422
#     4  11  26  43  73 110 136 188 250 286 357 433
#     4  12  28  48  66 104 148 194 234 304 366 414
#     4  12  27  47  74 104 144 188 248 298 357 438
#
# _framework density 22.764713
#
# number of rings (size 3 to 8) (size 9 to 14) (size 15 to 20)
#    0.000    1.067    2.667    2.400    3.733    0.533 
#    2.400    0.000    0.000    0.000    0.000    0.000 
#    0.000    0.000    0.000    0.000    0.000    0.000 
#
# Total GULP energy -83730.963532 kJ/mol
# GULP energy per Si atom -5582.064235 kJ/mol
# Density = 2.271290 g / cm^3
# Si number density = 22.764713 Si / 1000 Ang^3
#
#
#
# Elastic Constant Matrix: (Units=GPa)
#
#
# Indices 1 2 3 4 5 6 
#
# 1 70.8124 32.0389 38.4513 3.5244 -19.6992 -15.9642
# 2 32.0389 68.5454 29.8547 1.2703 -19.2533 -9.2360
# 3 38.4513 29.8547 95.4605 13.1717 -20.6494 0.2635
# 4 3.5244 1.2703 13.1717 37.6532 3.5279 1.8093
# 5 -19.6992 -19.2533 -20.6494 3.5279 48.3189 -3.5218
# 6 -15.9642 -9.2360 0.2635 1.8093 -3.5218 26.2358
#
#
#
# Elastic Compliance Matrix: (Units=1/GPa)
#
#
# Indices 1 2 3 4 5 6 
#
# 1 0.025446 -0.004926 -0.007208 -0.001010 0.006480 0.014761
# 2 -0.004926 0.020422 -0.003361 0.000242 0.005031 0.004884
# 3 -0.007208 -0.003361 0.015594 -0.004643 0.002354 -0.005090
# 4 -0.001010 0.000242 -0.004643 0.028851 -0.004632 -0.003094
# 5 0.006480 0.005031 0.002354 -0.004632 0.027393 0.009687
# 6 0.014761 0.004884 -0.005090 -0.003094 0.009687 0.050382
#
#
# Mechanical properties :
#
#
# Convention : Reuss Voigt Hill
#
# Bulk Modulus (GPa) = 32.81867 48.38977 40.60422
# Shear Modulus (GPa) = 23.89639 31.40650 27.65144
#
# Velocity S-wave (km/s) = 3.24344 3.71834 3.48898
# Velocity P-wave (km/s) = 5.33613 6.30376 5.84002
#
# Compressibility (1/GPa) = 0.03047046
#
# Stress axis : x y z
#
# Youngs Moduli (GPa) = 39.29954 48.96649 64.12636
#
# Poissons Ratio (x) = 0.24121 0.46225
# Poissons Ratio (y) = 0.19359 0.21554
# Poissons Ratio (z) = 0.28329 0.16459
#
# Static dielectric constant tensor:
#      x y z
#    x 1.832000 0.053190 -0.026140 
#    y 0.053190 1.879930 -0.000280 
#    z -0.026140 -0.000280 1.832400 
# 
# From -- ./inp_files/363185.got.cif
#   From: 2010.05.17/outbox.cif.g08.bks.cpg/sg2_182_cif.got.tgz:363185.got - 2010.06.03 11:33:40.
