data_PCOD9034777
_publ_section_title
;
Structure prediction by ZEFSAII (Michael W. Deem and Ramdas Pophale) SiO2 
 PCOD9034777
Probable space group: P -1
;
_chemical_formula_sum "Si O2"
_cell_formula_units_Z 16
_cell_length_a 23.069979
_cell_length_b 12.655215
_cell_length_c 9.684084
_cell_angle_alpha 43.365071
_cell_angle_beta 147.376540
_cell_angle_gamma 153.452703
_cell_volume 677.131118
_symmetry_space_group_name_H-M "P -1"
_symmetry_group_IT_number 2
_symmetry_cell_setting 'triclinic'
loop_
_space_group_symop_operation_xyz
x,y,z
-x,-y,-z
loop_
_atom_site_type_symbol
_atom_site_label
_atom_site_fract_x
_atom_site_fract_y
_atom_site_fract_z
Si Si1 0.864887 0.263939 0.807108
Si Si2 0.366811 0.728973 0.544249
Si Si3 0.773259 0.594081 0.200373
Si Si4 0.577429 0.251287 0.907481
Si Si5 0.878035 0.022033 0.869233
Si Si6 0.695802 0.847858 0.392224
Si Si7 0.902392 0.215630 0.228488
Si Si8 0.734516 0.550783 0.670957
O O1 0.752507 0.284088 0.602548
O O2 0.809641 0.105474 0.717662
O O3 0.038043 0.542159 0.865422
O O4 0.866130 0.160874 0.045055
O O5 0.372111 0.600213 0.794619
O O6 0.294100 0.559802 0.428029
O O7 0.500000 0.000000 0.500000
O O8 0.951622 0.744928 0.479348
O O9 0.739032 0.444577 0.144750
O O10 0.787359 0.779690 0.990222
O O11 0.453056 0.242858 0.730830
O O12 0.631180 0.345257 0.772074
O O13 0.500000 0.000000 0.000000
O O14 0.842353 0.981994 0.673075
O O15 0.071325 0.233112 0.101116
O O16 0.667611 0.652025 0.452099
O O17 0.756644 0.026069 0.223514
#
# Coordination Sequence:
#
# PCOD9034777 Si02
#       8
#     2   2   2   2   2   2   2   2
#     4  10  25  43  71 105 143 181 239 288 351 420
#     4  11  27  47  73 105 146 189 233 292 358 426
#     4  11  24  46  70 104 142 181 239 288 354 418
#     4  12  29  46  68 101 147 191 237 290 354 425
#     4  12  25  45  75 109 142 184 237 299 348 419
#     4  12  27  44  72 105 145 187 239 286 361 419
#     4  10  22  45  68 102 139 183 237 289 345 419
#     4  12  25  48  73 102 145 187 236 294 350 422
#
# _framework density 23.629100999999999
#
# number of rings (size 3 to 8) (size 9 to 14) (size 15 to 20)
#    0.000    0.750    2.500    4.500   12.250    1.500 
#    0.000    1.250    0.000    0.000    0.000    0.000 
#    0.000    0.000    0.000    0.000    0.000    0.000 
#
# Total GULP energy -89492.265955 kJ/mol
# GULP energy per Si atom -5593.266622 kJ/mol
# Density = 2.357532 g / cm^3
# Si number density = 23.629101 Si / 1000 Ang^3
#
#
#
# Elastic Constant Matrix: (Units=GPa)
#
#
# Indices 1 2 3 4 5 6 
#
# 1 124.3653 54.0929 20.4333 -19.2115 -6.4384 -16.0593
# 2 54.0929 133.7408 13.4813 -28.8917 -4.0869 5.7995
# 3 20.4333 13.4813 39.6161 -12.3563 -1.3785 4.6826
# 4 -19.2115 -28.8917 -12.3563 36.2246 8.4773 -8.4470
# 5 -6.4384 -4.0869 -1.3785 8.4773 37.3788 -8.9069
# 6 -16.0593 5.7995 4.6826 -8.4470 -8.9069 53.8235
#
#
#
# Elastic Compliance Matrix: (Units=1/GPa)
#
#
# Indices 1 2 3 4 5 6 
#
# 1 0.011553 -0.003908 -0.004470 0.002148 0.002088 0.004940
# 2 -0.003908 0.010402 0.000603 0.006377 -0.001331 -0.001559
# 3 -0.004470 0.000603 0.030190 0.008197 -0.002189 -0.003101
# 4 0.002148 0.006377 0.008197 0.039150 -0.006482 0.004312
# 5 0.002088 -0.001331 -0.002189 -0.006482 0.029506 0.004822
# 6 0.004940 -0.001559 -0.003101 0.004312 0.004822 0.021966
#
#
# Mechanical properties :
#
#
# Convention : Reuss Voigt Hill
#
# Bulk Modulus (GPa) = 27.32694 52.63746 39.98220
# Shear Modulus (GPa) = 29.32316 39.46636 34.39476
#
# Velocity S-wave (km/s) = 3.52657 4.09130 3.81939
# Velocity P-wave (km/s) = 5.30776 6.68155 6.03388
#
# Compressibility (1/GPa) = 0.03659392
#
# Stress axis : x y z
#
# Youngs Moduli (GPa) = 86.55701 96.13799 33.12395
#
# Poissons Ratio (x) = 0.37575 0.14806
# Poissons Ratio (y) = 0.33831 -0.01998
# Poissons Ratio (z) = 0.38691 -0.05799
#
# Static dielectric constant tensor:
#      x y z
#    x 1.864310 0.066790 0.039340 
#    y 0.066790 1.987900 0.041340 
#    z 0.039340 0.041340 2.009000 
# 
# From -- ./inp_files/345986.got.cif
#   From: 2010.05.17/outbox.cif.g08.bks.cpg/sg2_173_cif.got.tgz:345986.got - 2010.06.03 11:33:40.
