data_PCOD9034162
_publ_section_title
;
Structure prediction by ZEFSAII (Michael W. Deem and Ramdas Pophale) SiO2 
 PCOD9034162
Probable space group: P -1
;
_chemical_formula_sum "Si O2"
_cell_formula_units_Z 16
_cell_length_a 10.961865
_cell_length_b 12.741394
_cell_length_c 5.309415
_cell_angle_alpha 73.367224
_cell_angle_beta 64.468575
_cell_angle_gamma 78.270386
_cell_volume 638.405528
_symmetry_space_group_name_H-M "P -1"
_symmetry_group_IT_number 2
_symmetry_cell_setting 'triclinic'
loop_
_space_group_symop_operation_xyz
x,y,z
-x,-y,-z
loop_
_atom_site_type_symbol
_atom_site_label
_atom_site_fract_x
_atom_site_fract_y
_atom_site_fract_z
Si Si1 0.454881 0.880065 0.060457
Si Si2 0.473095 0.255002 0.397415
Si Si3 0.999775 0.405504 0.770166
Si Si4 0.091740 0.987800 0.681388
Si Si5 0.303736 0.598050 0.793527
Si Si6 0.804894 0.208413 0.539546
Si Si7 0.745784 0.627853 0.158092
Si Si8 0.887109 0.777983 0.550484
O O1 0.487838 0.813593 0.335735
O O2 0.293610 0.866200 0.166322
O O3 0.526256 0.822712 0.791599
O O4 0.500000 0.000000 0.000000
O O5 0.583259 0.342755 0.201353
O O6 0.334900 0.323177 0.561998
O O7 0.107253 0.433834 0.865751
O O8 0.075232 0.290385 0.685868
O O9 0.000000 0.500000 0.500000
O O10 0.844633 0.387162 0.961886
O O11 0.170454 0.096690 0.530762
O O12 0.174128 0.869089 0.675107
O O13 0.000000 0.000000 0.500000
O O14 0.000000 0.000000 0.000000
O O15 0.274024 0.672238 0.517164
O O16 0.338256 0.468430 0.810945
O O17 0.959094 0.223463 0.470752
O O18 0.787933 0.717836 0.861151
#
# Coordination Sequence:
#
# PCOD9034162 Si02
#       8
#     2   2   2   2   2   2   2   2
#     4  11  26  50  75 105 140 196 251 304 364 443
#     4  11  28  48  75 104 149 194 245 305 368 442
#     4  12  23  39  72 103 145 189 247 302 367 433
#     4  10  23  40  63  99 136 181 229 294 364 427
#     4  11  22  47  68 105 145 195 249 295 366 443
#     4  10  22  44  71  98 142 188 243 303 364 434
#     4  12  26  43  69 109 150 193 245 307 369 439
#     4  11  23  41  67 105 144 189 239 307 374 437
#
# _framework density 25.062439000000001
#
# number of rings (size 3 to 8) (size 9 to 14) (size 15 to 20)
#    0.000    1.000    2.500    3.375    5.250    4.000 
#    0.000    3.750    0.000    0.000    0.000    0.000 
#    0.000    0.000    0.000    0.000    0.000    0.000 
#
# Total GULP energy -89442.988756 kJ/mol
# GULP energy per Si atom -5590.186797 kJ/mol
# Density = 2.500540 g / cm^3
# Si number density = 25.062439 Si / 1000 Ang^3
#
#
#
# Elastic Constant Matrix: (Units=GPa)
#
#
# Indices 1 2 3 4 5 6 
#
# 1 96.3272 31.2469 45.1136 2.5234 -26.0674 13.8896
# 2 31.2469 155.4628 61.9771 -4.2734 -22.5842 28.6133
# 3 45.1136 61.9771 141.9443 5.9313 -21.6890 21.1724
# 4 2.5234 -4.2734 5.9313 58.6757 -1.1538 -6.2846
# 5 -26.0674 -22.5842 -21.6890 -1.1538 44.7893 -5.3041
# 6 13.8896 28.6133 21.1724 -6.2846 -5.3041 27.4789
#
#
#
# Elastic Compliance Matrix: (Units=1/GPa)
#
#
# Indices 1 2 3 4 5 6 
#
# 1 0.014000 -0.000096 -0.002877 -0.000590 0.006254 -0.003687
# 2 -0.000096 0.009112 -0.002540 0.000229 0.002491 -0.006949
# 3 -0.002877 -0.002540 0.009868 -0.001414 0.001364 -0.003563
# 4 -0.000590 0.000229 -0.001414 0.017793 0.000168 0.005251
# 5 0.006254 0.002491 0.001364 0.000168 0.027720 -0.001418
# 6 -0.003687 -0.006949 -0.003563 0.005251 -0.001418 0.049164
#
#
# Mechanical properties :
#
#
# Convention : Reuss Voigt Hill
#
# Bulk Modulus (GPa) = 45.55383 74.48994 60.02189
# Shear Modulus (GPa) = 34.24649 43.21522 38.73086
#
# Velocity S-wave (km/s) = 3.70056 4.15698 3.93539
# Velocity P-wave (km/s) = 6.03941 7.26821 6.68211
#
# Compressibility (1/GPa) = 0.02195205
#
# Stress axis : x y z
#
# Youngs Moduli (GPa) = 71.43097 109.75085 101.33998
#
# Poissons Ratio (x) = 0.01051 0.29159
# Poissons Ratio (y) = 0.00684 0.25744
# Poissons Ratio (z) = 0.20553 0.27881
#
# Static dielectric constant tensor:
#      x y z
#    x 2.008640 -0.018590 -0.044030 
#    y -0.018590 2.027530 -0.012320 
#    z -0.044030 -0.012320 1.968300 
# 
# From -- ./inp_files/69614.got.cif
#   From: 2010.05.17/outbox.cif.g08.bks.cpg/sg2_35_cif.got.tgz:69614.got - 2010.06.03 11:33:40.
