data_PCOD9034940
_publ_section_title
;
Structure prediction by ZEFSAII (Michael W. Deem and Ramdas Pophale) SiO2 
 PCOD9034940
Probable space group: P -1
;
_chemical_formula_sum "Si O2"
_cell_formula_units_Z 12
_cell_length_a 13.036112
_cell_length_b 13.716884
_cell_length_c 8.152796
_cell_angle_alpha 103.945790
_cell_angle_beta 125.232094
_cell_angle_gamma 31.826534
_cell_volume 512.261023
_symmetry_space_group_name_H-M "P -1"
_symmetry_group_IT_number 2
_symmetry_cell_setting 'triclinic'
loop_
_space_group_symop_operation_xyz
x,y,z
-x,-y,-z
loop_
_atom_site_type_symbol
_atom_site_label
_atom_site_fract_x
_atom_site_fract_y
_atom_site_fract_z
Si Si1 0.864793 0.132714 0.100072
Si Si2 0.772195 0.382700 0.304067
Si Si3 0.356100 0.681627 0.562448
Si Si4 0.645491 0.680052 0.891583
Si Si5 0.733027 0.791780 0.755453
Si Si6 0.256867 0.097320 0.868830
O O1 0.892077 0.234834 0.198257
O O2 0.530176 0.348054 0.888283
O O3 0.057338 0.936099 0.326597
O O4 0.000000 0.000000 0.000000
O O5 0.693597 0.344220 0.330120
O O6 0.996609 0.284858 0.576958
O O7 0.500000 0.500000 0.500000
O O8 0.556483 0.633408 0.740993
O O9 0.634256 0.765088 0.759850
O O10 0.419164 0.877299 0.897770
O O11 0.971042 0.448926 0.155605
O O12 0.500000 0.000000 0.500000
O O13 0.809974 0.821382 0.975684
O O14 0.500000 0.000000 0.000000
#
# Coordination Sequence:
#
# PCOD9034940 Si02
#       6
#     2   2   2   2   2   2
#     4  11  24  43  68 100 134 180 233 288 336 415
#     4  11  24  44  68 101 137 181 231 283 356 407
#     4  12  23  43  67  99 142 186 224 279 353 409
#     4  10  23  44  67  94 141 175 225 291 335 407
#     4  10  23  45  70  99 128 180 237 282 343 408
#     4  10  22  45  69  93 136 180 222 288 346 399
#
# _framework density 23.425557999999999
#
# number of rings (size 3 to 8) (size 9 to 14) (size 15 to 20)
#    0.000    1.333    3.333    1.500    0.000    2.000 
#    6.000    0.000    0.000    0.000    0.000    0.000 
#    0.000    0.000    0.000    0.000    0.000    0.000 
#
# Total GULP energy -67094.840172 kJ/mol
# GULP energy per Si atom -5591.236681 kJ/mol
# Density = 2.337224 g / cm^3
# Si number density = 23.425558 Si / 1000 Ang^3
#
#
#
# Elastic Constant Matrix: (Units=GPa)
#
#
# Indices 1 2 3 4 5 6 
#
# 1 77.3605 7.6319 34.7440 -8.1723 13.1259 18.6419
# 2 7.6319 93.3689 10.9979 2.8601 13.2066 0.4404
# 3 34.7440 10.9979 147.1495 -23.9305 17.9356 7.1519
# 4 -8.1723 2.8601 -23.9305 62.8963 8.8664 -0.4708
# 5 13.1259 13.2066 17.9356 8.8664 36.6697 0.0538
# 6 18.6419 0.4404 7.1519 -0.4708 0.0538 32.8047
#
#
#
# Elastic Compliance Matrix: (Units=1/GPa)
#
#
# Indices 1 2 3 4 5 6 
#
# 1 0.017523 -0.000385 -0.002697 0.001941 -0.005270 -0.009328
# 2 -0.000385 0.011313 -0.000333 -0.000164 -0.003735 0.000143
# 3 -0.002697 -0.000333 0.008508 0.003451 -0.003910 -0.000262
# 4 0.001941 -0.000164 0.003451 0.018415 -0.006774 -0.001578
# 5 -0.005270 -0.003735 -0.003910 -0.006774 0.034047 0.003744
# 6 -0.009328 0.000143 -0.000262 -0.001578 0.003744 0.035811
#
#
# Mechanical properties :
#
#
# Convention : Reuss Voigt Hill
#
# Bulk Modulus (GPa) = 32.77126 47.18072 39.97599
# Shear Modulus (GPa) = 35.05857 44.10780 39.58319
#
# Velocity S-wave (km/s) = 3.87278 4.34394 4.11511
# Velocity P-wave (km/s) = 5.83248 6.73381 6.29928
#
# Compressibility (1/GPa) = 0.03051454
#
# Stress axis : x y z
#
# Youngs Moduli (GPa) = 57.06816 88.39030 117.53521
#
# Poissons Ratio (x) = 0.03400 0.31702
# Poissons Ratio (y) = 0.02195 0.03915
# Poissons Ratio (z) = 0.15392 0.02944
#
# Static dielectric constant tensor:
#      x y z
#    x 1.931520 -0.020990 -0.026530 
#    y -0.020990 2.031690 0.072140 
#    z -0.026530 0.072140 1.914160 
# 
# From -- ./inp_files/315681.got.cif
#   From: 2010.05.17/outbox.cif.g08.bks.cpg/sg2_158_cif.got.tgz:315681.got - 2010.06.03 11:33:40.
