data_PCOD9034349
_publ_section_title
;
Structure prediction by ZEFSAII (Michael W. Deem and Ramdas Pophale) SiO2 
 PCOD9034349
Probable space group: P -1
;
_chemical_formula_sum "Si O2"
_cell_formula_units_Z 16
_cell_length_a 8.007205
_cell_length_b 16.850648
_cell_length_c 5.405593
_cell_angle_alpha 103.765055
_cell_angle_beta 88.489566
_cell_angle_gamma 115.429128
_cell_volume 637.383988
_symmetry_space_group_name_H-M "P -1"
_symmetry_group_IT_number 2
_symmetry_cell_setting 'triclinic'
loop_
_space_group_symop_operation_xyz
x,y,z
-x,-y,-z
loop_
_atom_site_type_symbol
_atom_site_label
_atom_site_fract_x
_atom_site_fract_y
_atom_site_fract_z
Si Si1 0.327213 0.941277 0.131270
Si Si2 0.204385 0.068473 0.458886
Si Si3 0.290029 0.498698 0.721895
Si Si4 0.274412 0.742423 0.007022
Si Si5 0.956383 0.303540 0.526465
Si Si6 0.594887 0.431378 0.728707
Si Si7 0.641318 0.746758 0.117999
Si Si8 0.938116 0.832473 0.802972
O O1 0.336306 0.849059 0.131706
O O2 0.316572 0.008981 0.387713
O O3 0.129539 0.903606 0.966721
O O4 0.500000 0.000000 0.000000
O O5 0.293560 0.154712 0.693695
O O6 0.177495 0.113625 0.239697
O O7 0.000000 0.000000 0.500000
O O8 0.489142 0.495612 0.745522
O O9 0.303727 0.559626 0.528341
O O10 0.134628 0.399072 0.596668
O O11 0.266289 0.533396 0.018020
O O12 0.165429 0.699440 0.232331
O O13 0.458159 0.728381 0.956232
O O14 0.152619 0.712771 0.741509
O O15 0.015258 0.219770 0.461341
O O16 0.435401 0.332839 0.735106
O O17 0.811174 0.755399 0.945532
#
# Coordination Sequence:
#
# PCOD9034349 Si02
#       8
#     2   2   2   2   2   2   2   2
#     4  11  25  45  69 102 142 188 242 292 355 427
#     4  12  25  43  70 100 136 188 245 296 354 416
#     4  10  22  44  73 108 141 180 240 290 354 429
#     4  11  28  47  69 105 144 196 231 292 366 424
#     4  11  25  48  74 102 146 189 237 291 362 428
#     4  10  24  40  72 112 138 185 231 299 354 415
#     4  12  28  45  69 103 148 182 240 299 356 424
#     4  11  26  43  70 103 140 186 242 301 356 413
#
# _framework density 25.102606999999999
#
# number of rings (size 3 to 8) (size 9 to 14) (size 15 to 20)
#    0.000    1.000    1.250    3.375   19.250    0.500 
#    0.000    3.750    0.000    0.000    0.000    0.000 
#    0.000    0.000    0.000    0.000    0.000    0.000 
#
# Total GULP energy -89635.454894 kJ/mol
# GULP energy per Si atom -5602.215931 kJ/mol
# Density = 2.504547 g / cm^3
# Si number density = 25.102607 Si / 1000 Ang^3
#
#
#
# Elastic Constant Matrix: (Units=GPa)
#
#
# Indices 1 2 3 4 5 6 
#
# 1 71.5308 8.7751 23.6187 -5.4429 -1.7281 4.2494
# 2 8.7751 120.9848 60.5399 -1.4539 -2.0656 10.5703
# 3 23.6187 60.5399 140.7725 -5.8460 10.6142 7.2446
# 4 -5.4429 -1.4539 -5.8460 46.6703 0.1144 -8.9026
# 5 -1.7281 -2.0656 10.6142 0.1144 34.3989 3.2428
# 6 4.2494 10.5703 7.2446 -8.9026 3.2428 35.5259
#
#
#
# Elastic Compliance Matrix: (Units=1/GPa)
#
#
# Indices 1 2 3 4 5 6 
#
# 1 0.015032 0.000423 -0.002722 0.001186 0.001733 -0.001230
# 2 0.000423 0.010930 -0.004846 -0.000742 0.002432 -0.002723
# 3 -0.002722 -0.004846 0.009930 0.000836 -0.003520 0.000273
# 4 0.001186 -0.000742 0.000836 0.022733 -0.000854 0.005683
# 5 0.001733 0.002432 -0.003520 -0.000854 0.030697 -0.003229
# 6 -0.001230 -0.002723 0.000273 0.005683 -0.003229 0.030769
#
#
# Mechanical properties :
#
#
# Convention : Reuss Voigt Hill
#
# Bulk Modulus (GPa) = 46.28931 57.68397 51.98664
# Shear Modulus (GPa) = 35.31527 39.34264 37.32896
#
# Velocity S-wave (km/s) = 3.75485 3.96317 3.86042
# Velocity P-wave (km/s) = 6.10562 6.63110 6.37378
#
# Compressibility (1/GPa) = 0.02160326
#
# Stress axis : x y z
#
# Youngs Moduli (GPa) = 66.52442 91.49167 100.70162
#
# Poissons Ratio (x) = -0.03871 0.27412
# Poissons Ratio (y) = -0.02815 0.48795
# Poissons Ratio (z) = 0.18109 0.44333
#
# Static dielectric constant tensor:
#      x y z
#    x 1.889060 -0.020220 0.066350 
#    y -0.020220 1.940600 -0.059640 
#    z 0.066350 -0.059640 2.017460 
# 
# From -- ./inp_files/48296.got.cif
#   From: 2010.05.17/outbox.cif.g08.bks.cpg/sg2_25_cif.got.tgz:48296.got - 2010.06.03 11:33:40.
