data_PCOD9034184
_publ_section_title
;
Structure prediction by ZEFSAII (Michael W. Deem and Ramdas Pophale) SiO2 
 PCOD9034184
Probable space group: P -1
;
_chemical_formula_sum "Si O2"
_cell_formula_units_Z 12
_cell_length_a 17.334244
_cell_length_b 5.307708
_cell_length_c 7.883263
_cell_angle_alpha 108.643400
_cell_angle_beta 141.122205
_cell_angle_gamma 76.162172
_cell_volume 431.297655
_symmetry_space_group_name_H-M "P -1"
_symmetry_group_IT_number 2
_symmetry_cell_setting 'triclinic'
loop_
_space_group_symop_operation_xyz
x,y,z
-x,-y,-z
loop_
_atom_site_type_symbol
_atom_site_label
_atom_site_fract_x
_atom_site_fract_y
_atom_site_fract_z
Si Si1 0.551052 0.381225 0.286411
Si Si2 0.726415 0.463907 0.059850
Si Si3 0.112617 0.504970 0.976172
Si Si4 0.244023 0.732628 0.582939
Si Si5 0.026541 0.024432 0.350461
Si Si6 0.376309 0.025235 0.394700
O O1 0.410844 0.422321 0.117178
O O2 0.606273 0.276491 0.178742
O O3 0.621535 0.666160 0.488698
O O4 0.604937 0.153510 0.447638
O O5 0.717246 0.150468 0.915950
O O6 0.798469 0.582515 0.047219
O O7 0.785549 0.445188 0.341872
O O8 0.042172 0.250804 0.881066
O O9 0.817469 0.361438 0.717496
O O10 0.030079 0.725262 0.787849
O O11 0.171768 0.000797 0.555253
O O12 0.000000 0.000000 0.500000
O O13 0.500000 0.000000 0.500000
#
# Coordination Sequence:
#
# PCOD9034184 Si02
#       6
#     2   2   2   2   2   2
#     4  11  25  46  72 111 149 191 240 298 365 433
#     4  11  24  48  76 111 149 194 241 297 369 439
#     4  12  28  50  78 107 148 189 247 307 359 432
#     4  12  27  47  79 108 150 191 246 302 366 430
#     4  12  28  54  77 106 144 196 249 301 367 428
#     4  10  22  44  72 100 152 196 234 290 357 431
#
# _framework density 27.82301
#
# number of rings (size 3 to 8) (size 9 to 14) (size 15 to 20)
#    0.000    0.667    3.333    4.000    2.333    2.667 
#    0.000    4.167    0.000    0.000    0.000    0.000 
#    0.000    0.000    0.000    0.000    0.000    0.000 
#
# Total GULP energy -67105.995595 kJ/mol
# GULP energy per Si atom -5592.166300 kJ/mol
# Density = 2.775968 g / cm^3
# Si number density = 27.823010 Si / 1000 Ang^3
#
#
#
# Elastic Constant Matrix: (Units=GPa)
#
#
# Indices 1 2 3 4 5 6 
#
# 1 166.3539 52.0100 50.5976 -7.2291 14.2321 -17.1627
# 2 52.0100 153.0777 34.3579 -17.5520 23.2849 2.5472
# 3 50.5976 34.3579 88.9381 -16.8851 -3.5005 -5.0178
# 4 -7.2291 -17.5520 -16.8851 35.2597 2.1848 14.2044
# 5 14.2321 23.2849 -3.5005 2.1848 55.7101 -7.5367
# 6 -17.1627 2.5472 -5.0178 14.2044 -7.5367 64.8552
#
#
#
# Elastic Compliance Matrix: (Units=1/GPa)
#
#
# Indices 1 2 3 4 5 6 
#
# 1 0.008128 -0.001925 -0.004205 -0.002135 -0.001150 0.002235
# 2 -0.001925 0.008669 -0.001722 0.004275 -0.003726 -0.002352
# 3 -0.004205 -0.001722 0.015465 0.005881 0.002419 -0.000856
# 4 -0.002135 0.004275 0.005881 0.036587 -0.003483 -0.008696
# 5 -0.001150 -0.003726 0.002419 -0.003483 0.020519 0.003176
# 6 0.002235 -0.002352 -0.000856 -0.008696 0.003176 0.018310
#
#
# Mechanical properties :
#
#
# Convention : Reuss Voigt Hill
#
# Bulk Modulus (GPa) = 60.39076 75.81119 68.10097
# Shear Modulus (GPa) = 38.78942 49.25861 44.02402
#
# Velocity S-wave (km/s) = 3.73788 4.21221 3.98211
# Velocity P-wave (km/s) = 6.35464 7.13889 6.75815
#
# Compressibility (1/GPa) = 0.01655883
#
# Stress axis : x y z
#
# Youngs Moduli (GPa) = 123.02661 115.35287 64.66336
#
# Poissons Ratio (x) = 0.22204 0.27191
# Poissons Ratio (y) = 0.23681 0.11133
# Poissons Ratio (z) = 0.51734 0.19860
#
# Static dielectric constant tensor:
#      x y z
#    x 1.512730 -0.668860 -0.110790 
#    y -0.668860 1.780450 -0.087270 
#    z -0.110790 -0.087270 2.241420 
# 
# From -- ./inp_files/70107.got.cif
#   From: 2010.05.17/outbox.cif.g08.bks.cpg/sg2_36_cif.got.tgz:70107.got - 2010.06.03 11:33:40.
