data_PCOD9034611
_publ_section_title
;
Structure prediction by ZEFSAII (Michael W. Deem and Ramdas Pophale) SiO2 
 PCOD9034611
Probable space group: P -1
;
_chemical_formula_sum "Si O2"
_cell_formula_units_Z 15
_cell_length_a 8.825923
_cell_length_b 11.641227
_cell_length_c 15.212662
_cell_angle_alpha 151.998049
_cell_angle_beta 90.548607
_cell_angle_gamma 74.069122
_cell_volume 604.633736
_symmetry_space_group_name_H-M "P -1"
_symmetry_group_IT_number 2
_symmetry_cell_setting 'triclinic'
loop_
_space_group_symop_operation_xyz
x,y,z
-x,-y,-z
loop_
_atom_site_type_symbol
_atom_site_label
_atom_site_fract_x
_atom_site_fract_y
_atom_site_fract_z
Si Si1 0.643329 0.188507 0.400629
Si Si2 0.022719 0.679965 0.045198
Si Si3 0.696810 0.031543 0.936604
Si Si4 0.703069 0.601716 0.775289
Si Si5 0.000000 0.000000 0.000000
Si Si6 0.310665 0.058570 0.568075
Si Si7 0.887020 0.927391 0.576868
Si Si8 0.759870 0.631253 0.507706
O O1 0.660296 0.463328 0.598162
O O2 0.446589 0.283903 0.432856
O O3 0.669689 0.064921 0.417293
O O4 0.820736 0.924737 0.171650
O O5 0.097939 0.854473 0.211045
O O6 0.163762 0.414308 0.804301
O O7 0.000000 0.500000 0.000000
O O8 0.714461 0.866003 0.917130
O O9 0.781080 0.781757 0.694585
O O10 0.478673 0.262737 0.075118
O O11 0.810314 0.169187 0.051078
O O12 0.905013 0.337326 0.627496
O O13 0.902192 0.283314 0.258479
O O14 0.234398 0.924862 0.410505
O O15 0.500000 0.000000 0.500000
O O16 0.794209 0.789173 0.534918
#
# Coordination Sequence:
#
# PCOD9034611 Si02
#       8
#     2   2   2   2   1   2   2   2
#     4  10  22  45  65  98 137 173 226 267 340 399
#     4   9  23  43  63  95 132 174 224 272 326 394
#     4  11  25  45  69  97 136 173 227 281 336 399
#     4  10  23  45  65 101 131 175 227 275 338 405
#     4  12  24  46  68 100 136 172 226 278 332 402
#     4  11  23  43  68  99 137 175 221 283 324 393
#     4  11  24  43  69  98 136 177 228 267 337 400
#     4  12  25  44  69 102 134 181 220 280 334 404
#
# _framework density 24.808409999999999
#
# number of rings (size 3 to 8) (size 9 to 14) (size 15 to 20)
#    0.000    1.333    4.000    0.400    1.867    8.000 
#    4.800    0.000    0.000    0.000    0.000    0.000 
#    0.000    0.000    0.000    0.000    0.000    0.000 
#
# Total GULP energy -83735.053120 kJ/mol
# GULP energy per Si atom -5582.336875 kJ/mol
# Density = 2.475194 g / cm^3
# Si number density = 24.808410 Si / 1000 Ang^3
#
#
#
# Elastic Constant Matrix: (Units=GPa)
#
#
# Indices 1 2 3 4 5 6 
#
# 1 98.0598 34.0225 25.8047 -4.6357 -3.8068 -24.8906
# 2 34.0225 66.8818 4.1707 -11.5396 6.2531 -6.4084
# 3 25.8047 4.1707 122.8453 -12.3917 -19.1367 -8.6091
# 4 -4.6357 -11.5396 -12.3917 29.7051 2.4046 16.1952
# 5 -3.8068 6.2531 -19.1367 2.4046 33.2842 -1.1717
# 6 -24.8906 -6.4084 -8.6091 16.1952 -1.1717 42.8271
#
#
#
# Elastic Compliance Matrix: (Units=1/GPa)
#
#
# Indices 1 2 3 4 5 6 
#
# 1 0.016489 -0.008861 -0.002770 -0.008193 0.002933 0.010879
# 2 -0.008861 0.021228 0.000977 0.011038 -0.005452 -0.006100
# 3 -0.002770 0.000977 0.009789 0.004153 0.004795 -0.000935
# 4 -0.008193 0.011038 0.004153 0.050551 -0.005033 -0.021529
# 5 0.002933 -0.005452 0.004795 -0.005033 0.034690 0.004705
# 6 0.010879 -0.006100 -0.000935 -0.021529 0.004705 0.036842
#
#
# Mechanical properties :
#
#
# Convention : Reuss Voigt Hill
#
# Bulk Modulus (GPa) = 38.16860 46.19808 42.18334
# Shear Modulus (GPa) = 25.04651 36.08256 30.56453
#
# Velocity S-wave (km/s) = 3.18086 3.81786 3.51383
# Velocity P-wave (km/s) = 5.37673 6.17229 5.78819
#
# Compressibility (1/GPa) = 0.02619955
#
# Stress axis : x y z
#
# Youngs Moduli (GPa) = 60.64668 47.10784 102.15211
#
# Poissons Ratio (x) = 0.41740 0.28296
# Poissons Ratio (y) = 0.53736 -0.09982
# Poissons Ratio (z) = 0.16799 -0.04603
#
# Static dielectric constant tensor:
#      x y z
#    x 2.032200 0.036410 -0.012150 
#    y 0.036410 1.985720 0.007240 
#    z -0.012150 0.007240 1.966250 
# 
# From -- ./inp_files/39726.got.cif
#   From: 2010.05.17/outbox.cif.g08.bks.cpg/sg2_20_cif.got.tgz:39726.got - 2010.06.03 11:33:40.
