data_PCOD9034981
_publ_section_title
;
Structure prediction by ZEFSAII (Michael W. Deem and Ramdas Pophale) SiO2 
 PCOD9034981
Probable space group: P -1
;
_chemical_formula_sum "Si O2"
_cell_formula_units_Z 12
_cell_length_a 12.104890
_cell_length_b 8.708164
_cell_length_c 8.047704
_cell_angle_alpha 145.983617
_cell_angle_beta 65.978717
_cell_angle_gamma 110.523749
_cell_volume 433.330180
_symmetry_space_group_name_H-M "P -1"
_symmetry_group_IT_number 2
_symmetry_cell_setting 'triclinic'
loop_
_space_group_symop_operation_xyz
x,y,z
-x,-y,-z
loop_
_atom_site_type_symbol
_atom_site_label
_atom_site_fract_x
_atom_site_fract_y
_atom_site_fract_z
Si Si1 0.987779 0.408348 0.733094
Si Si2 0.147349 0.058815 0.784533
Si Si3 0.215083 0.602181 0.574712
Si Si4 0.566142 0.671807 0.962524
Si Si5 0.639937 0.989307 0.608865
Si Si6 0.635111 0.425061 0.243813
O O1 0.116106 0.421176 0.571930
O O2 0.924930 0.114923 0.469952
O O3 0.000000 0.500000 0.000000
O O4 0.911004 0.647691 0.907566
O O5 0.149204 0.854375 0.755298
O O6 0.287608 0.078888 0.660330
O O7 0.299332 0.427985 0.243164
O O8 0.306833 0.715538 0.761592
O O9 0.503728 0.608633 0.760496
O O10 0.500000 0.500000 0.000000
O O11 0.503175 0.967444 0.287421
O O12 0.664265 0.744899 0.499874
O O13 0.690688 0.270434 0.910319
#
# Coordination Sequence:
#
# PCOD9034981 Si02
#       6
#     2   2   2   2   2   2
#     4  12  28  48  72 102 137 185 233 281 339 408
#     4  12  25  47  70 105 138 181 233 281 342 407
#     4  12  24  47  71 104 141 182 226 292 337 412
#     4  10  23  46  70 105 137 182 229 283 346 408
#     4  10  22  45  69  98 140 179 229 278 345 401
#     4  10  24  43  67 106 137 180 230 275 349 407
#
# _framework density 27.692509999999999
#
# number of rings (size 3 to 8) (size 9 to 14) (size 15 to 20)
#    1.000    0.000    1.667    5.000    0.000    4.000 
#    6.000    0.000    0.000    0.000    0.000    0.000 
#    0.000    0.000    0.000    0.000    0.000    0.000 
#
# Total GULP energy -67147.733351 kJ/mol
# GULP energy per Si atom -5595.644446 kJ/mol
# Density = 2.762948 g / cm^3
# Si number density = 27.692510 Si / 1000 Ang^3
#
#
#
# Elastic Constant Matrix: (Units=GPa)
#
#
# Indices 1 2 3 4 5 6 
#
# 1 122.2348 26.0092 40.1323 -11.2807 -18.9480 -21.1315
# 2 26.0092 101.5852 25.7462 -12.3298 -15.3346 -0.3978
# 3 40.1323 25.7462 133.5617 5.8372 -19.9773 6.5421
# 4 -11.2807 -12.3298 5.8372 53.1615 3.8888 -8.0555
# 5 -18.9480 -15.3346 -19.9773 3.8888 47.0300 -15.6245
# 6 -21.1315 -0.3978 6.5421 -8.0555 -15.6245 58.1942
#
#
#
# Elastic Compliance Matrix: (Units=1/GPa)
#
#
# Indices 1 2 3 4 5 6 
#
# 1 0.011494 -0.001059 -0.002967 0.003109 0.004838 0.006229
# 2 -0.001059 0.011230 -0.001604 0.002503 0.002656 0.000932
# 3 -0.002967 -0.001604 0.009147 -0.002433 0.001705 -0.001996
# 4 0.003109 0.002503 -0.002433 0.020946 0.000811 0.004537
# 5 0.004838 0.002656 0.001705 0.000811 0.027776 0.009153
# 6 0.006229 0.000932 -0.001996 0.004537 0.009153 0.022762
#
#
# Mechanical properties :
#
#
# Convention : Reuss Voigt Hill
#
# Bulk Modulus (GPa) = 48.51807 60.12857 54.32332
# Shear Modulus (GPa) = 41.15668 49.37673 45.26671
#
# Velocity S-wave (km/s) = 3.85931 4.22718 4.04743
# Velocity P-wave (km/s) = 6.11697 6.75170 6.44216
#
# Compressibility (1/GPa) = 0.02061088
#
# Stress axis : x y z
#
# Youngs Moduli (GPa) = 87.00043 89.04621 109.32417
#
# Poissons Ratio (x) = 0.09429 0.32437
# Poissons Ratio (y) = 0.09212 0.17540
# Poissons Ratio (z) = 0.25813 0.14286
#
# Static dielectric constant tensor:
#      x y z
#    x 2.301790 0.047970 0.051750 
#    y 0.047970 2.110480 -0.087250 
#    z 0.051750 -0.087250 2.192430 
# 
# From -- ./inp_files/293624.got.cif
#   From: 2010.05.17/outbox.cif.g08.bks.cpg/sg2_147_cif.got.tgz:293624.got - 2010.06.03 11:33:40.
