data_PCOD9034293
_publ_section_title
;
Structure prediction by ZEFSAII (Michael W. Deem and Ramdas Pophale) SiO2 
 PCOD9034293
Probable space group: P -1
;
_chemical_formula_sum "Si O2"
_cell_formula_units_Z 14
_cell_length_a 9.446086
_cell_length_b 12.274466
_cell_length_c 6.857821
_cell_angle_alpha 131.434369
_cell_angle_beta 74.023140
_cell_angle_gamma 110.328373
_cell_volume 557.830948
_symmetry_space_group_name_H-M "P -1"
_symmetry_group_IT_number 2
_symmetry_cell_setting 'triclinic'
loop_
_space_group_symop_operation_xyz
x,y,z
-x,-y,-z
loop_
_atom_site_type_symbol
_atom_site_label
_atom_site_fract_x
_atom_site_fract_y
_atom_site_fract_z
Si Si1 0.581564 0.661456 0.578216
Si Si2 0.625161 0.423384 0.776896
Si Si3 0.096898 0.182336 0.386857
Si Si4 0.074654 0.366335 0.233886
Si Si5 0.824134 0.136902 0.948216
Si Si6 0.499101 0.922671 0.121924
Si Si7 0.756481 0.168189 0.469658
O O1 0.500000 0.500000 0.500000
O O2 0.470450 0.684726 0.476639
O O3 0.751282 0.692826 0.461850
O O4 0.568496 0.779668 0.889279
O O5 0.759853 0.550753 0.795090
O O6 0.704724 0.314172 0.736743
O O7 0.500000 0.500000 0.000000
O O8 0.093178 0.241196 0.235794
O O9 0.920005 0.159914 0.481909
O O10 0.137580 0.024320 0.227205
O O11 0.000000 0.500000 0.500000
O O12 0.967025 0.270205 0.999055
O O13 0.682493 0.120010 0.836443
O O14 0.787544 0.187042 0.241919
O O15 0.615139 0.026475 0.346869
O O16 0.500000 0.000000 0.000000
#
# Coordination Sequence:
#
# PCOD9034293 Si02
#       7
#     2   2   2   2   2   2   2
#     4  12  22  34  58  91 118 149 209 252 288 347
#     4  12  24  39  57  87 131 166 186 239 314 363
#     4  11  20  31  61  92 114 142 200 267 290 325
#     4  11  19  34  59  88 113 155 203 249 282 348
#     4  10  18  31  57  88 115 142 198 256 295 327
#     4  10  17  32  56  87 116 146 192 255 292 338
#     4  10  18  33  56  85 114 153 197 238 297 349
#
# _framework density 25.097207000000001
#
# number of rings (size 3 to 8) (size 9 to 14) (size 15 to 20)
#    0.000    1.143   10.000    1.714    0.000    0.000 
#    0.000    0.714    0.000   11.143    0.000    0.000 
#    0.000    0.000    0.000    0.000    0.000    0.000 
#
# Total GULP energy -78131.182775 kJ/mol
# GULP energy per Si atom -5580.798770 kJ/mol
# Density = 2.504008 g / cm^3
# Si number density = 25.097207 Si / 1000 Ang^3
#
#
#
# Elastic Constant Matrix: (Units=GPa)
#
#
# Indices 1 2 3 4 5 6 
#
# 1 241.1427 69.2251 59.3296 11.4874 -11.9950 49.3476
# 2 69.2251 85.7955 43.8598 22.1703 -3.1453 30.1727
# 3 59.3296 43.8598 88.2824 25.9723 -16.3214 10.5978
# 4 11.4874 22.1703 25.9723 35.6401 2.0846 2.0047
# 5 -11.9950 -3.1453 -16.3214 2.0846 59.3194 7.6824
# 6 49.3476 30.1727 10.5978 2.0047 7.6824 65.2408
#
#
#
# Elastic Compliance Matrix: (Units=1/GPa)
#
#
# Indices 1 2 3 4 5 6 
#
# 1 0.006271 -0.003077 -0.002817 0.002077 0.000646 -0.003003
# 2 -0.003077 0.021150 -0.005313 -0.007943 0.000141 -0.006364
# 3 -0.002817 -0.005313 0.019690 -0.010481 0.004786 0.001148
# 4 0.002077 -0.007943 -0.010481 0.040067 -0.004698 0.003128
# 5 0.000646 0.000141 0.004786 -0.004698 0.018920 -0.003415
# 6 -0.003003 -0.006364 0.001148 0.003128 -0.003415 0.020662
#
#
# Mechanical properties :
#
#
# Convention : Reuss Voigt Hill
#
# Bulk Modulus (GPa) = 40.48906 84.44994 62.46950
# Shear Modulus (GPa) = 31.76514 48.22715 39.99614
#
# Velocity S-wave (km/s) = 3.56151 4.38838 3.99638
# Velocity P-wave (km/s) = 5.75155 7.70710 6.79999
#
# Compressibility (1/GPa) = 0.02469803
#
# Stress axis : x y z
#
# Youngs Moduli (GPa) = 159.46855 47.28135 50.78649
#
# Poissons Ratio (x) = 0.14547 0.14306
# Poissons Ratio (y) = 0.49063 0.26983
# Poissons Ratio (z) = 0.44919 0.25121
#
# Static dielectric constant tensor:
#      x y z
#    x 2.285740 -0.097000 -0.195340 
#    y -0.097000 2.269210 0.081310 
#    z -0.195340 0.081310 2.314890 
# 
# From -- ./inp_files/204718.got.cif
#   From: 2010.05.17/outbox.cif.g08.bks.cpg/sg2_103_cif.got.tgz:204718.got - 2010.06.03 11:33:40.
