data_PCOD9034869
_publ_section_title
;
Structure prediction by ZEFSAII (Michael W. Deem and Ramdas Pophale) SiO2 
 PCOD9034869
Probable space group: P -1
;
_chemical_formula_sum "Si O2"
_cell_formula_units_Z 14
_cell_length_a 29.948850
_cell_length_b 4.854618
_cell_length_c 5.619188
_cell_angle_alpha 99.405528
_cell_angle_beta 55.262488
_cell_angle_gamma 128.316040
_cell_volume 503.399717
_symmetry_space_group_name_H-M "P -1"
_symmetry_group_IT_number 2
_symmetry_cell_setting 'triclinic'
loop_
_space_group_symop_operation_xyz
x,y,z
-x,-y,-z
loop_
_atom_site_type_symbol
_atom_site_label
_atom_site_fract_x
_atom_site_fract_y
_atom_site_fract_z
Si Si1 0.578850 0.877344 0.620727
Si Si2 0.082807 0.967090 0.169733
Si Si3 0.288688 0.984655 0.675886
Si Si4 0.179451 0.606488 0.579761
Si Si5 0.785818 0.753003 0.950256
Si Si6 0.952666 0.677415 0.289715
Si Si7 0.449292 0.066844 0.780428
O O1 0.499084 0.501489 0.752185
O O2 0.602842 0.047283 0.302370
O O3 0.627439 0.774843 0.530977
O O4 0.580552 0.081457 0.880119
O O5 0.135799 0.925844 0.128620
O O6 0.065462 0.147011 0.438494
O O7 0.130224 0.286815 0.878188
O O8 0.006572 0.632937 0.238347
O O9 0.250862 0.947529 0.540699
O O10 0.260535 0.581200 0.767339
O O11 0.255286 0.103547 0.969233
O O12 0.201982 0.433919 0.313540
O O13 0.124840 0.647469 0.632459
O O14 0.000000 0.000000 0.000000
O O15 0.500000 0.000000 0.500000
#
# Coordination Sequence:
#
# PCOD9034869 Si02
#       7
#     2   2   2   2   2   2   2
#     4  10  24  41  67 102 133 174 226 271 334 399
#     4   8  15  31  55  87 119 162 215 266 324 387
#     4  11  25  41  63  95 129 171 216 266 324 400
#     4   9  19  36  58  88 124 168 211 272 326 393
#     4  10  23  41  60  90 129 168 219 267 329 392
#     4   8  13  27  57  85 120 161 211 268 327 383
#     4  10  22  45  69 100 134 174 220 278 328 400
#
# _framework density 27.810901999999999
#
# number of rings (size 3 to 8) (size 9 to 14) (size 15 to 20)
#    0.000    2.571    0.000    0.429    4.000    2.286 
#    0.000    0.714    0.000   77.143    0.000    0.000 
#    0.000    0.000    0.000    0.000    0.000    0.000 
#
# Total GULP energy -78291.879116 kJ/mol
# GULP energy per Si atom -5592.277080 kJ/mol
# Density = 2.774760 g / cm^3
# Si number density = 27.810902 Si / 1000 Ang^3
#
#
#
# Elastic Constant Matrix: (Units=GPa)
#
#
# Indices 1 2 3 4 5 6 
#
# 1 175.7992 42.8998 61.6697 1.8506 -11.9286 23.4932
# 2 42.8998 88.1570 30.2074 12.4992 4.8583 -2.9883
# 3 61.6697 30.2074 142.7585 33.1378 8.0738 11.9978
# 4 1.8506 12.4992 33.1378 32.2383 12.8543 -1.2995
# 5 -11.9286 4.8583 8.0738 12.8543 56.4010 5.6174
# 6 23.4932 -2.9883 11.9978 -1.2995 5.6174 56.2002
#
#
#
# Elastic Compliance Matrix: (Units=1/GPa)
#
#
# Indices 1 2 3 4 5 6 
#
# 1 0.008299 -0.003554 -0.003527 0.003588 0.002050 -0.003027
# 2 -0.003554 0.014004 -0.000632 -0.004004 -0.001193 0.002392
# 3 -0.003527 -0.000632 0.011421 -0.011515 0.000428 -0.001306
# 4 0.003588 -0.004004 -0.011515 0.047650 -0.008375 0.002685
# 5 0.002050 -0.001193 0.000428 -0.008375 0.020438 -0.003248
# 6 -0.003027 0.002392 -0.001306 0.002685 -0.003248 0.019852
#
#
# Mechanical properties :
#
#
# Convention : Reuss Voigt Hill
#
# Bulk Modulus (GPa) = 54.65467 75.14093 64.89780
# Shear Modulus (GPa) = 34.91899 47.09708 41.00803
#
# Velocity S-wave (km/s) = 3.54727 4.11965 3.84413
# Velocity P-wave (km/s) = 6.03924 7.05024 6.56423
#
# Compressibility (1/GPa) = 0.01829670
#
# Stress axis : x y z
#
# Youngs Moduli (GPa) = 120.49889 71.40816 87.55837
#
# Poissons Ratio (x) = 0.25379 0.30885
# Poissons Ratio (y) = 0.42826 0.05535
# Poissons Ratio (z) = 0.42504 0.04514
#
# Static dielectric constant tensor:
#      x y z
#    x 2.299970 0.046540 0.091080 
#    y 0.046540 2.131250 -0.021100 
#    z 0.091080 -0.021100 2.254750 
# 
# From -- ./inp_files/9504.got.cif
#   From: 2010.05.17/outbox.cif.g08.bks.cpg/sg2_5_cif.got.tgz:9504.got - 2010.06.03 11:33:40.
