data_PCOD9034593
_publ_section_title
;
Structure prediction by ZEFSAII (Michael W. Deem and Ramdas Pophale) SiO2 
 PCOD9034593
Probable space group: P -1
;
_chemical_formula_sum "Si O2"
_cell_formula_units_Z 16
_cell_length_a 6.717860
_cell_length_b 6.889049
_cell_length_c 21.098114
_cell_angle_alpha 68.516242
_cell_angle_beta 44.543660
_cell_angle_gamma 73.421975
_cell_volume 636.879736
_symmetry_space_group_name_H-M "P -1"
_symmetry_group_IT_number 2
_symmetry_cell_setting 'triclinic'
loop_
_space_group_symop_operation_xyz
x,y,z
-x,-y,-z
loop_
_atom_site_type_symbol
_atom_site_label
_atom_site_fract_x
_atom_site_fract_y
_atom_site_fract_z
Si Si1 0.847032 0.641298 0.933298
Si Si2 0.756330 0.757734 0.214458
Si Si3 0.295716 0.043080 0.600190
Si Si4 0.389033 0.827986 0.841810
Si Si5 0.305484 0.814531 0.998740
Si Si6 0.307886 0.646396 0.478923
Si Si7 0.189803 0.594499 0.363373
Si Si8 0.979938 0.632404 0.755307
O O1 0.722696 0.416507 0.998112
O O2 0.939026 0.643816 0.839019
O O3 0.109689 0.702533 0.906967
O O4 0.581957 0.801989 0.981280
O O5 0.497656 0.628750 0.258480
O O6 0.022504 0.825555 0.102852
O O7 0.894283 0.603012 0.254864
O O8 0.610822 0.984425 0.231626
O O9 0.521033 0.143301 0.584443
O O10 0.031995 0.209382 0.625029
O O11 0.500000 0.000000 0.500000
O O12 0.177009 0.820476 0.671204
O O13 0.672785 0.685517 0.789941
O O14 0.369414 0.933666 0.904810
O O15 0.500000 0.500000 0.500000
O O16 0.272173 0.587302 0.420477
O O17 0.990715 0.611917 0.582957
#
# Coordination Sequence:
#
# PCOD9034593 Si02
#       8
#     2   2   2   2   2   2   2   2
#     4   9  20  40  66  91 125 171 211 260 318 376
#     4  11  23  40  64  96 130 166 209 266 317 381
#     4  11  24  43  66  94 128 170 216 268 323 381
#     4  11  21  42  67  90 127 172 212 259 321 376
#     4   9  20  40  62  93 130 161 212 264 311 381
#     4   9  22  42  68  91 122 172 209 266 321 381
#     4  10  22  45  65  94 133 166 216 262 325 387
#     4  10  24  42  60  94 134 162 214 270 309 381
#
# _framework density 25.122482999999999
#
# number of rings (size 3 to 8) (size 9 to 14) (size 15 to 20)
#    0.000    2.000    1.250    1.500    7.000    1.000 
#    4.500    7.500    0.000    0.000    0.000    0.000 
#    0.000    0.000    0.000    0.000    0.000    0.000 
#
# Total GULP energy -89268.015751 kJ/mol
# GULP energy per Si atom -5579.250984 kJ/mol
# Density = 2.506530 g / cm^3
# Si number density = 25.122483 Si / 1000 Ang^3
#
#
#
# Elastic Constant Matrix: (Units=GPa)
#
#
# Indices 1 2 3 4 5 6 
#
# 1 140.7686 35.5506 31.0594 -1.9900 -34.9502 -21.1334
# 2 35.5506 87.9774 16.5953 -15.8508 -5.9971 -40.4214
# 3 31.0594 16.5953 119.8358 -8.1274 -22.2378 -14.8418
# 4 -1.9900 -15.8508 -8.1274 38.0795 -5.4319 1.6353
# 5 -34.9502 -5.9971 -22.2378 -5.4319 53.6545 0.7871
# 6 -21.1334 -40.4214 -14.8418 1.6353 0.7871 34.4436
#
#
#
# Elastic Compliance Matrix: (Units=1/GPa)
#
#
# Indices 1 2 3 4 5 6 
#
# 1 0.009658 -0.001755 -0.000750 0.000290 0.005763 0.003397
# 2 -0.001755 0.029683 0.002042 0.011770 0.003714 0.033994
# 3 -0.000750 0.002042 0.009985 0.003273 0.004121 0.005989
# 4 0.000290 0.011770 0.003273 0.032127 0.005912 0.013740
# 5 0.005763 0.003714 0.004121 0.005912 0.024984 0.008819
# 6 0.003397 0.033994 0.005989 0.013740 0.008819 0.072738
#
#
# Mechanical properties :
#
#
# Convention : Reuss Voigt Hill
#
# Bulk Modulus (GPa) = 20.66166 57.22137 38.94152
# Shear Modulus (GPa) = 25.47984 42.92727 34.20356
#
# Velocity S-wave (km/s) = 3.18814 4.13815 3.69382
# Velocity P-wave (km/s) = 4.66847 6.75713 5.80747
#
# Compressibility (1/GPa) = 0.04839881
#
# Stress axis : x y z
#
# Youngs Moduli (GPa) = 103.54458 33.68970 100.15124
#
# Poissons Ratio (x) = 0.05912 0.07512
# Poissons Ratio (y) = 0.18171 -0.20449
# Poissons Ratio (z) = 0.07767 -0.06879
#
# Static dielectric constant tensor:
#      x y z
#    x 1.995520 0.006480 0.026050 
#    y 0.006480 2.154390 -0.022540 
#    z 0.026050 -0.022540 2.051320 
# 
# From -- ./inp_files/582309.got.cif
#   From: 2010.05.17/outbox.cif.g08.bks.cpg/sg2_292_cif.got.tgz:582309.got - 2010.06.03 11:33:40.
