data_PCOD9034949
_publ_section_title
;
Structure prediction by ZEFSAII (Michael W. Deem and Ramdas Pophale) SiO2 
 PCOD9034949
Probable space group: P -1
;
_chemical_formula_sum "Si O2"
_cell_formula_units_Z 14
_cell_length_a 23.492193
_cell_length_b 8.927158
_cell_length_c 5.895701
_cell_angle_alpha 83.112903
_cell_angle_beta 90.007488
_cell_angle_gamma 148.874975
_cell_volume 621.721327
_symmetry_space_group_name_H-M "P -1"
_symmetry_group_IT_number 2
_symmetry_cell_setting 'triclinic'
loop_
_space_group_symop_operation_xyz
x,y,z
-x,-y,-z
loop_
_atom_site_type_symbol
_atom_site_label
_atom_site_fract_x
_atom_site_fract_y
_atom_site_fract_z
Si Si1 0.747863 0.238589 0.716709
Si Si2 0.394737 0.315058 0.895996
Si Si3 0.826242 0.887076 0.217159
Si Si4 0.381584 0.767619 0.419803
Si Si5 0.743745 0.979073 0.442943
Si Si6 0.026237 0.131672 0.226608
Si Si7 0.317592 0.410064 0.115503
O O1 0.655603 0.144095 0.634589
O O2 0.794868 0.245188 0.505897
O O3 0.841955 0.538701 0.804581
O O4 0.699676 0.004431 0.930148
O O5 0.371465 0.239901 0.645709
O O6 0.500000 0.500000 0.000000
O O7 0.385448 0.472530 0.914827
O O8 0.726690 0.560056 0.396882
O O9 0.815326 0.037909 0.262031
O O10 0.796506 0.801766 0.967905
O O11 0.947089 0.098420 0.234150
O O12 0.381708 0.689206 0.187563
O O13 0.500000 0.000000 0.500000
O O14 0.710462 0.782687 0.668771
O O15 0.000000 0.000000 0.500000
O O16 0.000000 0.000000 0.000000
#
# Coordination Sequence:
#
# PCOD9034949 Si02
#       7
#     2   2   2   2   2   2   2
#     4  11  25  42  68 105 135 182 239 289 355 431
#     4  10  23  40  66  94 135 184 228 292 353 425
#     4  10  22  45  69  95 138 183 229 293 359 418
#     4  11  24  38  64 100 137 178 230 287 355 429
#     4   9  22  42  66  97 134 174 237 281 356 416
#     4  12  27  48  75 107 147 190 238 304 359 426
#     4   9  21  41  60  93 131 177 223 283 350 418
#
# _framework density 22.518125999999999
#
# number of rings (size 3 to 8) (size 9 to 14) (size 15 to 20)
#    0.000    1.714    1.429    0.857   12.000    3.429 
#    0.000    6.429    0.000    0.000    0.000    0.000 
#    0.000    0.000    0.000    0.000    0.000    0.000 
#
# Total GULP energy -78020.207204 kJ/mol
# GULP energy per Si atom -5572.871943 kJ/mol
# Density = 2.246687 g / cm^3
# Si number density = 22.518126 Si / 1000 Ang^3
#
#
#
# Elastic Constant Matrix: (Units=GPa)
#
#
# Indices 1 2 3 4 5 6 
#
# 1 129.9192 35.5498 28.8161 26.3954 17.5956 -5.3167
# 2 35.5498 52.5318 30.8191 26.3550 -8.8522 2.2206
# 3 28.8161 30.8191 102.0770 30.3990 17.7025 -5.7369
# 4 26.3954 26.3550 30.3990 48.0504 -0.9425 1.7491
# 5 17.5956 -8.8522 17.7025 -0.9425 35.3456 15.6616
# 6 -5.3167 2.2206 -5.7369 1.7491 15.6616 40.1396
#
#
#
# Elastic Compliance Matrix: (Units=1/GPa)
#
#
# Indices 1 2 3 4 5 6 
#
# 1 0.014020 -0.013891 0.005108 -0.004043 -0.017760 0.010461
# 2 -0.013891 0.048335 -0.015812 -0.007432 0.035787 -0.020414
# 3 0.005108 -0.015812 0.020221 -0.007876 -0.022924 0.013729
# 4 -0.004043 -0.007432 -0.007876 0.032439 0.007425 -0.005561
# 5 -0.017760 0.035787 -0.022924 0.007425 0.074102 -0.036845
# 6 0.010461 -0.020414 0.013729 -0.005561 -0.036845 0.044009
#
#
# Mechanical properties :
#
#
# Convention : Reuss Voigt Hill
#
# Bulk Modulus (GPa) = 29.95264 52.76647 41.35955
# Shear Modulus (GPa) = 17.03895 37.33000 27.18448
#
# Velocity S-wave (km/s) = 2.75376 4.07600 3.47829
# Velocity P-wave (km/s) = 4.84163 6.75540 5.87694
#
# Compressibility (1/GPa) = 0.03338604
#
# Stress axis : x y z
#
# Youngs Moduli (GPa) = 71.32639 20.68881 49.45335
#
# Poissons Ratio (x) = 0.28739 -0.25262
# Poissons Ratio (y) = 0.99080 0.78198
# Poissons Ratio (z) = -0.36436 0.32714
#
# Static dielectric constant tensor:
#      x y z
#    x 1.801970 0.109250 0.030980 
#    y 0.109250 1.765590 -0.078570 
#    z 0.030980 -0.078570 1.891340 
# 
# From -- ./inp_files/26730.got.cif
#   From: 2010.05.17/outbox.cif.g08.bks.cpg/sg2_14_cif.got.tgz:26730.got - 2010.06.03 11:33:40.
