data_PCOD9034208
_publ_section_title
;
Structure prediction by ZEFSAII (Michael W. Deem and Ramdas Pophale) SiO2 
 PCOD9034208
Probable space group: P -1
;
_chemical_formula_sum "Si O2"
_cell_formula_units_Z 15
_cell_length_a 7.697070
_cell_length_b 7.776146
_cell_length_c 16.499328
_cell_angle_alpha 85.475546
_cell_angle_beta 128.968147
_cell_angle_gamma 62.558479
_cell_volume 575.980722
_symmetry_space_group_name_H-M "P -1"
_symmetry_group_IT_number 2
_symmetry_cell_setting 'triclinic'
loop_
_space_group_symop_operation_xyz
x,y,z
-x,-y,-z
loop_
_atom_site_type_symbol
_atom_site_label
_atom_site_fract_x
_atom_site_fract_y
_atom_site_fract_z
Si Si1 0.788454 0.093678 0.818743
Si Si2 0.451935 0.858631 0.431346
Si Si3 0.463096 0.419637 0.307730
Si Si4 0.873184 0.147825 0.304720
Si Si5 0.622177 0.066488 0.947250
Si Si6 0.282516 0.363367 0.030438
Si Si7 0.500000 0.500000 0.500000
Si Si8 0.061606 0.560573 0.802705
O O1 0.634560 0.091467 0.692102
O O2 0.665819 0.351401 0.788107
O O3 0.722542 0.025499 0.883843
O O4 0.143590 0.946190 0.928136
O O5 0.695934 0.592616 0.533824
O O6 0.500000 0.000000 0.500000
O O7 0.171373 0.885143 0.386638
O O8 0.779322 0.219020 0.366880
O O9 0.472954 0.486265 0.397051
O O10 0.241009 0.371313 0.254770
O O11 0.573389 0.239341 0.173007
O O12 0.958315 0.273735 0.272721
O O13 0.292298 0.308669 0.841523
O O14 0.666296 0.845422 0.989719
O O15 0.219149 0.531761 0.934987
O O16 0.000000 0.500000 0.000000
#
# Coordination Sequence:
#
# PCOD9034208 Si02
#       8
#     2   2   2   2   2   2   1   2
#     4  10  22  44  72 102 150 185 241 299 358 440
#     4  11  26  49  75 108 140 191 252 306 367 431
#     4  11  23  48  68 105 141 188 249 296 363 433
#     4  12  26  45  72 106 147 192 235 302 365 431
#     4  11  23  40  72 107 142 200 231 286 371 439
#     4  12  25  40  66 111 153 188 236 288 358 441
#     4  10  26  48  76  96 144 186 240 324 350 420
#     4  12  24  42  69 101 148 192 237 288 358 441
#
# _framework density 26.042539999999999
#
# number of rings (size 3 to 8) (size 9 to 14) (size 15 to 20)
#    0.000    0.800    4.000    2.400    7.467    1.600 
#    2.400    2.000    0.000    0.000    0.000    0.000 
#    0.000    0.000    0.000    0.000    0.000    0.000 
#
# Total GULP energy -83589.930775 kJ/mol
# GULP energy per Si atom -5572.662052 kJ/mol
# Density = 2.598327 g / cm^3
# Si number density = 26.042540 Si / 1000 Ang^3
#
#
#
# Elastic Constant Matrix: (Units=GPa)
#
#
# Indices 1 2 3 4 5 6 
#
# 1 101.3789 7.3925 11.0353 -2.7749 -0.9704 -11.0244
# 2 7.3925 84.6426 3.9451 20.2327 -3.3126 8.7732
# 3 11.0353 3.9451 94.2414 7.8942 -8.9454 7.1453
# 4 -2.7749 20.2327 7.8942 35.6898 -7.6868 0.3989
# 5 -0.9704 -3.3126 -8.9454 -7.6868 35.4318 -6.6979
# 6 -11.0244 8.7732 7.1453 0.3989 -6.6979 54.6808
#
#
#
# Elastic Compliance Matrix: (Units=1/GPa)
#
#
# Indices 1 2 3 4 5 6 
#
# 1 0.010497 -0.001616 -0.001475 0.002188 0.000738 0.002643
# 2 -0.001616 0.014198 0.000417 -0.008442 -0.000956 -0.002714
# 3 -0.001475 0.000417 0.011278 -0.002391 0.002030 -0.001572
# 4 0.002188 -0.008442 -0.002391 0.034928 0.006751 0.002680
# 5 0.000738 -0.000956 0.002030 0.006751 0.030843 0.003766
# 6 0.002643 -0.002714 -0.001572 0.002680 0.003766 0.019903
#
#
# Mechanical properties :
#
#
# Convention : Reuss Voigt Hill
#
# Bulk Modulus (GPa) = 32.65291 36.11207 34.38249
# Shear Modulus (GPa) = 36.44196 42.35315 39.39755
#
# Velocity S-wave (km/s) = 3.74481 4.03712 3.89371
# Velocity P-wave (km/s) = 5.59139 5.96891 5.78323
#
# Compressibility (1/GPa) = 0.03062514
#
# Stress axis : x y z
#
# Youngs Moduli (GPa) = 95.26772 70.43243 88.66445
#
# Poissons Ratio (x) = 0.11382 0.13078
# Poissons Ratio (y) = 0.15396 -0.03698
# Poissons Ratio (z) = 0.14052 -0.02938
#
# Static dielectric constant tensor:
#      x y z
#    x 2.088200 0.110240 0.009950 
#    y 0.110240 1.842870 0.169410 
#    z 0.009950 0.169410 2.017260 
# 
# From -- ./inp_files/547099.got.cif
#   From: 2010.05.17/outbox.cif.g08.bks.cpg/sg2_274_cif.got.tgz:547099.got - 2010.06.03 11:33:40.
