data_PCOD9034238
_publ_section_title
;
Structure prediction by ZEFSAII (Michael W. Deem and Ramdas Pophale) SiO2 
 PCOD9034238
Probable space group: P -1
;
_chemical_formula_sum "Si O2"
_cell_formula_units_Z 14
_cell_length_a 15.331818
_cell_length_b 9.223982
_cell_length_c 15.005312
_cell_angle_alpha 141.535154
_cell_angle_beta 36.926686
_cell_angle_gamma 151.347852
_cell_volume 586.351804
_symmetry_space_group_name_H-M "P -1"
_symmetry_group_IT_number 2
_symmetry_cell_setting 'triclinic'
loop_
_space_group_symop_operation_xyz
x,y,z
-x,-y,-z
loop_
_atom_site_type_symbol
_atom_site_label
_atom_site_fract_x
_atom_site_fract_y
_atom_site_fract_z
Si Si1 0.395156 0.628501 0.115406
Si Si2 0.685032 0.371319 0.517289
Si Si3 0.641967 0.279637 0.314671
Si Si4 0.377415 0.202527 0.168621
Si Si5 0.969600 0.511737 0.925290
Si Si6 0.963117 0.328428 0.354956
Si Si7 0.298937 0.391734 0.758724
O O1 0.158896 0.399338 0.199120
O O2 0.462124 0.921976 0.261984
O O3 0.500000 0.500000 0.000000
O O4 0.492551 0.754768 0.998569
O O5 0.657417 0.430825 0.467324
O O6 0.671654 0.575554 0.693220
O O7 0.882131 0.437989 0.406408
O O8 0.500000 0.000000 0.500000
O O9 0.685178 0.496702 0.301235
O O10 0.814867 0.276898 0.185993
O O11 0.506201 0.330752 0.213723
O O12 0.177483 0.842012 0.161280
O O13 0.866367 0.645101 0.069410
O O14 0.000000 0.500000 0.000000
O O15 0.000000 0.500000 0.500000
O O16 0.782047 0.955653 0.338686
#
# Coordination Sequence:
#
# PCOD9034238 Si02
#       7
#     2   2   2   2   2   2   2
#     4  12  26  46  79 110 150 203 252 303 383 444
#     4  12  27  51  71 112 156 195 247 313 382 451
#     4  11  26  47  75 106 152 197 248 309 381 445
#     4  12  25  46  77 107 151 194 253 314 364 450
#     4  10  22  44  72 107 143 189 249 311 365 430
#     4  12  28  48  79 110 156 198 250 309 382 449
#     4  11  25  46  74 110 147 193 254 312 367 446
#
# _framework density 23.876450999999999
#
# number of rings (size 3 to 8) (size 9 to 14) (size 15 to 20)
#    0.000    0.571    4.286    3.857    8.000    1.714 
#    0.000    0.000    0.000    0.000    0.000    0.000 
#    0.000    0.000    0.000    0.000    0.000    0.000 
#
# Total GULP energy -78282.165401 kJ/mol
# GULP energy per Si atom -5591.583243 kJ/mol
# Density = 2.382211 g / cm^3
# Si number density = 23.876451 Si / 1000 Ang^3
#
#
#
# Elastic Constant Matrix: (Units=GPa)
#
#
# Indices 1 2 3 4 5 6 
#
# 1 122.5684 35.6698 35.1837 -4.8202 3.0888 17.4453
# 2 35.6698 97.8121 21.0789 15.2134 -3.8260 25.7400
# 3 35.1837 21.0789 94.9875 11.8804 -11.7120 10.6803
# 4 -4.8202 15.2134 11.8804 44.7687 8.3852 -1.4172
# 5 3.0888 -3.8260 -11.7120 8.3852 43.4810 -1.4013
# 6 17.4453 25.7400 10.6803 -1.4172 -1.4013 37.7323
#
#
#
# Elastic Compliance Matrix: (Units=1/GPa)
#
#
# Indices 1 2 3 4 5 6 
#
# 1 0.010690 -0.003373 -0.003875 0.003818 -0.002885 -0.001508
# 2 -0.003373 0.014779 0.000011 -0.006120 0.002444 -0.008665
# 3 -0.003875 0.000011 0.013392 -0.004932 0.004770 -0.002015
# 4 0.003818 -0.006120 -0.004932 0.027653 -0.007324 0.004573
# 5 -0.002885 0.002444 0.004770 -0.007324 0.026084 -0.000990
# 6 -0.001508 -0.008665 -0.002015 0.004573 -0.000990 0.033816
#
#
# Mechanical properties :
#
#
# Convention : Reuss Voigt Hill
#
# Bulk Modulus (GPa) = 41.00521 55.47031 48.23776
# Shear Modulus (GPa) = 33.55308 40.09209 36.82258
#
# Velocity S-wave (km/s) = 3.75277 4.10219 3.93136
# Velocity P-wave (km/s) = 5.99908 6.76165 6.39175
#
# Compressibility (1/GPa) = 0.02438714
#
# Stress axis : x y z
#
# Youngs Moduli (GPa) = 93.54363 67.66279 74.67143
#
# Poissons Ratio (x) = 0.22824 0.28934
# Poissons Ratio (y) = 0.31554 -0.00081
# Poissons Ratio (z) = 0.36246 -0.00073
#
# Static dielectric constant tensor:
#      x y z
#    x 1.956350 -0.016810 -0.028280 
#    y -0.016810 1.860030 -0.034070 
#    z -0.028280 -0.034070 2.013260 
# 
# From -- ./inp_files/530233.got.cif
#   From: 2010.05.17/outbox.cif.g08.bks.cpg/sg2_266_cif.got.tgz:530233.got - 2010.06.03 11:33:40.
