data_PCOD9034299
_publ_section_title
;
Structure prediction by ZEFSAII (Michael W. Deem and Ramdas Pophale) SiO2 
 PCOD9034299
Probable space group: P -1
;
_chemical_formula_sum "Si O2"
_cell_formula_units_Z 16
_cell_length_a 8.321353
_cell_length_b 5.106213
_cell_length_c 23.729229
_cell_angle_alpha 116.705187
_cell_angle_beta 132.434149
_cell_angle_gamma 90.741849
_cell_volume 583.353916
_symmetry_space_group_name_H-M "P -1"
_symmetry_group_IT_number 2
_symmetry_cell_setting 'triclinic'
loop_
_space_group_symop_operation_xyz
x,y,z
-x,-y,-z
loop_
_atom_site_type_symbol
_atom_site_label
_atom_site_fract_x
_atom_site_fract_y
_atom_site_fract_z
Si Si1 0.935811 0.137610 0.925062
Si Si2 0.253984 0.379053 0.656013
Si Si3 0.700586 0.399039 0.809047
Si Si4 0.326362 0.123018 0.540498
Si Si5 0.510372 0.589141 0.945228
Si Si6 0.830982 0.086114 0.249872
Si Si7 0.962757 0.381010 0.200479
Si Si8 0.287161 0.079600 0.400547
O O1 0.781907 0.158477 0.836853
O O2 0.789829 0.783836 0.888958
O O3 0.000000 0.500000 0.000000
O O4 0.201537 0.173123 0.975534
O O5 0.408130 0.234882 0.713041
O O6 0.359546 0.406655 0.620170
O O7 0.273861 0.685522 0.726149
O O8 0.964538 0.126242 0.557357
O O9 0.848643 0.501714 0.794618
O O10 0.398312 0.225100 0.502510
O O11 0.483064 0.935920 0.577153
O O12 0.308553 0.705060 0.893814
O O13 0.412616 0.275930 0.848134
O O14 0.500000 0.500000 0.000000
O O15 0.923572 0.096665 0.207666
O O16 0.095093 0.214225 0.355330
O O17 0.076342 0.691148 0.301897
#
# Coordination Sequence:
#
# PCOD9034299 Si02
#       8
#     2   2   2   2   2   2   2   2
#     4  12  28  47  72 105 143 193 240 305 361 439
#     4  11  24  43  68 107 139 188 232 305 370 428
#     4  12  27  46  72 102 151 190 239 298 375 429
#     4  10  22  44  72  98 146 175 245 298 357 450
#     4  11  24  44  70 102 137 186 245 293 351 433
#     4  11  25  41  71 101 141 184 238 297 368 426
#     4  11  23  43  69 100 141 186 233 299 354 431
#     4  10  22  45  68 102 137 188 234 297 358 430
#
# _framework density 27.427603000000001
#
# number of rings (size 3 to 8) (size 9 to 14) (size 15 to 20)
#    0.000    1.000    3.750    1.875    5.250    3.000 
#    0.000    2.500    0.000    0.000    0.000    0.000 
#    0.000    0.000    0.000    0.000    0.000    0.000 
#
# Total GULP energy -89341.679556 kJ/mol
# GULP energy per Si atom -5583.854972 kJ/mol
# Density = 2.736518 g / cm^3
# Si number density = 27.427603 Si / 1000 Ang^3
#
#
#
# Elastic Constant Matrix: (Units=GPa)
#
#
# Indices 1 2 3 4 5 6 
#
# 1 127.2821 28.1117 43.3718 -9.0294 6.5228 -31.0883
# 2 28.1117 77.9901 32.0848 -10.9545 5.6752 -19.0745
# 3 43.3718 32.0848 163.8116 -10.1814 31.4900 -17.8080
# 4 -9.0294 -10.9545 -10.1814 46.7372 -14.6995 2.4092
# 5 6.5228 5.6752 31.4900 -14.6995 74.8652 -0.6872
# 6 -31.0883 -19.0745 -17.8080 2.4092 -0.6872 45.3832
#
#
#
# Elastic Compliance Matrix: (Units=1/GPa)
#
#
# Indices 1 2 3 4 5 6 
#
# 1 0.010225 -0.001440 -0.001791 0.001028 0.000225 0.005645
# 2 -0.001440 0.015708 -0.002093 0.002838 0.000415 0.004650
# 3 -0.001791 -0.002093 0.007633 -0.000134 -0.002915 0.000852
# 4 0.001028 0.002838 -0.000134 0.023577 0.004387 0.000659
# 5 0.000225 0.000415 -0.002915 0.004387 0.015386 -0.000815
# 6 0.005645 0.004650 0.000852 0.000659 -0.000815 0.028143
#
#
# Mechanical properties :
#
#
# Convention : Reuss Voigt Hill
#
# Bulk Modulus (GPa) = 43.63460 64.02450 53.82955
# Shear Modulus (GPa) = 42.03101 51.09816 46.56458
#
# Velocity S-wave (km/s) = 3.91888 4.32095 4.12482
# Velocity P-wave (km/s) = 6.03493 6.94895 6.50801
#
# Compressibility (1/GPa) = 0.02291759
#
# Stress axis : x y z
#
# Youngs Moduli (GPa) = 97.79874 63.66139 131.00595
#
# Poissons Ratio (x) = 0.09169 0.23462
# Poissons Ratio (y) = 0.14086 0.27423
# Poissons Ratio (z) = 0.17515 0.13326
#
# Static dielectric constant tensor:
#      x y z
#    x 2.193890 0.087730 -0.094520 
#    y 0.087730 2.359920 0.034100 
#    z -0.094520 0.034100 2.203930 
# 
# From -- ./inp_files/299852.got.cif
#   From: 2010.05.17/outbox.cif.g08.bks.cpg/sg2_150_cif.got.tgz:299852.got - 2010.06.03 11:33:40.
