data_PCOD9034355
_publ_section_title
;
Structure prediction by ZEFSAII (Michael W. Deem and Ramdas Pophale) SiO2 
 PCOD9034355
Probable space group: P -1
;
_chemical_formula_sum "Si O2"
_cell_formula_units_Z 14
_cell_length_a 18.002373
_cell_length_b 24.199703
_cell_length_c 12.186512
_cell_angle_alpha 160.921269
_cell_angle_beta 149.698198
_cell_angle_gamma 19.703482
_cell_volume 568.102515
_symmetry_space_group_name_H-M "P -1"
_symmetry_group_IT_number 2
_symmetry_cell_setting 'triclinic'
loop_
_space_group_symop_operation_xyz
x,y,z
-x,-y,-z
loop_
_atom_site_type_symbol
_atom_site_label
_atom_site_fract_x
_atom_site_fract_y
_atom_site_fract_z
Si Si1 0.504750 0.181785 0.796877
Si Si2 0.353629 0.805573 0.776277
Si Si3 0.425878 0.900783 0.654014
Si Si4 0.756122 0.708225 0.520440
Si Si5 0.032956 0.076083 0.393277
Si Si6 0.627693 0.497531 0.334975
Si Si7 0.003036 0.312413 0.599116
O O1 0.292535 0.363808 0.784844
O O2 0.500000 0.000000 0.500000
O O3 0.748766 0.967549 0.645638
O O4 0.515769 0.293179 0.125294
O O5 0.477536 0.611430 0.466651
O O6 0.126558 0.901710 0.696149
O O7 0.304670 0.043145 0.121358
O O8 0.575893 0.787211 0.523548
O O9 0.486200 0.693696 0.422147
O O10 0.161617 0.115328 0.692139
O O11 0.500000 0.000000 0.000000
O O12 0.000000 0.500000 0.500000
O O13 0.919479 0.254048 0.475005
O O14 0.239017 0.782304 0.059152
O O15 0.827584 0.454559 0.542481
O O16 0.000000 0.500000 0.000000
#
# Coordination Sequence:
#
# PCOD9034355 Si02
#       7
#     2   2   2   2   2   2   2
#     4  10  22  44  73 108 153 193 252 312 369 447
#     4  11  25  50  73 114 154 194 253 312 378 450
#     4  12  25  50  75 104 150 205 251 305 378 453
#     4  11  23  45  76 110 151 200 254 310 367 445
#     4  12  27  50  76 109 155 200 248 322 383 443
#     4  12  26  47  76 110 157 198 252 312 383 448
#     4  12  24  47  75 108 149 199 254 310 376 451
#
# _framework density 24.643438
#
# number of rings (size 3 to 8) (size 9 to 14) (size 15 to 20)
#    0.000    0.571    4.286    4.286    2.000    1.143 
#    7.714    0.000    0.000    0.000    0.000    0.000 
#    0.000    0.000    0.000    0.000    0.000    0.000 
#
# Total GULP energy -78405.655760 kJ/mol
# GULP energy per Si atom -5600.403983 kJ/mol
# Density = 2.458735 g / cm^3
# Si number density = 24.643438 Si / 1000 Ang^3
#
#
#
# Elastic Constant Matrix: (Units=GPa)
#
#
# Indices 1 2 3 4 5 6 
#
# 1 182.1305 71.5886 46.3188 2.6811 -8.2427 -21.2660
# 2 71.5886 139.1167 17.4622 -22.8904 -22.0760 -0.9102
# 3 46.3188 17.4622 93.5372 -4.6298 -18.9658 -11.0003
# 4 2.6811 -22.8904 -4.6298 43.3288 -3.8229 -1.6817
# 5 -8.2427 -22.0760 -18.9658 -3.8229 28.0187 0.5194
# 6 -21.2660 -0.9102 -11.0003 -1.6817 0.5194 56.3448
#
#
#
# Elastic Compliance Matrix: (Units=1/GPa)
#
#
# Indices 1 2 3 4 5 6 
#
# 1 0.008896 -0.005583 -0.004399 -0.004356 -0.005397 0.002328
# 2 -0.005583 0.012943 0.003021 0.008500 0.011782 -0.001163
# 3 -0.004399 0.003021 0.015108 0.004587 0.011914 0.001365
# 4 -0.004356 0.008500 0.004587 0.029442 0.012535 0.000152
# 5 -0.005397 0.011782 0.011914 0.012535 0.053154 0.000363
# 6 0.002328 -0.001163 0.001365 0.000152 0.000363 0.018876
#
#
# Mechanical properties :
#
#
# Convention : Reuss Voigt Hill
#
# Bulk Modulus (GPa) = 43.43092 76.16931 59.80012
# Shear Modulus (GPa) = 31.24718 44.16611 37.70665
#
# Velocity S-wave (km/s) = 3.56472 4.23804 3.91588
# Velocity P-wave (km/s) = 5.88260 7.41105 6.69061
#
# Compressibility (1/GPa) = 0.02302507
#
# Stress axis : x y z
#
# Youngs Moduli (GPa) = 112.41472 77.26291 66.18815
#
# Poissons Ratio (x) = 0.43140 0.29115
# Poissons Ratio (y) = 0.62767 -0.19998
# Poissons Ratio (z) = 0.49450 -0.23345
#
# Static dielectric constant tensor:
#      x y z
#    x 1.971680 0.010740 -0.074610 
#    y 0.010740 1.955620 -0.011570 
#    z -0.074610 -0.011570 1.981180 
# 
# From -- ./inp_files/467412.got.cif
#   From: 2010.05.17/outbox.cif.g08.bks.cpg/sg2_234_cif.got.tgz:467412.got - 2010.06.03 11:33:40.
