data_PCOD9034110
_publ_section_title
;
Structure prediction by ZEFSAII (Michael W. Deem and Ramdas Pophale) SiO2 
 PCOD9034110
Probable space group: P -1
;
_chemical_formula_sum "Si O2"
_cell_formula_units_Z 16
_cell_length_a 16.001871
_cell_length_b 6.867173
_cell_length_c 7.527652
_cell_angle_alpha 59.574239
_cell_angle_beta 115.995711
_cell_angle_gamma 120.571251
_cell_volume 595.656706
_symmetry_space_group_name_H-M "P -1"
_symmetry_group_IT_number 2
_symmetry_cell_setting 'triclinic'
loop_
_space_group_symop_operation_xyz
x,y,z
-x,-y,-z
loop_
_atom_site_type_symbol
_atom_site_label
_atom_site_fract_x
_atom_site_fract_y
_atom_site_fract_z
Si Si1 0.787893 0.719039 0.396094
Si Si2 0.521014 0.252445 0.801187
Si Si3 0.913621 0.590958 0.806894
Si Si4 0.305976 0.018105 0.567784
Si Si5 0.799854 0.473893 0.096032
Si Si6 0.356566 0.362159 0.993031
Si Si7 0.608400 0.085964 0.658402
Si Si8 0.049084 0.093706 0.807644
O O1 0.851971 0.554822 0.584020
O O2 0.682696 0.580689 0.259657
O O3 0.856449 0.908683 0.224834
O O4 0.765109 0.846741 0.489414
O O5 0.554364 0.451889 0.894639
O O6 0.602255 0.282538 0.705671
O O7 0.416753 0.207648 0.628540
O O8 0.500000 0.000000 0.000000
O O9 0.829351 0.459479 0.931407
O O10 0.962496 0.886078 0.716155
O O11 0.000000 0.500000 0.000000
O O12 0.269272 0.777187 0.767822
O O13 0.315956 0.918854 0.427263
O O14 0.737818 0.650770 0.966258
O O15 0.903388 0.616745 0.234045
O O16 0.378205 0.120817 0.109139
O O17 0.500000 0.000000 0.500000
O O18 0.000000 0.000000 0.000000
#
# Coordination Sequence:
#
# PCOD9034110 Si02
#       8
#     2   2   2   2   2   2   2   2
#     4  11  24  44  76 112 150 201 254 318 381 463
#     4  11  23  46  76 105 158 209 260 310 377 451
#     4  11  23  46  77 105 146 194 250 315 393 468
#     4  11  23  45  71 114 152 199 259 317 383 451
#     4  10  22  44  71 108 150 192 248 323 380 452
#     4  11  24  47  73 110 156 203 259 311 378 440
#     4  10  25  46  72 109 150 205 261 316 374 448
#     4   9  21  44  71 106 147 189 248 308 386 464
#
# _framework density 26.861111000000001
#
# number of rings (size 3 to 8) (size 9 to 14) (size 15 to 20)
#    0.000    1.500    1.250    2.625    0.000    4.000 
#   11.250   13.750    0.000    0.000    0.000    0.000 
#    0.000    0.000    0.000    0.000    0.000    0.000 
#
# Total GULP energy -89089.212721 kJ/mol
# GULP energy per Si atom -5568.075795 kJ/mol
# Density = 2.679997 g / cm^3
# Si number density = 26.861111 Si / 1000 Ang^3
#
#
#
# Elastic Constant Matrix: (Units=GPa)
#
#
# Indices 1 2 3 4 5 6 
#
# 1 170.5088 35.3251 56.4129 2.8582 -22.5201 -4.0376
# 2 35.3251 135.3256 44.3374 16.1503 0.7519 20.4321
# 3 56.4129 44.3374 118.0654 13.2886 3.2141 -1.8285
# 4 2.8582 16.1503 13.2886 29.8944 -3.5760 4.7668
# 5 -22.5201 0.7519 3.2141 -3.5760 68.8707 11.4320
# 6 -4.0376 20.4321 -1.8285 4.7668 11.4320 37.9506
#
#
#
# Elastic Compliance Matrix: (Units=1/GPa)
#
#
# Indices 1 2 3 4 5 6 
#
# 1 0.007572 -0.001086 -0.003472 0.001699 0.002706 0.000195
# 2 -0.001086 0.009775 -0.002906 -0.003000 0.000391 -0.005259
# 3 -0.003472 -0.002906 0.011792 -0.004099 -0.002363 0.002990
# 4 0.001699 -0.003000 -0.004099 0.037810 0.003438 -0.004186
# 5 0.002706 0.000391 -0.002363 0.003438 0.016597 -0.005468
# 6 0.000195 -0.005259 0.002990 -0.004186 -0.005468 0.031519
#
#
# Mechanical properties :
#
#
# Convention : Reuss Voigt Hill
#
# Bulk Modulus (GPa) = 70.37050 77.33896 73.85473
# Shear Modulus (GPa) = 37.11071 46.53145 41.82108
#
# Velocity S-wave (km/s) = 3.72099 4.16660 3.95009
# Velocity P-wave (km/s) = 6.68699 7.21125 6.95406
#
# Compressibility (1/GPa) = 0.01421050
#
# Stress axis : x y z
#
# Youngs Moduli (GPa) = 132.06505 102.29863 84.80125
#
# Poissons Ratio (x) = 0.11112 0.29442
# Poissons Ratio (y) = 0.14345 0.24647
# Poissons Ratio (z) = 0.45852 0.29732
#
# Static dielectric constant tensor:
#      x y z
#    x 2.161000 0.008000 0.107400 
#    y 0.008000 2.178560 -0.019540 
#    z 0.107400 -0.019540 2.376350 
# 
# From -- ./inp_files/294210.got.cif
#   From: 2010.05.17/outbox.cif.g08.bks.cpg/sg2_148_cif.got.tgz:294210.got - 2010.06.03 11:33:40.
