data_PCOD9034707
_publ_section_title
;
Structure prediction by ZEFSAII (Michael W. Deem and Ramdas Pophale) SiO2 
 PCOD9034707
Probable space group: P -1
;
_chemical_formula_sum "Si O2"
_cell_formula_units_Z 16
_cell_length_a 6.884393
_cell_length_b 19.394683
_cell_length_c 16.258690
_cell_angle_alpha 158.468793
_cell_angle_beta 79.034590
_cell_angle_gamma 101.103740
_cell_volume 781.442619
_symmetry_space_group_name_H-M "P -1"
_symmetry_group_IT_number 2
_symmetry_cell_setting 'triclinic'
loop_
_space_group_symop_operation_xyz
x,y,z
-x,-y,-z
loop_
_atom_site_type_symbol
_atom_site_label
_atom_site_fract_x
_atom_site_fract_y
_atom_site_fract_z
Si Si1 0.638074 0.019668 0.930300
Si Si2 0.001267 0.778576 0.607226
Si Si3 0.035191 0.717509 0.725792
Si Si4 0.855907 0.467063 0.815546
Si Si5 0.287184 0.116793 0.957125
Si Si6 0.144779 0.811928 0.206992
Si Si7 0.174480 0.919967 0.512126
Si Si8 0.577834 0.732740 0.048564
O O1 0.791327 0.192429 0.131692
O O2 0.495980 0.052078 0.901202
O O3 0.500000 0.000000 0.000000
O O4 0.779069 0.847971 0.710042
O O5 0.074041 0.754663 0.668272
O O6 0.028431 0.601440 0.350899
O O7 0.147075 0.944963 0.744166
O O8 0.000000 0.500000 0.500000
O O9 0.834960 0.809781 0.874312
O O10 0.824973 0.283506 0.670960
O O11 0.655824 0.561284 0.905496
O O12 0.987416 0.635946 0.033034
O O13 0.324403 0.268247 0.050812
O O14 0.199988 0.889705 0.379020
O O15 0.343111 0.741993 0.072540
O O16 0.033711 0.973854 0.346106
O O17 0.338596 0.070492 0.699965
#
# Coordination Sequence:
#
# PCOD9034707 Si02
#       8
#     2   2   2   2   2   2   2   2
#     4  11  21  40  64  85 113 170 215 246 309 378
#     4  11  22  40  63  88 126 165 206 258 317 365
#     4  11  23  39  60  87 126 159 202 266 311 360
#     4  11  24  41  65  96 130 165 210 261 316 376
#     4  11  22  40  61  88 123 165 209 255 310 373
#     4  10  24  42  67  99 125 164 214 258 314 382
#     4  10  22  45  67  91 133 168 201 262 324 373
#     4  11  24  40  65  96 127 166 216 258 310 380
#
# _framework density 20.474951000000001
#
# number of rings (size 3 to 8) (size 9 to 14) (size 15 to 20)
#    0.000    1.250    3.750    2.250    1.750    5.000 
#    2.250    0.000    0.000    0.000    0.000    0.000 
#    0.000    0.000    0.000    0.000    0.000    0.000 
#
# Total GULP energy -89368.713898 kJ/mol
# GULP energy per Si atom -5585.544619 kJ/mol
# Density = 2.042835 g / cm^3
# Si number density = 20.474951 Si / 1000 Ang^3
#
#
#
# Elastic Constant Matrix: (Units=GPa)
#
#
# Indices 1 2 3 4 5 6 
#
# 1 91.6938 12.3458 4.9740 18.0430 -17.5168 1.4728
# 2 12.3458 57.2558 0.9237 23.0848 -8.6428 -8.2471
# 3 4.9740 0.9237 64.5850 15.8947 -12.2278 -1.8709
# 4 18.0430 23.0848 15.8947 42.7199 -9.7673 -4.9078
# 5 -17.5168 -8.6428 -12.2278 -9.7673 14.4923 -3.1526
# 6 1.4728 -8.2471 -1.8709 -4.9078 -3.1526 23.1517
#
#
#
# Elastic Compliance Matrix: (Units=1/GPa)
#
#
# Indices 1 2 3 4 5 6 
#
# 1 0.015021 0.001457 0.003555 -0.003695 0.019921 0.001780
# 2 0.001457 0.025542 0.005697 -0.011888 0.015766 0.009093
# 3 0.003555 0.005697 0.021123 -0.006823 0.022019 0.005062
# 4 -0.003695 -0.011888 -0.006823 0.036256 0.008043 0.004230
# 5 0.019921 0.015766 0.022019 0.008043 0.132099 0.025822
# 6 0.001780 0.009093 0.005062 0.004230 0.025822 0.051141
#
#
# Mechanical properties :
#
#
# Convention : Reuss Voigt Hill
#
# Bulk Modulus (GPa) = 12.03322 27.78016 19.90669
# Shear Modulus (GPa) = 17.39330 29.09219 23.24275
#
# Velocity S-wave (km/s) = 2.91777 3.77353 3.37290
# Velocity P-wave (km/s) = 4.15222 5.70818 4.99121
#
# Compressibility (1/GPa) = 0.08310329
#
# Stress axis : x y z
#
# Youngs Moduli (GPa) = 66.57355 39.15092 47.34188
#
# Poissons Ratio (x) = -0.05705 -0.16830
# Poissons Ratio (y) = -0.09700 -0.26969
# Poissons Ratio (z) = -0.23666 -0.22303
#
# Static dielectric constant tensor:
#      x y z
#    x 1.717300 -0.000560 -0.009050 
#    y -0.000560 1.730280 -0.025010 
#    z -0.009050 -0.025010 1.715820 
# 
# From -- ./inp_files/106088.got.cif
#   From: 2010.05.17/outbox.cif.g08.bks.cpg/sg2_54_cif.got.tgz:106088.got - 2010.06.03 11:33:40.
