data_PCOD9034049
_publ_section_title
;
Structure prediction by ZEFSAII (Michael W. Deem and Ramdas Pophale) SiO2 
 PCOD9034049
Probable space group: P -1
;
_chemical_formula_sum "Si O2"
_cell_formula_units_Z 14
_cell_length_a 18.882861
_cell_length_b 9.367918
_cell_length_c 6.891164
_cell_angle_alpha 78.601362
_cell_angle_beta 40.743874
_cell_angle_gamma 59.233056
_cell_volume 643.237002
_symmetry_space_group_name_H-M "P -1"
_symmetry_group_IT_number 2
_symmetry_cell_setting 'triclinic'
loop_
_space_group_symop_operation_xyz
x,y,z
-x,-y,-z
loop_
_atom_site_type_symbol
_atom_site_label
_atom_site_fract_x
_atom_site_fract_y
_atom_site_fract_z
Si Si1 0.359882 0.029562 0.298816
Si Si2 0.826075 0.763510 0.729492
Si Si3 0.800379 0.109831 0.836966
Si Si4 0.970588 0.383894 0.966878
Si Si5 0.297407 0.314905 0.655231
Si Si6 0.446803 0.694313 0.977974
Si Si7 0.962868 0.954142 0.887923
O O1 0.269278 0.150588 0.279325
O O2 0.307355 0.151074 0.567437
O O3 0.500000 0.000000 0.000000
O O4 0.384103 0.840510 0.245185
O O5 0.968210 0.641888 0.366598
O O6 0.826814 0.918559 0.793840
O O7 0.762329 0.687374 0.013945
O O8 0.912326 0.115902 0.491183
O O9 0.834955 0.104185 0.994392
O O10 0.661982 0.245996 0.982373
O O11 0.813179 0.493789 0.255776
O O12 0.000000 0.500000 0.000000
O O13 0.044043 0.203592 0.981363
O O14 0.435439 0.294873 0.358515
O O15 0.500000 0.500000 0.000000
O O16 0.000000 0.000000 0.000000
#
# Coordination Sequence:
#
# PCOD9034049 Si02
#       7
#     2   2   2   2   2   2   2
#     4   9  21  40  65  93 131 180 216 273 332 402
#     4  11  22  41  65 104 130 180 226 276 340 402
#     4  10  23  41  71  99 131 177 230 276 341 409
#     4  12  23  41  70  99 139 178 226 283 335 400
#     4  11  23  41  66 100 138 177 223 280 336 400
#     4  10  22  44  71 101 138 179 227 281 340 405
#     4  11  23  44  66  97 132 179 224 279 340 398
#
# _framework density 21.764915999999999
#
# number of rings (size 3 to 8) (size 9 to 14) (size 15 to 20)
#    0.000    1.429    2.857    2.143    0.000    5.143 
#    0.000    0.000    0.000   12.000    0.000    0.000 
#    0.000    0.000    0.000    0.000    0.000    0.000 
#
# Total GULP energy -78058.917356 kJ/mol
# GULP energy per Si atom -5575.636954 kJ/mol
# Density = 2.171538 g / cm^3
# Si number density = 21.764916 Si / 1000 Ang^3
#
#
#
# Elastic Constant Matrix: (Units=GPa)
#
#
# Indices 1 2 3 4 5 6 
#
# 1 144.4231 51.9721 45.6295 1.6566 -7.3925 -19.0050
# 2 51.9721 114.0120 40.1676 -11.7119 12.6909 -10.9953
# 3 45.6295 40.1676 115.4092 -15.3287 -6.4299 -20.2345
# 4 1.6566 -11.7119 -15.3287 35.8715 0.0582 -7.8406
# 5 -7.3925 12.6909 -6.4299 0.0582 35.8794 5.3348
# 6 -19.0050 -10.9953 -20.2345 -7.8406 5.3348 25.9322
#
#
#
# Elastic Compliance Matrix: (Units=1/GPa)
#
#
# Indices 1 2 3 4 5 6 
#
# 1 0.009445 -0.003817 -0.002088 -0.002024 0.002548 0.002539
# 2 -0.003817 0.012703 -0.002082 0.004211 -0.006181 0.003509
# 3 -0.002088 -0.002082 0.012877 0.006995 0.001189 0.009505
# 4 -0.002024 0.004211 0.006995 0.036135 -0.003293 0.017363
# 5 0.002548 -0.006181 0.001189 -0.003293 0.031899 -0.007384
# 6 0.002539 0.003509 0.009505 0.017363 -0.007384 0.056096
#
#
# Mechanical properties :
#
#
# Convention : Reuss Voigt Hill
#
# Bulk Modulus (GPa) = 52.48709 72.15363 62.32036
# Shear Modulus (GPa) = 27.55155 35.27496 31.41325
#
# Velocity S-wave (km/s) = 3.56177 4.03019 3.80320
# Velocity P-wave (km/s) = 6.40958 7.40810 6.92685
#
# Compressibility (1/GPa) = 0.01905231
#
# Stress axis : x y z
#
# Youngs Moduli (GPa) = 105.87880 78.71886 77.66006
#
# Poissons Ratio (x) = 0.30043 0.16212
# Poissons Ratio (y) = 0.40409 0.16170
# Poissons Ratio (z) = 0.22103 0.16391
#
# Static dielectric constant tensor:
#      x y z
#    x 1.827670 0.051660 -0.011290 
#    y 0.051660 1.809000 0.014210 
#    z -0.011290 0.014210 1.877010 
# 
# From -- ./inp_files/94352.got.cif
#   From: 2010.05.17/outbox.cif.g08.bks.cpg/sg2_48_cif.got.tgz:94352.got - 2010.06.03 11:33:40.
