data_PCOD9034398
_publ_section_title
;
Structure prediction by ZEFSAII (Michael W. Deem and Ramdas Pophale) SiO2 
 PCOD9034398
Probable space group: P -1
;
_chemical_formula_sum "Si O2"
_cell_formula_units_Z 13
_cell_length_a 5.459655
_cell_length_b 9.469945
_cell_length_c 12.656602
_cell_angle_alpha 108.326276
_cell_angle_beta 53.231703
_cell_angle_gamma 102.310399
_cell_volume 497.343535
_symmetry_space_group_name_H-M "P -1"
_symmetry_group_IT_number 2
_symmetry_cell_setting 'triclinic'
loop_
_space_group_symop_operation_xyz
x,y,z
-x,-y,-z
loop_
_atom_site_type_symbol
_atom_site_label
_atom_site_fract_x
_atom_site_fract_y
_atom_site_fract_z
Si Si1 0.352709 0.043052 0.892149
Si Si2 0.299488 0.514688 0.349224
Si Si3 0.743129 0.768705 0.243329
Si Si4 0.757989 0.681843 0.891891
Si Si5 0.000000 0.500000 0.000000
Si Si6 0.412343 0.757978 0.701198
Si Si7 0.234102 0.088899 0.532523
O O1 0.345353 0.113999 0.794013
O O2 0.503471 0.882315 0.796293
O O3 0.438487 0.177068 0.983654
O O4 0.000000 0.000000 0.000000
O O5 0.432869 0.681611 0.343266
O O6 0.333823 0.440248 0.203646
O O7 0.534647 0.410687 0.322245
O O8 0.000000 0.500000 0.500000
O O9 0.950982 0.643938 0.114908
O O10 0.925809 0.839746 0.310223
O O11 0.052582 0.762831 0.780368
O O12 0.856322 0.593882 0.951228
O O13 0.602471 0.791454 0.556426
O O14 0.500000 0.000000 0.500000
O O15 0.000000 0.000000 0.500000
#
# Coordination Sequence:
#
# PCOD9034398 Si02
#       7
#     2   2   2   2   1   2   2
#     4   9  21  43  74 100 149 195 258 322 379 465
#     4  12  28  43  74 111 151 200 252 323 394 472
#     4  11  24  48  71 112 148 193 263 314 395 464
#     4  10  23  45  72 106 151 189 260 309 398 461
#     4  10  22  44  74 104 146 200 234 324 382 466
#     4  11  24  47  70 106 148 200 254 319 388 456
#     4  12  29  49  78 112 154 207 265 326 389 471
#
# _framework density 26.138871999999999
#
# number of rings (size 3 to 8) (size 9 to 14) (size 15 to 20)
#    0.000    1.231    3.077    0.923    6.462    4.308 
#    2.769    0.000    0.000    0.000    0.000    0.000 
#    0.000    0.000    0.000    0.000    0.000    0.000 
#
# Total GULP energy -72432.763444 kJ/mol
# GULP energy per Si atom -5571.751034 kJ/mol
# Density = 2.607938 g / cm^3
# Si number density = 26.138872 Si / 1000 Ang^3
#
#
#
# Elastic Constant Matrix: (Units=GPa)
#
#
# Indices 1 2 3 4 5 6 
#
# 1 52.1677 29.6378 24.0214 3.4298 19.9560 16.1285
# 2 29.6378 102.3345 22.2593 -21.2852 9.0045 13.5165
# 3 24.0214 22.2593 130.5768 17.1049 30.8798 17.0905
# 4 3.4298 -21.2852 17.1049 62.8760 -0.0497 2.6860
# 5 19.9560 9.0045 30.8798 -0.0497 43.2304 10.9970
# 6 16.1285 13.5165 17.0905 2.6860 10.9970 31.0994
#
#
#
# Elastic Compliance Matrix: (Units=1/GPa)
#
#
# Indices 1 2 3 4 5 6 
#
# 1 0.030247 -0.007476 -0.000327 -0.003741 -0.010043 -0.008382
# 2 -0.007476 0.013634 -0.002010 0.005674 0.002657 -0.002374
# 3 -0.000327 -0.002010 0.010248 -0.003366 -0.006220 -0.002098
# 4 -0.003741 0.005674 -0.003366 0.019012 0.003354 -0.001504
# 5 -0.010043 0.002657 -0.006220 0.003354 0.032784 -0.004410
# 6 -0.008382 -0.002374 -0.002098 -0.001504 -0.004410 0.040376
#
#
# Mechanical properties :
#
#
# Convention : Reuss Voigt Hill
#
# Bulk Modulus (GPa) = 28.98408 48.54621 38.76515
# Shear Modulus (GPa) = 28.18068 41.38519 34.78293
#
# Velocity S-wave (km/s) = 3.28703 3.98336 3.65183
# Velocity P-wave (km/s) = 5.05160 6.30627 5.71348
#
# Compressibility (1/GPa) = 0.03450170
#
# Stress axis : x y z
#
# Youngs Moduli (GPa) = 33.06167 73.34614 97.58294
#
# Poissons Ratio (x) = 0.54833 0.03196
# Poissons Ratio (y) = 0.24717 0.19612
# Poissons Ratio (z) = 0.01083 0.14741
#
# Static dielectric constant tensor:
#      x y z
#    x 2.489610 0.365290 0.073890 
#    y 0.365290 2.331270 0.155310 
#    z 0.073890 0.155310 2.243140 
# 
# From -- ./inp_files/360909.got.cif
#   From: 2010.05.17/outbox.cif.g08.bks.cpg/sg2_181_cif.got.tgz:360909.got - 2010.06.03 11:33:40.
