data_PCOD9034482
_publ_section_title
;
Structure prediction by ZEFSAII (Michael W. Deem and Ramdas Pophale) SiO2 
 PCOD9034482
Probable space group: P -1
;
_chemical_formula_sum "Si O2"
_cell_formula_units_Z 16
_cell_length_a 20.763214
_cell_length_b 8.223285
_cell_length_c 5.568855
_cell_angle_alpha 118.634967
_cell_angle_beta 79.583962
_cell_angle_gamma 126.003435
_cell_volume 668.274755
_symmetry_space_group_name_H-M "P -1"
_symmetry_group_IT_number 2
_symmetry_cell_setting 'triclinic'
loop_
_space_group_symop_operation_xyz
x,y,z
-x,-y,-z
loop_
_atom_site_type_symbol
_atom_site_label
_atom_site_fract_x
_atom_site_fract_y
_atom_site_fract_z
Si Si1 0.940559 0.314486 0.098466
Si Si2 0.318465 0.377938 0.439173
Si Si3 0.633816 0.065011 0.456600
Si Si4 0.171203 0.189637 0.107024
Si Si5 0.228004 0.973878 0.535718
Si Si6 0.484288 0.575760 0.308658
Si Si7 0.900305 0.522358 0.650115
Si Si8 0.402047 0.813510 0.947070
O O1 0.892623 0.407710 0.314943
O O2 0.004817 0.333015 0.257548
O O3 0.000000 0.500000 0.000000
O O4 0.885455 0.049693 0.881190
O O5 0.247239 0.365942 0.345348
O O6 0.277070 0.124713 0.380365
O O7 0.391184 0.468998 0.276652
O O8 0.366998 0.550129 0.747375
O O9 0.626078 0.140302 0.252490
O O10 0.705084 0.032946 0.370668
O O11 0.545999 0.843241 0.430616
O O12 0.643896 0.196749 0.789696
O O13 0.128402 0.315283 0.177897
O O14 0.197424 0.104224 0.799852
O O15 0.155633 0.715321 0.334837
O O16 0.500000 0.500000 0.500000
O O17 0.500000 0.500000 0.000000
O O18 0.500000 0.000000 0.000000
#
# Coordination Sequence:
#
# PCOD9034482 Si02
#       8
#     2   2   2   2   2   2   2   2
#     4  10  22  44  76 105 147 188 243 294 370 451
#     4  12  27  43  69 103 145 190 253 311 377 450
#     4  12  26  48  71 101 148 197 252 317 380 442
#     4  11  25  45  70 109 149 190 243 305 374 451
#     4  11  26  44  71 105 147 194 248 305 378 448
#     4  12  25  43  71 101 140 196 256 315 374 439
#     4  10  23  45  71 108 146 191 238 303 367 451
#     4  12  28  46  72 105 143 193 257 324 379 446
#
# _framework density 23.942249
#
# number of rings (size 3 to 8) (size 9 to 14) (size 15 to 20)
#    0.000    0.750    2.500    3.750    5.250    1.500 
#    0.000    0.000    0.000    0.000    0.000    0.000 
#    0.000    0.000    0.000    0.000    0.000    0.000 
#
# Total GULP energy -89317.883807 kJ/mol
# GULP energy per Si atom -5582.367738 kJ/mol
# Density = 2.388776 g / cm^3
# Si number density = 23.942249 Si / 1000 Ang^3
#
#
#
# Elastic Constant Matrix: (Units=GPa)
#
#
# Indices 1 2 3 4 5 6 
#
# 1 131.6717 19.5757 48.2132 5.5636 -14.9258 4.9809
# 2 19.5757 114.6974 23.8295 15.6370 -6.2489 13.2214
# 3 48.2132 23.8295 112.7780 3.7835 -21.4036 -3.6210
# 4 5.5636 15.6370 3.7835 42.8438 -0.2440 11.1776
# 5 -14.9258 -6.2489 -21.4036 -0.2440 46.9166 2.2258
# 6 4.9809 13.2214 -3.6210 11.1776 2.2258 37.1626
#
#
#
# Elastic Compliance Matrix: (Units=1/GPa)
#
#
# Indices 1 2 3 4 5 6 
#
# 1 0.009209 -0.000551 -0.003613 -0.000310 0.001272 -0.001373
# 2 -0.000551 0.009894 -0.001772 -0.002636 0.000456 -0.002853
# 3 -0.003613 -0.001772 0.011591 -0.000447 0.003798 0.002151
# 4 -0.000310 -0.002636 -0.000447 0.026189 -0.000189 -0.006930
# 5 0.001272 0.000456 0.003798 -0.000189 0.023574 -0.001318
# 6 -0.001373 -0.002853 0.002151 -0.006930 -0.001318 0.030481
#
#
# Mechanical properties :
#
#
# Convention : Reuss Voigt Hill
#
# Bulk Modulus (GPa) = 53.12862 60.26487 56.69674
# Shear Modulus (GPa) = 38.73512 43.21984 40.97748
#
# Velocity S-wave (km/s) = 4.02662 4.25334 4.14153
# Velocity P-wave (km/s) = 6.62244 7.02473 6.82655
#
# Compressibility (1/GPa) = 0.01882225
#
# Stress axis : x y z
#
# Youngs Moduli (GPa) = 108.59441 101.07316 86.27695
#
# Poissons Ratio (x) = 0.05572 0.31168
# Poissons Ratio (y) = 0.05987 0.15284
# Poissons Ratio (z) = 0.39231 0.17905
#
# Static dielectric constant tensor:
#      x y z
#    x 1.968980 -0.064270 -0.051980 
#    y -0.064270 1.932960 0.017790 
#    z -0.051980 0.017790 2.176210 
# 
# From -- ./inp_files/117388.got.cif
#   From: 2010.05.17/outbox.cif.g08.bks.cpg/sg2_59_cif.got.tgz:117388.got - 2010.06.03 11:33:40.
