data_PCOD9034525
_publ_section_title
;
Structure prediction by ZEFSAII (Michael W. Deem and Ramdas Pophale) SiO2 
 PCOD9034525
Probable space group: P -1
;
_chemical_formula_sum "Si O2"
_cell_formula_units_Z 13
_cell_length_a 5.339183
_cell_length_b 12.201504
_cell_length_c 9.480095
_cell_angle_alpha 123.368500
_cell_angle_beta 74.344892
_cell_angle_gamma 95.230458
_cell_volume 495.386983
_symmetry_space_group_name_H-M "P -1"
_symmetry_group_IT_number 2
_symmetry_cell_setting 'triclinic'
loop_
_space_group_symop_operation_xyz
x,y,z
-x,-y,-z
loop_
_atom_site_type_symbol
_atom_site_label
_atom_site_fract_x
_atom_site_fract_y
_atom_site_fract_z
Si Si1 0.581869 0.612489 0.672521
Si Si2 0.776696 0.975140 0.161868
Si Si3 0.077184 0.805193 0.352170
Si Si4 0.500000 0.000000 0.500000
Si Si5 0.924510 0.263350 0.010064
Si Si6 0.240384 0.504551 0.140739
Si Si7 0.253564 0.131917 0.305679
O O1 0.500000 0.500000 0.500000
O O2 0.330948 0.692894 0.834540
O O3 0.710904 0.540348 0.737320
O O4 0.740950 0.718236 0.639418
O O5 0.639632 0.931613 0.293885
O O6 0.110884 0.166976 0.009775
O O7 0.537798 0.059249 0.185489
O O8 0.027295 0.057142 0.212053
O O9 0.110680 0.651287 0.269005
O O10 0.806296 0.868727 0.512375
O O11 0.290561 0.881673 0.454285
O O12 0.123584 0.812739 0.182867
O O13 0.058386 0.393923 0.036042
O O14 0.500000 0.500000 0.000000
#
# Coordination Sequence:
#
# PCOD9034525 Si02
#       7
#     2   2   2   1   2   2   2
#     4  12  31  51  79 116 160 213 276 330 410 486
#     4  11  25  47  78 116 164 209 266 329 406 473
#     4  11  24  48  83 122 162 210 272 334 406 477
#     4  10  22  44  80 118 156 202 270 324 390 476
#     4  12  27  48  81 117 159 213 273 334 399 491
#     4  12  27  49  83 117 156 214 271 340 400 485
#     4  11  28  48  79 118 161 213 263 334 403 483
#
# _framework density 26.242111000000001
#
# number of rings (size 3 to 8) (size 9 to 14) (size 15 to 20)
#    0.000    0.615    1.538    4.154   10.769    4.923 
#    0.000    0.000    0.000    0.000    0.000    0.000 
#    0.000    0.000    0.000    0.000    0.000    0.000 
#
# Total GULP energy -72683.748681 kJ/mol
# GULP energy per Si atom -5591.057591 kJ/mol
# Density = 2.618238 g / cm^3
# Si number density = 26.242111 Si / 1000 Ang^3
#
#
#
# Elastic Constant Matrix: (Units=GPa)
#
#
# Indices 1 2 3 4 5 6 
#
# 1 127.5019 34.5002 38.1833 23.1187 -13.5270 11.7364
# 2 34.5002 159.4622 30.4150 11.5209 -0.7584 7.6781
# 3 38.1833 30.4150 116.6150 4.9355 -7.0883 -12.1362
# 4 23.1187 11.5209 4.9355 57.4631 -1.0709 2.0403
# 5 -13.5270 -0.7584 -7.0883 -1.0709 46.0412 9.4327
# 6 11.7364 7.6781 -12.1362 2.0403 9.4327 49.6252
#
#
#
# Elastic Compliance Matrix: (Units=1/GPa)
#
#
# Indices 1 2 3 4 5 6 
#
# 1 0.010396 -0.001221 -0.003108 -0.003487 0.003190 -0.003493
# 2 -0.001221 0.006925 -0.001503 -0.000735 -0.000274 -0.001068
# 3 -0.003108 -0.001503 0.010321 0.000541 -0.000049 0.003479
# 4 -0.003487 -0.000735 0.000541 0.018881 -0.000598 0.000408
# 5 0.003190 -0.000274 -0.000049 -0.000598 0.023697 -0.005204
# 6 -0.003493 -0.001068 0.003479 0.000408 -0.005204 0.022965
#
#
# Mechanical properties :
#
#
# Convention : Reuss Voigt Hill
#
# Bulk Modulus (GPa) = 62.58264 67.75290 65.16777
# Shear Modulus (GPa) = 45.38192 50.65794 48.01993
#
# Velocity S-wave (km/s) = 4.16306 4.39841 4.28235
# Velocity P-wave (km/s) = 6.85624 7.18812 7.02414
#
# Compressibility (1/GPa) = 0.01597887
#
# Stress axis : x y z
#
# Youngs Moduli (GPa) = 96.18671 144.39989 96.89073
#
# Poissons Ratio (x) = 0.17635 0.30109
# Poissons Ratio (y) = 0.11747 0.14563
# Poissons Ratio (z) = 0.29891 0.21704
#
# Static dielectric constant tensor:
#      x y z
#    x 0.382410 0.460250 -0.377540 
#    y 0.460250 1.830880 0.078260 
#    z -0.377540 0.078260 1.986160 
# 
# From -- ./inp_files/24295.got.cif
#   From: 2010.05.17/outbox.cif.g08.bks.cpg/sg2_13_cif.got.tgz:24295.got - 2010.06.03 11:33:40.
