data_PCOD9034918
_publ_section_title
;
Structure prediction by ZEFSAII (Michael W. Deem and Ramdas Pophale) SiO2 
 PCOD9034918
Probable space group: P -1
;
_chemical_formula_sum "Si O2"
_cell_formula_units_Z 16
_cell_length_a 13.971645
_cell_length_b 18.210907
_cell_length_c 24.819521
_cell_angle_alpha 161.128869
_cell_angle_beta 158.933903
_cell_angle_gamma 34.299143
_cell_volume 640.231844
_symmetry_space_group_name_H-M "P -1"
_symmetry_group_IT_number 2
_symmetry_cell_setting 'triclinic'
loop_
_space_group_symop_operation_xyz
x,y,z
-x,-y,-z
loop_
_atom_site_type_symbol
_atom_site_label
_atom_site_fract_x
_atom_site_fract_y
_atom_site_fract_z
Si Si1 0.376259 0.317090 0.390878
Si Si2 0.700722 0.657872 0.162501
Si Si3 0.125314 0.811140 0.241431
Si Si4 0.777303 0.255347 0.871946
Si Si5 0.353827 0.004261 0.868516
Si Si6 0.361320 0.907330 0.542521
Si Si7 0.220347 0.104472 0.044640
Si Si8 0.869495 0.408128 0.198109
O O1 0.254308 0.140954 0.151465
O O2 0.571834 0.608233 0.673006
O O3 0.104390 0.324049 0.286436
O O4 0.565691 0.234081 0.470553
O O5 0.853391 0.963996 0.467364
O O6 0.500000 0.500000 0.000000
O O7 0.892998 0.526167 0.152666
O O8 0.434370 0.619773 0.953226
O O9 0.140042 0.682945 0.104394
O O10 0.413220 0.103198 0.584562
O O11 0.234550 0.747342 0.310641
O O12 0.815761 0.825823 0.096706
O O13 0.900733 0.062273 0.823419
O O14 0.632039 0.068170 0.018283
O O15 0.083293 0.712016 0.508002
O O16 0.500000 0.000000 0.000000
O O17 0.691346 0.177164 0.899384
#
# Coordination Sequence:
#
# PCOD9034918 Si02
#       8
#     2   2   2   2   2   2   2   2
#     4  10  20  37  60  91 119 157 201 254 307 355
#     4  10  17  32  57  87 116 148 196 247 291 339
#     4  11  21  35  63  91 119 159 204 247 294 366
#     4  11  20  36  59  91 121 155 205 248 294 357
#     4  11  20  38  59  89 121 164 201 241 306 366
#     4  10  20  36  62  92 120 160 201 252 303 355
#     4  10  22  37  61  88 121 153 204 255 298 362
#     4   9  19  33  60  85 120 155 198 252 289 352
#
# _framework density 24.990946000000001
#
# number of rings (size 3 to 8) (size 9 to 14) (size 15 to 20)
#    0.750    1.000    3.750    1.875    0.000    2.000 
#    0.000    3.125    5.500    1.500    0.000    0.000 
#    0.000    0.000    0.000    0.000    0.000    0.000 
#
# Total GULP energy -89140.174353 kJ/mol
# GULP energy per Si atom -5571.260897 kJ/mol
# Density = 2.493407 g / cm^3
# Si number density = 24.990946 Si / 1000 Ang^3
#
#
#
# Elastic Constant Matrix: (Units=GPa)
#
#
# Indices 1 2 3 4 5 6 
#
# 1 97.9775 67.4137 10.5574 -9.0247 -17.3513 2.5674
# 2 67.4137 128.1628 7.3170 -22.2453 -1.7580 -5.2435
# 3 10.5574 7.3170 72.3300 -10.8950 -14.9200 1.3824
# 4 -9.0247 -22.2453 -10.8950 33.2560 -1.5407 -1.6173
# 5 -17.3513 -1.7580 -14.9200 -1.5407 33.9482 -6.5793
# 6 2.5674 -5.2435 1.3824 -1.6173 -6.5793 48.5483
#
#
#
# Elastic Compliance Matrix: (Units=1/GPa)
#
#
# Indices 1 2 3 4 5 6 
#
# 1 0.018402 -0.009808 -0.000083 -0.001238 0.008630 -0.000902
# 2 -0.009808 0.014155 0.000270 0.006820 -0.003505 0.001792
# 3 -0.000083 0.000270 0.016230 0.005862 0.007523 0.000786
# 4 -0.001238 0.006820 0.005862 0.036541 0.004430 0.002453
# 5 0.008630 -0.003505 0.007523 0.004430 0.038017 0.004251
# 6 -0.000902 0.001792 0.000786 0.002453 0.004251 0.021475
#
#
# Mechanical properties :
#
#
# Convention : Reuss Voigt Hill
#
# Bulk Modulus (GPa) = 33.84680 52.11627 42.98154
# Shear Modulus (GPa) = 28.75050 37.36265 33.05657
#
# Velocity S-wave (km/s) = 3.39549 3.87078 3.64090
# Velocity P-wave (km/s) = 5.38010 6.39348 5.90856
#
# Compressibility (1/GPa) = 0.02954489
#
# Stress axis : x y z
#
# Youngs Moduli (GPa) = 54.34287 70.64538 61.61389
#
# Poissons Ratio (x) = 0.69289 0.00510
# Poissons Ratio (y) = 0.53299 -0.01662
# Poissons Ratio (z) = 0.00450 -0.01906
#
# Static dielectric constant tensor:
#      x y z
#    x 2.032710 -0.004390 0.028080 
#    y -0.004390 2.118270 -0.014410 
#    z 0.028080 -0.014410 2.098840 
# 
# From -- ./inp_files/619838.got.cif
#   From: 2010.05.17/outbox.cif.g08.bks.cpg/sg2_310_cif.got.tgz:619838.got - 2010.06.03 11:33:40.
