data_PCOD9034700
_publ_section_title
;
Structure prediction by ZEFSAII (Michael W. Deem and Ramdas Pophale) SiO2 
 PCOD9034700
Probable space group: P -1
;
_chemical_formula_sum "Si O2"
_cell_formula_units_Z 14
_cell_length_a 10.026480
_cell_length_b 7.808484
_cell_length_c 10.663337
_cell_angle_alpha 50.862130
_cell_angle_beta 117.654297
_cell_angle_gamma 118.966889
_cell_volume 550.867576
_symmetry_space_group_name_H-M "P -1"
_symmetry_group_IT_number 2
_symmetry_cell_setting 'triclinic'
loop_
_space_group_symop_operation_xyz
x,y,z
-x,-y,-z
loop_
_atom_site_type_symbol
_atom_site_label
_atom_site_fract_x
_atom_site_fract_y
_atom_site_fract_z
Si Si1 0.643034 0.703827 0.091666
Si Si2 0.210029 0.799472 0.012735
Si Si3 0.507749 0.196406 0.259256
Si Si4 0.747959 0.954771 0.589084
Si Si5 0.883527 0.545052 0.093337
Si Si6 0.672536 0.505635 0.612454
Si Si7 0.031187 0.340546 0.478047
O O1 0.284761 0.070673 0.898838
O O2 0.564427 0.450898 0.229498
O O3 0.776195 0.660408 0.076576
O O4 0.517877 0.761633 0.915976
O O5 0.303818 0.719749 0.205337
O O6 0.028748 0.736420 0.007553
O O7 0.203679 0.632478 0.968967
O O8 0.342426 0.058989 0.312277
O O9 0.640905 0.071624 0.401809
O O10 0.730263 0.702726 0.649558
O O11 0.928914 0.091586 0.591521
O O12 0.957779 0.401594 0.289151
O O13 0.500000 0.500000 0.500000
O O14 0.786581 0.590273 0.504897
O O15 0.000000 0.500000 0.500000
#
# Coordination Sequence:
#
# PCOD9034700 Si02
#       7
#     2   2   2   2   2   2   2
#     4  11  21  44  69 106 142 190 236 303 365 430
#     4  10  23  43  72 103 146 186 241 304 363 430
#     4  10  24  39  74 106 142 191 244 295 366 435
#     4  11  23  47  69 101 149 189 239 303 356 436
#     4  10  22  45  67 108 138 190 246 293 366 440
#     4  11  25  45  74 113 142 189 244 300 364 430
#     4  11  26  47  73 104 144 193 245 294 370 437
#
# _framework density 25.414456000000001
#
# number of rings (size 3 to 8) (size 9 to 14) (size 15 to 20)
#    0.000    1.429    1.429    2.571    8.000    0.000 
#   12.857    3.571    0.000    0.000    0.000    0.000 
#    0.000    0.000    0.000    0.000    0.000    0.000 
#
# Total GULP energy -78459.466090 kJ/mol
# GULP energy per Si atom -5604.247578 kJ/mol
# Density = 2.535661 g / cm^3
# Si number density = 25.414456 Si / 1000 Ang^3
#
#
#
# Elastic Constant Matrix: (Units=GPa)
#
#
# Indices 1 2 3 4 5 6 
#
# 1 159.7014 12.8558 28.6399 5.2292 -0.8590 19.5826
# 2 12.8558 130.2096 22.9547 -9.1426 5.3818 3.2927
# 3 28.6399 22.9547 91.7626 -5.9618 8.1707 9.5886
# 4 5.2292 -9.1426 -5.9618 38.1329 -1.0136 -0.9283
# 5 -0.8590 5.3818 8.1707 -1.0136 20.8992 -3.1270
# 6 19.5826 3.2927 9.5886 -0.9283 -3.1270 33.7992
#
#
#
# Elastic Compliance Matrix: (Units=1/GPa)
#
#
# Indices 1 2 3 4 5 6 
#
# 1 0.007117 -0.000403 -0.001892 -0.001440 0.000537 -0.003537
# 2 -0.000403 0.008198 -0.001669 0.001718 -0.001418 -0.000176
# 3 -0.001892 -0.001669 0.012745 0.001653 -0.004965 -0.002771
# 4 -0.001440 0.001718 0.001653 0.027124 0.000313 0.000972
# 5 0.000537 -0.001418 -0.004965 0.000313 0.051086 0.005970
# 6 -0.003537 -0.000176 -0.002771 0.000972 0.005970 0.033018
#
#
# Mechanical properties :
#
#
# Convention : Reuss Voigt Hill
#
# Bulk Modulus (GPa) = 49.67293 56.73050 53.20171
# Shear Modulus (GPa) = 32.48324 39.71448 36.09886
#
# Velocity S-wave (km/s) = 3.57899 3.95735 3.77292
# Velocity P-wave (km/s) = 6.05528 6.57658 6.32131
#
# Compressibility (1/GPa) = 0.02013169
#
# Stress axis : x y z
#
# Youngs Moduli (GPa) = 140.50302 121.98767 78.46405
#
# Poissons Ratio (x) = 0.04916 0.14848
# Poissons Ratio (y) = 0.05662 0.13093
# Poissons Ratio (z) = 0.26588 0.20355
#
# Static dielectric constant tensor:
#      x y z
#    x 2.061630 0.051620 -0.047800 
#    y 0.051620 2.008050 -0.032180 
#    z -0.047800 -0.032180 2.013720 
# 
# From -- ./inp_files/377777.got.cif
#   From: 2010.05.17/outbox.cif.g08.bks.cpg/sg2_189_cif.got.tgz:377777.got - 2010.06.03 11:33:40.
