data_PCOD9034108
_publ_section_title
;
Structure prediction by ZEFSAII (Michael W. Deem and Ramdas Pophale) SiO2 
 PCOD9034108
Probable space group: P -1
;
_chemical_formula_sum "Si O2"
_cell_formula_units_Z 14
_cell_length_a 11.677065
_cell_length_b 14.106276
_cell_length_c 7.324918
_cell_angle_alpha 128.248049
_cell_angle_beta 50.952421
_cell_angle_gamma 141.549351
_cell_volume 562.602246
_symmetry_space_group_name_H-M "P -1"
_symmetry_group_IT_number 2
_symmetry_cell_setting 'triclinic'
loop_
_space_group_symop_operation_xyz
x,y,z
-x,-y,-z
loop_
_atom_site_type_symbol
_atom_site_label
_atom_site_fract_x
_atom_site_fract_y
_atom_site_fract_z
Si Si1 0.310097 0.705628 0.663838
Si Si2 0.076445 0.180007 0.122050
Si Si3 0.455525 0.839563 0.293342
Si Si4 0.711392 0.646734 0.529150
Si Si5 0.982829 0.230703 0.894420
Si Si6 0.966420 0.383608 0.562613
Si Si7 0.333598 0.111672 0.216552
O O1 0.427003 0.757405 0.417484
O O2 0.471502 0.805708 0.771660
O O3 0.171300 0.518581 0.610895
O O4 0.162345 0.740595 0.858890
O O5 0.252010 0.301261 0.231396
O O6 0.946687 0.228848 0.367333
O O7 0.092405 0.224148 0.945696
O O8 0.000000 0.000000 0.000000
O O9 0.245334 0.701736 0.248689
O O10 0.500000 0.000000 0.500000
O O11 0.617750 0.890811 0.047021
O O12 0.500000 0.500000 0.500000
O O13 0.739899 0.792983 0.584694
O O14 0.865919 0.649528 0.264872
O O15 0.833754 0.061041 0.749592
O O16 0.000000 0.500000 0.500000
#
# Coordination Sequence:
#
# PCOD9034108 Si02
#       7
#     2   2   2   2   2   2   2
#     4  11  25  45  76 107 152 191 251 320 379 436
#     4  12  25  48  80 107 152 207 251 304 388 457
#     4  11  23  41  70 107 143 183 262 301 373 447
#     4  12  31  49  73 112 155 200 258 311 394 460
#     4  12  26  49  75 111 150 203 256 314 380 461
#     4  10  22  44  71 108 145 192 251 313 371 442
#     4  12  26  45  70 111 148 199 246 316 375 457
#
# _framework density 24.884364000000001
#
# number of rings (size 3 to 8) (size 9 to 14) (size 15 to 20)
#    0.000    0.571    5.714    1.714    4.000    3.429 
#    0.000    0.000    0.000    0.000    0.000    0.000 
#    0.000    0.000    0.000    0.000    0.000    0.000 
#
# Total GULP energy -78047.036507 kJ/mol
# GULP energy per Si atom -5574.788322 kJ/mol
# Density = 2.482773 g / cm^3
# Si number density = 24.884364 Si / 1000 Ang^3
#
#
#
# Elastic Constant Matrix: (Units=GPa)
#
#
# Indices 1 2 3 4 5 6 
#
# 1 127.2987 44.4323 42.2702 0.9989 33.6569 0.6649
# 2 44.4323 124.2844 18.9356 4.2836 16.6504 14.3142
# 3 42.2702 18.9356 68.6665 -1.4215 14.2669 -0.3301
# 4 0.9989 4.2836 -1.4215 50.5689 -2.1043 3.1252
# 5 33.6569 16.6504 14.2669 -2.1043 36.7714 10.3103
# 6 0.6649 14.3142 -0.3301 3.1252 10.3103 50.7691
#
#
#
# Elastic Compliance Matrix: (Units=1/GPa)
#
#
# Indices 1 2 3 4 5 6 
#
# 1 0.013102 -0.002887 -0.005324 -0.000712 -0.009377 0.002556
# 2 -0.002887 0.009601 -0.000738 -0.000655 -0.000761 -0.002479
# 3 -0.005324 -0.000738 0.018510 0.000548 -0.002169 0.000805
# 4 -0.000712 -0.000655 0.000548 0.020049 0.002305 -0.001505
# 5 -0.009377 -0.000761 -0.002169 0.002305 0.039282 -0.007796
# 6 0.002556 -0.002479 0.000805 -0.001505 -0.007796 0.022044
#
#
# Mechanical properties :
#
#
# Convention : Reuss Voigt Hill
#
# Bulk Modulus (GPa) = 42.88849 59.05843 50.97346
# Shear Modulus (GPa) = 33.72544 41.92930 37.82737
#
# Velocity S-wave (km/s) = 3.68542 4.10929 3.90311
# Velocity P-wave (km/s) = 5.94830 6.80438 6.39069
#
# Compressibility (1/GPa) = 0.02331628
#
# Stress axis : x y z
#
# Youngs Moduli (GPa) = 76.32165 104.16096 54.02570
#
# Poissons Ratio (x) = 0.30067 0.28762
# Poissons Ratio (y) = 0.22031 0.03986
# Poissons Ratio (z) = 0.40632 0.07685
#
# Static dielectric constant tensor:
#      x y z
#    x 2.246980 0.172020 0.075530 
#    y 0.172020 2.112750 0.118960 
#    z 0.075530 0.118960 2.047570 
# 
# From -- ./inp_files/318132.got.cif
#   From: 2010.05.17/outbox.cif.g08.bks.cpg/sg2_160_cif.got.tgz:318132.got - 2010.06.03 11:33:40.
