data_PCOD9034243
_publ_section_title
;
Structure prediction by ZEFSAII (Michael W. Deem and Ramdas Pophale) SiO2 
 PCOD9034243
Probable space group: P -1
;
_chemical_formula_sum "Si O2"
_cell_formula_units_Z 14
_cell_length_a 9.469202
_cell_length_b 8.193951
_cell_length_c 12.092152
_cell_angle_alpha 142.367033
_cell_angle_beta 67.776490
_cell_angle_gamma 97.338934
_cell_volume 505.242988
_symmetry_space_group_name_H-M "P -1"
_symmetry_group_IT_number 2
_symmetry_cell_setting 'triclinic'
loop_
_space_group_symop_operation_xyz
x,y,z
-x,-y,-z
loop_
_atom_site_type_symbol
_atom_site_label
_atom_site_fract_x
_atom_site_fract_y
_atom_site_fract_z
Si Si1 0.351038 0.326520 0.836899
Si Si2 0.491057 0.805657 0.623281
Si Si3 0.330786 0.093015 0.038386
Si Si4 0.114699 0.703214 0.945524
Si Si5 0.287324 0.650054 0.253769
Si Si6 0.152964 0.426750 0.557658
Si Si7 0.098659 0.862105 0.611180
O O1 0.250897 0.454810 0.829030
O O2 0.527729 0.365112 0.803918
O O3 0.400820 0.982873 0.641048
O O4 0.263460 0.535426 0.077582
O O5 0.500000 0.500000 0.500000
O O6 0.676202 0.786791 0.570303
O O7 0.172222 0.908735 0.494286
O O8 0.205990 0.938147 0.027650
O O9 0.384446 0.006982 0.853082
O O10 0.500000 0.000000 0.000000
O O11 0.263973 0.423746 0.229805
O O12 0.075471 0.604241 0.784169
O O13 0.967695 0.841799 0.144166
O O14 0.948668 0.756229 0.561907
O O15 0.174351 0.648228 0.577644
#
# Coordination Sequence:
#
# PCOD9034243 Si02
#       7
#     2   2   2   2   2   2   2
#     4  10  25  44  75 113 145 186 251 312 367 441
#     4  11  23  45  74 104 142 190 245 308 369 427
#     4  11  19  37  71 102 140 187 242 296 359 427
#     4  12  24  45  75 112 152 192 246 311 366 442
#     4  10  22  44  72 108 148 194 246 298 367 442
#     4  11  25  45  71 113 145 197 259 299 357 454
#     4  11  25  45  76 104 151 204 243 298 373 444
#
# _framework density 27.709441000000002
#
# number of rings (size 3 to 8) (size 9 to 14) (size 15 to 20)
#    0.000    1.143    2.857    3.857    4.000    1.143 
#    0.000    0.714    0.000    0.000    0.000    0.000 
#    0.000    0.000    0.000    0.000    0.000    0.000 
#
# Total GULP energy -78353.050631 kJ/mol
# GULP energy per Si atom -5596.646474 kJ/mol
# Density = 2.764637 g / cm^3
# Si number density = 27.709441 Si / 1000 Ang^3
#
#
#
# Elastic Constant Matrix: (Units=GPa)
#
#
# Indices 1 2 3 4 5 6 
#
# 1 80.0217 25.0778 11.4909 -4.9273 10.3483 -23.5648
# 2 25.0778 79.4778 34.4780 -7.4335 9.2711 -13.8899
# 3 11.4909 34.4780 81.0659 -37.9791 5.7021 -12.8694
# 4 -4.9273 -7.4335 -37.9791 68.7692 -11.0896 2.9446
# 5 10.3483 9.2711 5.7021 -11.0896 52.6233 -1.2098
# 6 -23.5648 -13.8899 -12.8694 2.9446 -1.2098 43.3515
#
#
#
# Elastic Compliance Matrix: (Units=1/GPa)
#
#
# Indices 1 2 3 4 5 6 
#
# 1 0.016181 -0.003872 0.001030 0.000606 -0.002306 0.007756
# 2 -0.003872 0.017453 -0.008035 -0.003220 -0.002092 0.001262
# 3 0.001030 -0.008035 0.021231 0.010989 0.001310 0.003578
# 4 0.000606 -0.003220 0.010989 0.020845 0.003679 0.001247
# 5 -0.002306 -0.002092 0.001310 0.003679 0.020430 -0.001214
# 6 0.007756 0.001262 0.003578 0.001247 -0.001214 0.028631
#
#
# Mechanical properties :
#
#
# Convention : Reuss Voigt Hill
#
# Bulk Modulus (GPa) = 30.19996 42.51763 36.35880
# Shear Modulus (GPa) = 31.73349 44.25005 37.99177
#
# Velocity S-wave (km/s) = 3.38779 4.00050 3.70682
# Velocity P-wave (km/s) = 5.12106 6.05938 5.60987
#
# Compressibility (1/GPa) = 0.03311263
#
# Stress axis : x y z
#
# Youngs Moduli (GPa) = 61.79956 57.29704 47.10105
#
# Poissons Ratio (x) = 0.22183 -0.04853
# Poissons Ratio (y) = 0.23927 0.37845
# Poissons Ratio (z) = -0.06367 0.46038
#
# Static dielectric constant tensor:
#      x y z
#    x 2.167920 -0.098390 -0.007300 
#    y -0.098390 2.581020 -0.061880 
#    z -0.007300 -0.061880 1.939800 
# 
# From -- ./inp_files/557631.got.cif
#   From: 2010.05.17/outbox.cif.g08.bks.cpg/sg2_279_cif.got.tgz:557631.got - 2010.06.03 11:33:40.
