data_PCOD9034083
_publ_section_title
;
Structure prediction by ZEFSAII (Michael W. Deem and Ramdas Pophale) SiO2 
 PCOD9034083
Probable space group: P -1
;
_chemical_formula_sum "Si O2"
_cell_formula_units_Z 16
_cell_length_a 11.950543
_cell_length_b 8.136950
_cell_length_c 17.325967
_cell_angle_alpha 62.775674
_cell_angle_beta 147.058808
_cell_angle_gamma 94.736456
_cell_volume 637.101763
_symmetry_space_group_name_H-M "P -1"
_symmetry_group_IT_number 2
_symmetry_cell_setting 'triclinic'
loop_
_space_group_symop_operation_xyz
x,y,z
-x,-y,-z
loop_
_atom_site_type_symbol
_atom_site_label
_atom_site_fract_x
_atom_site_fract_y
_atom_site_fract_z
Si Si1 0.913299 0.910310 0.535123
Si Si2 0.151854 0.822292 0.425109
Si Si3 0.699039 0.645356 0.621618
Si Si4 0.140786 0.119532 0.220173
Si Si5 0.677193 0.330234 0.788897
Si Si6 0.827365 0.556661 0.165778
Si Si7 0.466921 0.967032 0.181796
Si Si8 0.777696 0.725204 0.272661
O O1 0.741772 0.851345 0.406827
O O2 0.152775 0.675369 0.768473
O O3 0.748910 0.102957 0.464527
O O4 0.000000 0.000000 0.500000
O O5 0.383762 0.547978 0.601482
O O6 0.893974 0.864650 0.297799
O O7 0.090919 0.982935 0.282171
O O8 0.814416 0.718431 0.739264
O O9 0.694450 0.441364 0.697347
O O10 0.884734 0.542703 0.677110
O O11 0.414792 0.896968 0.388552
O O12 0.904254 0.270650 0.991178
O O13 0.693354 0.098640 0.851254
O O14 0.754308 0.656630 0.188619
O O15 0.651317 0.763451 0.957949
O O16 0.523328 0.863141 0.149972
O O17 0.000000 0.500000 0.500000
#
# Coordination Sequence:
#
# PCOD9034083 Si02
#       8
#     2   2   2   2   2   2   2   2
#     4  12  25  46  70 103 143 182 231 290 339 411
#     4  11  22  42  73 101 136 186 231 281 351 407
#     4  10  24  45  70 103 140 180 230 290 348 407
#     4  10  22  44  71 104 137 179 230 291 350 410
#     4  11  24  44  73 102 137 187 231 279 352 412
#     4  12  26  45  72 105 138 181 234 289 342 412
#     4  12  27  45  70 105 144 185 230 283 344 416
#     4  12  22  48  69  97 147 185 223 281 352 411
#
# _framework density 25.113728999999999
#
# number of rings (size 3 to 8) (size 9 to 14) (size 15 to 20)
#    0.000    0.750    5.000    1.500    1.750    3.000 
#    0.000    8.750    0.000    0.000    0.000    0.000 
#    0.000    0.000    0.000    0.000    0.000    0.000 
#
# Total GULP energy -89570.306651 kJ/mol
# GULP energy per Si atom -5598.144166 kJ/mol
# Density = 2.505657 g / cm^3
# Si number density = 25.113729 Si / 1000 Ang^3
#
#
#
# Elastic Constant Matrix: (Units=GPa)
#
#
# Indices 1 2 3 4 5 6 
#
# 1 113.7538 3.3920 29.2404 -2.6999 -18.6681 9.4947
# 2 3.3920 51.8369 16.3012 2.9641 -7.6271 7.6040
# 3 29.2404 16.3012 120.3249 -13.2276 -27.6310 9.3504
# 4 -2.6999 2.9641 -13.2276 41.7884 9.0640 -12.6113
# 5 -18.6681 -7.6271 -27.6310 9.0640 30.6152 -7.7303
# 6 9.4947 7.6040 9.3504 -12.6113 -7.7303 43.6329
#
#
#
# Elastic Compliance Matrix: (Units=1/GPa)
#
#
# Indices 1 2 3 4 5 6 
#
# 1 0.010063 0.000848 -0.001429 -0.001433 0.005093 -0.001543
# 2 0.000848 0.021382 -0.002349 -0.004257 0.003992 -0.003931
# 3 -0.001429 -0.002349 0.010995 0.001924 0.007981 0.000334
# 4 -0.001433 -0.004257 0.001924 0.028525 -0.006699 0.007699
# 5 0.005093 0.003992 0.007981 -0.006699 0.046661 0.002816
# 6 -0.001543 -0.003931 0.000334 0.007699 0.002816 0.026592
#
#
# Mechanical properties :
#
#
# Convention : Reuss Voigt Hill
#
# Bulk Modulus (GPa) = 27.33576 42.64254 34.98915
# Shear Modulus (GPa) = 30.81287 39.00611 34.90949
#
# Velocity S-wave (km/s) = 3.50656 3.94531 3.73239
# Velocity P-wave (km/s) = 5.22523 6.14578 5.70411
#
# Compressibility (1/GPa) = 0.03658211
#
# Stress axis : x y z
#
# Youngs Moduli (GPa) = 99.36982 46.76866 90.95412
#
# Poissons Ratio (x) = -0.03968 0.12993
# Poissons Ratio (y) = -0.08430 0.21362
# Poissons Ratio (z) = 0.14195 0.10985
#
# Static dielectric constant tensor:
#      x y z
#    x 1.949560 -0.008000 0.013450 
#    y -0.008000 2.012260 -0.037700 
#    z 0.013450 -0.037700 1.996960 
# 
# From -- ./inp_files/353347.got.cif
#   From: 2010.05.17/outbox.cif.g08.bks.cpg/sg2_177_cif.got.tgz:353347.got - 2010.06.03 11:33:40.
