data_PCOD9034336
_publ_section_title
;
Structure prediction by ZEFSAII (Michael W. Deem and Ramdas Pophale) SiO2 
 PCOD9034336
Probable space group: P -1
;
_chemical_formula_sum "Si O2"
_cell_formula_units_Z 16
_cell_length_a 9.320869
_cell_length_b 9.299490
_cell_length_c 15.255174
_cell_angle_alpha 34.715034
_cell_angle_beta 78.288705
_cell_angle_gamma 80.969481
_cell_volume 737.255949
_symmetry_space_group_name_H-M "P -1"
_symmetry_group_IT_number 2
_symmetry_cell_setting 'triclinic'
loop_
_space_group_symop_operation_xyz
x,y,z
-x,-y,-z
loop_
_atom_site_type_symbol
_atom_site_label
_atom_site_fract_x
_atom_site_fract_y
_atom_site_fract_z
Si Si1 0.266570 0.094529 0.126195
Si Si2 0.593012 0.103763 0.080324
Si Si3 0.153113 0.134974 0.928955
Si Si4 0.664663 0.310695 0.158026
Si Si5 0.458826 0.436624 0.269765
Si Si6 0.801585 0.919379 0.464210
Si Si7 0.753429 0.361266 0.375871
Si Si8 0.078043 0.707770 0.449251
O O1 0.430250 0.988809 0.171503
O O2 0.144026 0.948286 0.269665
O O3 0.221160 0.055894 0.051445
O O4 0.280344 0.397306 0.989378
O O5 0.630529 0.247071 0.094148
O O6 0.727442 0.928127 0.128154
O O7 0.576898 0.295568 0.903679
O O8 0.136474 0.434678 0.783565
O O9 0.000000 0.000000 0.000000
O O10 0.521943 0.290096 0.249710
O O11 0.770003 0.109022 0.291734
O O12 0.322597 0.296975 0.401055
O O13 0.593880 0.435524 0.321669
O O14 0.955041 0.794267 0.489405
O O15 0.787522 0.089209 0.467778
O O16 0.785657 0.382686 0.463677
O O17 0.000000 0.500000 0.500000
#
# Coordination Sequence:
#
# PCOD9034336 Si02
#       8
#     2   2   2   2   2   2   2   2
#     4  11  24  47  69  94 140 174 229 278 328 407
#     4  11  25  42  75 104 129 176 227 278 345 384
#     4  12  26  44  68  97 139 178 223 281 332 402
#     4  10  22  44  73 105 128 171 234 282 327 397
#     4  10  22  44  75 100 133 173 231 276 330 408
#     4  11  25  45  72  98 137 180 221 276 344 399
#     4  11  24  47  66  98 133 183 227 266 339 404
#     4  12  30  45  64 102 143 177 225 280 335 396
#
# _framework density 21.702096000000001
#
# number of rings (size 3 to 8) (size 9 to 14) (size 15 to 20)
#    0.000    1.000    3.750    4.500   12.250    1.500 
#    0.000    1.250    0.000    0.000    0.000    0.000 
#    0.000    0.000    0.000    0.000    0.000    0.000 
#
# Total GULP energy -89391.047382 kJ/mol
# GULP energy per Si atom -5586.940461 kJ/mol
# Density = 2.165270 g / cm^3
# Si number density = 21.702096 Si / 1000 Ang^3
#
#
#
# Elastic Constant Matrix: (Units=GPa)
#
#
# Indices 1 2 3 4 5 6 
#
# 1 88.7744 57.7716 45.9218 -1.7042 -20.6211 13.2957
# 2 57.7716 84.3986 22.2169 13.1580 -7.1672 25.3409
# 3 45.9218 22.2169 97.5952 6.4914 -23.7618 7.3479
# 4 -1.7042 13.1580 6.4914 23.3841 9.4320 7.3514
# 5 -20.6211 -7.1672 -23.7618 9.4320 46.1289 -2.1725
# 6 13.2957 25.3409 7.3479 7.3514 -2.1725 35.9015
#
#
#
# Elastic Compliance Matrix: (Units=1/GPa)
#
#
# Indices 1 2 3 4 5 6 
#
# 1 0.031146 -0.021674 -0.010462 0.015631 0.002104 0.002832
# 2 -0.021674 0.031636 0.005289 -0.017560 0.000989 -0.011730
# 3 -0.010462 0.005289 0.016377 -0.010831 0.006768 -0.000583
# 4 0.015631 -0.017560 -0.010831 0.064384 -0.014732 -0.005252
# 5 0.002104 0.000989 0.006768 -0.014732 0.029362 0.001931
# 6 0.002832 -0.011730 -0.000583 -0.005252 0.001931 0.036397
#
#
# Mechanical properties :
#
#
# Convention : Reuss Voigt Hill
#
# Bulk Modulus (GPa) = 39.27044 58.06544 48.66794
# Shear Modulus (GPa) = 18.41715 30.74011 24.57863
#
# Velocity S-wave (km/s) = 2.91629 3.76767 3.36898
# Velocity P-wave (km/s) = 5.42902 6.76320 6.13250
#
# Compressibility (1/GPa) = 0.02546445
#
# Stress axis : x y z
#
# Youngs Moduli (GPa) = 32.10706 31.60926 61.05970
#
# Poissons Ratio (x) = 0.68511 0.63880
# Poissons Ratio (y) = 0.69590 -0.32292
# Poissons Ratio (z) = 0.33590 -0.16717
#
# Static dielectric constant tensor:
#      x y z
#    x 1.818610 -0.030810 0.087670 
#    y -0.030810 1.860150 -0.092270 
#    z 0.087670 -0.092270 1.915890 
# 
# From -- ./inp_files/494263.got.cif
#   From: 2010.05.17/outbox.cif.g08.bks.cpg/sg2_248_cif.got.tgz:494263.got - 2010.06.03 11:33:40.
