data_PCOD9034572
_publ_section_title
;
Structure prediction by ZEFSAII (Michael W. Deem and Ramdas Pophale) SiO2 
 PCOD9034572
Probable space group: P -1
;
_chemical_formula_sum "Si O2"
_cell_formula_units_Z 15
_cell_length_a 17.103458
_cell_length_b 8.092383
_cell_length_c 19.805854
_cell_angle_alpha 42.828476
_cell_angle_beta 21.104693
_cell_angle_gamma 44.575652
_cell_volume 666.566977
_symmetry_space_group_name_H-M "P -1"
_symmetry_group_IT_number 2
_symmetry_cell_setting 'triclinic'
loop_
_space_group_symop_operation_xyz
x,y,z
-x,-y,-z
loop_
_atom_site_type_symbol
_atom_site_label
_atom_site_fract_x
_atom_site_fract_y
_atom_site_fract_z
Si Si1 0.449584 0.904083 0.409277
Si Si2 0.455719 0.873279 0.002134
Si Si3 0.590216 0.320559 0.693433
Si Si4 0.930366 0.641047 0.294671
Si Si5 0.417554 0.589744 0.887091
Si Si6 0.500000 0.000000 0.500000
Si Si7 0.966403 0.045821 0.763641
Si Si8 0.229943 0.344794 0.872697
O O1 0.494502 0.150142 0.259490
O O2 0.490670 0.942024 0.443358
O O3 0.193402 0.885290 0.610678
O O4 0.624032 0.699172 0.298152
O O5 0.536137 0.588632 0.032760
O O6 0.201290 0.903860 0.177481
O O7 0.500000 0.000000 0.000000
O O8 0.573847 0.034491 0.804422
O O9 0.817243 0.392313 0.461859
O O10 0.534946 0.454443 0.768676
O O11 0.396049 0.440704 0.764468
O O12 0.977840 0.717362 0.311023
O O13 0.749262 0.848656 0.350227
O O14 0.156553 0.621140 0.078567
O O15 0.840302 0.900348 0.964165
O O16 0.000000 0.500000 0.000000
#
# Coordination Sequence:
#
# PCOD9034572 Si02
#       8
#     2   2   2   2   2   1   2   2
#     4  11  24  44  68 101 135 179 233 272 337 410
#     4   9  22  43  67  98 138 174 221 282 342 393
#     4  10  23  44  62 101 140 169 225 280 335 406
#     4  11  23  40  70  98 129 178 225 277 331 401
#     4  11  22  42  71  95 130 182 226 278 331 399
#     4  10  24  42  68  98 134 172 230 278 328 398
#     4  10  22  45  64  99 135 172 229 276 331 410
#     4  11  26  42  67  99 140 180 221 284 344 397
#
# _framework density 22.503366
#
# number of rings (size 3 to 8) (size 9 to 14) (size 15 to 20)
#    0.000    1.600    4.000    0.000    5.600    5.867 
#    0.000    0.000    0.000    0.000    0.000    0.000 
#    0.000    0.000    0.000    0.000    0.000    0.000 
#
# Total GULP energy -83548.955417 kJ/mol
# GULP energy per Si atom -5569.930361 kJ/mol
# Density = 2.245215 g / cm^3
# Si number density = 22.503366 Si / 1000 Ang^3
#
#
#
# Elastic Constant Matrix: (Units=GPa)
#
#
# Indices 1 2 3 4 5 6 
#
# 1 99.6862 26.9594 23.0584 6.3191 -24.7534 -22.5067
# 2 26.9594 38.0540 10.2447 12.4563 1.1410 -17.7658
# 3 23.0584 10.2447 123.8823 11.2433 -9.9241 -4.9771
# 4 6.3191 12.4563 11.2433 29.8704 4.9818 -3.5101
# 5 -24.7534 1.1410 -9.9241 4.9818 32.8718 8.0079
# 6 -22.5067 -17.7658 -4.9771 -3.5101 8.0079 25.1969
#
#
#
# Elastic Compliance Matrix: (Units=1/GPa)
#
#
# Indices 1 2 3 4 5 6 
#
# 1 0.016851 -0.009963 -0.001166 -0.000468 0.011783 0.003987
# 2 -0.009963 0.053135 -0.001302 -0.013317 -0.015355 0.031332
# 3 -0.001166 -0.001302 0.008838 -0.003161 0.002681 -0.001507
# 4 -0.000468 -0.013317 -0.003161 0.041077 -0.006419 -0.002670
# 5 0.011783 -0.015355 0.002681 -0.006419 0.045277 -0.015056
# 6 0.003987 0.031332 -0.001507 -0.002670 -0.015056 0.069456
#
#
# Mechanical properties :
#
#
# Convention : Reuss Voigt Hill
#
# Bulk Modulus (GPa) = 18.53179 42.46085 30.49632
# Shear Modulus (GPa) = 18.01899 31.01182 24.51540
#
# Velocity S-wave (km/s) = 2.83278 3.71630 3.30420
# Velocity P-wave (km/s) = 4.35345 6.10935 5.30456
#
# Compressibility (1/GPa) = 0.05396133
#
# Stress axis : x y z
#
# Youngs Moduli (GPa) = 59.34236 18.82005 113.14657
#
# Poissons Ratio (x) = 0.18751 0.13194
# Poissons Ratio (y) = 0.59124 0.14734
# Poissons Ratio (z) = 0.06920 0.02451
#
# Static dielectric constant tensor:
#      x y z
#    x 1.827290 0.023400 -0.020870 
#    y 0.023400 1.979190 -0.090860 
#    z -0.020870 -0.090860 1.835020 
# 
# From -- ./inp_files/197376.got.cif
#   From: 2010.05.17/outbox.cif.g08.bks.cpg/sg2_99_cif.got.tgz:197376.got - 2010.06.03 11:33:40.
