data_PCOD9034197
_publ_section_title
;
Structure prediction by ZEFSAII (Michael W. Deem and Ramdas Pophale) SiO2 
 PCOD9034197
Probable space group: P -1
;
_chemical_formula_sum "Si O2"
_cell_formula_units_Z 14
_cell_length_a 23.401567
_cell_length_b 16.651631
_cell_length_c 5.197997
_cell_angle_alpha 80.612809
_cell_angle_beta 111.303233
_cell_angle_gamma 160.072970
_cell_volume 532.005281
_symmetry_space_group_name_H-M "P -1"
_symmetry_group_IT_number 2
_symmetry_cell_setting 'triclinic'
loop_
_space_group_symop_operation_xyz
x,y,z
-x,-y,-z
loop_
_atom_site_type_symbol
_atom_site_label
_atom_site_fract_x
_atom_site_fract_y
_atom_site_fract_z
Si Si1 0.655638 0.325188 0.203632
Si Si2 0.925959 0.541000 0.828009
Si Si3 0.620120 0.899649 0.964609
Si Si4 0.917354 0.942832 0.139571
Si Si5 0.224998 0.787928 0.555306
Si Si6 0.452057 0.360457 0.830115
Si Si7 0.015040 0.227576 0.887123
O O1 0.812145 0.454178 0.482158
O O2 0.560910 0.263903 0.303382
O O3 0.794259 0.553972 0.109262
O O4 0.433652 0.007547 0.894995
O O5 0.813481 0.310389 0.722533
O O6 0.926002 0.603848 0.030123
O O7 0.171349 0.834794 0.008023
O O8 0.691338 0.016363 0.313805
O O9 0.539639 0.706909 0.937096
O O10 0.659517 0.614904 0.860200
O O11 0.000000 0.000000 0.500000
O O12 0.989878 0.129995 0.127769
O O13 0.000000 0.000000 0.000000
O O14 0.000000 0.500000 0.500000
O O15 0.500000 0.500000 0.000000
O O16 0.218111 0.067551 0.474117
#
# Coordination Sequence:
#
# PCOD9034197 Si02
#       7
#     2   2   2   2   2   2   2
#     4  10  22  44  72 101 156 191 251 308 387 458
#     4  11  21  43  72 104 150 193 250 311 385 456
#     4   9  21  41  71  98 146 191 248 301 379 455
#     4  12  29  49  77 111 154 204 268 324 393 470
#     4   8  19  40  73 107 141 204 243 303 384 469
#     4  12  25  49  77 103 153 207 259 326 392 466
#     4  12  27  45  72 112 144 199 257 323 390 457
#
# _framework density 26.315526999999999
#
# number of rings (size 3 to 8) (size 9 to 14) (size 15 to 20)
#    0.857    0.571    1.429    3.429    4.000    1.714 
#    2.571    0.714    0.000    0.000    0.000    0.000 
#    0.000    0.000    0.000    0.000    0.000    0.000 
#
# Total GULP energy -78149.542984 kJ/mol
# GULP energy per Si atom -5582.110213 kJ/mol
# Density = 2.625563 g / cm^3
# Si number density = 26.315527 Si / 1000 Ang^3
#
#
#
# Elastic Constant Matrix: (Units=GPa)
#
#
# Indices 1 2 3 4 5 6 
#
# 1 122.9059 32.5922 24.9941 -11.5907 -17.0881 -7.5919
# 2 32.5922 107.7198 43.3161 29.8556 19.6123 25.1044
# 3 24.9941 43.3161 121.9807 8.8350 -4.7922 7.1060
# 4 -11.5907 29.8556 8.8350 39.6830 -7.9890 5.2999
# 5 -17.0881 19.6123 -4.7922 -7.9890 52.8373 2.9265
# 6 -7.5919 25.1044 7.1060 5.2999 2.9265 52.4414
#
#
#
# Elastic Compliance Matrix: (Units=1/GPa)
#
#
# Indices 1 2 3 4 5 6 
#
# 1 0.014453 -0.011818 0.000288 0.014505 0.010968 0.005633
# 2 -0.011818 0.028006 -0.005762 -0.025423 -0.017988 -0.010764
# 3 0.000288 -0.005762 0.010067 0.002755 0.003508 0.000961
# 4 0.014505 -0.025423 0.002755 0.051322 0.021722 0.007498
# 5 0.010968 -0.017988 0.003508 0.021722 0.032436 0.005718
# 6 0.005633 -0.010764 0.000961 0.007498 0.005718 0.023830
#
#
# Mechanical properties :
#
#
# Convention : Reuss Voigt Hill
#
# Bulk Modulus (GPa) = 55.73836 61.60124 58.66980
# Shear Modulus (GPa) = 24.91550 45.77260 35.34405
#
# Velocity S-wave (km/s) = 3.08035 4.17511 3.66879
# Velocity P-wave (km/s) = 5.82049 6.83385 6.34743
#
# Compressibility (1/GPa) = 0.01794097
#
# Stress axis : x y z
#
# Youngs Moduli (GPa) = 69.19213 35.70686 99.33089
#
# Poissons Ratio (x) = 0.42199 -0.02856
# Poissons Ratio (y) = 0.81773 0.57232
# Poissons Ratio (z) = -0.01990 0.20573
#
# Static dielectric constant tensor:
#      x y z
#    x 1.996690 -0.045480 -0.004760 
#    y -0.045480 2.136860 -0.087340 
#    z -0.004760 -0.087340 2.152810 
# 
# From -- ./inp_files/124770.got.cif
#   From: 2010.05.17/outbox.cif.g08.bks.cpg/sg2_63_cif.got.tgz:124770.got - 2010.06.03 11:33:40.
