data_PCOD9034788
_publ_section_title
;
Structure prediction by ZEFSAII (Michael W. Deem and Ramdas Pophale) SiO2 
 PCOD9034788
Probable space group: P -1
;
_chemical_formula_sum "Si O2"
_cell_formula_units_Z 14
_cell_length_a 11.922201
_cell_length_b 11.902966
_cell_length_c 11.730096
_cell_angle_alpha 152.092651
_cell_angle_beta 87.708956
_cell_angle_gamma 75.002899
_cell_volume 605.290754
_symmetry_space_group_name_H-M "P -1"
_symmetry_group_IT_number 2
_symmetry_cell_setting 'triclinic'
loop_
_space_group_symop_operation_xyz
x,y,z
-x,-y,-z
loop_
_atom_site_type_symbol
_atom_site_label
_atom_site_fract_x
_atom_site_fract_y
_atom_site_fract_z
Si Si1 0.243351 0.612297 0.857149
Si Si2 0.515989 0.311219 0.438965
Si Si3 0.316535 0.825585 0.236982
Si Si4 0.781779 0.628246 0.844677
Si Si5 0.034816 0.484320 0.849950
Si Si6 0.588839 0.507459 0.837381
Si Si7 0.991754 0.792004 0.722521
O O1 0.364956 0.395198 0.562002
O O2 0.122669 0.590328 0.887638
O O3 0.326986 0.572128 0.933305
O O4 0.155688 0.954215 0.112082
O O5 0.500000 0.500000 0.500000
O O6 0.566100 0.411749 0.632261
O O7 0.644700 0.951577 0.090337
O O8 0.363348 0.738116 0.286081
O O9 0.151953 0.119095 0.498305
O O10 0.437223 0.825427 0.170628
O O11 0.714786 0.529502 0.845585
O O12 0.873158 0.371262 0.514357
O O13 0.891895 0.646252 0.926107
O O14 0.000000 0.500000 0.000000
O O15 0.000000 0.500000 0.500000
O O16 0.000000 0.000000 0.000000
#
# Coordination Sequence:
#
# PCOD9034788 Si02
#       7
#     2   2   2   2   2   2   2
#     4  11  25  46  72 104 151 194 251 315 383 457
#     4  11  26  47  72 102 142 193 257 313 383 451
#     4  10  22  45  68 103 143 190 243 307 384 449
#     4  12  26  44  72 105 144 189 257 309 380 447
#     4  12  25  41  74 108 151 193 251 311 391 458
#     4  10  24  43  72 100 143 188 244 312 377 457
#     4  12  28  48  75 107 156 205 258 317 386 458
#
# _framework density 23.129380000000001
#
# number of rings (size 3 to 8) (size 9 to 14) (size 15 to 20)
#    0.000    0.857    1.429    4.286    8.000    1.714 
#    0.000    5.714    0.000    0.000    0.000    0.000 
#    0.000    0.000    0.000    0.000    0.000    0.000 
#
# Total GULP energy -78186.993858 kJ/mol
# GULP energy per Si atom -5584.785276 kJ/mol
# Density = 2.307674 g / cm^3
# Si number density = 23.129380 Si / 1000 Ang^3
#
#
#
# Elastic Constant Matrix: (Units=GPa)
#
#
# Indices 1 2 3 4 5 6 
#
# 1 129.8189 34.6304 31.6403 -16.6630 -20.6132 22.6986
# 2 34.6304 108.0879 46.1170 -17.1319 5.5844 -1.1931
# 3 31.6403 46.1170 120.5590 -9.4893 -31.3327 -2.2798
# 4 -16.6630 -17.1319 -9.4893 34.8103 0.6487 -4.3665
# 5 -20.6132 5.5844 -31.3327 0.6487 41.5315 -5.4167
# 6 22.6986 -1.1931 -2.2798 -4.3665 -5.4167 37.3283
#
#
#
# Elastic Compliance Matrix: (Units=1/GPa)
#
#
# Indices 1 2 3 4 5 6 
#
# 1 0.010705 -0.003218 -0.000225 0.002685 0.004802 -0.005615
# 2 -0.003218 0.014033 -0.006299 0.003964 -0.008128 0.001305
# 3 -0.000225 -0.006299 0.013855 0.000672 0.011507 0.002530
# 4 0.002685 0.003964 0.000672 0.032438 0.001125 0.002493
# 5 0.004802 -0.008128 0.011507 0.001125 0.036605 0.002967
# 6 -0.005615 0.001305 0.002530 0.002493 0.002967 0.031122
#
#
# Mechanical properties :
#
#
# Convention : Reuss Voigt Hill
#
# Bulk Modulus (GPa) = 52.33505 64.80458 58.56982
# Shear Modulus (GPa) = 30.37411 39.13921 34.75666
#
# Velocity S-wave (km/s) = 3.62778 4.11808 3.88068
# Velocity P-wave (km/s) = 6.34223 7.11973 6.74220
#
# Compressibility (1/GPa) = 0.01910765
#
# Stress axis : x y z
#
# Youngs Moduli (GPa) = 93.41044 71.26024 72.17670
#
# Poissons Ratio (x) = 0.22933 0.01627
# Poissons Ratio (y) = 0.30061 0.45466
# Poissons Ratio (z) = 0.02106 0.44889
#
# Static dielectric constant tensor:
#      x y z
#    x 1.926050 0.031480 0.022540 
#    y 0.031480 1.873980 0.010950 
#    z 0.022540 0.010950 1.896380 
# 
# From -- ./inp_files/28456.got.cif
#   From: 2010.05.17/outbox.cif.g08.bks.cpg/sg2_15_cif.got.tgz:28456.got - 2010.06.03 11:33:40.
