data_PCOD9034333
_publ_section_title
;
Structure prediction by ZEFSAII (Michael W. Deem and Ramdas Pophale) SiO2 
 PCOD9034333
Probable space group: P -1
;
_chemical_formula_sum "Si O2"
_cell_formula_units_Z 16
_cell_length_a 14.095545
_cell_length_b 8.875776
_cell_length_c 17.744341
_cell_angle_alpha 40.516894
_cell_angle_beta 29.930956
_cell_angle_gamma 40.437924
_cell_volume 682.857198
_symmetry_space_group_name_H-M "P -1"
_symmetry_group_IT_number 2
_symmetry_cell_setting 'triclinic'
loop_
_space_group_symop_operation_xyz
x,y,z
-x,-y,-z
loop_
_atom_site_type_symbol
_atom_site_label
_atom_site_fract_x
_atom_site_fract_y
_atom_site_fract_z
Si Si1 0.992441 0.019465 0.588021
Si Si2 0.431007 0.263646 0.631364
Si Si3 0.772388 0.692227 0.083510
Si Si4 0.606563 0.866065 0.553930
Si Si5 0.058560 0.512836 0.346736
Si Si6 0.649277 0.480339 0.110231
Si Si7 0.978184 0.523660 0.225705
Si Si8 0.693140 0.186760 0.857613
O O1 0.089525 0.233745 0.455206
O O2 0.783255 0.130265 0.733098
O O3 0.051073 0.735451 0.679455
O O4 0.000000 0.000000 0.500000
O O5 0.500000 0.500000 0.500000
O O6 0.338511 0.236695 0.787033
O O7 0.244541 0.296172 0.691458
O O8 0.605401 0.060082 0.546064
O O9 0.643958 0.570553 0.165197
O O10 0.000000 0.500000 0.000000
O O11 0.760799 0.941426 0.953214
O O12 0.830903 0.684875 0.454601
O O13 0.467882 0.712702 0.738821
O O14 0.500000 0.000000 0.500000
O O15 0.073054 0.510459 0.247455
O O16 0.211901 0.626151 0.238321
O O17 0.540852 0.693461 0.044131
O O18 0.880035 0.394557 0.960213
#
# Coordination Sequence:
#
# PCOD9034333 Si02
#       8
#     2   2   2   2   2   2   2   2
#     4  10  22  44  73 104 142 195 242 304 363 431
#     4  12  28  48  74 112 144 194 255 302 370 447
#     4  12  27  48  77 109 150 197 242 311 374 442
#     4  12  27  47  77 106 150 198 247 311 365 440
#     4  11  26  46  74 108 150 191 250 303 372 431
#     4  12  27  48  74 107 152 194 245 300 379 440
#     4  11  25  48  74 107 149 193 246 306 367 445
#     4  12  26  47  74 108 152 197 245 305 373 444
#
# _framework density 23.430961
#
# number of rings (size 3 to 8) (size 9 to 14) (size 15 to 20)
#    0.000    0.500    5.000    1.500    7.000    1.000 
#    2.250    0.000    0.000    0.000    0.000    0.000 
#    0.000    0.000    0.000    0.000    0.000    0.000 
#
# Total GULP energy -89430.436111 kJ/mol
# GULP energy per Si atom -5589.402257 kJ/mol
# Density = 2.337763 g / cm^3
# Si number density = 23.430961 Si / 1000 Ang^3
#
#
#
# Elastic Constant Matrix: (Units=GPa)
#
#
# Indices 1 2 3 4 5 6 
#
# 1 114.6570 48.7926 25.0230 10.3796 3.5892 2.2075
# 2 48.7926 100.1577 10.5652 1.1638 3.6644 22.0035
# 3 25.0230 10.5652 68.1746 -0.0866 19.8620 15.6360
# 4 10.3796 1.1638 -0.0866 37.2343 10.5850 -1.4087
# 5 3.5892 3.6644 19.8620 10.5850 35.0741 1.7124
# 6 2.2075 22.0035 15.6360 -1.4087 1.7124 48.6148
#
#
#
# Elastic Compliance Matrix: (Units=1/GPa)
#
#
# Indices 1 2 3 4 5 6 
#
# 1 0.013039 -0.006719 -0.005771 -0.004352 0.003752 0.004047
# 2 -0.006719 0.014592 0.002533 0.001868 -0.002495 -0.006972
# 3 -0.005771 0.002533 0.021950 0.005078 -0.013279 -0.007329
# 4 -0.004352 0.001868 0.005078 0.031416 -0.012061 -0.000946
# 5 0.003752 -0.002495 -0.013279 -0.012061 0.039377 0.003493
# 6 0.004047 -0.006972 -0.007329 -0.000946 0.003493 0.025748
#
#
# Mechanical properties :
#
#
# Convention : Reuss Voigt Hill
#
# Bulk Modulus (GPa) = 33.70848 50.19454 41.95151
# Shear Modulus (GPa) = 28.42108 37.42522 32.92315
#
# Velocity S-wave (km/s) = 3.48655 4.00090 3.75255
# Velocity P-wave (km/s) = 5.53404 6.54307 6.05959
#
# Compressibility (1/GPa) = 0.02966612
#
# Stress axis : x y z
#
# Youngs Moduli (GPa) = 76.69216 68.53303 45.55775
#
# Poissons Ratio (x) = 0.46048 0.26293
# Poissons Ratio (y) = 0.51530 -0.11540
# Poissons Ratio (z) = 0.44262 -0.17360
#
# Static dielectric constant tensor:
#      x y z
#    x 1.884600 -0.024040 0.024200 
#    y -0.024040 1.932820 -0.011420 
#    z 0.024200 -0.011420 1.840130 
# 
# From -- ./inp_files/572814.got.cif
#   From: 2010.05.17/outbox.cif.g08.bks.cpg/sg2_287_cif.got.tgz:572814.got - 2010.06.03 11:33:40.
