data_PCOD9034089
_publ_section_title
;
Structure prediction by ZEFSAII (Michael W. Deem and Ramdas Pophale) SiO2 
 PCOD9034089
Probable space group: P -1
;
_chemical_formula_sum "Si O2"
_cell_formula_units_Z 16
_cell_length_a 10.388795
_cell_length_b 25.048066
_cell_length_c 5.194404
_cell_angle_alpha 110.829035
_cell_angle_beta 58.920015
_cell_angle_gamma 141.447334
_cell_volume 718.544717
_symmetry_space_group_name_H-M "P -1"
_symmetry_group_IT_number 2
_symmetry_cell_setting 'triclinic'
loop_
_space_group_symop_operation_xyz
x,y,z
-x,-y,-z
loop_
_atom_site_type_symbol
_atom_site_label
_atom_site_fract_x
_atom_site_fract_y
_atom_site_fract_z
Si Si1 0.973180 0.275617 0.005521
Si Si2 0.738965 0.536351 0.841937
Si Si3 0.564925 0.120897 0.876899
Si Si4 0.110771 0.849229 0.735678
Si Si5 0.265351 0.053320 0.572257
Si Si6 0.765150 0.465580 0.194569
Si Si7 0.935736 0.888840 0.344475
Si Si8 0.701531 0.723002 0.571488
O O1 0.187217 0.302069 0.712779
O O2 0.776198 0.222813 0.903700
O O3 0.062276 0.360409 0.163389
O O4 0.880460 0.206288 0.200950
O O5 0.766233 0.504392 0.513399
O O6 0.500000 0.500000 0.000000
O O7 0.735663 0.497405 0.033539
O O8 0.395599 0.089922 0.769622
O O9 0.699072 0.103127 0.599767
O O10 0.427704 0.080740 0.215293
O O11 0.863759 0.780168 0.744266
O O12 0.116150 0.904118 0.015435
O O13 0.168725 0.088323 0.664682
O O14 0.056893 0.950279 0.575807
O O15 0.555070 0.362394 0.246780
O O16 0.000000 0.500000 0.000000
O O17 0.747803 0.789908 0.454732
#
# Coordination Sequence:
#
# PCOD9034089 Si02
#       8
#     2   2   2   2   2   2   2   2
#     4  10  22  44  71 105 139 185 239 283 349 413
#     4  12  25  46  79 101 139 194 240 290 343 428
#     4  11  24  44  69 103 144 176 230 306 330 412
#     4  10  22  45  69 102 138 191 229 283 354 413
#     4  11  26  46  70 104 143 176 248 280 352 411
#     4  12  28  48  70 111 146 181 234 302 356 418
#     4  10  26  45  71 100 139 198 222 290 349 434
#     4  10  23  44  71  99 145 182 234 281 365 418
#
# _framework density 22.267230000000001
#
# number of rings (size 3 to 8) (size 9 to 14) (size 15 to 20)
#    0.000    1.250    2.500    1.500    8.750    3.000 
#    2.250    0.000    0.000    0.000    0.000    0.000 
#    0.000    0.000    0.000    0.000    0.000    0.000 
#
# Total GULP energy -89544.427343 kJ/mol
# GULP energy per Si atom -5596.526709 kJ/mol
# Density = 2.221655 g / cm^3
# Si number density = 22.267230 Si / 1000 Ang^3
#
#
#
# Elastic Constant Matrix: (Units=GPa)
#
#
# Indices 1 2 3 4 5 6 
#
# 1 133.3424 65.5958 63.0179 2.5965 9.5761 7.5479
# 2 65.5958 117.5719 46.9127 10.9329 -9.0306 2.5245
# 3 63.0179 46.9127 128.5831 -2.6294 6.8703 -3.0653
# 4 2.5965 10.9329 -2.6294 34.7784 8.9732 0.8413
# 5 9.5761 -9.0306 6.8703 8.9732 38.9812 -1.1591
# 6 7.5479 2.5245 -3.0653 0.8413 -1.1591 31.8967
#
#
#
# Elastic Compliance Matrix: (Units=1/GPa)
#
#
# Indices 1 2 3 4 5 6 
#
# 1 0.012725 -0.006002 -0.003850 0.001845 -0.004355 -0.003113
# 2 -0.006002 0.013919 -0.002592 -0.005814 0.006508 0.000459
# 3 -0.003850 -0.002592 0.010817 0.002401 -0.002054 0.002018
# 4 0.001845 -0.005814 0.002401 0.033202 -0.009895 -0.000981
# 5 -0.004355 0.006508 -0.002054 -0.009895 0.030921 0.001703
# 6 -0.003113 0.000459 0.002018 -0.000981 0.001703 0.032333
#
#
# Mechanical properties :
#
#
# Convention : Reuss Voigt Hill
#
# Bulk Modulus (GPa) = 79.54752 81.17224 80.35988
# Shear Modulus (GPa) = 30.67523 34.72932 32.70227
#
# Velocity S-wave (km/s) = 3.71562 3.95354 3.83643
# Velocity P-wave (km/s) = 7.36270 7.57453 7.46937
#
# Compressibility (1/GPa) = 0.01257110
#
# Stress axis : x y z
#
# Youngs Moduli (GPa) = 78.58507 71.84263 92.44881
#
# Poissons Ratio (x) = 0.43123 0.35596
# Poissons Ratio (y) = 0.47171 0.23965
# Poissons Ratio (z) = 0.30258 0.18623
#
# Static dielectric constant tensor:
#      x y z
#    x 1.804390 0.003450 0.014420 
#    y 0.003450 1.792630 -0.018840 
#    z 0.014420 -0.018840 1.836820 
# 
# From -- ./inp_files/53399.got.cif
#   From: 2010.05.17/outbox.cif.g08.bks.cpg/sg2_27_cif.got.tgz:53399.got - 2010.06.03 11:33:40.
