data_PCOD9034091
_publ_section_title
;
Structure prediction by ZEFSAII (Michael W. Deem and Ramdas Pophale) SiO2 
 PCOD9034091
Probable space group: P -1
;
_chemical_formula_sum "Si O2"
_cell_formula_units_Z 14
_cell_length_a 14.711387
_cell_length_b 5.162833
_cell_length_c 8.960106
_cell_angle_alpha 72.708995
_cell_angle_beta 109.225437
_cell_angle_gamma 113.593515
_cell_volume 578.011019
_symmetry_space_group_name_H-M "P -1"
_symmetry_group_IT_number 2
_symmetry_cell_setting 'triclinic'
loop_
_space_group_symop_operation_xyz
x,y,z
-x,-y,-z
loop_
_atom_site_type_symbol
_atom_site_label
_atom_site_fract_x
_atom_site_fract_y
_atom_site_fract_z
Si Si1 0.272812 0.061976 0.287577
Si Si2 0.194064 0.546605 0.723925
Si Si3 0.420152 0.797886 0.805626
Si Si4 0.981227 0.243109 0.345458
Si Si5 0.469587 0.578592 0.193925
Si Si6 0.209740 0.436216 0.431659
Si Si7 0.105299 0.034260 0.966367
O O1 0.371809 0.321422 0.242571
O O2 0.229522 0.200433 0.377357
O O3 0.286300 0.761361 0.392394
O O4 0.188881 0.973833 0.125520
O O5 0.303819 0.786669 0.756602
O O6 0.095927 0.638605 0.627650
O O7 0.208262 0.368859 0.617897
O O8 0.164134 0.358172 0.887632
O O9 0.442758 0.565891 0.750230
O O10 0.490541 0.121022 0.747657
O O11 0.445710 0.690226 0.999993
O O12 0.095808 0.445335 0.336585
O O13 0.927465 0.139121 0.175400
O O14 0.000000 0.000000 0.500000
O O15 0.000000 0.000000 0.000000
#
# Coordination Sequence:
#
# PCOD9034091 Si02
#       7
#     2   2   2   2   2   2   2
#     4  12  26  47  72 108 145 187 238 301 360 409
#     4  12  27  45  72 104 142 196 238 292 355 438
#     4  10  23  42  73 105 137 183 241 291 359 421
#     4  12  26  45  71 103 149 191 238 291 358 430
#     4  10  22  44  71 105 141 179 234 306 356 412
#     4  12  27  46  70 102 152 192 234 288 364 431
#     4  12  26  43  72 106 142 182 243 295 345 427
#
# _framework density 24.220994000000001
#
# number of rings (size 3 to 8) (size 9 to 14) (size 15 to 20)
#    0.000    0.571    4.286    3.000    4.000    2.286 
#    0.000    4.286    0.000    0.000    0.000    0.000 
#    0.000    0.000    0.000    0.000    0.000    0.000 
#
# Total GULP energy -78310.211167 kJ/mol
# GULP energy per Si atom -5593.586512 kJ/mol
# Density = 2.416587 g / cm^3
# Si number density = 24.220994 Si / 1000 Ang^3
#
#
#
# Elastic Constant Matrix: (Units=GPa)
#
#
# Indices 1 2 3 4 5 6 
#
# 1 98.4529 20.7536 20.8078 0.2056 -0.3884 16.0397
# 2 20.7536 109.9109 24.2879 -12.7431 -10.5502 17.9905
# 3 20.8078 24.2879 72.7666 -13.2865 -14.2308 -3.8509
# 4 0.2056 -12.7431 -13.2865 39.0811 -1.9630 -10.5557
# 5 -0.3884 -10.5502 -14.2308 -1.9630 31.3544 0.6970
# 6 16.0397 17.9905 -3.8509 -10.5557 0.6970 53.2462
#
#
#
# Elastic Compliance Matrix: (Units=1/GPa)
#
#
# Indices 1 2 3 4 5 6 
#
# 1 0.011980 -0.001238 -0.004251 -0.003132 -0.002303 -0.004089
# 2 -0.001238 0.010899 -0.002565 0.001975 0.002681 -0.003139
# 3 -0.004251 -0.002565 0.018993 0.007365 0.008057 0.004875
# 4 -0.003132 0.001975 0.007365 0.030893 0.005750 0.006858
# 5 -0.002303 0.002681 0.008057 0.005750 0.036761 0.001029
# 6 -0.004089 -0.003139 0.004875 0.006858 0.001029 0.022772
#
#
# Mechanical properties :
#
#
# Convention : Reuss Voigt Hill
#
# Bulk Modulus (GPa) = 38.81364 45.86990 42.34177
# Shear Modulus (GPa) = 31.84843 39.08839 35.46841
#
# Velocity S-wave (km/s) = 3.63010 4.02160 3.83086
# Velocity P-wave (km/s) = 5.79912 6.36738 6.08988
#
# Compressibility (1/GPa) = 0.02576414
#
# Stress axis : x y z
#
# Youngs Moduli (GPa) = 83.47152 91.75254 52.65141
#
# Poissons Ratio (x) = 0.11355 0.22384
# Poissons Ratio (y) = 0.10330 0.13505
# Poissons Ratio (z) = 0.35486 0.23535
#
# Static dielectric constant tensor:
#      x y z
#    x 1.919930 0.025950 0.023190 
#    y 0.025950 1.983270 0.017930 
#    z 0.023190 0.017930 1.963080 
# 
# From -- ./inp_files/107418.got.cif
#   From: 2010.05.17/outbox.cif.g08.bks.cpg/sg2_54_cif.got.tgz:107418.got - 2010.06.03 11:33:40.
