data_PCOD9034984
_publ_section_title
;
Structure prediction by ZEFSAII (Michael W. Deem and Ramdas Pophale) SiO2 
 PCOD9034984
Probable space group: P -1
;
_chemical_formula_sum "Si O2"
_cell_formula_units_Z 15
_cell_length_a 12.461205
_cell_length_b 7.483324
_cell_length_c 8.861945
_cell_angle_alpha 129.552910
_cell_angle_beta 110.573909
_cell_angle_gamma 84.848963
_cell_volume 586.168246
_symmetry_space_group_name_H-M "P -1"
_symmetry_group_IT_number 2
_symmetry_cell_setting 'triclinic'
loop_
_space_group_symop_operation_xyz
x,y,z
-x,-y,-z
loop_
_atom_site_type_symbol
_atom_site_label
_atom_site_fract_x
_atom_site_fract_y
_atom_site_fract_z
Si Si1 0.025070 0.667874 0.951791
Si Si2 0.743328 0.245145 0.734157
Si Si3 0.561911 0.225964 0.863598
Si Si4 0.397847 0.284152 0.375031
Si Si5 0.717665 0.374012 0.310534
Si Si6 0.689107 0.921675 0.264261
Si Si7 0.803656 0.754230 0.965023
Si Si8 0.000000 0.500000 0.500000
O O1 0.934805 0.849834 0.027256
O O2 0.003672 0.543738 0.713412
O O3 0.160852 0.778027 0.104061
O O4 0.000000 0.500000 0.000000
O O5 0.626771 0.306089 0.783400
O O6 0.787727 0.474965 0.779371
O O7 0.729252 0.022260 0.500548
O O8 0.433399 0.253883 0.865527
O O9 0.549188 0.942822 0.681351
O O10 0.650132 0.317013 0.090048
O O11 0.500000 0.500000 0.500000
O O12 0.322412 0.394058 0.518785
O O13 0.305789 0.186585 0.145199
O O14 0.856760 0.414874 0.388817
O O15 0.675590 0.149589 0.279371
O O16 0.783906 0.807176 0.158584
#
# Coordination Sequence:
#
# PCOD9034984 Si02
#       8
#     2   2   2   2   2   2   2   1
#     4  10  22  45  69  98 141 185 231 287 349 417
#     4  11  24  45  66  99 142 178 229 294 345 414
#     4  12  25  42  69 105 140 174 238 290 342 422
#     4  12  22  41  69 100 136 183 228 284 349 421
#     4  12  23  42  69  99 134 180 229 285 349 409
#     4  12  24  43  70  99 137 187 228 283 355 421
#     4  11  23  42  70  96 136 189 229 276 359 415
#     4  12  22  44  74 100 138 188 230 296 350 406
#
# _framework density 25.589922999999999
#
# number of rings (size 3 to 8) (size 9 to 14) (size 15 to 20)
#    0.000    0.533    6.667    2.400    0.000    2.133 
#    2.400    2.000    0.000    0.000    0.000    0.000 
#    0.000    0.000    0.000    0.000    0.000    0.000 
#
# Total GULP energy -83698.582431 kJ/mol
# GULP energy per Si atom -5579.905495 kJ/mol
# Density = 2.553168 g / cm^3
# Si number density = 25.589923 Si / 1000 Ang^3
#
#
#
# Elastic Constant Matrix: (Units=GPa)
#
#
# Indices 1 2 3 4 5 6 
#
# 1 175.7312 16.9747 61.6058 -15.5381 -12.1414 17.0494
# 2 16.9747 53.6512 12.7628 -9.8937 -2.8847 7.8024
# 3 61.6058 12.7628 202.5970 -38.2274 -5.9508 1.2046
# 4 -15.5381 -9.8937 -38.2274 35.7152 -5.4691 -4.5385
# 5 -12.1414 -2.8847 -5.9508 -5.4691 48.4116 -10.9760
# 6 17.0494 7.8024 1.2046 -4.5385 -10.9760 30.5606
#
#
#
# Elastic Compliance Matrix: (Units=1/GPa)
#
#
# Indices 1 2 3 4 5 6 
#
# 1 0.006857 -0.001157 -0.001908 0.000335 0.000742 -0.003138
# 2 -0.001157 0.020452 0.000013 0.004814 0.000651 -0.003628
# 3 -0.001908 0.000013 0.006898 0.007137 0.001737 0.002473
# 4 0.000335 0.004814 0.007137 0.039066 0.007176 0.006682
# 5 0.000742 0.000651 0.001737 0.007176 0.023950 0.009019
# 6 -0.003138 -0.003628 0.002473 0.006682 0.009019 0.039533
#
#
# Mechanical properties :
#
#
# Convention : Reuss Voigt Hill
#
# Bulk Modulus (GPa) = 35.58567 68.29621 51.94094
# Shear Modulus (GPa) = 32.84505 45.64653 39.24579
#
# Velocity S-wave (km/s) = 3.58650 4.22805 3.92042
# Velocity P-wave (km/s) = 5.57557 7.11209 6.39018
#
# Compressibility (1/GPa) = 0.02810120
#
# Stress axis : x y z
#
# Youngs Moduli (GPa) = 145.84258 48.89384 144.95969
#
# Poissons Ratio (x) = 0.05659 0.27665
# Poissons Ratio (y) = 0.16880 -0.00183
# Poissons Ratio (z) = 0.27834 -0.00062
#
# Static dielectric constant tensor:
#      x y z
#    x 2.185880 -0.042600 0.022660 
#    y -0.042600 2.086280 0.008840 
#    z 0.022660 0.008840 1.990900 
# 
# From -- ./inp_files/236614.got.cif
#   From: 2010.05.17/outbox.cif.g08.bks.cpg/sg2_119_cif.got.tgz:236614.got - 2010.06.03 11:33:40.
