data_PCOD9034933
_publ_section_title
;
Structure prediction by ZEFSAII (Michael W. Deem and Ramdas Pophale) SiO2 
 PCOD9034933
Probable space group: P -1
;
_chemical_formula_sum "Si O2"
_cell_formula_units_Z 16
_cell_length_a 9.293656
_cell_length_b 15.481105
_cell_length_c 15.957848
_cell_angle_alpha 27.200574
_cell_angle_beta 93.791351
_cell_angle_gamma 74.531469
_cell_volume 733.519529
_symmetry_space_group_name_H-M "P -1"
_symmetry_group_IT_number 2
_symmetry_cell_setting 'triclinic'
loop_
_space_group_symop_operation_xyz
x,y,z
-x,-y,-z
loop_
_atom_site_type_symbol
_atom_site_label
_atom_site_fract_x
_atom_site_fract_y
_atom_site_fract_z
Si Si1 0.853299 0.061494 0.600469
Si Si2 0.164523 0.512996 0.991325
Si Si3 0.104687 0.476628 0.338080
Si Si4 0.231595 0.443946 0.646180
Si Si5 0.988043 0.715936 0.639207
Si Si6 0.590116 0.230073 0.282696
Si Si7 0.814286 0.064168 0.786623
Si Si8 0.529828 0.903220 0.208175
O O1 0.677783 0.193672 0.409763
O O2 0.796251 0.039382 0.707921
O O3 0.926755 0.208431 0.486810
O O4 0.054404 0.777043 0.813051
O O5 0.162632 0.552826 0.857936
O O6 0.393719 0.276021 0.236615
O O7 0.000000 0.500000 0.000000
O O8 0.969101 0.478165 0.395998
O O9 0.057315 0.432319 0.283569
O O10 0.338505 0.229973 0.587334
O O11 0.023810 0.767693 0.082794
O O12 0.201412 0.695482 0.413297
O O13 0.314724 0.278812 0.705187
O O14 0.407529 0.212438 0.919610
O O15 0.781704 0.974912 0.455854
O O16 0.500000 0.500000 0.000000
O O17 0.634896 0.113452 0.782459
#
# Coordination Sequence:
#
# PCOD9034933 Si02
#       8
#     2   2   2   2   2   2   2   2
#     4  11  22  39  61  90 125 168 219 264 316 379
#     4  11  23  39  59  88 124 160 210 275 316 369
#     4  11  24  41  65  98 131 171 217 262 324 390
#     4  10  22  45  69  92 134 170 206 274 325 378
#     4  11  22  39  61  88 127 166 217 268 312 380
#     4  11  21  39  65  86 117 176 220 253 322 386
#     4  11  24  41  65  96 134 170 212 268 323 382
#     4  10  24  43  67 101 127 166 220 261 325 394
#
# _framework density 21.812643000000001
#
# number of rings (size 3 to 8) (size 9 to 14) (size 15 to 20)
#    0.000    1.250    3.750    2.250    0.000    9.500 
#    0.000    0.000    0.000    0.000    0.000    0.000 
#    0.000    0.000    0.000    0.000    0.000    0.000 
#
# Total GULP energy -89355.067497 kJ/mol
# GULP energy per Si atom -5584.691719 kJ/mol
# Density = 2.176300 g / cm^3
# Si number density = 21.812643 Si / 1000 Ang^3
#
#
#
# Elastic Constant Matrix: (Units=GPa)
#
#
# Indices 1 2 3 4 5 6 
#
# 1 77.8470 -3.8223 41.1321 -7.7671 0.3002 5.0720
# 2 -3.8223 39.4402 13.6603 -0.4520 -3.0837 2.0978
# 3 41.1321 13.6603 130.7384 -11.6283 -1.9774 24.6779
# 4 -7.7671 -0.4520 -11.6283 24.0357 9.8715 -11.8345
# 5 0.3002 -3.0837 -1.9774 9.8715 45.5641 2.0414
# 6 5.0720 2.0978 24.6779 -11.8345 2.0414 24.5435
#
#
#
# Elastic Compliance Matrix: (Units=1/GPa)
#
#
# Indices 1 2 3 4 5 6 
#
# 1 0.016428 0.003339 -0.006029 0.005715 -0.001618 0.005272
# 2 0.003339 0.027181 -0.004029 -0.000873 0.001811 0.000466
# 3 -0.006029 -0.004029 0.011990 -0.002626 0.001387 -0.011847
# 4 0.005715 -0.000873 -0.002626 0.065763 -0.016007 0.034575
# 5 -0.001618 0.001811 0.001387 -0.016007 0.026106 -0.011105
# 6 0.005272 0.000466 -0.011847 0.034575 -0.011105 0.069122
#
#
# Mechanical properties :
#
#
# Convention : Reuss Voigt Hill
#
# Bulk Modulus (GPa) = 23.71816 38.88508 31.30162
# Shear Modulus (GPa) = 20.48504 31.96569 26.22536
#
# Velocity S-wave (km/s) = 3.06786 3.83229 3.47118
# Velocity P-wave (km/s) = 4.84213 6.11944 5.51787
#
# Compressibility (1/GPa) = 0.04216179
#
# Stress axis : x y z
#
# Youngs Moduli (GPa) = 60.87188 36.79100 83.40200
#
# Poissons Ratio (x) = -0.12283 0.50279
# Poissons Ratio (y) = -0.20323 0.33599
# Poissons Ratio (z) = 0.36697 0.14822
#
# Static dielectric constant tensor:
#      x y z
#    x 1.844710 -0.022570 -0.067890 
#    y -0.022570 1.918810 0.047620 
#    z -0.067890 0.047620 1.862010 
# 
# From -- ./inp_files/505050.got.cif
#   From: 2010.05.17/outbox.cif.g08.bks.cpg/sg2_253_cif.got.tgz:505050.got - 2010.06.03 11:33:40.
