data_PCOD9034048
_publ_section_title
;
Structure prediction by ZEFSAII (Michael W. Deem and Ramdas Pophale) SiO2 
 PCOD9034048
Probable space group: P -1
;
_chemical_formula_sum "Si O2"
_cell_formula_units_Z 16
_cell_length_a 8.411480
_cell_length_b 24.519360
_cell_length_c 5.311947
_cell_angle_alpha 101.897316
_cell_angle_beta 97.098056
_cell_angle_gamma 41.027674
_cell_volume 702.830078
_symmetry_space_group_name_H-M "P -1"
_symmetry_group_IT_number 2
_symmetry_cell_setting 'triclinic'
loop_
_space_group_symop_operation_xyz
x,y,z
-x,-y,-z
loop_
_atom_site_type_symbol
_atom_site_label
_atom_site_fract_x
_atom_site_fract_y
_atom_site_fract_z
Si Si1 0.596762 0.060980 0.537778
Si Si2 0.105107 0.509294 0.751108
Si Si3 0.651458 0.447652 0.233651
Si Si4 0.896026 0.966010 0.997249
Si Si5 0.702412 0.167819 0.700737
Si Si6 0.802043 0.282723 0.159823
Si Si7 0.964453 0.825348 0.404591
Si Si8 0.642034 0.645191 0.099991
O O1 0.724278 0.009258 0.252724
O O2 0.636470 0.119349 0.600401
O O3 0.322674 0.109713 0.551690
O O4 0.729362 0.001193 0.754014
O O5 0.141443 0.561179 0.710132
O O6 0.000000 0.500000 0.500000
O O7 0.919274 0.570878 0.000296
O O8 0.352346 0.411934 0.780364
O O9 0.500000 0.500000 0.500000
O O10 0.756583 0.359087 0.177465
O O11 0.500000 0.500000 0.000000
O O12 0.142082 0.870402 0.043435
O O13 0.000000 0.000000 0.000000
O O14 0.892213 0.152100 0.543952
O O15 0.463498 0.269045 0.741991
O O16 0.538739 0.322512 0.129991
O O17 0.920736 0.239150 0.406490
O O18 0.960086 0.218631 0.895297
#
# Coordination Sequence:
#
# PCOD9034048 Si02
#       8
#     2   2   2   2   2   2   2   2
#     4  11  24  45  70 101 141 174 232 278 337 416
#     4  11  25  43  67  99 132 178 231 286 338 412
#     4  12  25  43  71  92 134 186 221 284 354 404
#     4  10  22  44  71 101 138 179 225 280 337 415
#     4  10  24  43  71  98 136 183 220 279 353 394
#     4  11  24  45  65  97 139 174 230 283 336 409
#     4  11  26  43  68 103 137 177 227 286 334 407
#     4  10  24  43  66  94 136 170 228 281 337 409
#
# _framework density 22.765105999999999
#
# number of rings (size 3 to 8) (size 9 to 14) (size 15 to 20)
#    0.000    1.250    1.250    3.750    8.750    8.000 
#    0.000    0.000    0.000    0.000    0.000    0.000 
#    0.000    0.000    0.000    0.000    0.000    0.000 
#
# Total GULP energy -89217.901876 kJ/mol
# GULP energy per Si atom -5576.118867 kJ/mol
# Density = 2.271329 g / cm^3
# Si number density = 22.765106 Si / 1000 Ang^3
#
#
#
# Elastic Constant Matrix: (Units=GPa)
#
#
# Indices 1 2 3 4 5 6 
#
# 1 99.2531 29.9430 23.3195 8.4098 -1.8572 10.0592
# 2 29.9430 142.7529 35.2314 -4.3725 -6.5496 6.2499
# 3 23.3195 35.2314 90.5589 -8.1383 -18.8966 4.8043
# 4 8.4098 -4.3725 -8.1383 48.2803 -1.7583 0.2504
# 5 -1.8572 -6.5496 -18.8966 -1.7583 34.8485 5.1640
# 6 10.0592 6.2499 4.8043 0.2504 5.1640 38.7458
#
#
#
# Elastic Compliance Matrix: (Units=1/GPa)
#
#
# Indices 1 2 3 4 5 6 
#
# 1 0.011679 -0.001831 -0.002609 -0.002662 -0.000934 -0.002272
# 2 -0.001831 0.008068 -0.002552 0.000627 0.000145 -0.000533
# 3 -0.002609 -0.002552 0.014691 0.002992 0.007763 -0.001787
# 4 -0.002662 0.000627 0.002992 0.021839 0.002743 -0.000288
# 5 -0.000934 0.000145 0.007763 0.002743 0.033801 -0.005266
# 6 -0.002272 -0.000533 -0.001787 -0.000288 -0.005266 0.027410
#
#
# Mechanical properties :
#
#
# Convention : Reuss Voigt Hill
#
# Bulk Modulus (GPa) = 48.89025 56.61696 52.75360
# Shear Modulus (GPa) = 36.15585 40.64631 38.40108
#
# Velocity S-wave (km/s) = 3.98956 4.23006 4.11157
# Velocity P-wave (km/s) = 6.53795 6.98441 6.76486
#
# Compressibility (1/GPa) = 0.02045398
#
# Stress axis : x y z
#
# Youngs Moduli (GPa) = 85.62526 123.94175 68.06959
#
# Poissons Ratio (x) = 0.22691 0.17757
# Poissons Ratio (y) = 0.15676 0.17375
# Poissons Ratio (z) = 0.22337 0.31636
#
# Static dielectric constant tensor:
#      x y z
#    x 2.009320 0.086670 -0.021650 
#    y 0.086670 1.909090 -0.002940 
#    z -0.021650 -0.002940 1.796870 
# 
# From -- ./inp_files/54990.got.cif
#   From: 2010.05.17/outbox.cif.g08.bks.cpg/sg2_28_cif.got.tgz:54990.got - 2010.06.03 11:33:40.
