data_PCOD9034758
_publ_section_title
;
Structure prediction by ZEFSAII (Michael W. Deem and Ramdas Pophale) SiO2 
 PCOD9034758
Probable space group: P -1
;
_chemical_formula_sum "Si O2"
_cell_formula_units_Z 15
_cell_length_a 9.181329
_cell_length_b 14.331976
_cell_length_c 9.209201
_cell_angle_alpha 112.480696
_cell_angle_beta 84.928748
_cell_angle_gamma 43.420373
_cell_volume 628.883496
_symmetry_space_group_name_H-M "P -1"
_symmetry_group_IT_number 2
_symmetry_cell_setting 'triclinic'
loop_
_space_group_symop_operation_xyz
x,y,z
-x,-y,-z
loop_
_atom_site_type_symbol
_atom_site_label
_atom_site_fract_x
_atom_site_fract_y
_atom_site_fract_z
Si Si1 0.488362 0.835352 0.020057
Si Si2 0.082330 0.753881 0.642684
Si Si3 0.270834 0.402641 0.880893
Si Si4 0.500000 0.500000 0.000000
Si Si5 0.287780 0.811049 0.807349
Si Si6 0.512319 0.163231 0.450917
Si Si7 0.136566 0.317741 0.345123
Si Si8 0.013600 0.871265 0.397034
O O1 0.539016 0.773383 0.140681
O O2 0.211007 0.047625 0.163847
O O3 0.474937 0.737247 0.874624
O O4 0.706428 0.771119 0.872915
O O5 0.090385 0.632735 0.599109
O O6 0.096929 0.774684 0.485334
O O7 0.282655 0.700340 0.690472
O O8 0.340062 0.334250 0.668942
O O9 0.319727 0.493219 0.967188
O O10 0.000000 0.500000 0.000000
O O11 0.239046 0.713177 0.172172
O O12 0.347138 0.847839 0.687904
O O13 0.000000 0.000000 0.000000
O O14 0.338263 0.187141 0.383919
O O15 0.741309 0.988387 0.425733
O O16 0.000000 0.500000 0.500000
O O17 0.000000 0.000000 0.500000
#
# Coordination Sequence:
#
# PCOD9034758 Si02
#       8
#     2   2   2   1   2   2   2   2
#     4  10  22  45  67  99 144 190 243 308 368 448
#     4  11  21  42  74 100 135 196 245 293 385 449
#     4  12  26  47  73 109 158 192 257 324 378 455
#     4  12  28  44  76 116 146 206 252 308 398 462
#     4   9  20  39  70 103 132 187 249 294 368 452
#     4  11  23  47  72 103 153 198 240 323 383 441
#     4  11  26  44  66 103 153 192 250 305 373 457
#     4  12  23  46  77 109 151 189 256 324 377 461
#
# _framework density 23.851794000000002
#
# number of rings (size 3 to 8) (size 9 to 14) (size 15 to 20)
#    0.000    1.067    4.000    1.200    5.600    1.600 
#    4.800    1.333    0.000    0.000    0.000    0.000 
#    0.000    0.000    0.000    0.000    0.000    0.000 
#
# Total GULP energy -83594.184550 kJ/mol
# GULP energy per Si atom -5572.945637 kJ/mol
# Density = 2.379751 g / cm^3
# Si number density = 23.851794 Si / 1000 Ang^3
#
#
#
# Elastic Constant Matrix: (Units=GPa)
#
#
# Indices 1 2 3 4 5 6 
#
# 1 132.8010 2.8512 11.8468 -6.5115 9.6909 0.9909
# 2 2.8512 32.3829 17.0082 -1.8960 4.9930 0.7874
# 3 11.8468 17.0082 83.0940 -5.0566 -10.2288 -0.3478
# 4 -6.5115 -1.8960 -5.0566 46.2370 -0.0434 -2.9139
# 5 9.6909 4.9930 -10.2288 -0.0434 35.1207 6.6809
# 6 0.9909 0.7874 -0.3478 -2.9139 6.6809 26.8430
#
#
#
# Elastic Compliance Matrix: (Units=1/GPa)
#
#
# Indices 1 2 3 4 5 6 
#
# 1 0.007903 0.000585 -0.001528 0.000997 -0.002798 0.000476
# 2 0.000585 0.036548 -0.008503 0.000698 -0.007997 0.000862
# 3 -0.001528 -0.008503 0.014803 0.001003 0.006117 -0.000916
# 4 0.000997 0.000698 0.001003 0.022062 -0.000527 0.002482
# 5 -0.002798 -0.007997 0.006117 -0.000527 0.033690 -0.008025
# 6 0.000476 0.000862 -0.000916 0.002482 -0.008025 0.039466
#
#
# Mechanical properties :
#
#
# Convention : Reuss Voigt Hill
#
# Bulk Modulus (GPa) = 24.77541 34.63225 29.70383
# Shear Modulus (GPa) = 26.76403 36.07825 31.42114
#
# Velocity S-wave (km/s) = 3.35341 3.89344 3.63347
# Velocity P-wave (km/s) = 5.04019 5.89602 5.48483
#
# Compressibility (1/GPa) = 0.04036260
#
# Stress axis : x y z
#
# Youngs Moduli (GPa) = 126.52786 27.36153 67.55353
#
# Poissons Ratio (x) = -0.01601 0.10325
# Poissons Ratio (y) = -0.07404 0.57438
# Poissons Ratio (z) = 0.19338 0.23264
#
# Static dielectric constant tensor:
#      x y z
#    x 2.005890 -0.037010 0.020540 
#    y -0.037010 1.972240 -0.003030 
#    z 0.020540 -0.003030 1.928700 
# 
# From -- ./inp_files/203661.got.cif
#   From: 2010.05.17/outbox.cif.g08.bks.cpg/sg2_102_cif.got.tgz:203661.got - 2010.06.03 11:33:40.
