data_PCOD9034632
_publ_section_title
;
Structure prediction by ZEFSAII (Michael W. Deem and Ramdas Pophale) SiO2 
 PCOD9034632
Probable space group: P -1
;
_chemical_formula_sum "Si O2"
_cell_formula_units_Z 16
_cell_length_a 22.964908
_cell_length_b 7.077354
_cell_length_c 14.265806
_cell_angle_alpha 108.041777
_cell_angle_beta 20.511714
_cell_angle_gamma 105.862101
_cell_volume 771.521947
_symmetry_space_group_name_H-M "P -1"
_symmetry_group_IT_number 2
_symmetry_cell_setting 'triclinic'
loop_
_space_group_symop_operation_xyz
x,y,z
-x,-y,-z
loop_
_atom_site_type_symbol
_atom_site_label
_atom_site_fract_x
_atom_site_fract_y
_atom_site_fract_z
Si Si1 0.162004 0.309344 0.129454
Si Si2 0.605607 0.211076 0.957749
Si Si3 0.714968 0.776582 0.680535
Si Si4 0.527968 0.405852 0.544375
Si Si5 0.045533 0.282345 0.857427
Si Si6 0.252727 0.969794 0.796098
Si Si7 0.644663 0.799110 0.502244
Si Si8 0.158933 0.428077 0.354313
O O1 0.131054 0.289842 0.284453
O O2 0.020190 0.469243 0.332673
O O3 0.346298 0.387045 0.857312
O O4 0.170055 0.117626 0.020965
O O5 0.459813 0.273242 0.112444
O O6 0.508380 0.147651 0.188846
O O7 0.726838 0.388953 0.816767
O O8 0.705683 0.016071 0.738116
O O9 0.861929 0.699932 0.378743
O O10 0.750799 0.686130 0.714229
O O11 0.500000 0.500000 0.500000
O O12 0.622723 0.192462 0.368421
O O13 0.631205 0.563573 0.469685
O O14 0.183410 0.172555 0.699095
O O15 0.000000 0.500000 0.000000
O O16 0.887695 0.152256 0.061589
O O17 0.348774 0.089440 0.589559
#
# Coordination Sequence:
#
# PCOD9034632 Si02
#       8
#     2   2   2   2   2   2   2   2
#     4  11  26  44  66 102 134 182 231 267 337 402
#     4  10  22  45  66 104 134 173 233 272 334 409
#     4  10  24  42  71  97 135 177 223 283 339 394
#     4  12  25  44  68  96 140 179 229 278 329 403
#     4  11  24  46  69 105 133 173 227 283 349 399
#     4  12  26  45  72 100 138 179 228 283 338 403
#     4  11  24  43  72  99 136 181 219 285 337 402
#     4  11  24  45  68  96 139 182 220 283 335 396
#
# _framework density 20.738232
#
# number of rings (size 3 to 8) (size 9 to 14) (size 15 to 20)
#    0.000    1.000    3.750    1.875    5.250    0.000 
#    6.750    1.875    0.000    0.000    0.000    0.000 
#    0.000    0.000    0.000    0.000    0.000    0.000 
#
# Total GULP energy -89427.396794 kJ/mol
# GULP energy per Si atom -5589.212300 kJ/mol
# Density = 2.069103 g / cm^3
# Si number density = 20.738232 Si / 1000 Ang^3
#
#
#
# Elastic Constant Matrix: (Units=GPa)
#
#
# Indices 1 2 3 4 5 6 
#
# 1 92.9456 45.8155 29.7190 12.5224 6.6561 7.8977
# 2 45.8155 82.1923 39.6540 5.4246 5.5567 5.2988
# 3 29.7190 39.6540 86.0920 15.3035 -0.3922 -3.4669
# 4 12.5224 5.4246 15.3035 21.7007 15.5145 -6.9443
# 5 6.6561 5.5567 -0.3922 15.5145 33.9602 1.5312
# 6 7.8977 5.2988 -3.4669 -6.9443 1.5312 31.0120
#
#
#
# Elastic Compliance Matrix: (Units=1/GPa)
#
#
# Indices 1 2 3 4 5 6 
#
# 1 0.016774 -0.008479 0.000091 -0.012324 0.003991 -0.005769
# 2 -0.008479 0.020735 -0.008531 0.010642 -0.006708 0.000377
# 3 0.000091 -0.008531 0.018895 -0.019035 0.010348 -0.001227
# 4 -0.012324 0.010642 -0.019035 0.108017 -0.050058 0.025851
# 5 0.003991 -0.006708 0.010348 -0.050058 0.053316 -0.012555
# 6 -0.005769 0.000377 -0.001227 0.025851 -0.012555 0.039922
#
#
# Mechanical properties :
#
#
# Convention : Reuss Voigt Hill
#
# Bulk Modulus (GPa) = 44.31118 54.62299 49.46708
# Shear Modulus (GPa) = 16.72139 27.07069 21.89604
#
# Velocity S-wave (km/s) = 2.84264 3.61688 3.25288
# Velocity P-wave (km/s) = 5.67339 6.62110 6.16548
#
# Compressibility (1/GPa) = 0.02256767
#
# Stress axis : x y z
#
# Youngs Moduli (GPa) = 59.61616 48.22652 52.92487
#
# Poissons Ratio (x) = 0.40890 -0.00484
# Poissons Ratio (y) = 0.50547 0.45150
# Poissons Ratio (z) = -0.00545 0.41142
#
# Static dielectric constant tensor:
#      x y z
#    x 1.793800 0.008890 0.036280 
#    y 0.008890 1.733510 -0.024760 
#    z 0.036280 -0.024760 1.762490 
# 
# From -- ./inp_files/542204.got.cif
#   From: 2010.05.17/outbox.cif.g08.bks.cpg/sg2_272_cif.got.tgz:542204.got - 2010.06.03 11:33:40.
