data_PCOD9034675
_publ_section_title
;
Structure prediction by ZEFSAII (Michael W. Deem and Ramdas Pophale) SiO2 
 PCOD9034675
Probable space group: P -1
;
_chemical_formula_sum "Si O2"
_cell_formula_units_Z 14
_cell_length_a 8.560266
_cell_length_b 12.909762
_cell_length_c 14.138769
_cell_angle_alpha 147.686809
_cell_angle_beta 95.709056
_cell_angle_gamma 64.424033
_cell_volume 629.010910
_symmetry_space_group_name_H-M "P -1"
_symmetry_group_IT_number 2
_symmetry_cell_setting 'triclinic'
loop_
_space_group_symop_operation_xyz
x,y,z
-x,-y,-z
loop_
_atom_site_type_symbol
_atom_site_label
_atom_site_fract_x
_atom_site_fract_y
_atom_site_fract_z
Si Si1 0.930324 0.376608 0.336124
Si Si2 0.283910 0.751652 0.641022
Si Si3 0.712478 0.799468 0.488340
Si Si4 0.872391 0.344987 0.613820
Si Si5 0.284419 0.115825 0.030964
Si Si6 0.220216 0.731353 0.264626
Si Si7 0.622410 0.660674 0.186906
O O1 0.863736 0.259511 0.311043
O O2 0.766001 0.606280 0.427997
O O3 0.000000 0.500000 0.500000
O O4 0.131808 0.132682 0.106769
O O5 0.500000 0.500000 0.500000
O O6 0.227256 0.739661 0.522228
O O7 0.289521 0.975087 0.832385
O O8 0.734735 0.667653 0.288299
O O9 0.877565 0.846322 0.528690
O O10 0.486768 0.084188 0.687650
O O11 0.758452 0.435136 0.776574
O O12 0.823969 0.593891 0.763963
O O13 0.500000 0.000000 0.000000
O O14 0.424397 0.701439 0.248739
O O15 0.231465 0.599009 0.066162
O O16 0.000000 0.000000 0.500000
#
# Coordination Sequence:
#
# PCOD9034675 Si02
#       7
#     2   2   2   2   2   2   2
#     4  11  22  42  69  98 139 180 221 288 342 411
#     4  12  24  43  66  97 139 183 225 279 346 415
#     4  10  22  45  67 100 136 179 235 281 351 408
#     4  11  24  45  66 100 140 177 232 288 342 415
#     4  11  23  43  64  98 139 181 232 273 343 416
#     4  11  24  45  70 100 134 178 234 289 345 412
#     4  10  24  45  70  98 137 182 230 290 346 411
#
# _framework density 22.257166000000002
#
# number of rings (size 3 to 8) (size 9 to 14) (size 15 to 20)
#    0.000    1.143    5.714    0.429    2.000    5.143 
#    2.571    0.000    0.000    0.000    0.000    0.000 
#    0.000    0.000    0.000    0.000    0.000    0.000 
#
# Total GULP energy -78005.415705 kJ/mol
# GULP energy per Si atom -5571.815407 kJ/mol
# Density = 2.220651 g / cm^3
# Si number density = 22.257166 Si / 1000 Ang^3
#
#
#
# Elastic Constant Matrix: (Units=GPa)
#
#
# Indices 1 2 3 4 5 6 
#
# 1 43.4264 0.9641 10.8931 -14.1108 -0.2826 -4.6551
# 2 0.9641 75.5322 20.2374 -16.9605 0.7670 -16.8165
# 3 10.8931 20.2374 112.7302 -26.2497 7.3622 -22.6646
# 4 -14.1108 -16.9605 -26.2497 33.0936 -11.6071 7.7326
# 5 -0.2826 0.7670 7.3622 -11.6071 36.4070 -17.3987
# 6 -4.6551 -16.8165 -22.6646 7.7326 -17.3987 38.5482
#
#
#
# Elastic Compliance Matrix: (Units=1/GPa)
#
#
# Indices 1 2 3 4 5 6 
#
# 1 0.028907 0.004502 0.001100 0.016937 0.008414 0.006502
# 2 0.004502 0.017867 0.000653 0.012125 0.008158 0.009972
# 3 0.001100 0.000653 0.012285 0.010331 0.004418 0.007562
# 4 0.016937 0.012125 0.010331 0.056629 0.021447 0.011729
# 5 0.008414 0.008158 0.004418 0.021447 0.044213 0.022826
# 6 0.006502 0.009972 0.007562 0.011729 0.022826 0.043473
#
#
# Mechanical properties :
#
#
# Convention : Reuss Voigt Hill
#
# Bulk Modulus (GPa) = 13.97276 32.87532 23.42404
# Shear Modulus (GPa) = 23.28617 34.91605 29.10111
#
# Velocity S-wave (km/s) = 3.23806 3.96505 3.61985
# Velocity P-wave (km/s) = 4.50239 5.98037 5.29322
#
# Compressibility (1/GPa) = 0.07156781
#
# Stress axis : x y z
#
# Youngs Moduli (GPa) = 34.59401 55.96938 81.40278
#
# Poissons Ratio (x) = -0.25195 -0.08956
# Poissons Ratio (y) = -0.15573 -0.05316
# Poissons Ratio (z) = -0.03806 -0.03655
#
# Static dielectric constant tensor:
#      x y z
#    x 1.565570 0.166020 0.164860 
#    y 0.166020 1.888260 -0.003360 
#    z 0.164860 -0.003360 1.806720 
# 
# From -- ./inp_files/505883.got.cif
#   From: 2010.05.17/outbox.cif.g08.bks.cpg/sg2_253_cif.got.tgz:505883.got - 2010.06.03 11:33:40.
