data_PCOD9034438
_publ_section_title
;
Structure prediction by ZEFSAII (Michael W. Deem and Ramdas Pophale) SiO2 
 PCOD9034438
Probable space group: P -1
;
_chemical_formula_sum "Si O2"
_cell_formula_units_Z 12
_cell_length_a 7.146406
_cell_length_b 8.577515
_cell_length_c 13.809157
_cell_angle_alpha 34.673841
_cell_angle_beta 75.441216
_cell_angle_gamma 84.195757
_cell_volume 457.450907
_symmetry_space_group_name_H-M "P -1"
_symmetry_group_IT_number 2
_symmetry_cell_setting 'triclinic'
loop_
_space_group_symop_operation_xyz
x,y,z
-x,-y,-z
loop_
_atom_site_type_symbol
_atom_site_label
_atom_site_fract_x
_atom_site_fract_y
_atom_site_fract_z
Si Si1 0.431197 0.465616 0.636444
Si Si2 0.188675 0.672634 0.333569
Si Si3 0.715500 0.056731 0.488953
Si Si4 0.378157 0.269136 0.058817
Si Si5 0.744528 0.161844 0.966937
Si Si6 0.081816 0.334630 0.194304
O O1 0.500000 0.500000 0.500000
O O2 0.653428 0.513614 0.626168
O O3 0.295771 0.674163 0.581531
O O4 0.314648 0.156672 0.831216
O O5 0.155090 0.810553 0.164818
O O6 0.000000 0.500000 0.500000
O O7 0.304802 0.931956 0.249809
O O8 0.868545 0.154821 0.332865
O O9 0.500000 0.000000 0.500000
O O10 0.787086 0.830938 0.665138
O O11 0.165986 0.345679 0.068741
O O12 0.500000 0.500000 0.000000
O O13 0.531143 0.267223 0.951712
O O14 0.884100 0.358387 0.922174
#
# Coordination Sequence:
#
# PCOD9034438 Si02
#       6
#     2   2   2   2   2   2
#     4  11  24  43  68 102 138 178 233 296 349 414
#     4  11  24  40  72 103 136 187 238 290 357 428
#     4  11  24  40  65 103 143 178 233 291 352 421
#     4   9  19  39  66  95 129 180 231 277 348 418
#     4  10  22  44  74  97 139 185 235 289 352 422
#     4  10  23  42  71  96 140 191 228 285 363 426
#
# _framework density 26.232323999999998
#
# number of rings (size 3 to 8) (size 9 to 14) (size 15 to 20)
#    0.000    1.667    0.000    5.000    9.333    2.000 
#    0.000    0.000    0.000    8.000    0.000    0.000 
#    0.000    0.000    0.000    0.000    0.000    0.000 
#
# Total GULP energy -66921.113413 kJ/mol
# GULP energy per Si atom -5576.759451 kJ/mol
# Density = 2.617262 g / cm^3
# Si number density = 26.232324 Si / 1000 Ang^3
#
#
#
# Elastic Constant Matrix: (Units=GPa)
#
#
# Indices 1 2 3 4 5 6 
#
# 1 116.0137 18.5674 53.3163 3.5056 -34.8750 -10.8418
# 2 18.5674 109.1121 72.6245 2.9860 -8.6646 -4.3085
# 3 53.3163 72.6245 187.0327 18.2300 -45.0068 2.3499
# 4 3.5056 2.9860 18.2300 56.7212 -7.9812 -8.6193
# 5 -34.8750 -8.6646 -45.0068 -7.9812 47.7426 5.0445
# 6 -10.8418 -4.3085 2.3499 -8.6193 5.0445 34.7629
#
#
#
# Elastic Compliance Matrix: (Units=1/GPa)
#
#
# Indices 1 2 3 4 5 6 
#
# 1 0.011762 -0.000154 -0.001843 0.001292 0.006713 0.003120
# 2 -0.000154 0.012973 -0.005984 0.001178 -0.003494 0.002764
# 3 -0.001843 -0.005984 0.010199 -0.002394 0.007167 -0.003639
# 4 0.001292 0.001178 -0.002394 0.019278 0.001568 0.005263
# 5 0.006713 -0.003494 0.007167 0.001568 0.032568 -0.003161
# 6 0.003120 0.002764 -0.003639 0.005263 -0.003161 0.032092
#
#
# Mechanical properties :
#
#
# Convention : Reuss Voigt Hill
#
# Bulk Modulus (GPa) = 52.70731 77.90831 65.30781
# Shear Modulus (GPa) = 35.42142 45.68867 40.55504
#
# Velocity S-wave (km/s) = 3.67862 4.17789 3.93618
# Velocity P-wave (km/s) = 6.17893 7.28264 6.75337
#
# Compressibility (1/GPa) = 0.01897270
#
# Stress axis : x y z
#
# Youngs Moduli (GPa) = 85.02156 77.08047 98.04631
#
# Poissons Ratio (x) = 0.01187 0.18068
# Poissons Ratio (y) = 0.01309 0.58671
# Poissons Ratio (z) = 0.15668 0.46125
#
# Static dielectric constant tensor:
#      x y z
#    x 2.399700 0.016710 0.220860 
#    y 0.016710 2.110190 0.010480 
#    z 0.220860 0.010480 2.136980 
# 
# From -- ./inp_files/490259.got.cif
#   From: 2010.05.17/outbox.cif.g08.bks.cpg/sg2_246_cif.got.tgz:490259.got - 2010.06.03 11:33:40.
