data_PCOD9034047
_publ_section_title
;
Structure prediction by ZEFSAII (Michael W. Deem and Ramdas Pophale) SiO2 
 PCOD9034047
Probable space group: P -1
;
_chemical_formula_sum "Si O2"
_cell_formula_units_Z 12
_cell_length_a 5.397651
_cell_length_b 12.092439
_cell_length_c 11.938069
_cell_angle_alpha 128.233965
_cell_angle_beta 113.613515
_cell_angle_gamma 60.801775
_cell_volume 528.729939
_symmetry_space_group_name_H-M "P -1"
_symmetry_group_IT_number 2
_symmetry_cell_setting 'triclinic'
loop_
_space_group_symop_operation_xyz
x,y,z
-x,-y,-z
loop_
_atom_site_type_symbol
_atom_site_label
_atom_site_fract_x
_atom_site_fract_y
_atom_site_fract_z
Si Si1 0.292924 0.025672 0.871922
Si Si2 0.157866 0.490420 0.333109
Si Si3 0.467259 0.278731 0.660297
Si Si4 0.615535 0.183430 0.864757
Si Si5 0.475245 0.731689 0.583732
Si Si6 0.289386 0.472176 0.101852
O O1 0.427579 0.113605 0.864248
O O2 0.957298 0.106823 0.887605
O O3 0.322682 0.867464 0.721666
O O4 0.500000 0.000000 0.000000
O O5 0.303643 0.614941 0.467275
O O6 0.226278 0.368208 0.367090
O O7 0.285994 0.412271 0.190058
O O8 0.830293 0.584448 0.311392
O O9 0.508872 0.179233 0.715158
O O10 0.496249 0.210177 0.499133
O O11 0.693367 0.364463 0.772840
O O12 0.533976 0.354621 0.999863
O O13 0.000000 0.500000 0.000000
#
# Coordination Sequence:
#
# PCOD9034047 Si02
#       6
#     2   2   2   2   2   2
#     4  12  29  50  72 102 145 193 233 288 357 439
#     4  10  22  44  71 101 137 183 239 299 346 410
#     4  11  24  41  73 102 137 181 239 298 355 402
#     4  12  27  45  74 107 143 186 236 289 359 425
#     4  10  25  44  68 100 141 186 240 286 354 417
#     4  11  22  41  70 107 141 177 237 300 350 412
#
# _framework density 22.695898
#
# number of rings (size 3 to 8) (size 9 to 14) (size 15 to 20)
#    0.000    1.000    1.667    3.500    9.333    1.333 
#    0.000    0.000    0.000    0.000    0.000    0.000 
#    0.000    0.000    0.000    0.000    0.000    0.000 
#
# Total GULP energy -67123.920819 kJ/mol
# GULP energy per Si atom -5593.660068 kJ/mol
# Density = 2.264424 g / cm^3
# Si number density = 22.695898 Si / 1000 Ang^3
#
#
#
# Elastic Constant Matrix: (Units=GPa)
#
#
# Indices 1 2 3 4 5 6 
#
# 1 67.5346 23.6939 24.2979 -2.8661 -2.9106 -19.4032
# 2 23.6939 81.4532 51.1404 -10.8117 -3.7929 -15.0170
# 3 24.2979 51.1404 134.5143 -15.6867 -29.0709 -11.7891
# 4 -2.8661 -10.8117 -15.6867 36.9944 -5.9917 -11.1508
# 5 -2.9106 -3.7929 -29.0709 -5.9917 32.5868 0.1607
# 6 -19.4032 -15.0170 -11.7891 -11.1508 0.1607 51.1578
#
#
#
# Elastic Compliance Matrix: (Units=1/GPa)
#
#
# Indices 1 2 3 4 5 6 
#
# 1 0.018205 -0.003112 -0.001248 0.001891 0.000468 0.006114
# 2 -0.003112 0.018015 -0.006429 0.002715 -0.003434 0.003228
# 3 -0.001248 -0.006429 0.013802 0.006595 0.012655 0.002218
# 4 0.001891 0.002715 0.006595 0.036143 0.012960 0.010871
# 5 0.000468 -0.003434 0.012655 0.012960 0.043979 0.004773
# 6 0.006114 0.003228 0.002218 0.010871 0.004773 0.025680
#
#
# Mechanical properties :
#
#
# Convention : Reuss Voigt Hill
#
# Bulk Modulus (GPa) = 35.15731 53.52961 44.34346
# Shear Modulus (GPa) = 26.75465 36.43913 31.59689
#
# Velocity S-wave (km/s) = 3.43714 4.01126 3.73525
# Velocity P-wave (km/s) = 5.59250 6.71494 6.17926
#
# Compressibility (1/GPa) = 0.02844359
#
# Stress axis : x y z
#
# Youngs Moduli (GPa) = 54.92941 55.51069 72.45169
#
# Poissons Ratio (x) = 0.17277 0.09040
# Poissons Ratio (y) = 0.17096 0.46581
# Poissons Ratio (z) = 0.06853 0.35689
#
# Static dielectric constant tensor:
#      x y z
#    x 1.890930 0.043730 -0.014340 
#    y 0.043730 1.885560 -0.033520 
#    z -0.014340 -0.033520 1.840560 
# 
# From -- ./inp_files/62609.got.cif
#   From: 2010.05.17/outbox.cif.g08.bks.cpg/sg2_32_cif.got.tgz:62609.got - 2010.06.03 11:33:40.
