data_PCOD9034899
_publ_section_title
;
Structure prediction by ZEFSAII (Michael W. Deem and Ramdas Pophale) SiO2 
 PCOD9034899
Probable space group: P -1
;
_chemical_formula_sum "Si O2"
_cell_formula_units_Z 12
_cell_length_a 15.874575
_cell_length_b 12.086802
_cell_length_c 14.237593
_cell_angle_alpha 21.476212
_cell_angle_beta 30.447546
_cell_angle_gamma 30.770286
_cell_volume 482.326604
_symmetry_space_group_name_H-M "P -1"
_symmetry_group_IT_number 2
_symmetry_cell_setting 'triclinic'
loop_
_space_group_symop_operation_xyz
x,y,z
-x,-y,-z
loop_
_atom_site_type_symbol
_atom_site_label
_atom_site_fract_x
_atom_site_fract_y
_atom_site_fract_z
Si Si1 0.422390 0.209424 0.789138
Si Si2 0.096108 0.270348 0.175179
Si Si3 0.149715 0.261313 0.837822
Si Si4 0.102759 0.724907 0.187447
Si Si5 0.601431 0.785384 0.807934
Si Si6 0.439313 0.269783 0.423790
O O1 0.500000 0.500000 0.500000
O O2 0.283857 0.263901 0.791889
O O3 0.589608 0.931526 0.807888
O O4 0.299093 0.152760 0.037436
O O5 0.037156 0.502579 0.138425
O O6 0.000000 0.000000 0.500000
O O7 0.000000 0.500000 0.000000
O O8 0.243037 0.353489 0.584524
O O9 0.140407 0.920456 0.085154
O O10 0.249950 0.487671 0.169908
O O11 0.000000 0.500000 0.500000
O O12 0.000000 0.000000 0.000000
O O13 0.556699 0.088999 0.541610
O O14 0.466976 0.584637 0.109472
O O15 0.500000 0.000000 0.500000
#
# Coordination Sequence:
#
# PCOD9034899 Si02
#       6
#     2   2   2   2   2   2
#     4  10  24  46  77 110 143 191 247 302 361 432
#     4  10  22  45  69 102 142 190 239 289 355 428
#     4  10  24  45  74 102 147 188 237 298 363 430
#     4  12  28  45  70 106 145 192 239 296 365 431
#     4  11  24  44  69 104 146 179 241 297 357 428
#     4  11  21  39  72 105 136 185 231 291 364 427
#
# _framework density 24.879407
#
# number of rings (size 3 to 8) (size 9 to 14) (size 15 to 20)
#    0.000    1.333    1.667    2.500    4.667    2.667 
#    3.000    6.667    0.000    0.000    0.000    0.000 
#    0.000    0.000    0.000    0.000    0.000    0.000 
#
# Total GULP energy -66940.813239 kJ/mol
# GULP energy per Si atom -5578.401103 kJ/mol
# Density = 2.482278 g / cm^3
# Si number density = 24.879407 Si / 1000 Ang^3
#
#
#
# Elastic Constant Matrix: (Units=GPa)
#
#
# Indices 1 2 3 4 5 6 
#
# 1 98.6250 41.1500 50.9536 -9.6286 -7.0103 18.8957
# 2 41.1500 269.4177 76.4899 8.6623 -20.4099 42.9483
# 3 50.9536 76.4899 189.4275 12.3341 -25.4375 6.5384
# 4 -9.6286 8.6623 12.3341 52.6950 6.0119 7.5488
# 5 -7.0103 -20.4099 -25.4375 6.0119 40.7691 -16.2524
# 6 18.8957 42.9483 6.5384 7.5488 -16.2524 43.2331
#
#
#
# Elastic Compliance Matrix: (Units=1/GPa)
#
#
# Indices 1 2 3 4 5 6 
#
# 1 0.014214 -0.000149 -0.004415 0.005288 -0.004334 -0.007950
# 2 -0.000149 0.005007 -0.001940 0.000405 -0.000773 -0.004977
# 3 -0.004415 -0.001940 0.008138 -0.003902 0.006165 0.005625
# 4 0.005288 0.000405 -0.003902 0.023091 -0.008447 -0.009331
# 5 -0.004334 -0.000773 0.006165 -0.008447 0.035013 0.016367
# 6 -0.007950 -0.004977 0.005625 -0.009331 0.016367 0.038481
#
#
# Mechanical properties :
#
#
# Convention : Reuss Voigt Hill
#
# Bulk Modulus (GPa) = 69.68365 99.40635 84.54500
# Shear Modulus (GPa) = 35.27706 53.26456 44.27081
#
# Velocity S-wave (km/s) = 3.76962 4.63202 4.22289
# Velocity P-wave (km/s) = 6.85682 8.28550 7.60478
#
# Compressibility (1/GPa) = 0.01435057
#
# Stress axis : x y z
#
# Youngs Moduli (GPa) = 70.35389 199.71726 122.88045
#
# Poissons Ratio (x) = 0.02966 0.54256
# Poissons Ratio (y) = 0.01045 0.23843
# Poissons Ratio (z) = 0.31064 0.38752
#
# Static dielectric constant tensor:
#      x y z
#    x 2.309030 0.637360 -0.702540 
#    y 0.637360 5.843660 -3.649190 
#    z -0.702540 -3.649190 5.424550 
# 
# From -- ./inp_files/538386.got.cif
#   From: 2010.05.17/outbox.cif.g08.bks.cpg/sg2_270_cif.got.tgz:538386.got - 2010.06.03 11:33:40.
