data_PCOD9034836
_publ_section_title
;
Structure prediction by ZEFSAII (Michael W. Deem and Ramdas Pophale) SiO2 
 PCOD9034836
Probable space group: P -1
;
_chemical_formula_sum "Si O2"
_cell_formula_units_Z 16
_cell_length_a 8.943364
_cell_length_b 13.602470
_cell_length_c 9.044738
_cell_angle_alpha 97.003576
_cell_angle_beta 85.879527
_cell_angle_gamma 40.263289
_cell_volume 682.106102
_symmetry_space_group_name_H-M "P -1"
_symmetry_group_IT_number 2
_symmetry_cell_setting 'triclinic'
loop_
_space_group_symop_operation_xyz
x,y,z
-x,-y,-z
loop_
_atom_site_type_symbol
_atom_site_label
_atom_site_fract_x
_atom_site_fract_y
_atom_site_fract_z
Si Si1 0.386380 0.762816 0.358282
Si Si2 0.903615 0.895490 0.452572
Si Si3 0.308160 0.225238 0.090855
Si Si4 0.937942 0.823700 0.762977
Si Si5 0.888519 0.547879 0.355198
Si Si6 0.242636 0.659646 0.983399
Si Si7 0.303647 0.853038 0.066312
Si Si8 0.827250 0.774471 0.215507
O O1 0.172816 0.792638 0.373707
O O2 0.636624 0.619074 0.396201
O O3 0.458807 0.745377 0.180318
O O4 0.256546 0.926426 0.465535
O O5 0.945842 0.812128 0.584735
O O6 0.768303 0.902489 0.338136
O O7 0.275090 0.138316 0.160264
O O8 0.078613 0.402345 0.201114
O O9 0.539272 0.176730 0.078513
O O10 0.307547 0.197227 0.912870
O O11 0.875225 0.970405 0.830300
O O12 0.166609 0.678229 0.821786
O O13 0.837758 0.681846 0.315919
O O14 0.000000 0.500000 0.500000
O O15 0.197229 0.801299 0.025288
O O16 0.071457 0.682692 0.102418
O O17 0.500000 0.500000 0.000000
#
# Coordination Sequence:
#
# PCOD9034836 Si02
#       8
#     2   2   2   2   2   2   2   2
#     4  10  23  42  70  96 132 185 222 285 338 401
#     4  10  22  45  68  97 134 175 236 278 336 399
#     4  11  24  43  68  98 137 175 227 279 343 403
#     4  10  24  42  66 100 133 176 226 285 333 400
#     4  12  26  45  64 102 142 181 223 280 348 409
#     4  11  24  40  66 100 134 178 225 277 345 403
#     4  11  21  44  69  97 133 180 232 278 335 400
#     4  11  23  41  67  98 132 178 226 276 337 408
#
# _framework density 23.456761
#
# number of rings (size 3 to 8) (size 9 to 14) (size 15 to 20)
#    0.000    1.250    2.500    2.625    3.500    2.500 
#    6.750    1.875    0.000    0.000    0.000    0.000 
#    0.000    0.000    0.000    0.000    0.000    0.000 
#
# Total GULP energy -89327.727662 kJ/mol
# GULP energy per Si atom -5582.982979 kJ/mol
# Density = 2.340337 g / cm^3
# Si number density = 23.456761 Si / 1000 Ang^3
#
#
#
# Elastic Constant Matrix: (Units=GPa)
#
#
# Indices 1 2 3 4 5 6 
#
# 1 102.5044 10.0033 32.1983 -1.0720 -8.7737 9.4552
# 2 10.0033 54.9808 16.2153 1.4647 1.9144 -11.9055
# 3 32.1983 16.2153 94.4969 -12.0559 1.0292 -2.9349
# 4 -1.0720 1.4647 -12.0559 25.5384 11.7896 3.5839
# 5 -8.7737 1.9144 1.0292 11.7896 35.7048 -2.7569
# 6 9.4552 -11.9055 -2.9349 3.5839 -2.7569 37.0738
#
#
#
# Elastic Compliance Matrix: (Units=1/GPa)
#
#
# Indices 1 2 3 4 5 6 
#
# 1 0.011854 -0.001697 -0.004232 -0.002659 0.003744 -0.003368
# 2 -0.001697 0.021185 -0.003359 -0.004133 0.000480 0.007405
# 3 -0.004232 -0.003359 0.013708 0.008340 -0.004010 -0.000019
# 4 -0.002659 -0.004133 0.008340 0.052700 -0.018573 -0.006465
# 5 0.003744 0.000480 -0.004010 -0.018573 0.035405 0.003310
# 6 -0.003368 0.007405 -0.000019 -0.006465 0.003310 0.031080
#
#
# Mechanical properties :
#
#
# Convention : Reuss Voigt Hill
#
# Bulk Modulus (GPa) = 35.50060 40.97953 38.24006
# Shear Modulus (GPa) = 25.78646 32.56776 29.17711
#
# Velocity S-wave (km/s) = 3.31919 3.73019 3.53068
# Velocity P-wave (km/s) = 5.46413 6.00505 5.74096
#
# Compressibility (1/GPa) = 0.02816854
#
# Stress axis : x y z
#
# Youngs Moduli (GPa) = 84.35910 47.20404 72.94965
#
# Poissons Ratio (x) = 0.08012 0.30875
# Poissons Ratio (y) = 0.14318 0.24507
# Poissons Ratio (z) = 0.35704 0.15858
#
# Static dielectric constant tensor:
#      x y z
#    x 1.946330 -0.012660 0.033170 
#    y -0.012660 1.924260 0.003190 
#    z 0.033170 0.003190 1.879290 
# 
# From -- ./inp_files/207775.got.cif
#   From: 2010.05.17/outbox.cif.g08.bks.cpg/sg2_104_cif.got.tgz:207775.got - 2010.06.03 11:33:40.
