data_PCOD9034827
_publ_section_title
;
Structure prediction by ZEFSAII (Michael W. Deem and Ramdas Pophale) SiO2 
 PCOD9034827
Probable space group: P -1
;
_chemical_formula_sum "Si O2"
_cell_formula_units_Z 14
_cell_length_a 11.298450
_cell_length_b 10.606972
_cell_length_c 10.399103
_cell_angle_alpha 35.981568
_cell_angle_beta 88.903625
_cell_angle_gamma 67.517468
_cell_volume 571.689486
_symmetry_space_group_name_H-M "P -1"
_symmetry_group_IT_number 2
_symmetry_cell_setting 'triclinic'
loop_
_space_group_symop_operation_xyz
x,y,z
-x,-y,-z
loop_
_atom_site_type_symbol
_atom_site_label
_atom_site_fract_x
_atom_site_fract_y
_atom_site_fract_z
Si Si1 0.333055 0.279286 0.634536
Si Si2 0.086991 0.707198 0.470173
Si Si3 0.682141 0.333625 0.133473
Si Si4 0.802977 0.222614 0.935800
Si Si5 0.125859 0.468506 0.930208
Si Si6 0.284025 0.871083 0.435320
Si Si7 0.453981 0.721122 0.177435
O O1 0.202872 0.422497 0.627926
O O2 0.246149 0.481528 0.348324
O O3 0.459999 0.282279 0.699239
O O4 0.416378 0.958560 0.884962
O O5 0.044455 0.640653 0.659179
O O6 0.166926 0.833377 0.412402
O O7 0.966210 0.933417 0.184909
O O8 0.769919 0.454952 0.077896
O O9 0.734123 0.107395 0.427964
O O10 0.500000 0.500000 0.000000
O O11 0.737833 0.250389 0.055943
O O12 0.708098 0.194535 0.857298
O O13 0.000000 0.500000 0.000000
O O14 0.246973 0.146616 0.158444
O O15 0.443491 0.578201 0.641776
#
# Coordination Sequence:
#
# PCOD9034827 Si02
#       7
#     2   2   2   2   2   2   2
#     4  10  24  44  65  94 135 184 224 284 351 405
#     4  10  24  43  68 101 138 176 235 285 333 421
#     4  11  24  44  65 106 141 175 231 287 334 418
#     4  12  23  40  69  97 136 178 229 283 345 406
#     4  11  24  44  74 101 138 189 227 279 355 410
#     4  10  22  45  68  96 139 182 223 281 348 402
#     4  10  23  43  64  94 134 174 233 283 337 413
#
# _framework density 24.488818999999999
#
# number of rings (size 3 to 8) (size 9 to 14) (size 15 to 20)
#    0.000    1.429    1.429    2.571    0.000   13.714 
#    0.000    0.000    0.000    0.000    0.000    0.000 
#    0.000    0.000    0.000    0.000    0.000    0.000 
#
# Total GULP energy -78156.079858 kJ/mol
# GULP energy per Si atom -5582.577133 kJ/mol
# Density = 2.443308 g / cm^3
# Si number density = 24.488819 Si / 1000 Ang^3
#
#
#
# Elastic Constant Matrix: (Units=GPa)
#
#
# Indices 1 2 3 4 5 6 
#
# 1 83.3048 15.8052 47.4523 6.8284 13.5431 -9.1584
# 2 15.8052 72.6317 43.5456 6.5261 -4.0935 -15.6495
# 3 47.4523 43.5456 202.8984 11.6298 13.9116 -1.3276
# 4 6.8284 6.5261 11.6298 33.1163 -11.0434 -10.0436
# 5 13.5431 -4.0935 13.9116 -11.0434 34.3919 4.7991
# 6 -9.1584 -15.6495 -1.3276 -10.0436 4.7991 25.0586
#
#
#
# Elastic Compliance Matrix: (Units=1/GPa)
#
#
# Indices 1 2 3 4 5 6 
#
# 1 0.015666 -0.000669 -0.002871 -0.002700 -0.006702 0.005357
# 2 -0.000669 0.018927 -0.004211 0.002583 0.003411 0.011735
# 3 -0.002871 -0.004211 0.006827 -0.003055 -0.002547 -0.004054
# 4 -0.002700 0.002583 -0.003055 0.040051 0.013524 0.013927
# 5 -0.006702 0.003411 -0.002547 0.013524 0.037812 -0.002275
# 6 0.005357 0.011735 -0.004054 0.013927 -0.002275 0.054996
#
#
# Mechanical properties :
#
#
# Convention : Reuss Voigt Hill
#
# Bulk Modulus (GPa) = 38.58173 63.60456 51.09315
# Shear Modulus (GPa) = 25.19917 35.31550 30.25734
#
# Velocity S-wave (km/s) = 3.21129 3.80163 3.51886
# Velocity P-wave (km/s) = 5.43497 6.73046 6.11711
#
# Compressibility (1/GPa) = 0.02591900
#
# Stress axis : x y z
#
# Youngs Moduli (GPa) = 63.83145 52.83539 146.47793
#
# Poissons Ratio (x) = 0.03533 0.42054
# Poissons Ratio (y) = 0.04268 0.61679
# Poissons Ratio (z) = 0.18326 0.22248
#
# Static dielectric constant tensor:
#      x y z
#    x 2.047200 -0.036650 0.021350 
#    y -0.036650 1.933740 -0.003680 
#    z 0.021350 -0.003680 2.015540 
# 
# From -- ./inp_files/427256.got.cif
#   From: 2010.05.17/outbox.cif.g08.bks.cpg/sg2_214_cif.got.tgz:427256.got - 2010.06.03 11:33:40.
