data_PCOD9034325
_publ_section_title
;
Structure prediction by ZEFSAII (Michael W. Deem and Ramdas Pophale) SiO2 
 PCOD9034325
Probable space group: P -1
;
_chemical_formula_sum "Si O2"
_cell_formula_units_Z 15
_cell_length_a 8.780843
_cell_length_b 7.064664
_cell_length_c 23.705307
_cell_angle_alpha 32.372151
_cell_angle_beta 126.665374
_cell_angle_gamma 122.883456
_cell_volume 629.002879
_symmetry_space_group_name_H-M "P -1"
_symmetry_group_IT_number 2
_symmetry_cell_setting 'triclinic'
loop_
_space_group_symop_operation_xyz
x,y,z
-x,-y,-z
loop_
_atom_site_type_symbol
_atom_site_label
_atom_site_fract_x
_atom_site_fract_y
_atom_site_fract_z
Si Si1 0.000000 0.500000 0.000000
Si Si2 0.474758 0.927517 0.634120
Si Si3 0.378825 0.111048 0.201794
Si Si4 0.181190 0.235896 0.768316
Si Si5 0.135149 0.295771 0.422998
Si Si6 0.664546 0.759015 0.080157
Si Si7 0.113508 0.479777 0.903445
Si Si8 0.780179 0.600196 0.711283
O O1 0.200314 0.345790 0.105347
O O2 0.951984 0.627994 0.021861
O O3 0.573430 0.014896 0.693426
O O4 0.337883 0.558445 0.707636
O O5 0.631568 0.847044 0.643311
O O6 0.341139 0.222397 0.509731
O O7 0.565436 0.361339 0.162335
O O8 0.330610 0.773965 0.236699
O O9 0.182954 0.159600 0.855890
O O10 0.972753 0.352046 0.678728
O O11 0.218922 0.872876 0.838409
O O12 0.133505 0.246048 0.367503
O O13 0.000000 0.000000 0.500000
O O14 0.752242 0.781385 0.032080
O O15 0.500000 0.000000 0.000000
O O16 0.943883 0.534649 0.808644
#
# Coordination Sequence:
#
# PCOD9034325 Si02
#       8
#     1   2   2   2   2   2   2   2
#     4  12  26  44  68 100 144 180 236 290 352 410
#     4  10  23  45  69 103 139 178 240 291 350 423
#     4  11  26  44  69 103 140 185 235 296 353 414
#     4  10  22  46  69 100 143 184 231 295 348 420
#     4  10  22  44  73 102 140 184 234 290 354 424
#     4  11  25  46  74 102 139 190 244 291 350 428
#     4  12  26  45  73 105 143 189 240 289 358 423
#     4  12  24  44  71 103 142 185 232 297 353 418
#
# _framework density 23.847269000000001
#
# number of rings (size 3 to 8) (size 9 to 14) (size 15 to 20)
#    0.000    1.067    2.667    2.800    1.867    5.333 
#    2.400    1.333    0.000    0.000    0.000    0.000 
#    0.000    0.000    0.000    0.000    0.000    0.000 
#
# Total GULP energy -83786.650373 kJ/mol
# GULP energy per Si atom -5585.776692 kJ/mol
# Density = 2.379299 g / cm^3
# Si number density = 23.847269 Si / 1000 Ang^3
#
#
#
# Elastic Constant Matrix: (Units=GPa)
#
#
# Indices 1 2 3 4 5 6 
#
# 1 104.3116 39.8585 25.6089 21.7634 2.1526 -40.0951
# 2 39.8585 137.1968 36.7417 19.4612 -7.9110 -8.1238
# 3 25.6089 36.7417 102.4031 33.9536 10.5477 -17.1019
# 4 21.7634 19.4612 33.9536 36.8148 0.8111 -6.8791
# 5 2.1526 -7.9110 10.5477 0.8111 49.1815 0.0287
# 6 -40.0951 -8.1238 -17.1019 -6.8791 0.0287 50.5675
#
#
#
# Elastic Compliance Matrix: (Units=1/GPa)
#
#
# Indices 1 2 3 4 5 6 
#
# 1 0.016892 -0.003701 0.001760 -0.007300 -0.001599 0.012402
# 2 -0.003701 0.009186 -0.002829 -0.000575 0.002257 -0.002495
# 3 0.001760 -0.002829 0.015873 -0.013260 -0.003720 0.004507
# 4 -0.007300 -0.000575 -0.013260 0.043119 0.002362 -0.004500
# 5 -0.001599 0.002257 -0.003720 0.002362 0.021526 -0.001854
# 6 0.012402 -0.002495 0.004507 -0.004500 -0.001854 0.030122
#
#
# Mechanical properties :
#
#
# Convention : Reuss Voigt Hill
#
# Bulk Modulus (GPa) = 30.85442 60.92554 45.88998
# Shear Modulus (GPa) = 31.83505 43.42626 37.63066
#
# Velocity S-wave (km/s) = 3.65767 4.27197 3.97670
# Velocity P-wave (km/s) = 5.55018 7.06658 6.35378
#
# Compressibility (1/GPa) = 0.03241027
#
# Stress axis : x y z
#
# Youngs Moduli (GPa) = 59.19969 108.86675 63.00142
#
# Poissons Ratio (x) = 0.40293 -0.11088
# Poissons Ratio (y) = 0.21911 0.17821
# Poissons Ratio (z) = -0.10419 0.30796
#
# Static dielectric constant tensor:
#      x y z
#    x 2.172910 0.193360 -0.344260 
#    y 0.193360 1.909400 -0.162170 
#    z -0.344260 -0.162170 2.249900 
# 
# From -- ./inp_files/585459.got.cif
#   From: 2010.05.17/outbox.cif.g08.bks.cpg/sg2_293_cif.got.tgz:585459.got - 2010.06.03 11:33:40.
