data_PCOD9034862
_publ_section_title
;
Structure prediction by ZEFSAII (Michael W. Deem and Ramdas Pophale) SiO2 
 PCOD9034862
Probable space group: P -1
;
_chemical_formula_sum "Si O2"
_cell_formula_units_Z 14
_cell_length_a 19.363268
_cell_length_b 19.160176
_cell_length_c 11.875200
_cell_angle_alpha 25.240644
_cell_angle_beta 26.357867
_cell_angle_gamma 20.292063
_cell_volume 616.794629
_symmetry_space_group_name_H-M "P -1"
_symmetry_group_IT_number 2
_symmetry_cell_setting 'triclinic'
loop_
_space_group_symop_operation_xyz
x,y,z
-x,-y,-z
loop_
_atom_site_type_symbol
_atom_site_label
_atom_site_fract_x
_atom_site_fract_y
_atom_site_fract_z
Si Si1 0.097358 0.717189 0.947306
Si Si2 0.368829 0.039023 0.743958
Si Si3 0.310637 0.601150 0.254135
Si Si4 0.697555 0.649211 0.997805
Si Si5 0.910074 0.721855 0.742694
Si Si6 0.596658 0.200584 0.582014
Si Si7 0.672418 0.571436 0.750871
O O1 0.222803 0.797315 0.654215
O O2 0.162247 0.582482 0.932957
O O3 0.183830 0.553224 0.167568
O O4 0.847493 0.899984 0.052779
O O5 0.313536 0.253625 0.566841
O O6 0.500000 0.000000 0.500000
O O7 0.518679 0.829590 0.909587
O O8 0.476116 0.350856 0.427891
O O9 0.270395 0.590939 0.197066
O O10 0.093551 0.724816 0.454597
O O11 0.434270 0.683849 0.966043
O O12 0.834317 0.706560 0.755340
O O13 0.576259 0.676298 0.246899
O O14 0.713374 0.946320 0.763370
O O15 0.000000 0.500000 0.000000
#
# Coordination Sequence:
#
# PCOD9034862 Si02
#       7
#     2   2   2   2   2   2   2
#     4  11  26  46  70 101 140 181 225 280 339 401
#     4  12  26  41  67  99 141 177 225 271 337 404
#     4  10  23  44  70  98 138 174 226 280 334 401
#     4  12  26  45  71 102 136 181 228 281 337 403
#     4  12  26  43  72 100 137 178 225 280 346 401
#     4  11  26  46  70 104 135 177 233 278 342 400
#     4  10  22  45  68  99 137 178 222 277 332 406
#
# _framework density 22.697991999999999
#
# number of rings (size 3 to 8) (size 9 to 14) (size 15 to 20)
#    0.000    0.857    2.857    3.000    8.000    0.571 
#    0.000    2.857    0.000    0.000    0.000    0.000 
#    0.000    0.000    0.000    0.000    0.000    0.000 
#
# Total GULP energy -78352.086444 kJ/mol
# GULP energy per Si atom -5596.577603 kJ/mol
# Density = 2.264633 g / cm^3
# Si number density = 22.697992 Si / 1000 Ang^3
#
#
#
# Elastic Constant Matrix: (Units=GPa)
#
#
# Indices 1 2 3 4 5 6 
#
# 1 91.6421 40.5853 7.1789 13.8086 -1.2938 2.1579
# 2 40.5853 100.3416 23.4492 20.6231 -5.6973 5.3930
# 3 7.1789 23.4492 66.8154 24.6906 -4.2231 -8.2196
# 4 13.8086 20.6231 24.6906 37.9678 -2.2081 -15.7278
# 5 -1.2938 -5.6973 -4.2231 -2.2081 35.6218 12.9051
# 6 2.1579 5.3930 -8.2196 -15.7278 12.9051 32.0322
#
#
#
# Elastic Compliance Matrix: (Units=1/GPa)
#
#
# Indices 1 2 3 4 5 6 
#
# 1 0.013626 -0.004942 0.001546 -0.003989 0.000278 -0.001760
# 2 -0.004942 0.014899 -0.002537 -0.007915 0.004501 -0.008526
# 3 0.001546 -0.002537 0.020420 -0.013002 0.001830 -0.001558
# 4 -0.003989 -0.007915 -0.013002 0.051315 -0.009684 0.027362
# 5 0.000278 0.004501 0.001830 -0.009684 0.035423 -0.019333
# 6 -0.001760 -0.008526 -0.001558 0.027362 -0.019333 0.053597
#
#
# Mechanical properties :
#
#
# Convention : Reuss Voigt Hill
#
# Bulk Modulus (GPa) = 26.97106 44.58065 35.77586
# Shear Modulus (GPa) = 23.41858 33.63007 28.52433
#
# Velocity S-wave (km/s) = 3.21557 3.85337 3.54883
# Velocity P-wave (km/s) = 5.06901 6.28342 5.70860
#
# Compressibility (1/GPa) = 0.03707678
#
# Stress axis : x y z
#
# Youngs Moduli (GPa) = 73.38795 67.12082 48.97241
#
# Poissons Ratio (x) = 0.33174 -0.07570
# Poissons Ratio (y) = 0.36271 0.12425
# Poissons Ratio (z) = -0.11344 0.17030
#
# Static dielectric constant tensor:
#      x y z
#    x 1.832950 0.030300 -0.001660 
#    y 0.030300 1.839660 0.016200 
#    z -0.001660 0.016200 1.850580 
# 
# From -- ./inp_files/70082.got.cif
#   From: 2010.05.17/outbox.cif.g08.bks.cpg/sg2_36_cif.got.tgz:70082.got - 2010.06.03 11:33:40.
