data_PCOD9034232
_publ_section_title
;
Structure prediction by ZEFSAII (Michael W. Deem and Ramdas Pophale) SiO2 
 PCOD9034232
Probable space group: P -1
;
_chemical_formula_sum "Si O2"
_cell_formula_units_Z 16
_cell_length_a 12.675836
_cell_length_b 5.076682
_cell_length_c 15.447846
_cell_angle_alpha 75.619909
_cell_angle_beta 45.126758
_cell_angle_gamma 94.352377
_cell_volume 635.110618
_symmetry_space_group_name_H-M "P -1"
_symmetry_group_IT_number 2
_symmetry_cell_setting 'triclinic'
loop_
_space_group_symop_operation_xyz
x,y,z
-x,-y,-z
loop_
_atom_site_type_symbol
_atom_site_label
_atom_site_fract_x
_atom_site_fract_y
_atom_site_fract_z
Si Si1 0.859955 0.157056 0.348200
Si Si2 0.747998 0.488579 0.103307
Si Si3 0.426965 0.349390 0.963110
Si Si4 0.762637 0.518726 0.691292
Si Si5 0.282489 0.481802 0.481121
Si Si6 0.850268 0.019083 0.738193
Si Si7 0.090000 0.867466 0.870497
Si Si8 0.593728 0.600917 0.346230
O O1 0.720211 0.837655 0.463114
O O2 0.820442 0.390980 0.409163
O O3 0.894780 0.266927 0.221292
O O4 0.007897 0.073182 0.301435
O O5 0.649579 0.484735 0.073433
O O6 0.844816 0.275953 0.078010
O O7 0.632026 0.421131 0.259507
O O8 0.901198 0.798855 0.995035
O O9 0.577486 0.314084 0.832227
O O10 0.500000 0.500000 0.000000
O O11 0.281693 0.067897 0.102180
O O12 0.778955 0.562145 0.576935
O O13 0.793374 0.817142 0.701640
O O14 0.872093 0.346761 0.675016
O O15 0.465057 0.708787 0.363786
O O16 0.227086 0.183627 0.755290
O O17 0.500000 0.500000 0.500000
#
# Coordination Sequence:
#
# PCOD9034232 Si02
#       8
#     2   2   2   2   2   2   2   2
#     4  12  26  47  70 109 146 199 248 307 377 449
#     4  11  24  49  73 109 146 197 258 311 378 452
#     4  10  22  44  72 106 144 187 248 309 378 445
#     4  11  24  45  71 106 143 192 248 308 376 446
#     4  12  27  43  75 104 147 195 253 305 379 455
#     4  11  24  45  72 101 147 192 244 313 372 445
#     4  11  26  45  75 106 149 198 256 311 377 448
#     4  12  25  45  71 105 148 195 247 312 377 448
#
# _framework density 25.192464000000001
#
# number of rings (size 3 to 8) (size 9 to 14) (size 15 to 20)
#    0.000    0.750    3.750    3.000    1.750    6.000 
#    4.500    0.000    0.000    0.000    0.000    0.000 
#    0.000    0.000    0.000    0.000    0.000    0.000 
#
# Total GULP energy -89331.476901 kJ/mol
# GULP energy per Si atom -5583.217306 kJ/mol
# Density = 2.513512 g / cm^3
# Si number density = 25.192464 Si / 1000 Ang^3
#
#
#
# Elastic Constant Matrix: (Units=GPa)
#
#
# Indices 1 2 3 4 5 6 
#
# 1 154.7248 18.7267 40.0962 8.3049 6.8056 -12.0064
# 2 18.7267 86.9982 37.3743 11.8320 12.6383 -5.6700
# 3 40.0962 37.3743 144.6772 18.3527 5.3519 5.0425
# 4 8.3049 11.8320 18.3527 26.6392 -0.4121 -1.4716
# 5 6.8056 12.6383 5.3519 -0.4121 56.7047 -0.7811
# 6 -12.0064 -5.6700 5.0425 -1.4716 -0.7811 29.7621
#
#
#
# Elastic Compliance Matrix: (Units=1/GPa)
#
#
# Indices 1 2 3 4 5 6 
#
# 1 0.007315 -0.000367 -0.001944 -0.000612 -0.000574 0.003165
# 2 -0.000367 0.013981 -0.003007 -0.003915 -0.002779 0.002759
# 3 -0.001944 -0.003007 0.008887 -0.004351 -0.000009 -0.003078
# 4 -0.000612 -0.003915 -0.004351 0.042597 0.001692 0.001895
# 5 -0.000574 -0.002779 -0.000009 0.001692 0.018334 -0.000194
# 6 0.003165 0.002759 -0.003078 0.001895 -0.000194 0.036012
#
#
# Mechanical properties :
#
#
# Convention : Reuss Voigt Hill
#
# Bulk Modulus (GPa) = 51.15579 64.31050 57.73315
# Shear Modulus (GPa) = 34.65559 41.96807 38.31183
#
# Velocity S-wave (km/s) = 3.71298 4.08597 3.90393
# Velocity P-wave (km/s) = 6.22348 6.91688 6.57932
#
# Compressibility (1/GPa) = 0.01954813
#
# Stress axis : x y z
#
# Youngs Moduli (GPa) = 136.70650 71.52572 112.52307
#
# Poissons Ratio (x) = 0.02622 0.21875
# Poissons Ratio (y) = 0.05011 0.33835
# Poissons Ratio (z) = 0.26576 0.21507
#
# Static dielectric constant tensor:
#      x y z
#    x 2.044090 0.077480 -0.060110 
#    y 0.077480 2.043520 -0.087080 
#    z -0.060110 -0.087080 2.089500 
# 
# From -- ./inp_files/510805.got.cif
#   From: 2010.05.17/outbox.cif.g08.bks.cpg/sg2_256_cif.got.tgz:510805.got - 2010.06.03 11:33:40.
