data_PCOD9034699
_publ_section_title
;
Structure prediction by ZEFSAII (Michael W. Deem and Ramdas Pophale) SiO2 
 PCOD9034699
Probable space group: P -1
;
_chemical_formula_sum "Si O2"
_cell_formula_units_Z 16
_cell_length_a 13.711592
_cell_length_b 11.537960
_cell_length_c 10.029965
_cell_angle_alpha 118.219883
_cell_angle_beta 27.951000
_cell_angle_gamma 121.731049
_cell_volume 632.441716
_symmetry_space_group_name_H-M "P -1"
_symmetry_group_IT_number 2
_symmetry_cell_setting 'triclinic'
loop_
_space_group_symop_operation_xyz
x,y,z
-x,-y,-z
loop_
_atom_site_type_symbol
_atom_site_label
_atom_site_fract_x
_atom_site_fract_y
_atom_site_fract_z
Si Si1 0.253678 0.969291 0.690915
Si Si2 0.522030 0.579941 0.376407
Si Si3 0.635683 0.407293 0.921899
Si Si4 0.076556 0.437810 0.568676
Si Si5 0.564195 0.174078 0.264118
Si Si6 0.008336 0.313474 0.063036
Si Si7 0.979741 0.808325 0.303954
Si Si8 0.566814 0.863263 0.874526
O O1 0.171596 0.809503 0.723008
O O2 0.500000 0.000000 0.500000
O O3 0.359793 0.054696 0.483518
O O4 0.000000 0.000000 0.000000
O O5 0.500000 0.500000 0.500000
O O6 0.495749 0.479281 0.227928
O O7 0.398794 0.697294 0.611511
O O8 0.770426 0.666954 0.111407
O O9 0.277581 0.504889 0.266891
O O10 0.517893 0.245005 0.963730
O O11 0.861538 0.414052 0.726537
O O12 0.052665 0.545379 0.768973
O O13 0.060066 0.295956 0.582750
O O14 0.527534 0.226953 0.191413
O O15 0.771832 0.116566 0.973890
O O16 0.065814 0.276116 0.824847
O O17 0.821446 0.900055 0.570083
O O18 0.500000 0.000000 0.000000
#
# Coordination Sequence:
#
# PCOD9034699 Si02
#       8
#     2   2   2   2   2   2   2   2
#     4  12  25  46  70 114 160 200 261 323 395 470
#     4  11  19  41  75 105 144 193 251 318 380 458
#     4  10  22  45  67 107 149 195 242 317 385 462
#     4  10  23  42  72 107 150 192 251 314 400 459
#     4  12  24  45  73 106 144 194 255 311 389 455
#     4  11  22  41  71 111 149 198 252 328 383 460
#     4  12  23  46  73 107 139 190 259 311 385 471
#     4  12  27  47  73 101 147 196 248 316 391 479
#
# _framework density 25.298772
#
# number of rings (size 3 to 8) (size 9 to 14) (size 15 to 20)
#    0.000    0.750    6.250    1.125    1.750    2.000 
#    0.000    1.250    0.000    0.000    0.000    0.000 
#    0.000    0.000    0.000    0.000    0.000    0.000 
#
# Total GULP energy -89167.032229 kJ/mol
# GULP energy per Si atom -5572.939514 kJ/mol
# Density = 2.524119 g / cm^3
# Si number density = 25.298772 Si / 1000 Ang^3
#
#
#
# Elastic Constant Matrix: (Units=GPa)
#
#
# Indices 1 2 3 4 5 6 
#
# 1 78.6781 14.1011 17.1332 -1.3724 6.9729 -11.6986
# 2 14.1011 121.3991 69.1907 -13.0267 13.5533 -24.6710
# 3 17.1332 69.1907 202.4740 -5.3880 0.6115 -10.5692
# 4 -1.3724 -13.0267 -5.3880 61.2357 -0.2973 0.8658
# 5 6.9729 13.5533 0.6115 -0.2973 40.6282 -14.3169
# 6 -11.6986 -24.6710 -10.5692 0.8658 -14.3169 38.5552
#
#
#
# Elastic Compliance Matrix: (Units=1/GPa)
#
#
# Indices 1 2 3 4 5 6 
#
# 1 0.013535 -0.000274 -0.000873 0.000116 -0.001056 0.003298
# 2 -0.000274 0.012007 -0.003712 0.002130 -0.001823 0.005858
# 3 -0.000873 -0.003712 0.006245 -0.000247 0.001113 -0.000510
# 4 0.000116 0.002130 -0.000247 0.016751 -0.000308 0.000840
# 5 -0.001056 -0.001823 0.001113 -0.000308 0.028729 0.009493
# 6 0.003298 0.005858 -0.000510 0.000840 0.009493 0.034053
#
#
# Mechanical properties :
#
#
# Convention : Reuss Voigt Hill
#
# Bulk Modulus (GPa) = 45.31317 67.04458 56.17887
# Shear Modulus (GPa) = 38.94244 48.22556 43.58400
#
# Velocity S-wave (km/s) = 3.92765 4.37079 4.15513
# Velocity P-wave (km/s) = 6.20634 7.21321 6.72863
#
# Compressibility (1/GPa) = 0.02206864
#
# Stress axis : x y z
#
# Youngs Moduli (GPa) = 73.88151 83.28277 160.13400
#
# Poissons Ratio (x) = 0.02282 0.13984
# Poissons Ratio (y) = 0.02024 0.59443
# Poissons Ratio (z) = 0.06452 0.30915
#
# Static dielectric constant tensor:
#      x y z
#    x 2.133930 0.084290 -0.107380 
#    y 0.084290 2.018020 -0.010800 
#    z -0.107380 -0.010800 2.171010 
# 
# From -- ./inp_files/523170.got.cif
#   From: 2010.05.17/outbox.cif.g08.bks.cpg/sg2_262_cif.got.tgz:523170.got - 2010.06.03 11:33:40.
