data_PCOD9034781
_publ_section_title
;
Structure prediction by ZEFSAII (Michael W. Deem and Ramdas Pophale) SiO2 
 PCOD9034781
Probable space group: P -1
;
_chemical_formula_sum "Si O2"
_cell_formula_units_Z 14
_cell_length_a 18.080889
_cell_length_b 10.112155
_cell_length_c 7.720312
_cell_angle_alpha 133.232942
_cell_angle_beta 37.803088
_cell_angle_gamma 134.036749
_cell_volume 591.750973
_symmetry_space_group_name_H-M "P -1"
_symmetry_group_IT_number 2
_symmetry_cell_setting 'triclinic'
loop_
_space_group_symop_operation_xyz
x,y,z
-x,-y,-z
loop_
_atom_site_type_symbol
_atom_site_label
_atom_site_fract_x
_atom_site_fract_y
_atom_site_fract_z
Si Si1 0.644195 0.617427 0.762147
Si Si2 0.613092 0.038263 0.687029
Si Si3 0.128336 0.407304 0.204587
Si Si4 0.132795 0.787498 0.402988
Si Si5 0.759737 0.329619 0.433783
Si Si6 0.373432 0.323567 0.552443
Si Si7 0.143093 0.983123 0.199762
O O1 0.717053 0.457511 0.486184
O O2 0.634146 0.701673 0.664681
O O3 0.744775 0.807100 0.844181
O O4 0.500000 0.500000 0.000000
O O5 0.747383 0.128382 0.619524
O O6 0.627401 0.182602 0.632871
O O7 0.608955 0.825097 0.471311
O O8 0.500000 0.000000 0.000000
O O9 0.107066 0.558476 0.242154
O O10 0.164819 0.517583 0.420757
O O11 0.004125 0.216810 0.278567
O O12 0.247717 0.360880 0.874658
O O13 0.165112 0.898844 0.267121
O O14 0.837480 0.185361 0.110647
O O15 0.500000 0.500000 0.500000
O O16 0.000000 0.000000 0.500000
#
# Coordination Sequence:
#
# PCOD9034781 Si02
#       7
#     2   2   2   2   2   2   2
#     4  12  27  49  73 110 152 197 246 304 380 439
#     4  11  24  45  70 105 142 189 247 301 365 439
#     4  10  23  44  73 105 144 191 240 305 377 425
#     4  10  22  45  68 102 144 186 246 299 363 437
#     4  11  27  46  73 106 154 185 244 310 365 441
#     4  12  25  44  76 103 145 193 249 304 362 447
#     4  12  28  47  76 109 150 200 250 301 376 443
#
# _framework density 23.6586
#
# number of rings (size 3 to 8) (size 9 to 14) (size 15 to 20)
#    0.000    0.857    1.429    5.143    6.000    6.857 
#    0.000    0.000    0.000    0.000    0.000    0.000 
#    0.000    0.000    0.000    0.000    0.000    0.000 
#
# Total GULP energy -78078.173813 kJ/mol
# GULP energy per Si atom -5577.012415 kJ/mol
# Density = 2.360475 g / cm^3
# Si number density = 23.658600 Si / 1000 Ang^3
#
#
#
# Elastic Constant Matrix: (Units=GPa)
#
#
# Indices 1 2 3 4 5 6 
#
# 1 30.5694 10.9412 -2.8107 -1.3172 2.5476 -12.4147
# 2 10.9412 127.7196 35.1679 -22.0576 1.4010 -2.1046
# 3 -2.8107 35.1679 130.4911 -18.0617 -13.9760 16.8732
# 4 -1.3172 -22.0576 -18.0617 36.8787 -0.5755 -17.7415
# 5 2.5476 1.4010 -13.9760 -0.5755 24.5852 -4.2832
# 6 -12.4147 -2.1046 16.8732 -17.7415 -4.2832 43.7076
#
#
#
# Elastic Compliance Matrix: (Units=1/GPa)
#
#
# Indices 1 2 3 4 5 6 
#
# 1 0.039423 -0.002076 0.000484 0.006934 -0.001158 0.013612
# 2 -0.002076 0.009777 -0.002346 0.006141 -0.000977 0.003184
# 3 0.000484 -0.002346 0.009453 0.002264 0.005127 -0.002204
# 4 0.006934 0.006141 0.002264 0.041121 0.004407 0.018515
# 5 -0.001158 -0.000977 0.005127 0.004407 0.044530 0.003797
# 6 0.013612 0.003184 -0.002204 0.018515 0.003797 0.035637
#
#
# Mechanical properties :
#
#
# Convention : Reuss Voigt Hill
#
# Bulk Modulus (GPa) = 19.69346 41.70853 30.70100
# Shear Modulus (GPa) = 24.42081 37.39976 30.91028
#
# Velocity S-wave (km/s) = 3.21630 3.98025 3.61849
# Velocity P-wave (km/s) = 4.70477 6.22823 5.51932
#
# Compressibility (1/GPa) = 0.05077828
#
# Stress axis : x y z
#
# Youngs Moduli (GPa) = 25.36574 102.27800 105.78176
#
# Poissons Ratio (x) = 0.21234 -0.05123
# Poissons Ratio (y) = 0.05266 0.24817
# Poissons Ratio (z) = -0.01229 0.23995
#
# Static dielectric constant tensor:
#      x y z
#    x 2.088740 -0.255600 0.149250 
#    y -0.255600 2.364240 -0.252630 
#    z 0.149250 -0.252630 2.372600 
# 
# From -- ./inp_files/345647.got.cif
#   From: 2010.05.17/outbox.cif.g08.bks.cpg/sg2_173_cif.got.tgz:345647.got - 2010.06.03 11:33:40.
