data_PCOD9034796
_publ_section_title
;
Structure prediction by ZEFSAII (Michael W. Deem and Ramdas Pophale) SiO2 
 PCOD9034796
Probable space group: P -1
;
_chemical_formula_sum "Si O2"
_cell_formula_units_Z 16
_cell_length_a 4.972801
_cell_length_b 9.717578
_cell_length_c 16.139926
_cell_angle_alpha 125.195209
_cell_angle_beta 73.967382
_cell_angle_gamma 98.282794
_cell_volume 612.456824
_symmetry_space_group_name_H-M "P -1"
_symmetry_group_IT_number 2
_symmetry_cell_setting 'triclinic'
loop_
_space_group_symop_operation_xyz
x,y,z
-x,-y,-z
loop_
_atom_site_type_symbol
_atom_site_label
_atom_site_fract_x
_atom_site_fract_y
_atom_site_fract_z
Si Si1 0.792830 0.275675 0.126629
Si Si2 0.248588 0.664832 0.547727
Si Si3 0.779653 0.900296 0.409836
Si Si4 0.249918 0.095957 0.362773
Si Si5 0.695827 0.382920 0.999099
Si Si6 0.306823 0.071067 0.928924
Si Si7 0.701629 0.544134 0.367152
Si Si8 0.946642 0.856677 0.198402
O O1 0.718429 0.403403 0.102536
O O2 0.788774 0.393864 0.247462
O O3 0.608863 0.112341 0.106862
O O4 0.076044 0.176151 0.040016
O O5 0.371232 0.591720 0.425547
O O6 0.234970 0.524812 0.570701
O O7 0.954504 0.756825 0.600842
O O8 0.468367 0.811159 0.605678
O O9 0.822502 0.719378 0.386582
O O10 0.500000 0.000000 0.500000
O O11 0.062307 0.010228 0.420533
O O12 0.215370 0.952138 0.246748
O O13 0.747517 0.857204 0.297110
O O14 0.500000 0.500000 0.000000
O O15 0.554447 0.199849 0.951280
O O16 0.979786 0.331301 0.907582
O O17 0.173373 0.052404 0.841823
#
# Coordination Sequence:
#
# PCOD9034796 Si02
#       8
#     2   2   2   2   2   2   2   2
#     4  10  24  43  66 102 132 185 234 300 360 433
#     4  11  25  49  70 110 144 197 239 305 361 442
#     4  10  22  45  68 106 140 189 242 303 358 442
#     4  10  24  46  75 102 144 193 247 288 371 441
#     4  11  25  41  65 105 137 181 236 301 359 446
#     4  10  22  45  69  92 140 177 243 293 361 436
#     4  11  24  43  72 102 148 185 245 303 365 430
#     4   9  23  39  74  94 136 192 235 289 376 423
#
# _framework density 26.124292000000001
#
# number of rings (size 3 to 8) (size 9 to 14) (size 15 to 20)
#    0.750    1.000    1.250    1.125    7.000    3.500 
#    4.500    0.000    0.000    0.000    0.000    0.000 
#    0.000    0.000    0.000    0.000    0.000    0.000 
#
# Total GULP energy -89389.264495 kJ/mol
# GULP energy per Si atom -5586.829031 kJ/mol
# Density = 2.606483 g / cm^3
# Si number density = 26.124292 Si / 1000 Ang^3
#
#
#
# Elastic Constant Matrix: (Units=GPa)
#
#
# Indices 1 2 3 4 5 6 
#
# 1 56.3455 -6.7371 -4.1106 -14.9773 6.7896 -2.0432
# 2 -6.7371 185.4615 16.7429 -15.2450 5.1845 -11.7209
# 3 -4.1106 16.7429 167.0422 -8.2039 -0.7340 -5.1448
# 4 -14.9773 -15.2450 -8.2039 31.3871 -3.6300 -0.7599
# 5 6.7896 5.1845 -0.7340 -3.6300 28.7226 8.3186
# 6 -2.0432 -11.7209 -5.1448 -0.7599 8.3186 39.9010
#
#
#
# Elastic Compliance Matrix: (Units=1/GPa)
#
#
# Indices 1 2 3 4 5 6 
#
# 1 0.021690 0.001940 0.000954 0.011044 -0.004939 0.003044
# 2 0.001940 0.005977 -0.000313 0.003600 -0.001741 0.002246
# 3 0.000954 -0.000313 0.006161 0.001933 0.000005 0.000787
# 4 0.011044 0.003600 0.001933 0.039569 0.001095 0.002398
# 5 -0.004939 -0.001741 0.000005 0.001095 0.039006 -0.008875
# 6 0.003044 0.002246 0.000787 0.002398 -0.008875 0.027875
#
#
# Mechanical properties :
#
#
# Convention : Reuss Voigt Hill
#
# Bulk Modulus (GPa) = 25.64767 46.73775 36.19271
# Shear Modulus (GPa) = 33.75785 46.86574 40.31180
#
# Velocity S-wave (km/s) = 3.59862 4.24010 3.93246
# Velocity P-wave (km/s) = 5.20631 6.47307 5.87394
#
# Compressibility (1/GPa) = 0.03898989
#
# Stress axis : x y z
#
# Youngs Moduli (GPa) = 46.10331 167.30058 162.32323
#
# Poissons Ratio (x) = -0.32458 -0.15482
# Poissons Ratio (y) = -0.08944 0.05081
# Poissons Ratio (z) = -0.04397 0.05237
#
# Static dielectric constant tensor:
#      x y z
#    x 2.270040 0.052900 0.018980 
#    y 0.052900 2.077740 -0.066440 
#    z 0.018980 -0.066440 2.159310 
# 
# From -- ./inp_files/548221.got.cif
#   From: 2010.05.17/outbox.cif.g08.bks.cpg/sg2_275_cif.got.tgz:548221.got - 2010.06.03 11:33:40.
