data_PCOD9034931
_publ_section_title
;
Structure prediction by ZEFSAII (Michael W. Deem and Ramdas Pophale) SiO2 
 PCOD9034931
Probable space group: P -1
;
_chemical_formula_sum "Si O2"
_cell_formula_units_Z 14
_cell_length_a 13.942749
_cell_length_b 13.482403
_cell_length_c 13.884937
_cell_angle_alpha 35.261506
_cell_angle_beta 30.018484
_cell_angle_gamma 30.166687
_cell_volume 631.773276
_symmetry_space_group_name_H-M "P -1"
_symmetry_group_IT_number 2
_symmetry_cell_setting 'triclinic'
loop_
_space_group_symop_operation_xyz
x,y,z
-x,-y,-z
loop_
_atom_site_type_symbol
_atom_site_label
_atom_site_fract_x
_atom_site_fract_y
_atom_site_fract_z
Si Si1 0.826030 0.899858 0.808182
Si Si2 0.664370 0.763208 0.570096
Si Si3 0.890241 0.622423 0.794248
Si Si4 0.680554 0.825621 0.191620
Si Si5 0.336985 0.737445 0.481951
Si Si6 0.103045 0.645768 0.407188
Si Si7 0.548451 0.239194 0.057113
O O1 0.828753 0.750276 0.843695
O O2 0.091488 0.798295 0.685659
O O3 0.724947 0.118841 0.672309
O O4 0.689205 0.909387 0.012542
O O5 0.750804 0.601589 0.536098
O O6 0.540315 0.697826 0.806803
O O7 0.887810 0.728754 0.457143
O O8 0.500000 0.000000 0.500000
O O9 0.670946 0.650128 0.910247
O O10 0.082544 0.387846 0.832188
O O11 0.002836 0.701569 0.557561
O O12 0.474521 0.790548 0.394052
O O13 0.640567 0.999036 0.161947
O O14 0.500000 0.500000 0.500000
O O15 0.260302 0.725349 0.174854
#
# Coordination Sequence:
#
# PCOD9034931 Si02
#       7
#     2   2   2   2   2   2   2
#     4  11  25  40  61  88 127 168 216 260 303 365
#     4  10  22  45  69  92 124 157 204 254 313 381
#     4  11  24  41  60  93 127 163 213 256 307 371
#     4  12  25  39  61  92 127 169 213 258 307 363
#     4  11  24  40  63  85 120 173 218 255 312 353
#     4  10  24  42  66  93 125 160 200 259 313 370
#     4  11  25  40  65  94 127 161 206 257 314 372
#
# _framework density 22.159848
#
# number of rings (size 3 to 8) (size 9 to 14) (size 15 to 20)
#    0.000    1.143    2.857    2.143    4.000    2.857 
#    0.000    0.000    0.000    0.000    0.000    0.000 
#    0.000    0.000    0.000    0.000    0.000    0.000 
#
# Total GULP energy -78402.494286 kJ/mol
# GULP energy per Si atom -5600.178163 kJ/mol
# Density = 2.210941 g / cm^3
# Si number density = 22.159848 Si / 1000 Ang^3
#
#
#
# Elastic Constant Matrix: (Units=GPa)
#
#
# Indices 1 2 3 4 5 6 
#
# 1 25.5756 13.2920 18.4356 -0.6710 5.4364 2.8924
# 2 13.2920 129.5833 0.2761 -16.4857 -11.8498 -22.9351
# 3 18.4356 0.2761 80.0263 20.2004 -19.0117 -14.2811
# 4 -0.6710 -16.4857 20.2004 35.2559 4.4011 3.8670
# 5 5.4364 -11.8498 -19.0117 4.4011 27.5620 10.4315
# 6 2.8924 -22.9351 -14.2811 3.8670 10.4315 37.0731
#
#
#
# Elastic Compliance Matrix: (Units=1/GPa)
#
#
# Indices 1 2 3 4 5 6 
#
# 1 0.094199 -0.014478 -0.045826 0.030316 -0.052832 -0.022255
# 2 -0.014478 0.011410 0.007536 -0.001431 0.009999 0.008427
# 3 -0.045826 0.007536 0.042702 -0.028618 0.040101 0.016389
# 4 0.030316 -0.001431 -0.028618 0.049632 -0.030104 -0.010981
# 5 -0.052832 0.009999 0.040101 -0.030104 0.081178 0.006054
# 6 -0.022255 0.008427 0.016389 -0.010981 0.006054 0.039679
#
#
# Mechanical properties :
#
#
# Convention : Reuss Voigt Hill
#
# Bulk Modulus (GPa) = 23.37772 33.24362 28.31067
# Shear Modulus (GPa) = 11.40008 33.52362 22.46185
#
# Velocity S-wave (km/s) = 2.27060 3.89370 3.18721
# Velocity P-wave (km/s) = 4.17692 5.93708 5.13301
#
# Compressibility (1/GPa) = 0.04277578
#
# Stress axis : x y z
#
# Youngs Moduli (GPa) = 10.61584 87.64282 23.41808
#
# Poissons Ratio (x) = 1.26891 1.07315
# Poissons Ratio (y) = 0.15370 -0.17649
# Poissons Ratio (z) = 0.48648 -0.66051
#
# Static dielectric constant tensor:
#      x y z
#    x 1.820850 -0.031330 -0.027690 
#    y -0.031330 1.819030 0.034440 
#    z -0.027690 0.034440 1.855790 
# 
# From -- ./inp_files/529805.got.cif
#   From: 2010.05.17/outbox.cif.g08.bks.cpg/sg2_265_cif.got.tgz:529805.got - 2010.06.03 11:33:40.
