data_PCOD9034913
_publ_section_title
;
Structure prediction by ZEFSAII (Michael W. Deem and Ramdas Pophale) SiO2 
 PCOD9034913
Probable space group: P -1
;
_chemical_formula_sum "Si O2"
_cell_formula_units_Z 16
_cell_length_a 6.751501
_cell_length_b 6.807478
_cell_length_c 21.180733
_cell_angle_alpha 104.265891
_cell_angle_beta 138.213757
_cell_angle_gamma 92.610890
_cell_volume 587.718379
_symmetry_space_group_name_H-M "P -1"
_symmetry_group_IT_number 2
_symmetry_cell_setting 'triclinic'
loop_
_space_group_symop_operation_xyz
x,y,z
-x,-y,-z
loop_
_atom_site_type_symbol
_atom_site_label
_atom_site_fract_x
_atom_site_fract_y
_atom_site_fract_z
Si Si1 0.364896 0.541027 0.074368
Si Si2 0.128113 0.166847 0.315545
Si Si3 0.776053 0.199383 0.777586
Si Si4 0.955403 0.048202 0.408928
Si Si5 0.270441 0.563631 0.744756
Si Si6 0.909561 0.955818 0.901665
Si Si7 0.710738 0.315411 0.065005
Si Si8 0.160851 0.711533 0.489574
O O1 0.442766 0.333322 0.049660
O O2 0.183535 0.873067 0.147471
O O3 0.426445 0.691264 0.039411
O O4 0.000000 0.500000 0.000000
O O5 0.500247 0.308506 0.421283
O O6 0.931364 0.313677 0.256134
O O7 0.118529 0.960208 0.255591
O O8 0.999532 0.096739 0.349832
O O9 0.396942 0.125835 0.673066
O O10 0.394871 0.408353 0.805652
O O11 0.995088 0.450770 0.841404
O O12 0.205552 0.943582 0.484834
O O13 0.980584 0.257783 0.473715
O O14 0.589701 0.744572 0.810956
O O15 0.059436 0.450878 0.626275
O O16 0.157754 0.876644 0.916748
O O17 0.000000 0.000000 0.000000
#
# Coordination Sequence:
#
# PCOD9034913 Si02
#       8
#     2   2   2   2   2   2   2   2
#     4  11  25  46  73 106 143 188 258 298 362 447
#     4  11  24  45  69 109 143 189 243 312 371 440
#     4  11  25  45  74 109 149 192 250 302 372 448
#     4  10  22  45  69 103 147 184 243 308 368 442
#     4  12  24  45  74 103 145 199 240 308 382 433
#     4  12  26  47  77 108 153 197 251 314 368 443
#     4  11  26  47  75 107 146 203 244 305 375 441
#     4  10  24  43  70 104 141 188 249 301 370 457
#
# _framework density 27.223922999999999
#
# number of rings (size 3 to 8) (size 9 to 14) (size 15 to 20)
#    0.000    1.000    2.500    3.000    1.750    2.500 
#    4.500    4.375    0.000    0.000    0.000    0.000 
#    0.000    0.000    0.000    0.000    0.000    0.000 
#
# Total GULP energy -89748.659641 kJ/mol
# GULP energy per Si atom -5609.291228 kJ/mol
# Density = 2.716196 g / cm^3
# Si number density = 27.223923 Si / 1000 Ang^3
#
#
#
# Elastic Constant Matrix: (Units=GPa)
#
#
# Indices 1 2 3 4 5 6 
#
# 1 132.1739 32.6375 41.4002 -4.9930 -5.0502 -17.2157
# 2 32.6375 130.3196 27.9573 -17.2644 -1.7135 -29.6697
# 3 41.4002 27.9573 152.0781 2.8834 2.9217 -8.1381
# 4 -4.9930 -17.2644 2.8834 59.2552 -7.0683 -0.2188
# 5 -5.0502 -1.7135 2.9217 -7.0683 56.3462 -9.3992
# 6 -17.2157 -29.6697 -8.1381 -0.2188 -9.3992 56.2516
#
#
#
# Elastic Compliance Matrix: (Units=1/GPa)
#
#
# Indices 1 2 3 4 5 6 
#
# 1 0.008861 -0.001208 -0.002121 0.000658 0.001281 0.001984
# 2 -0.001208 0.009774 -0.001293 0.002999 0.001441 0.004851
# 3 -0.002121 -0.001293 0.007404 -0.001013 -0.000807 -0.000399
# 4 0.000658 0.002999 -0.001013 0.018203 0.002850 0.002183
# 5 0.001281 0.001441 -0.000807 0.002850 0.019010 0.004223
# 6 0.001984 0.004851 -0.000399 0.002183 0.004223 0.021600
#
#
# Mechanical properties :
#
#
# Convention : Reuss Voigt Hill
#
# Bulk Modulus (GPa) = 59.54309 68.72906 64.13607
# Shear Modulus (GPa) = 50.15384 55.20903 52.68144
#
# Velocity S-wave (km/s) = 4.29682 4.50817 4.40377
# Velocity P-wave (km/s) = 6.82173 7.23870 7.03331
#
# Compressibility (1/GPa) = 0.01679456
#
# Stress axis : x y z
#
# Youngs Moduli (GPa) = 112.85744 102.31208 135.06211
#
# Poissons Ratio (x) = 0.12363 0.28646
# Poissons Ratio (y) = 0.13637 0.17461
# Poissons Ratio (z) = 0.23936 0.13227
#
# Static dielectric constant tensor:
#      x y z
#    x 2.128410 -0.005430 -0.000010 
#    y -0.005430 2.142730 0.075790 
#    z -0.000010 0.075790 2.162820 
# 
# From -- ./inp_files/217938.got.cif
#   From: 2010.05.17/outbox.cif.g08.bks.cpg/sg2_109_cif.got.tgz:217938.got - 2010.06.03 11:33:40.
