data_PCOD9034506
_publ_section_title
;
Structure prediction by ZEFSAII (Michael W. Deem and Ramdas Pophale) SiO2 
 PCOD9034506
Probable space group: P -1
;
_chemical_formula_sum "Si O2"
_cell_formula_units_Z 13
_cell_length_a 9.128474
_cell_length_b 12.240729
_cell_length_c 14.480274
_cell_angle_alpha 30.144173
_cell_angle_beta 125.320055
_cell_angle_gamma 143.556652
_cell_volume 443.637605
_symmetry_space_group_name_H-M "P -1"
_symmetry_group_IT_number 2
_symmetry_cell_setting 'triclinic'
loop_
_space_group_symop_operation_xyz
x,y,z
-x,-y,-z
loop_
_atom_site_type_symbol
_atom_site_label
_atom_site_fract_x
_atom_site_fract_y
_atom_site_fract_z
Si Si1 0.865892 0.535495 0.350912
Si Si2 0.601250 0.734221 0.717829
Si Si3 0.500000 0.500000 0.500000
Si Si4 0.264298 0.434426 0.279326
Si Si5 0.855679 0.393883 0.124674
Si Si6 0.391312 0.918788 0.173103
Si Si7 0.116747 0.128886 0.109973
O O1 0.084338 0.714495 0.218686
O O2 0.000000 0.500000 0.500000
O O3 0.570199 0.241701 0.417460
O O4 0.885981 0.793602 0.216610
O O5 0.741864 0.706176 0.715557
O O6 0.802877 0.959076 0.710702
O O7 0.360234 0.391320 0.936238
O O8 0.359148 0.363558 0.446442
O O9 0.429325 0.699024 0.330529
O O10 0.988674 0.315556 0.285977
O O11 0.472737 0.812807 0.052054
O O12 0.547773 0.106651 0.190014
O O13 0.928374 0.685724 0.987628
O O14 0.000000 0.500000 0.000000
#
# Coordination Sequence:
#
# PCOD9034506 Si02
#       7
#     2   2   1   2   2   2   2
#     4  12  27  44  72 110 155 191 251 310 366 451
#     4  11  23  45  75 106 142 196 254 301 367 453
#     4  12  28  42  72 110 148 194 244 298 384 442
#     4  11  24  48  73 108 149 195 247 311 368 447
#     4  10  22  44  77 103 141 197 250 301 371 448
#     4  11  24  49  69 109 149 193 250 309 369 445
#     4  11  22  45  76 105 141 202 248 296 381 436
#
# _framework density 29.303197000000001
#
# number of rings (size 3 to 8) (size 9 to 14) (size 15 to 20)
#    0.000    0.923    4.615    2.769    2.154    6.154 
#    0.000    1.538    0.000    0.000    0.000    0.000 
#    0.000    0.000    0.000    0.000    0.000    0.000 
#
# Total GULP energy -72736.216132 kJ/mol
# GULP energy per Si atom -5595.093549 kJ/mol
# Density = 2.923650 g / cm^3
# Si number density = 29.303197 Si / 1000 Ang^3
#
#
#
# Elastic Constant Matrix: (Units=GPa)
#
#
# Indices 1 2 3 4 5 6 
#
# 1 150.9633 73.7737 56.2172 -13.8891 38.7317 -0.6135
# 2 73.7737 148.8957 39.8408 30.1429 1.6656 -23.6637
# 3 56.2172 39.8408 114.1116 21.2159 26.9397 0.1739
# 4 -13.8891 30.1429 21.2159 65.3260 -4.0320 6.9083
# 5 38.7317 1.6656 26.9397 -4.0320 52.4482 -4.5762
# 6 -0.6135 -23.6637 0.1739 6.9083 -4.5762 61.9693
#
#
#
# Elastic Compliance Matrix: (Units=1/GPa)
#
#
# Indices 1 2 3 4 5 6 
#
# 1 0.015742 -0.009207 -0.004061 0.008888 -0.009000 -0.005004
# 2 -0.009207 0.014119 -0.000306 -0.008690 0.006429 0.006745
# 3 -0.004061 -0.000306 0.012748 -0.005114 -0.003925 0.000087
# 4 0.008888 -0.008690 -0.005114 0.023355 -0.002389 -0.005996
# 5 -0.009000 0.006429 -0.003925 -0.002389 0.027751 0.004692
# 6 -0.005004 0.006745 0.000087 -0.005996 0.004692 0.019678
#
#
# Mechanical properties :
#
#
# Convention : Reuss Voigt Hill
#
# Bulk Modulus (GPa) = 64.67753 83.73713 74.20733
# Shear Modulus (GPa) = 34.31848 52.22463 43.27156
#
# Velocity S-wave (km/s) = 3.42592 4.22621 3.84693
# Velocity P-wave (km/s) = 6.14565 7.24242 6.71646
#
# Compressibility (1/GPa) = 0.01546132
#
# Stress axis : x y z
#
# Youngs Moduli (GPa) = 63.52275 70.82640 78.44367
#
# Poissons Ratio (x) = 0.65212 0.31855
# Poissons Ratio (y) = 0.58487 0.02400
# Poissons Ratio (z) = 0.25796 0.02167
#
# Static dielectric constant tensor:
#      x y z
#    x 2.305680 0.118240 -0.094600 
#    y 0.118240 2.339860 -0.050600 
#    z -0.094600 -0.050600 2.391000 
# 
# From -- ./inp_files/499821.got.cif
#   From: 2010.05.17/outbox.cif.g08.bks.cpg/sg2_250_cif.got.tgz:499821.got - 2010.06.03 11:33:40.
