data_PCOD9034338
_publ_section_title
;
Structure prediction by ZEFSAII (Michael W. Deem and Ramdas Pophale) SiO2 
 PCOD9034338
Probable space group: P -1
;
_chemical_formula_sum "Si O2"
_cell_formula_units_Z 12
_cell_length_a 5.396797
_cell_length_b 9.484836
_cell_length_c 13.509715
_cell_angle_alpha 92.730954
_cell_angle_beta 136.246800
_cell_angle_gamma 84.701462
_cell_volume 476.005249
_symmetry_space_group_name_H-M "P -1"
_symmetry_group_IT_number 2
_symmetry_cell_setting 'triclinic'
loop_
_space_group_symop_operation_xyz
x,y,z
-x,-y,-z
loop_
_atom_site_type_symbol
_atom_site_label
_atom_site_fract_x
_atom_site_fract_y
_atom_site_fract_z
Si Si1 0.702903 0.127499 0.951259
Si Si2 0.694001 0.134173 0.178839
Si Si3 0.721657 0.586017 0.241326
Si Si4 0.768744 0.907017 0.503698
Si Si5 0.741565 0.619607 0.980097
Si Si6 0.675760 0.344800 0.693024
O O1 0.775686 0.163474 0.088372
O O2 0.550353 0.271850 0.856638
O O3 0.358071 0.031803 0.841070
O O4 0.000000 0.000000 0.000000
O O5 0.333430 0.236522 0.097447
O O6 0.961789 0.170819 0.342254
O O7 0.627516 0.457696 0.136872
O O8 0.592145 0.552043 0.314417
O O9 0.142334 0.611360 0.355607
O O10 0.527181 0.796759 0.378084
O O11 0.500000 0.000000 0.500000
O O12 0.000000 0.000000 0.500000
O O13 0.000000 0.500000 0.000000
O O14 0.943927 0.665799 0.137382
#
# Coordination Sequence:
#
# PCOD9034338 Si02
#       6
#     2   2   2   2   2   2
#     4  11  23  38  68 103 137 177 236 298 347 411
#     4  11  25  42  69 104 137 182 241 291 352 419
#     4  11  23  42  72  98 140 183 230 288 352 412
#     4  12  28  47  67 101 147 192 232 290 358 422
#     4  10  22  44  73 105 138 185 236 293 351 419
#     4  11  22  43  66  98 134 185 229 284 342 413
#
# _framework density 25.209809
#
# number of rings (size 3 to 8) (size 9 to 14) (size 15 to 20)
#    0.000    1.000    1.667    5.500    9.333    0.000 
#    0.000    4.167    0.000    0.000    0.000    0.000 
#    0.000    0.000    0.000    0.000    0.000    0.000 
#
# Total GULP energy -66896.470592 kJ/mol
# GULP energy per Si atom -5574.705883 kJ/mol
# Density = 2.515243 g / cm^3
# Si number density = 25.209809 Si / 1000 Ang^3
#
#
#
# Elastic Constant Matrix: (Units=GPa)
#
#
# Indices 1 2 3 4 5 6 
#
# 1 146.2869 15.3555 21.3521 17.8065 8.5115 -2.2388
# 2 15.3555 135.2853 46.8296 32.5213 4.0039 1.5810
# 3 21.3521 46.8296 109.0138 24.4583 -4.8188 -4.4007
# 4 17.8065 32.5213 24.4583 58.0522 1.7845 10.8120
# 5 8.5115 4.0039 -4.8188 1.7845 26.3091 11.6425
# 6 -2.2388 1.5810 -4.4007 10.8120 11.6425 49.1413
#
#
#
# Elastic Compliance Matrix: (Units=1/GPa)
#
#
# Indices 1 2 3 4 5 6 
#
# 1 0.007440 0.000112 -0.001129 -0.002038 -0.003122 0.001422
# 2 0.000112 0.009549 -0.003269 -0.004093 -0.002174 0.000821
# 3 -0.001129 -0.003269 0.011640 -0.003019 0.002704 0.001120
# 4 -0.002038 -0.004093 -0.003019 0.022399 0.001668 -0.005555
# 5 -0.003122 -0.002174 0.002704 0.001668 0.044484 -0.010736
# 6 0.001422 0.000821 0.001120 -0.005555 -0.010736 0.024254
#
#
# Mechanical properties :
#
#
# Convention : Reuss Voigt Hill
#
# Bulk Modulus (GPa) = 49.85288 61.96224 55.90756
# Shear Modulus (GPa) = 37.03050 47.17044 42.10047
#
# Velocity S-wave (km/s) = 3.83677 4.33033 4.09100
# Velocity P-wave (km/s) = 6.28060 7.04516 6.67384
#
# Compressibility (1/GPa) = 0.02005902
#
# Stress axis : x y z
#
# Youngs Moduli (GPa) = 134.40110 104.72135 85.90812
#
# Poissons Ratio (x) = -0.01172 0.09696
# Poissons Ratio (y) = -0.01505 0.28081
# Poissons Ratio (z) = 0.15170 0.34231
#
# Static dielectric constant tensor:
#      x y z
#    x 2.014080 0.334290 -0.452820 
#    y 0.334290 1.827470 0.387680 
#    z -0.452820 0.387680 1.367650 
# 
# From -- ./inp_files/480700.got.cif
#   From: 2010.05.17/outbox.cif.g08.bks.cpg/sg2_241_cif.got.tgz:480700.got - 2010.06.03 11:33:40.
