data_PCOD9034158
_publ_section_title
;
Structure prediction by ZEFSAII (Michael W. Deem and Ramdas Pophale) SiO2 
 PCOD9034158
Probable space group: P -1
;
_chemical_formula_sum "Si O2"
_cell_formula_units_Z 13
_cell_length_a 8.127687
_cell_length_b 15.123928
_cell_length_c 9.517292
_cell_angle_alpha 154.167240
_cell_angle_beta 92.913424
_cell_angle_gamma 90.525031
_cell_volume 505.046535
_symmetry_space_group_name_H-M "P -1"
_symmetry_group_IT_number 2
_symmetry_cell_setting 'triclinic'
loop_
_space_group_symop_operation_xyz
x,y,z
-x,-y,-z
loop_
_atom_site_type_symbol
_atom_site_label
_atom_site_fract_x
_atom_site_fract_y
_atom_site_fract_z
Si Si1 0.053607 0.735819 0.804372
Si Si2 0.466098 0.238644 0.833024
Si Si3 0.808529 0.285225 0.808610
Si Si4 0.058154 0.631060 0.357289
Si Si5 0.745308 0.861375 0.584669
Si Si6 0.500000 0.000000 0.000000
Si Si7 0.280248 0.134071 0.926694
O O1 0.130840 0.732699 0.646835
O O2 0.000000 0.500000 0.500000
O O3 0.875341 0.813777 0.917959
O O4 0.182778 0.905300 0.128305
O O5 0.649823 0.350941 0.973848
O O6 0.353754 0.249858 0.707859
O O7 0.378135 0.295803 0.054183
O O8 0.500000 0.000000 0.500000
O O9 0.817512 0.357971 0.750399
O O10 0.796724 0.044310 0.439987
O O11 0.975228 0.398885 0.046193
O O12 0.905646 0.752883 0.478764
O O13 0.627524 0.875998 0.733780
O O14 0.411079 0.059397 0.932234
#
# Coordination Sequence:
#
# PCOD9034158 Si02
#       7
#     2   2   2   2   2   1   2
#     4  12  28  44  70 106 143 187 235 290 350 422
#     4  10  23  42  69 101 138 184 227 294 346 416
#     4  10  22  44  71  98 138 181 232 284 348 417
#     4  11  24  44  73 104 139 182 237 291 342 432
#     4  12  24  44  72 100 141 191 232 288 358 405
#     4  12  22  42  76 102 136 196 224 290 354 418
#     4  11  23  47  71 101 147 181 236 288 353 415
#
# _framework density 25.740202
#
# number of rings (size 3 to 8) (size 9 to 14) (size 15 to 20)
#    0.000    0.923    6.154    1.385    4.308    3.692 
#    2.769    1.538    0.000    0.000    0.000    0.000 
#    0.000    0.000    0.000    0.000    0.000    0.000 
#
# Total GULP energy -72483.348927 kJ/mol
# GULP energy per Si atom -5575.642225 kJ/mol
# Density = 2.568162 g / cm^3
# Si number density = 25.740202 Si / 1000 Ang^3
#
#
#
# Elastic Constant Matrix: (Units=GPa)
#
#
# Indices 1 2 3 4 5 6 
#
# 1 56.4516 12.5281 3.9268 -2.5996 -13.4409 10.9055
# 2 12.5281 60.3619 13.6495 -27.5488 -5.2586 21.6673
# 3 3.9268 13.6495 45.2830 -7.2627 -7.8759 -3.0732
# 4 -2.5996 -27.5488 -7.2627 42.4201 -0.9266 -1.6850
# 5 -13.4409 -5.2586 -7.8759 -0.9266 30.5107 -0.4377
# 6 10.9055 21.6673 -3.0732 -1.6850 -0.4377 49.7961
#
#
#
# Elastic Compliance Matrix: (Units=1/GPa)
#
#
# Indices 1 2 3 4 5 6 
#
# 1 0.021009 -0.002532 0.000200 -0.000266 0.008813 -0.003418
# 2 -0.002532 0.032523 -0.006846 0.019332 0.003119 -0.013338
# 3 0.000200 -0.006846 0.025440 0.000224 0.005547 0.004561
# 4 -0.000266 0.019332 0.000224 0.035963 0.004263 -0.007085
# 5 0.008813 0.003119 0.005547 0.004263 0.038721 -0.002460
# 6 -0.003418 -0.013338 0.004561 -0.007085 -0.002460 0.026654
#
#
# Mechanical properties :
#
#
# Convention : Reuss Voigt Hill
#
# Bulk Modulus (GPa) = 16.49761 24.70057 20.59909
# Shear Modulus (GPa) = 22.84447 33.34485 28.09466
#
# Velocity S-wave (km/s) = 2.98233 3.60312 3.30732
# Velocity P-wave (km/s) = 4.27577 5.18912 4.75443
#
# Compressibility (1/GPa) = 0.06061486
#
# Stress axis : x y z
#
# Youngs Moduli (GPa) = 47.59898 30.74764 39.30831
#
# Poissons Ratio (x) = 0.07786 -0.00785
# Poissons Ratio (y) = 0.12053 0.26910
# Poissons Ratio (z) = -0.00950 0.21049
#
# Static dielectric constant tensor:
#      x y z
#    x 2.017330 0.062700 -0.000420 
#    y 0.062700 2.117290 0.104050 
#    z -0.000420 0.104050 2.077530 
# 
# From -- ./inp_files/204928.got.cif
#   From: 2010.05.17/outbox.cif.g08.bks.cpg/sg2_103_cif.got.tgz:204928.got - 2010.06.03 11:33:40.
