data_PCOD9034361
_publ_section_title
;
Structure prediction by ZEFSAII (Michael W. Deem and Ramdas Pophale) SiO2 
 PCOD9034361
Probable space group: P -1
;
_chemical_formula_sum "Si O2"
_cell_formula_units_Z 12
_cell_length_a 7.056191
_cell_length_b 10.515289
_cell_length_c 9.056489
_cell_angle_alpha 120.822349
_cell_angle_beta 113.236999
_cell_angle_gamma 46.227522
_cell_volume 415.821920
_symmetry_space_group_name_H-M "P -1"
_symmetry_group_IT_number 2
_symmetry_cell_setting 'triclinic'
loop_
_space_group_symop_operation_xyz
x,y,z
-x,-y,-z
loop_
_atom_site_type_symbol
_atom_site_label
_atom_site_fract_x
_atom_site_fract_y
_atom_site_fract_z
Si Si1 0.305465 0.220422 0.017202
Si Si2 0.778055 0.327844 0.053212
Si Si3 0.642982 0.989997 0.350455
Si Si4 0.298162 0.550136 0.339632
Si Si5 0.040986 0.308605 0.408962
Si Si6 0.141069 0.892920 0.296263
O O1 0.310036 0.187734 0.823300
O O2 0.161811 0.987117 0.672605
O O3 0.352650 0.367200 0.171683
O O4 0.500000 0.000000 0.000000
O O5 0.839192 0.318456 0.239302
O O6 0.500000 0.500000 0.000000
O O7 0.012449 0.317223 0.042678
O O8 0.831389 0.142183 0.889879
O O9 0.032461 0.678319 0.433438
O O10 0.667392 0.843208 0.655625
O O11 0.706772 0.031503 0.556284
O O12 0.500000 0.500000 0.500000
O O13 0.273880 0.694904 0.303180
O O14 0.000000 0.500000 0.500000
#
# Coordination Sequence:
#
# PCOD9034361 Si02
#       6
#     2   2   2   2   2   2
#     4  11  21  41  71  97 133 183 228 272 343 413
#     4  11  22  38  69 102 132 176 234 275 334 410
#     4  10  22  44  73  94 136 188 232 272 349 416
#     4  12  25  42  70 102 140 175 231 287 346 402
#     4  12  22  42  69  99 134 186 231 276 341 420
#     4  10  24  43  70 102 138 178 229 291 340 406
#
# _framework density 28.858508
#
# number of rings (size 3 to 8) (size 9 to 14) (size 15 to 20)
#    0.000    1.000    3.333    4.000    0.000    3.333 
#    0.000    0.833   14.667    0.000    0.000    0.000 
#    0.000    0.000    0.000    0.000    0.000    0.000 
#
# Total GULP energy -67180.687228 kJ/mol
# GULP energy per Si atom -5598.390602 kJ/mol
# Density = 2.879282 g / cm^3
# Si number density = 28.858508 Si / 1000 Ang^3
#
#
#
# Elastic Constant Matrix: (Units=GPa)
#
#
# Indices 1 2 3 4 5 6 
#
# 1 121.0703 46.7946 73.0013 7.2437 1.3951 -34.9150
# 2 46.7946 149.5326 94.3496 21.2946 10.3123 -14.9562
# 3 73.0013 94.3496 353.0689 13.5331 -13.8639 -18.0049
# 4 7.2437 21.2946 13.5331 55.9628 -3.1583 6.5649
# 5 1.3951 10.3123 -13.8639 -3.1583 73.9146 -2.8151
# 6 -34.9150 -14.9562 -18.0049 6.5649 -2.8151 47.6892
#
#
#
# Elastic Compliance Matrix: (Units=1/GPa)
#
#
# Indices 1 2 3 4 5 6 
#
# 1 0.012344 -0.001841 -0.001595 -0.001458 -0.000031 0.008057
# 2 -0.001841 0.009154 -0.001962 -0.002995 -0.001697 0.001095
# 3 -0.001595 -0.001962 0.003701 0.000155 0.000991 -0.000348
# 4 -0.001458 -0.002995 0.000155 0.019764 0.001144 -0.004602
# 5 -0.000031 -0.001697 0.000991 0.001144 0.014020 0.000490
# 6 0.008057 0.001095 -0.000348 -0.004602 0.000490 0.027742
#
#
# Mechanical properties :
#
#
# Convention : Reuss Voigt Hill
#
# Bulk Modulus (GPa) = 69.42044 116.88477 93.15261
# Shear Modulus (GPa) = 48.86505 62.81508 55.84007
#
# Velocity S-wave (km/s) = 4.11939 4.67053 4.40359
# Velocity P-wave (km/s) = 6.83619 8.34720 7.62920
#
# Compressibility (1/GPa) = 0.01440498
#
# Stress axis : x y z
#
# Youngs Moduli (GPa) = 81.01156 109.23790 270.16077
#
# Poissons Ratio (x) = 0.20111 0.43083
# Poissons Ratio (y) = 0.14914 0.52996
# Poissons Ratio (z) = 0.12919 0.21429
#
# Static dielectric constant tensor:
#      x y z
#    x 2.284630 -0.196110 0.049980 
#    y -0.196110 -0.641340 1.718700 
#    z 0.049980 1.718700 1.176130 
# 
# From -- ./inp_files/424619.got.cif
#   From: 2010.05.17/outbox.cif.g08.bks.cpg/sg2_213_cif.got.tgz:424619.got - 2010.06.03 11:33:40.
