data_PCOD9034811
_publ_section_title
;
Structure prediction by ZEFSAII (Michael W. Deem and Ramdas Pophale) SiO2 
 PCOD9034811
Probable space group: P -1
;
_chemical_formula_sum "Si O2"
_cell_formula_units_Z 16
_cell_length_a 8.448374
_cell_length_b 9.617632
_cell_length_c 20.019207
_cell_angle_alpha 67.282141
_cell_angle_beta 147.867091
_cell_angle_gamma 105.581622
_cell_volume 792.377752
_symmetry_space_group_name_H-M "P -1"
_symmetry_group_IT_number 2
_symmetry_cell_setting 'triclinic'
loop_
_space_group_symop_operation_xyz
x,y,z
-x,-y,-z
loop_
_atom_site_type_symbol
_atom_site_label
_atom_site_fract_x
_atom_site_fract_y
_atom_site_fract_z
Si Si1 0.733359 0.332097 0.756767
Si Si2 0.665972 0.587889 0.986962
Si Si3 0.222899 0.842441 0.735350
Si Si4 0.070581 0.704467 0.313642
Si Si5 0.588425 0.820599 0.566363
Si Si6 0.262543 0.191551 0.698257
Si Si7 0.334498 0.604935 0.596336
Si Si8 0.287396 0.560264 0.736611
O O1 0.877703 0.263591 0.751949
O O2 0.572420 0.222526 0.768585
O O3 0.473941 0.470547 0.622185
O O4 0.991866 0.407848 0.873726
O O5 0.500000 0.500000 0.000000
O O6 0.512351 0.762704 0.892928
O O7 0.567696 0.519615 0.894123
O O8 0.217257 0.742712 0.684658
O O9 0.934443 0.795234 0.678488
O O10 0.207953 0.021130 0.691087
O O11 0.368872 0.745565 0.450441
O O12 0.800462 0.791660 0.247065
O O13 0.979524 0.533162 0.317613
O O14 0.528282 0.743267 0.629230
O O15 0.500000 0.000000 0.500000
O O16 0.999431 0.315612 0.551862
O O17 0.360543 0.532015 0.691682
#
# Coordination Sequence:
#
# PCOD9034811 Si02
#       8
#     2   2   2   2   2   2   2   2
#     4  12  24  41  72  96 131 187 225 268 335 391
#     4  10  22  45  68  92 133 178 233 276 320 392
#     4  10  23  45  63  95 141 169 217 287 325 392
#     4  11  23  42  68  99 132 176 225 267 336 406
#     4  11  22  39  66  95 138 171 209 273 345 393
#     4  11  25  43  65 100 145 161 220 290 331 399
#     4  11  23  40  65 104 134 168 224 276 328 408
#     4  10  23  41  68  96 131 176 221 276 332 381
#
# _framework density 20.19239
#
# number of rings (size 3 to 8) (size 9 to 14) (size 15 to 20)
#    0.750    0.500    5.000    1.875    3.500    5.000 
#    0.000    0.625    0.000    0.000    0.000    0.000 
#    0.000    0.000    0.000    0.000    0.000    0.000 
#
# Total GULP energy -89076.632522 kJ/mol
# GULP energy per Si atom -5567.289533 kJ/mol
# Density = 2.014643 g / cm^3
# Si number density = 20.192390 Si / 1000 Ang^3
#
#
#
# Elastic Constant Matrix: (Units=GPa)
#
#
# Indices 1 2 3 4 5 6 
#
# 1 137.1292 29.7057 26.4786 22.3529 6.2552 13.0475
# 2 29.7057 108.7630 27.4077 24.7745 4.7694 4.2899
# 3 26.4786 27.4077 77.2247 16.2700 7.4339 9.4967
# 4 22.3529 24.7745 16.2700 21.8871 3.4242 8.6435
# 5 6.2552 4.7694 7.4339 3.4242 29.7506 9.8881
# 6 13.0475 4.2899 9.4967 8.6435 9.8881 33.1002
#
#
#
# Elastic Compliance Matrix: (Units=1/GPa)
#
#
# Indices 1 2 3 4 5 6 
#
# 1 0.008919 -0.000425 -0.001216 -0.007229 -0.000294 -0.001136
# 2 -0.000425 0.012815 -0.001773 -0.013747 -0.000894 0.002873
# 3 -0.001216 -0.001773 0.016001 -0.007838 -0.002161 -0.001189
# 4 -0.007229 -0.013747 -0.007838 0.079937 0.001258 -0.014370
# 5 -0.000294 -0.000894 -0.002161 0.001258 0.037791 -0.010766
# 6 -0.001136 0.002873 -0.001189 -0.014370 -0.010766 0.037597
#
#
# Mechanical properties :
#
#
# Convention : Reuss Voigt Hill
#
# Bulk Modulus (GPa) = 32.35635 54.47787 43.41711
# Shear Modulus (GPa) = 23.78786 32.91590 28.35188
#
# Velocity S-wave (km/s) = 3.43601 4.04185 3.75118
# Velocity P-wave (km/s) = 5.63918 6.98713 6.34903
#
# Compressibility (1/GPa) = 0.03090583
#
# Stress axis : x y z
#
# Youngs Moduli (GPa) = 112.11728 78.03621 62.49580
#
# Poissons Ratio (x) = 0.03318 0.07601
# Poissons Ratio (y) = 0.04768 0.11081
# Poissons Ratio (z) = 0.13637 0.13836
#
# Static dielectric constant tensor:
#      x y z
#    x 1.782250 -0.034130 -0.001650 
#    y -0.034130 1.738970 0.003020 
#    z -0.001650 0.003020 1.716560 
# 
# From -- ./inp_files/587978.got.cif
#   From: 2010.05.17/outbox.cif.g08.bks.cpg/sg2_294_cif.got.tgz:587978.got - 2010.06.03 11:33:40.
