data_PCOD9034856
_publ_section_title
;
Structure prediction by ZEFSAII (Michael W. Deem and Ramdas Pophale) SiO2 
 PCOD9034856
Probable space group: P -1
;
_chemical_formula_sum "Si O2"
_cell_formula_units_Z 16
_cell_length_a 19.624782
_cell_length_b 11.848124
_cell_length_c 7.650891
_cell_angle_alpha 94.877151
_cell_angle_beta 122.764661
_cell_angle_gamma 38.825512
_cell_volume 721.838222
_symmetry_space_group_name_H-M "P -1"
_symmetry_group_IT_number 2
_symmetry_cell_setting 'triclinic'
loop_
_space_group_symop_operation_xyz
x,y,z
-x,-y,-z
loop_
_atom_site_type_symbol
_atom_site_label
_atom_site_fract_x
_atom_site_fract_y
_atom_site_fract_z
Si Si1 0.396170 0.339356 0.686472
Si Si2 0.904002 0.572254 0.706698
Si Si3 0.244673 0.507985 0.878849
Si Si4 0.479973 0.001564 0.677304
Si Si5 0.076437 0.217926 0.398857
Si Si6 0.376403 0.739157 0.953732
Si Si7 0.122374 0.889029 0.815057
Si Si8 0.047194 0.724108 0.136019
O O1 0.302415 0.471266 0.758938
O O2 0.246785 0.497440 0.364575
O O3 0.505289 0.091855 0.817518
O O4 0.510013 0.306639 0.799362
O O5 0.930791 0.637008 0.609342
O O6 0.966295 0.365895 0.758750
O O7 0.706820 0.807692 0.505913
O O8 0.000000 0.500000 0.000000
O O9 0.213687 0.661320 0.961501
O O10 0.072651 0.648379 0.671426
O O11 0.388444 0.252274 0.116941
O O12 0.500000 0.000000 0.500000
O O13 0.254105 0.956014 0.679919
O O14 0.038079 0.210979 0.153179
O O15 0.256570 0.813541 0.920162
O O16 0.500000 0.500000 0.000000
O O17 0.000000 0.000000 0.500000
O O18 0.025907 0.071861 0.857978
#
# Coordination Sequence:
#
# PCOD9034856 Si02
#       8
#     2   2   2   2   2   2   2   2
#     4  11  23  43  71  95 135 176 220 271 338 393
#     4   9  20  40  67  96 132 166 217 278 326 384
#     4  12  23  42  66  96 135 177 219 264 342 392
#     4  11  24  44  67 100 137 173 222 281 331 389
#     4  11  24  42  71  99 132 177 225 282 324 394
#     4  12  24  44  66  96 134 176 222 274 328 400
#     4  12  23  45  66  95 136 178 218 272 329 409
#     4  10  22  45  68  99 131 178 220 273 336 391
#
# _framework density 22.165633
#
# number of rings (size 3 to 8) (size 9 to 14) (size 15 to 20)
#    0.000    1.000    3.750    3.375    0.000    4.500 
#    2.250    5.625    0.000    0.000    0.000    0.000 
#    0.000    0.000    0.000    0.000    0.000    0.000 
#
# Total GULP energy -89485.401735 kJ/mol
# GULP energy per Si atom -5592.837608 kJ/mol
# Density = 2.211518 g / cm^3
# Si number density = 22.165633 Si / 1000 Ang^3
#
#
#
# Elastic Constant Matrix: (Units=GPa)
#
#
# Indices 1 2 3 4 5 6 
#
# 1 110.4910 18.9658 10.8080 6.5513 23.6199 16.7332
# 2 18.9658 125.6170 20.6688 -6.9767 -1.6660 23.1155
# 3 10.8080 20.6688 57.2235 -0.0823 8.9439 14.6371
# 4 6.5513 -6.9767 -0.0823 33.8091 8.0977 -2.4685
# 5 23.6199 -1.6660 8.9439 8.0977 40.6911 4.7398
# 6 16.7332 23.1155 14.6371 -2.4685 4.7398 41.3279
#
#
#
# Elastic Compliance Matrix: (Units=1/GPa)
#
#
# Indices 1 2 3 4 5 6 
#
# 1 0.011072 -0.001241 0.000099 -0.001228 -0.005879 -0.003223
# 2 -0.001241 0.009388 -0.002411 0.001444 0.001815 -0.004017
# 3 0.000099 -0.002411 0.020344 0.000098 -0.004014 -0.005431
# 4 -0.001228 0.001444 0.000098 0.031667 -0.005809 0.002213
# 5 -0.005879 0.001815 -0.004014 -0.005809 0.030220 -0.001026
# 6 -0.003223 -0.004017 -0.005431 0.002213 -0.001026 0.029921
#
#
# Mechanical properties :
#
#
# Convention : Reuss Voigt Hill
#
# Bulk Modulus (GPa) = 29.67578 43.80184 36.73881
# Shear Modulus (GPa) = 33.12326 39.35822 36.24074
#
# Velocity S-wave (km/s) = 3.86988 4.21841 4.04790
# Velocity P-wave (km/s) = 5.77799 6.59778 6.20145
#
# Compressibility (1/GPa) = 0.03369752
#
# Stress axis : x y z
#
# Youngs Moduli (GPa) = 90.32104 106.51760 49.15415
#
# Poissons Ratio (x) = 0.13219 -0.00485
# Poissons Ratio (y) = 0.11209 0.11850
# Poissons Ratio (z) = -0.00890 0.25679
#
# Static dielectric constant tensor:
#      x y z
#    x 1.807490 0.020490 -0.055000 
#    y 0.020490 1.837550 0.015890 
#    z -0.055000 0.015890 1.794830 
# 
# From -- ./inp_files/345405.got.cif
#   From: 2010.05.17/outbox.cif.g08.bks.cpg/sg2_173_cif.got.tgz:345405.got - 2010.06.03 11:33:40.
