data_PCOD9034300
_publ_section_title
;
Structure prediction by ZEFSAII (Michael W. Deem and Ramdas Pophale) SiO2 
 PCOD9034300
Probable space group: P -1
;
_chemical_formula_sum "Si O2"
_cell_formula_units_Z 16
_cell_length_a 5.748215
_cell_length_b 9.650821
_cell_length_c 21.512046
_cell_angle_alpha 43.593683
_cell_angle_beta 127.578633
_cell_angle_gamma 105.111394
_cell_volume 615.344589
_symmetry_space_group_name_H-M "P -1"
_symmetry_group_IT_number 2
_symmetry_cell_setting 'triclinic'
loop_
_space_group_symop_operation_xyz
x,y,z
-x,-y,-z
loop_
_atom_site_type_symbol
_atom_site_label
_atom_site_fract_x
_atom_site_fract_y
_atom_site_fract_z
Si Si1 0.778165 0.414352 0.709468
Si Si2 0.311689 0.024065 0.730034
Si Si3 0.199837 0.896004 0.292390
Si Si4 0.658572 0.086927 0.883029
Si Si5 0.652098 0.213344 0.307552
Si Si6 0.782520 0.375271 0.038132
Si Si7 0.570439 0.650830 0.129114
Si Si8 0.657073 0.867687 0.509498
O O1 0.059764 0.443232 0.786603
O O2 0.611417 0.303151 0.765793
O O3 0.603426 0.642373 0.576759
O O4 0.903064 0.249324 0.727275
O O5 0.540635 0.962998 0.848700
O O6 0.302213 0.836252 0.742621
O O7 0.967356 0.143750 0.659634
O O8 0.453900 0.156634 0.663129
O O9 0.030151 0.152999 0.174754
O O10 0.477778 0.157975 0.894045
O O11 0.000000 0.000000 0.000000
O O12 0.538516 0.033886 0.379908
O O13 0.459296 0.461159 0.200944
O O14 0.972676 0.187438 0.404205
O O15 0.605435 0.296635 0.980365
O O16 0.500000 0.500000 0.000000
O O17 0.000000 0.500000 0.000000
O O18 0.500000 0.000000 0.500000
#
# Coordination Sequence:
#
# PCOD9034300 Si02
#       8
#     2   2   2   2   2   2   2   2
#     4  10  23  41  67  98 128 184 226 286 347 416
#     4  11  24  44  69 101 139 184 227 285 347 407
#     4  11  23  44  67  96 147 178 230 281 342 412
#     4  11  24  40  66  96 141 184 229 279 341 412
#     4  10  23  42  69  98 132 177 226 295 348 415
#     4  12  27  43  65 100 139 184 232 285 341 411
#     4  11  22  40  66  91 134 178 231 276 346 414
#     4  10  22  44  72  99 131 173 236 290 360 418
#
# _framework density 26.001691999999998
#
# number of rings (size 3 to 8) (size 9 to 14) (size 15 to 20)
#    0.000    1.250    1.250    4.500    5.250    1.000 
#    0.000    3.125    0.000    0.000    0.000    0.000 
#    0.000    0.000    0.000    0.000    0.000    0.000 
#
# Total GULP energy -89148.444955 kJ/mol
# GULP energy per Si atom -5571.777810 kJ/mol
# Density = 2.594251 g / cm^3
# Si number density = 26.001692 Si / 1000 Ang^3
#
#
#
# Elastic Constant Matrix: (Units=GPa)
#
#
# Indices 1 2 3 4 5 6 
#
# 1 143.6077 30.7173 38.1750 -5.9862 -21.3319 -9.2128
# 2 30.7173 136.0218 42.1277 3.7598 -19.3526 -23.6221
# 3 38.1750 42.1277 128.2217 3.8782 -17.9277 2.1868
# 4 -5.9862 3.7598 3.8782 44.9478 7.8204 -10.1354
# 5 -21.3319 -19.3526 -17.9277 7.8204 37.2164 7.4289
# 6 -9.2128 -23.6221 2.1868 -10.1354 7.4289 48.7933
#
#
#
# Elastic Compliance Matrix: (Units=1/GPa)
#
#
# Indices 1 2 3 4 5 6 
#
# 1 0.008154 -0.000695 -0.001826 0.001011 0.003013 0.001036
# 2 -0.000695 0.009381 -0.002601 -0.000146 0.002434 0.004126
# 3 -0.001826 -0.002601 0.009782 -0.002130 0.003359 -0.002996
# 4 0.001011 -0.000146 -0.002130 0.025302 -0.007148 0.006560
# 5 0.003013 0.002434 0.003359 -0.007148 0.033994 -0.005064
# 6 0.001036 0.004126 -0.002996 0.006560 -0.005064 0.024956
#
#
# Mechanical properties :
#
#
# Convention : Reuss Voigt Hill
#
# Bulk Modulus (GPa) = 58.57211 69.98790 64.28001
# Shear Modulus (GPa) = 39.21470 45.98024 42.59747
#
# Velocity S-wave (km/s) = 3.88772 4.20974 4.05193
# Velocity P-wave (km/s) = 6.53664 7.11367 6.83125
#
# Compressibility (1/GPa) = 0.01707297
#
# Stress axis : x y z
#
# Youngs Moduli (GPa) = 122.64312 106.59679 102.22493
#
# Poissons Ratio (x) = 0.07409 0.18668
# Poissons Ratio (y) = 0.08524 0.26588
# Poissons Ratio (z) = 0.22397 0.27725
#
# Static dielectric constant tensor:
#      x y z
#    x 2.169950 0.162590 0.001330 
#    y 0.162590 2.286500 0.054010 
#    z 0.001330 0.054010 2.094040 
# 
# From -- ./inp_files/483852.got.cif
#   From: 2010.05.17/outbox.cif.g08.bks.cpg/sg2_242_cif.got.tgz:483852.got - 2010.06.03 11:33:40.
