data_PCOD9034671
_publ_section_title
;
Structure prediction by ZEFSAII (Michael W. Deem and Ramdas Pophale) SiO2 
 PCOD9034671
Probable space group: P -1
;
_chemical_formula_sum "Si O2"
_cell_formula_units_Z 16
_cell_length_a 12.181771
_cell_length_b 11.378129
_cell_length_c 8.288328
_cell_angle_alpha 112.480326
_cell_angle_beta 57.524731
_cell_angle_gamma 114.903655
_cell_volume 860.521260
_symmetry_space_group_name_H-M "P -1"
_symmetry_group_IT_number 2
_symmetry_cell_setting 'triclinic'
loop_
_space_group_symop_operation_xyz
x,y,z
-x,-y,-z
loop_
_atom_site_type_symbol
_atom_site_label
_atom_site_fract_x
_atom_site_fract_y
_atom_site_fract_z
Si Si1 0.180075 0.777886 0.468950
Si Si2 0.869223 0.743716 0.223080
Si Si3 0.367859 0.381981 0.898894
Si Si4 0.839175 0.971806 0.560820
Si Si5 0.340869 0.582938 0.290787
Si Si6 0.250389 0.156634 0.119909
Si Si7 0.899653 0.650370 0.512893
Si Si8 0.901604 0.090934 0.080122
O O1 0.306094 0.719420 0.359519
O O2 0.149555 0.842563 0.693838
O O3 0.051167 0.658932 0.450941
O O4 0.189839 0.891704 0.388671
O O5 0.752767 0.657877 0.155231
O O6 0.826578 0.877010 0.367894
O O7 0.888353 0.683422 0.350445
O O8 0.010506 0.793326 0.043264
O O9 0.517926 0.403637 0.722282
O O10 0.357373 0.510674 0.072208
O O11 0.350279 0.265612 0.987362
O O12 0.735586 0.890637 0.733865
O O13 0.000000 0.000000 0.500000
O O14 0.214189 0.483393 0.427965
O O15 0.134923 0.233395 0.289048
O O16 0.211348 0.018567 0.983705
O O17 0.000000 0.000000 0.000000
#
# Coordination Sequence:
#
# PCOD9034671 Si02
#       8
#     2   2   2   2   2   2   2   2
#     4  12  20  34  57  86 114 138 177 231 281 324
#     4  11  19  32  61  85 107 145 179 224 274 332
#     4  10  21  41  58  74 105 155 197 216 260 328
#     4  11  17  32  57  91 115 134 168 226 289 333
#     4  10  24  40  55  74 109 156 191 223 262 317
#     4  10  17  32  57  83 110 142 177 222 271 332
#     4  10  19  35  56  83 111 138 184 230 276 314
#     4  12  16  29  55  88 108 134 173 221 282 331
#
# _framework density 18.593381000000001
#
# number of rings (size 3 to 8) (size 9 to 14) (size 15 to 20)
#    0.000    1.250    7.500    1.125    0.000    0.500 
#    0.000    6.875    0.000    0.000    0.000    0.000 
#    0.000    0.000    0.000    0.000    0.000    0.000 
#
# Total GULP energy -89127.220719 kJ/mol
# GULP energy per Si atom -5570.451295 kJ/mol
# Density = 1.855106 g / cm^3
# Si number density = 18.593381 Si / 1000 Ang^3
#
#
#
# Elastic Constant Matrix: (Units=GPa)
#
#
# Indices 1 2 3 4 5 6 
#
# 1 38.5189 21.4669 34.0361 11.5844 3.6312 -3.6964
# 2 21.4669 38.4717 21.3878 10.0307 1.9419 -5.8324
# 3 34.0361 21.3878 59.6219 6.1039 6.0075 -6.3217
# 4 11.5844 10.0307 6.1039 23.5757 -1.6430 4.1081
# 5 3.6312 1.9419 6.0075 -1.6430 20.3371 7.1045
# 6 -3.6964 -5.8324 -6.3217 4.1081 7.1045 28.6301
#
#
#
# Elastic Compliance Matrix: (Units=1/GPa)
#
#
# Indices 1 2 3 4 5 6 
#
# 1 0.068239 -0.015138 -0.030754 -0.019921 -0.004259 0.002851
# 2 -0.015138 0.040597 -0.003622 -0.010543 -0.003734 0.007955
# 3 -0.030754 -0.003622 0.035934 0.006317 -0.005560 0.003699
# 4 -0.019921 -0.010543 0.006317 0.058522 0.012614 -0.014852
# 5 -0.004259 -0.003734 -0.005560 0.012614 0.059638 -0.019147
# 6 0.002851 0.007955 0.003699 -0.014852 -0.019147 0.044616
#
#
# Mechanical properties :
#
#
# Convention : Reuss Voigt Hill
#
# Bulk Modulus (GPa) = 21.86210 32.26601 27.06406
# Shear Modulus (GPa) = 11.85333 18.49005 15.17169
#
# Velocity S-wave (km/s) = 2.52762 3.15690 2.85962
# Velocity P-wave (km/s) = 4.50578 5.53888 5.04882
#
# Compressibility (1/GPa) = 0.04574125
#
# Stress axis : x y z
#
# Youngs Moduli (GPa) = 14.65438 24.63224 27.82907
#
# Poissons Ratio (x) = 0.37289 0.85585
# Poissons Ratio (y) = 0.22184 0.10080
# Poissons Ratio (z) = 0.45068 0.08922
#
# Static dielectric constant tensor:
#      x y z
#    x 1.660780 0.020830 0.018360 
#    y 0.020830 1.700470 -0.020610 
#    z 0.018360 -0.020610 1.652320 
# 
# From -- ./inp_files/259863.got.cif
#   From: 2010.05.17/outbox.cif.g08.bks.cpg/sg2_130_cif.got.tgz:259863.got - 2010.06.03 11:33:40.
