data_PCOD9034608
_publ_section_title
;
Structure prediction by ZEFSAII (Michael W. Deem and Ramdas Pophale) SiO2 
 PCOD9034608
Probable space group: P -1
;
_chemical_formula_sum "Si O2"
_cell_formula_units_Z 16
_cell_length_a 9.471349
_cell_length_b 15.196608
_cell_length_c 17.858745
_cell_angle_alpha 30.757907
_cell_angle_beta 134.469707
_cell_angle_gamma 140.351040
_cell_volume 832.824567
_symmetry_space_group_name_H-M "P -1"
_symmetry_group_IT_number 2
_symmetry_cell_setting 'triclinic'
loop_
_space_group_symop_operation_xyz
x,y,z
-x,-y,-z
loop_
_atom_site_type_symbol
_atom_site_label
_atom_site_fract_x
_atom_site_fract_y
_atom_site_fract_z
Si Si1 0.759902 0.063098 0.562541
Si Si2 0.101024 0.019175 0.938954
Si Si3 0.944948 0.648219 0.414457
Si Si4 0.503079 0.641297 0.461857
Si Si5 0.971558 0.810920 0.584226
Si Si6 0.578244 0.058418 0.124990
Si Si7 0.164467 0.606657 0.914677
Si Si8 0.050454 0.210964 0.097362
O O1 0.872220 0.231746 0.542656
O O2 0.885533 0.133140 0.479257
O O3 0.500000 0.000000 0.500000
O O4 0.823456 0.898359 0.736782
O O5 0.086224 0.198793 0.761995
O O6 0.977064 0.842860 0.961862
O O7 0.355651 0.051777 0.012197
O O8 0.000000 0.000000 0.000000
O O9 0.716942 0.498881 0.475457
O O10 0.000000 0.500000 0.500000
O O11 0.500000 0.500000 0.500000
O O12 0.715614 0.694567 0.553021
O O13 0.521166 0.843323 0.289950
O O14 0.047751 0.688936 0.754459
O O15 0.000000 0.000000 0.500000
O O16 0.638344 0.207678 0.108211
O O17 0.799867 0.130731 0.100845
O O18 0.000000 0.500000 0.000000
O O19 0.189669 0.437659 0.003646
#
# Coordination Sequence:
#
# PCOD9034608 Si02
#       8
#     2   2   2   2   2   2   2   2
#     4  11  25  46  68  97 133 173 223 278 332 393
#     4  11  25  42  66  95 135 175 216 269 339 392
#     4  11  26  44  64 102 134 175 221 272 336 395
#     4  12  23  41  69  97 137 166 230 274 321 402
#     4  12  23  42  68 100 129 179 219 273 330 387
#     4  11  22  43  66  97 133 172 217 276 328 391
#     4  10  23  39  64  98 132 164 223 267 327 388
#     4  10  22  45  65  97 128 171 225 271 330 392
#
# _framework density 19.211728000000001
#
# number of rings (size 3 to 8) (size 9 to 14) (size 15 to 20)
#    0.000    1.000    3.750    2.625    7.000    4.000 
#    0.000    1.250    0.000    0.000    0.000    0.000 
#    0.000    0.000    0.000    0.000    0.000    0.000 
#
# Total GULP energy -89297.742560 kJ/mol
# GULP energy per Si atom -5581.108910 kJ/mol
# Density = 1.916800 g / cm^3
# Si number density = 19.211728 Si / 1000 Ang^3
#
#
#
# Elastic Constant Matrix: (Units=GPa)
#
#
# Indices 1 2 3 4 5 6 
#
# 1 131.6320 66.9345 48.3218 0.5154 4.2940 -14.9092
# 2 66.9345 177.0783 79.3546 -0.8365 11.9575 -23.0944
# 3 48.3218 79.3546 118.2442 2.8105 4.5419 -23.2161
# 4 0.5154 -0.8365 2.8105 46.3053 -0.2842 11.7655
# 5 4.2940 11.9575 4.5419 -0.2842 31.2120 -0.0814
# 6 -14.9092 -23.0944 -23.2161 11.7655 -0.0814 42.4459
#
#
#
# Elastic Compliance Matrix: (Units=1/GPa)
#
#
# Indices 1 2 3 4 5 6 
#
# 1 0.009810 -0.002679 -0.002014 -0.000281 -0.000030 0.000964
# 2 -0.002679 0.009087 -0.004630 0.000094 -0.002435 0.001440
# 3 -0.002014 -0.004630 0.013343 -0.002049 0.000102 0.004640
# 4 -0.000281 0.000094 -0.002049 0.023693 0.000496 -0.007735
# 5 -0.000030 -0.002435 0.000102 0.000496 0.032962 -0.001353
# 6 0.000964 0.001440 0.004640 -0.007735 -0.001353 0.029361
#
#
# Mechanical properties :
#
#
# Convention : Reuss Voigt Hill
#
# Bulk Modulus (GPa) = 73.55718 90.68625 82.12171
# Shear Modulus (GPa) = 35.35248 39.48221 37.41734
#
# Velocity S-wave (km/s) = 4.29435 4.53825 4.41798
# Velocity P-wave (km/s) = 7.93469 8.64679 8.29838
#
# Compressibility (1/GPa) = 0.01359487
#
# Stress axis : x y z
#
# Youngs Moduli (GPa) = 101.93862 110.04386 74.94701
#
# Poissons Ratio (x) = 0.29482 0.15092
# Poissons Ratio (y) = 0.27311 0.34698
# Poissons Ratio (z) = 0.20528 0.50946
#
# Static dielectric constant tensor:
#      x y z
#    x 1.648180 -0.006400 -0.000990 
#    y -0.006400 1.669330 -0.000820 
#    z -0.000990 -0.000820 1.640450 
# 
# From -- ./inp_files/184261.got.cif
#   From: 2010.05.17/outbox.cif.g08.bks.cpg/sg2_93_cif.got.tgz:184261.got - 2010.06.03 11:33:40.
