data_PCOD9034531
_publ_section_title
;
Structure prediction by ZEFSAII (Michael W. Deem and Ramdas Pophale) SiO2 
 PCOD9034531
Probable space group: P -1
;
_chemical_formula_sum "Si O2"
_cell_formula_units_Z 14
_cell_length_a 13.347157
_cell_length_b 12.487353
_cell_length_c 7.846606
_cell_angle_alpha 97.653630
_cell_angle_beta 100.391833
_cell_angle_gamma 140.886754
_cell_volume 728.649275
_symmetry_space_group_name_H-M "P -1"
_symmetry_group_IT_number 2
_symmetry_cell_setting 'triclinic'
loop_
_space_group_symop_operation_xyz
x,y,z
-x,-y,-z
loop_
_atom_site_type_symbol
_atom_site_label
_atom_site_fract_x
_atom_site_fract_y
_atom_site_fract_z
Si Si1 0.708357 0.179617 0.142759
Si Si2 0.460293 0.542975 0.840661
Si Si3 0.881749 0.215177 0.886305
Si Si4 0.162263 0.064622 0.115517
Si Si5 0.820794 0.516103 0.222426
Si Si6 0.800634 0.859496 0.461919
Si Si7 0.191623 0.895405 0.539013
O O1 0.770095 0.354726 0.241437
O O2 0.744080 0.129874 0.300953
O O3 0.808386 0.231051 0.010105
O O4 0.500000 0.000000 0.000000
O O5 0.651000 0.742999 0.870360
O O6 0.344706 0.547670 0.851444
O O7 0.336108 0.357350 0.648464
O O8 0.500000 0.500000 0.000000
O O9 0.769882 0.108286 0.648580
O O10 0.078625 0.409384 0.912945
O O11 0.882977 0.100278 0.954784
O O12 0.187841 0.101116 0.330537
O O13 0.000000 0.000000 0.000000
O O14 0.975316 0.703829 0.426287
O O15 0.749110 0.929337 0.373043
O O16 0.000000 0.000000 0.500000
#
# Coordination Sequence:
#
# PCOD9034531 Si02
#       7
#     2   2   2   2   2   2   2
#     4  12  24  39  68  96 125 173 220 266 327 388
#     4  12  24  39  67  96 131 166 216 273 323 398
#     4   9  22  42  63  89 130 166 217 262 323 383
#     4  11  23  40  63  97 132 170 214 264 330 396
#     4  10  22  45  61  93 127 170 221 263 324 388
#     4  11  21  42  63  94 131 170 213 267 331 388
#     4   9  23  42  64  90 130 168 212 266 323 379
#
# _framework density 19.213632
#
# number of rings (size 3 to 8) (size 9 to 14) (size 15 to 20)
#    0.857    0.571    1.429    3.857    6.000    0.571 
#    0.000    0.000    0.000    0.000    0.000    0.000 
#    0.000    0.000    0.000    0.000    0.000    0.000 
#
# Total GULP energy -78049.553876 kJ/mol
# GULP energy per Si atom -5574.968134 kJ/mol
# Density = 1.916990 g / cm^3
# Si number density = 19.213632 Si / 1000 Ang^3
#
#
#
# Elastic Constant Matrix: (Units=GPa)
#
#
# Indices 1 2 3 4 5 6 
#
# 1 125.0455 52.0752 40.0851 -15.5445 18.7280 -4.5943
# 2 52.0752 119.3747 20.9868 -11.4389 24.1538 -5.4616
# 3 40.0851 20.9868 51.6714 -9.5196 22.2150 0.6808
# 4 -15.5445 -11.4389 -9.5196 25.2204 -3.3026 7.6349
# 5 18.7280 24.1538 22.2150 -3.3026 32.2353 1.7460
# 6 -4.5943 -5.4616 0.6808 7.6349 1.7460 38.8969
#
#
#
# Elastic Compliance Matrix: (Units=1/GPa)
#
#
# Indices 1 2 3 4 5 6 
#
# 1 0.012421 -0.004036 -0.008235 0.002822 0.001749 0.000412
# 2 -0.004036 0.011567 0.002098 0.002251 -0.007592 0.001010
# 3 -0.008235 0.002098 0.034758 0.006914 -0.019939 -0.001749
# 4 0.002822 0.002251 0.006914 0.047267 -0.002781 -0.008625
# 5 0.001749 -0.007592 -0.019939 -0.002781 0.049268 -0.002176
# 6 0.000412 0.001010 -0.001749 -0.008625 -0.002176 0.027721
#
#
# Mechanical properties :
#
#
# Convention : Reuss Voigt Hill
#
# Bulk Modulus (GPa) = 26.03999 58.04284 42.04142
# Shear Modulus (GPa) = 23.13249 31.46683 27.29966
#
# Velocity S-wave (km/s) = 3.47358 4.05128 3.77350
# Velocity P-wave (km/s) = 5.44702 7.22209 6.39643
#
# Compressibility (1/GPa) = 0.03840247
#
# Stress axis : x y z
#
# Youngs Moduli (GPa) = 80.50651 86.45558 28.77044
#
# Poissons Ratio (x) = 0.34890 0.23691
# Poissons Ratio (y) = 0.32489 -0.06037
# Poissons Ratio (z) = 0.66293 -0.18142
#
# Static dielectric constant tensor:
#      x y z
#    x 1.718460 -0.061170 -0.051220 
#    y -0.061170 1.686410 0.011060 
#    z -0.051220 0.011060 1.689300 
# 
# From -- ./inp_files/214568.got.cif
#   From: 2010.05.17/outbox.cif.g08.bks.cpg/sg2_108_cif.got.tgz:214568.got - 2010.06.03 11:33:40.
