data_PCOD9034220
_publ_section_title
;
Structure prediction by ZEFSAII (Michael W. Deem and Ramdas Pophale) SiO2 
 PCOD9034220
Probable space group: P -1
;
_chemical_formula_sum "Si O2"
_cell_formula_units_Z 16
_cell_length_a 8.940163
_cell_length_b 8.733755
_cell_length_c 12.071666
_cell_angle_alpha 103.359720
_cell_angle_beta 126.685612
_cell_angle_gamma 78.765938
_cell_volume 733.466611
_symmetry_space_group_name_H-M "P -1"
_symmetry_group_IT_number 2
_symmetry_cell_setting 'triclinic'
loop_
_space_group_symop_operation_xyz
x,y,z
-x,-y,-z
loop_
_atom_site_type_symbol
_atom_site_label
_atom_site_fract_x
_atom_site_fract_y
_atom_site_fract_z
Si Si1 0.361682 0.167104 0.306520
Si Si2 0.183434 0.826977 0.745611
Si Si3 0.472122 0.334419 0.017675
Si Si4 0.791396 0.464756 0.928447
Si Si5 0.472470 0.531235 0.622814
Si Si6 0.950213 0.160531 0.069188
Si Si7 0.395494 0.085495 0.754497
Si Si8 0.223798 0.268284 0.501204
O O1 0.509372 0.282440 0.342081
O O2 0.335676 0.178383 0.430982
O O3 0.153497 0.228627 0.187277
O O4 0.430343 0.004197 0.249764
O O5 0.126435 0.887998 0.853732
O O6 0.996329 0.750927 0.610496
O O7 0.256675 0.962867 0.724035
O O8 0.358139 0.703916 0.829425
O O9 0.453526 0.193158 0.900349
O O10 0.500000 0.500000 0.000000
O O11 0.286093 0.381314 0.011479
O O12 0.642594 0.455189 0.761102
O O13 0.814656 0.298294 0.977203
O O14 0.000000 0.500000 0.000000
O O15 0.500000 0.500000 0.500000
O O16 0.286716 0.446561 0.556523
O O17 0.000000 0.000000 0.000000
O O18 0.290889 0.191790 0.632959
#
# Coordination Sequence:
#
# PCOD9034220 Si02
#       8
#     2   2   2   2   2   2   2   2
#     4  10  22  44  72 104 145 184 235 290 350 415
#     4  11  25  46  68 102 150 181 235 283 359 416
#     4  12  26  46  71 102 140 187 235 292 354 416
#     4  12  25  45  73 103 138 178 242 291 352 422
#     4  10  22  44  72 104 138 182 234 290 348 406
#     4  11  24  42  71 104 139 182 231 292 355 418
#     4  12  25  45  72 105 146 186 236 292 354 416
#     4  10  24  46  73 104 142 193 237 285 347 425
#
# _framework density 21.814215999999998
#
# number of rings (size 3 to 8) (size 9 to 14) (size 15 to 20)
#    0.000    1.000    2.500    3.375    3.500    0.000 
#    2.250   10.625    0.000    0.000    0.000    0.000 
#    0.000    0.000    0.000    0.000    0.000    0.000 
#
# Total GULP energy -89325.899410 kJ/mol
# GULP energy per Si atom -5582.868713 kJ/mol
# Density = 2.176457 g / cm^3
# Si number density = 21.814216 Si / 1000 Ang^3
#
#
#
# Elastic Constant Matrix: (Units=GPa)
#
#
# Indices 1 2 3 4 5 6 
#
# 1 133.0118 38.9057 40.4143 9.8078 12.8906 7.7846
# 2 38.9057 85.7419 36.0203 4.5701 6.5112 11.9998
# 3 40.4143 36.0203 121.6108 -0.7164 5.0055 5.0089
# 4 9.8078 4.5701 -0.7164 32.8934 4.8241 -4.6378
# 5 12.8906 6.5112 5.0055 4.8241 38.2044 3.2710
# 6 7.7846 11.9998 5.0089 -4.6378 3.2710 53.7121
#
#
#
# Elastic Compliance Matrix: (Units=1/GPa)
#
#
# Indices 1 2 3 4 5 6 
#
# 1 0.009455 -0.003034 -0.002148 -0.002220 -0.002063 -0.000558
# 2 -0.003034 0.014926 -0.003284 -0.001520 -0.000668 -0.002679
# 3 -0.002148 -0.003284 0.009916 0.001379 -0.000210 0.000252
# 4 -0.002220 -0.001520 0.001379 0.032325 -0.003557 0.003541
# 5 -0.002063 -0.000668 -0.000210 -0.003557 0.027592 -0.001519
# 6 -0.000558 -0.002679 0.000252 0.003541 -0.001519 0.019672
#
#
# Mechanical properties :
#
#
# Convention : Reuss Voigt Hill
#
# Bulk Modulus (GPa) = 57.59157 63.44947 60.52052
# Shear Modulus (GPa) = 36.60129 39.96359 38.28244
#
# Velocity S-wave (km/s) = 4.10062 4.28483 4.19373
# Velocity P-wave (km/s) = 6.99130 7.32319 7.15917
#
# Compressibility (1/GPa) = 0.01736365
#
# Stress axis : x y z
#
# Youngs Moduli (GPa) = 105.76588 66.99707 100.84775
#
# Poissons Ratio (x) = 0.20330 0.21667
# Poissons Ratio (y) = 0.32094 0.33115
# Poissons Ratio (z) = 0.22723 0.22000
#
# Static dielectric constant tensor:
#      x y z
#    x 1.878240 -0.008910 -0.036300 
#    y -0.008910 1.820270 0.042290 
#    z -0.036300 0.042290 1.816790 
# 
# From -- ./inp_files/382778.got.cif
#   From: 2010.05.17/outbox.cif.g08.bks.cpg/sg2_192_cif.got.tgz:382778.got - 2010.06.03 11:33:40.
