data_PCOD9034517
_publ_section_title
;
Structure prediction by ZEFSAII (Michael W. Deem and Ramdas Pophale) SiO2 
 PCOD9034517
Probable space group: P -1
;
_chemical_formula_sum "Si O2"
_cell_formula_units_Z 14
_cell_length_a 9.268167
_cell_length_b 8.434658
_cell_length_c 8.826666
_cell_angle_alpha 110.120609
_cell_angle_beta 99.560326
_cell_angle_gamma 71.961131
_cell_volume 614.683959
_symmetry_space_group_name_H-M "P -1"
_symmetry_group_IT_number 2
_symmetry_cell_setting 'triclinic'
loop_
_space_group_symop_operation_xyz
x,y,z
-x,-y,-z
loop_
_atom_site_type_symbol
_atom_site_label
_atom_site_fract_x
_atom_site_fract_y
_atom_site_fract_z
Si Si1 0.480067 0.704503 0.042304
Si Si2 0.927883 0.769950 0.150361
Si Si3 0.303819 0.249137 0.154830
Si Si4 0.864574 0.184113 0.032195
Si Si5 0.180932 0.851301 0.648469
Si Si6 0.530703 0.003755 0.330184
Si Si7 0.060162 0.564959 0.376668
O O1 0.553473 0.716435 0.896012
O O2 0.302634 0.807457 0.051204
O O3 0.500000 0.500000 0.000000
O O4 0.562083 0.805518 0.206872
O O5 0.934733 0.640687 0.249527
O O6 0.932286 0.954573 0.286421
O O7 0.789746 0.807842 0.018043
O O8 0.071821 0.702604 0.041368
O O9 0.187683 0.409380 0.270015
O O10 0.381062 0.112485 0.251403
O O11 0.830979 0.237224 0.218626
O O12 0.000000 0.000000 0.000000
O O13 0.134733 0.722396 0.481185
O O14 0.336414 0.901777 0.651359
O O15 0.500000 0.000000 0.500000
O O16 0.000000 0.500000 0.500000
#
# Coordination Sequence:
#
# PCOD9034517 Si02
#       7
#     2   2   2   2   2   2   2
#     4  12  26  47  76 110 148 196 260 314 369 454
#     4  11  24  49  79 104 147 202 255 304 378 457
#     4  12  26  50  76 107 150 202 256 305 375 461
#     4  10  22  44  78 106 143 198 253 304 369 455
#     4  11  24  48  74 107 150 196 248 310 380 452
#     4  12  28  47  76 109 153 197 247 314 387 443
#     4  12  29  46  74 116 157 191 249 319 384 446
#
# _framework density 22.775932999999998
#
# number of rings (size 3 to 8) (size 9 to 14) (size 15 to 20)
#    0.000    0.571    2.857    4.714    6.000    4.000 
#    0.000    0.000    0.000    0.000    0.000    0.000 
#    0.000    0.000    0.000    0.000    0.000    0.000 
#
# Total GULP energy -78160.785753 kJ/mol
# GULP energy per Si atom -5582.913268 kJ/mol
# Density = 2.272409 g / cm^3
# Si number density = 22.775933 Si / 1000 Ang^3
#
#
#
# Elastic Constant Matrix: (Units=GPa)
#
#
# Indices 1 2 3 4 5 6 
#
# 1 127.1336 44.3708 52.4511 -9.8454 -4.6706 -4.1020
# 2 44.3708 129.5020 87.7129 -8.1722 9.4802 9.2265
# 3 52.4511 87.7129 149.7091 -5.3773 -7.3402 14.7970
# 4 -9.8454 -8.1722 -5.3773 59.8175 12.4662 -0.9227
# 5 -4.6706 9.4802 -7.3402 12.4662 41.8505 -2.5713
# 6 -4.1020 9.2265 14.7970 -0.9227 -2.5713 18.3612
#
#
#
# Elastic Compliance Matrix: (Units=1/GPa)
#
#
# Indices 1 2 3 4 5 6 
#
# 1 0.010017 -0.001922 -0.002858 0.000986 0.001109 0.005712
# 2 -0.001922 0.014262 -0.007674 0.002063 -0.005534 -0.002083
# 3 -0.002858 -0.007674 0.012983 -0.001215 0.003641 -0.006797
# 4 0.000986 0.002063 -0.001215 0.018309 -0.006009 0.000241
# 5 0.001109 -0.005534 0.003641 -0.006009 0.027928 0.003703
# 6 0.005712 -0.002083 -0.006797 0.000241 0.003703 0.062794
#
#
# Mechanical properties :
#
#
# Convention : Reuss Voigt Hill
#
# Bulk Modulus (GPa) = 80.94249 86.15714 83.54982
# Shear Modulus (GPa) = 28.51951 38.79317 33.65634
#
# Velocity S-wave (km/s) = 3.54245 4.13153 3.84828
# Velocity P-wave (km/s) = 7.23517 7.78907 7.51722
#
# Compressibility (1/GPa) = 0.01235445
#
# Stress axis : x y z
#
# Youngs Moduli (GPa) = 99.82819 70.11845 77.02111
#
# Poissons Ratio (x) = 0.13479 0.22013
# Poissons Ratio (y) = 0.19190 0.59102
# Poissons Ratio (z) = 0.28532 0.53806
#
# Static dielectric constant tensor:
#      x y z
#    x 1.891320 0.049980 0.014050 
#    y 0.049980 1.929680 -0.012540 
#    z 0.014050 -0.012540 1.826780 
# 
# From -- ./inp_files/159839.got.cif
#   From: 2010.05.17/outbox.cif.g08.bks.cpg/sg2_80_cif.got.tgz:159839.got - 2010.06.03 11:33:40.
