data_PCOD9034919
_publ_section_title
;
Structure prediction by ZEFSAII (Michael W. Deem and Ramdas Pophale) SiO2 
 PCOD9034919
Probable space group: P -1
;
_chemical_formula_sum "Si O2"
_cell_formula_units_Z 16
_cell_length_a 11.294001
_cell_length_b 22.586767
_cell_length_c 4.896192
_cell_angle_alpha 74.179376
_cell_angle_beta 65.138954
_cell_angle_gamma 34.457009
_cell_volume 634.476743
_symmetry_space_group_name_H-M "P -1"
_symmetry_group_IT_number 2
_symmetry_cell_setting 'triclinic'
loop_
_space_group_symop_operation_xyz
x,y,z
-x,-y,-z
loop_
_atom_site_type_symbol
_atom_site_label
_atom_site_fract_x
_atom_site_fract_y
_atom_site_fract_z
Si Si1 0.712198 0.456767 0.977972
Si Si2 0.819199 0.866579 0.644944
Si Si3 0.796412 0.218425 0.272384
Si Si4 0.499990 0.337297 0.930398
Si Si5 0.568876 0.773534 0.775941
Si Si6 0.861545 0.010929 0.824825
Si Si7 0.501743 0.913029 0.292283
Si Si8 0.985928 0.679379 0.641553
O O1 0.871098 0.406335 0.627852
O O2 0.500000 0.500000 0.000000
O O3 0.657136 0.542961 0.070419
O O4 0.856478 0.368484 0.188261
O O5 0.027587 0.815642 0.661908
O O6 0.901483 0.778613 0.492895
O O7 0.660166 0.978439 0.515952
O O8 0.677780 0.885834 0.992030
O O9 0.601499 0.279801 0.608842
O O10 0.681313 0.292675 0.031139
O O11 0.945032 0.108888 0.117234
O O12 0.405524 0.309333 0.181458
O O13 0.590736 0.817403 0.467173
O O14 0.765791 0.721675 0.853406
O O15 0.305246 0.884912 0.963147
O O16 0.679429 0.040609 0.807747
O O17 0.000000 0.000000 0.500000
#
# Coordination Sequence:
#
# PCOD9034919 Si02
#       8
#     2   2   2   2   2   2   2   2
#     4  12  27  51  80 107 140 190 255 310 369 433
#     4  10  22  45  69 104 147 195 245 302 367 434
#     4  11  25  42  73 106 146 194 245 303 367 431
#     4  12  27  48  73 109 147 193 251 311 365 436
#     4  12  27  43  74 107 157 192 244 297 374 446
#     4  11  22  42  66 104 151 198 242 290 356 453
#     4  10  23  43  66 105 151 195 245 294 360 447
#     4  12  26  47  76 107 146 192 242 311 370 428
#
# _framework density 25.217628000000001
#
# number of rings (size 3 to 8) (size 9 to 14) (size 15 to 20)
#    0.000    0.750    2.500    4.125    3.500    3.500 
#    2.250    0.000    0.000    0.000    0.000    0.000 
#    0.000    0.000    0.000    0.000    0.000    0.000 
#
# Total GULP energy -89348.858858 kJ/mol
# GULP energy per Si atom -5584.303679 kJ/mol
# Density = 2.516023 g / cm^3
# Si number density = 25.217628 Si / 1000 Ang^3
#
#
#
# Elastic Constant Matrix: (Units=GPa)
#
#
# Indices 1 2 3 4 5 6 
#
# 1 130.5229 26.4259 22.1778 11.4824 -0.6896 6.9849
# 2 26.4259 109.8133 25.6542 2.5891 -3.6879 24.1815
# 3 22.1778 25.6542 105.5782 4.2378 -5.1994 -14.5068
# 4 11.4824 2.5891 4.2378 24.8267 -5.2270 -6.9006
# 5 -0.6896 -3.6879 -5.1994 -5.2270 33.1788 -14.4484
# 6 6.9849 24.1815 -14.5068 -6.9006 -14.4484 32.7334
#
#
#
# Elastic Compliance Matrix: (Units=1/GPa)
#
#
# Indices 1 2 3 4 5 6 
#
# 1 0.008972 -0.000280 -0.002545 -0.006063 -0.003702 -0.005748
# 2 -0.000280 0.014721 -0.006274 -0.007500 -0.008843 -0.019080
# 3 -0.002545 -0.006274 0.014122 0.006270 0.009912 0.017133
# 4 -0.006063 -0.007500 0.006270 0.056292 0.022587 0.031450
# 5 -0.003702 -0.008843 0.009912 0.022587 0.051210 0.039081
# 6 -0.005748 -0.019080 0.017133 0.031450 0.039081 0.077345
#
#
# Mechanical properties :
#
#
# Convention : Reuss Voigt Hill
#
# Bulk Modulus (GPa) = 50.98129 54.93666 52.95898
# Shear Modulus (GPa) = 20.21020 36.25822 28.23421
#
# Velocity S-wave (km/s) = 2.83403 3.79596 3.34971
# Velocity P-wave (km/s) = 5.56501 6.40662 6.00059
#
# Compressibility (1/GPa) = 0.01961504
#
# Stress axis : x y z
#
# Youngs Moduli (GPa) = 111.45696 67.92997 70.81395
#
# Poissons Ratio (x) = 0.01903 0.18024
# Poissons Ratio (y) = 0.03123 0.44431
# Poissons Ratio (z) = 0.28369 0.42622
#
# Static dielectric constant tensor:
#      x y z
#    x 2.020130 0.134170 0.034210 
#    y 0.134170 2.232130 0.070420 
#    z 0.034210 0.070420 2.016540 
# 
# From -- ./inp_files/84280.got.cif
#   From: 2010.05.17/outbox.cif.g08.bks.cpg/sg2_43_cif.got.tgz:84280.got - 2010.06.03 11:33:40.
