data_PCOD9034868
_publ_section_title
;
Structure prediction by ZEFSAII (Michael W. Deem and Ramdas Pophale) SiO2 
 PCOD9034868
Probable space group: P -1
;
_chemical_formula_sum "Si O2"
_cell_formula_units_Z 15
_cell_length_a 18.791327
_cell_length_b 15.912375
_cell_length_c 9.107647
_cell_angle_alpha 38.452514
_cell_angle_beta 129.342170
_cell_angle_gamma 156.783588
_cell_volume 625.418538
_symmetry_space_group_name_H-M "P -1"
_symmetry_group_IT_number 2
_symmetry_cell_setting 'triclinic'
loop_
_space_group_symop_operation_xyz
x,y,z
-x,-y,-z
loop_
_atom_site_type_symbol
_atom_site_label
_atom_site_fract_x
_atom_site_fract_y
_atom_site_fract_z
Si Si1 0.500000 0.000000 0.000000
Si Si2 0.134449 0.194541 0.049242
Si Si3 0.044329 0.358202 0.799282
Si Si4 0.496731 0.342748 0.270861
Si Si5 0.203643 0.651636 0.289063
Si Si6 0.654706 0.891519 0.076843
Si Si7 0.341920 0.278495 0.412469
Si Si8 0.805022 0.263877 0.265331
O O1 0.327261 0.707778 0.279365
O O2 0.672055 0.153471 0.115904
O O3 0.055581 0.211637 0.023217
O O4 0.331760 0.497862 0.816209
O O5 0.177963 0.117016 0.307233
O O6 0.000000 0.000000 0.000000
O O7 0.127200 0.506555 0.545962
O O8 0.163066 0.586257 0.769209
O O9 0.822392 0.112425 0.872996
O O10 0.488303 0.364430 0.404006
O O11 0.309483 0.014087 0.445907
O O12 0.500000 0.500000 0.000000
O O13 0.017176 0.481484 0.206669
O O14 0.365485 0.981399 0.065400
O O15 0.462596 0.568394 0.215582
O O16 0.730428 0.894439 0.304337
#
# Coordination Sequence:
#
# PCOD9034868 Si02
#       8
#     1   2   2   2   2   2   2   2
#     4  12  26  44  70 108 146 186 236 296 360 432
#     4  11  25  42  66 107 141 182 238 296 356 427
#     4  11  26  45  74 103 142 188 239 301 357 429
#     4  10  23  41  69  94 137 188 232 287 347 424
#     4  11  26  45  77 102 147 186 242 302 356 431
#     4  10  22  45  69 100 133 191 238 289 362 420
#     4  10  23  41  72  95 139 188 236 292 353 431
#     4  11  25  47  71 107 143 190 239 296 361 420
#
# _framework density 23.98394
#
# number of rings (size 3 to 8) (size 9 to 14) (size 15 to 20)
#    0.000    1.333    0.000    4.400   13.067    2.667 
#    4.800    0.000    0.000    0.000    0.000    0.000 
#    0.000    0.000    0.000    0.000    0.000    0.000 
#
# Total GULP energy -83590.814265 kJ/mol
# GULP energy per Si atom -5572.720951 kJ/mol
# Density = 2.392935 g / cm^3
# Si number density = 23.983940 Si / 1000 Ang^3
#
#
#
# Elastic Constant Matrix: (Units=GPa)
#
#
# Indices 1 2 3 4 5 6 
#
# 1 29.5144 13.8016 -3.9727 8.4652 14.7461 -0.4459
# 2 13.8016 95.6321 24.2486 18.3941 -6.1462 4.8597
# 3 -3.9727 24.2486 105.7533 14.0906 -15.3311 -8.1670
# 4 8.4652 18.3941 14.0906 44.9420 -8.9694 6.7432
# 5 14.7461 -6.1462 -15.3311 -8.9694 44.2400 -8.5587
# 6 -0.4459 4.8597 -8.1670 6.7432 -8.5587 29.8707
#
#
#
# Elastic Compliance Matrix: (Units=1/GPa)
#
#
# Indices 1 2 3 4 5 6 
#
# 1 0.050183 -0.006853 0.002084 -0.011066 -0.019317 -0.000603
# 2 -0.006853 0.012821 -0.002673 -0.002398 0.002322 -0.001713
# 3 0.002084 -0.002673 0.011428 -0.003006 0.003293 0.005213
# 4 -0.011066 -0.002398 -0.003006 0.028426 0.007114 -0.004976
# 5 -0.019317 0.002322 0.003293 0.007114 0.033543 0.008239
# 6 -0.000603 -0.001713 0.005213 -0.004976 0.008239 0.038656
#
#
# Mechanical properties :
#
#
# Convention : Reuss Voigt Hill
#
# Bulk Modulus (GPa) = 16.79359 33.22831 25.01095
# Shear Modulus (GPa) = 23.83323 36.93203 30.38263
#
# Velocity S-wave (km/s) = 3.15575 3.92837 3.56306
# Velocity P-wave (km/s) = 4.50506 5.87031 5.23240
#
# Compressibility (1/GPa) = 0.05954652
#
# Stress axis : x y z
#
# Youngs Moduli (GPa) = 19.92708 77.99595 87.50607
#
# Poissons Ratio (x) = 0.53453 -0.18236
# Poissons Ratio (y) = 0.13657 0.23394
# Poissons Ratio (z) = -0.04153 0.20852
#
# Static dielectric constant tensor:
#      x y z
#    x 2.500400 0.137890 -0.189210 
#    y 0.137890 1.935290 -0.003770 
#    z -0.189210 -0.003770 1.978810 
# 
# From -- ./inp_files/348263.got.cif
#   From: 2010.05.17/outbox.cif.g08.bks.cpg/sg2_175_cif.got.tgz:348263.got - 2010.06.03 11:33:40.
