data_PCOD9034329
_publ_section_title
;
Structure prediction by ZEFSAII (Michael W. Deem and Ramdas Pophale) SiO2 
 PCOD9034329
Probable space group: P -1
;
_chemical_formula_sum "Si O2"
_cell_formula_units_Z 16
_cell_length_a 14.457888
_cell_length_b 8.858995
_cell_length_c 8.966324
_cell_angle_alpha 69.127164
_cell_angle_beta 104.432074
_cell_angle_gamma 54.976244
_cell_volume 707.593735
_symmetry_space_group_name_H-M "P -1"
_symmetry_group_IT_number 2
_symmetry_cell_setting 'triclinic'
loop_
_space_group_symop_operation_xyz
x,y,z
-x,-y,-z
loop_
_atom_site_type_symbol
_atom_site_label
_atom_site_fract_x
_atom_site_fract_y
_atom_site_fract_z
Si Si1 0.045880 0.066987 0.362045
Si Si2 0.902460 0.735591 0.277135
Si Si3 0.073295 0.403099 0.219434
Si Si4 0.797550 0.217600 0.086072
Si Si5 0.351521 0.163244 0.804579
Si Si6 0.604953 0.992566 0.464644
Si Si7 0.683735 0.434662 0.286770
Si Si8 0.463449 0.504865 0.311635
O O1 0.043284 0.260568 0.324038
O O2 0.933069 0.165933 0.153397
O O3 0.206949 0.816816 0.494351
O O4 0.000000 0.000000 0.500000
O O5 0.758024 0.818122 0.165117
O O6 0.000000 0.500000 0.500000
O O7 0.998547 0.630875 0.208060
O O8 0.857299 0.965702 0.235230
O O9 0.238379 0.219700 0.336446
O O10 0.000000 0.500000 0.000000
O O11 0.709045 0.386757 0.136144
O O12 0.696946 0.326515 0.863942
O O13 0.378722 0.064797 0.684079
O O14 0.286805 0.422590 0.693590
O O15 0.500000 0.000000 0.000000
O O16 0.500000 0.000000 0.500000
O O17 0.545692 0.242928 0.385562
O O18 0.528122 0.571343 0.217726
O O19 0.500000 0.500000 0.500000
#
# Coordination Sequence:
#
# PCOD9034329 Si02
#       8
#     2   2   2   2   2   2   2   2
#     4  10  22  44  73 103 137 186 241 296 361 432
#     4  12  23  45  72 109 144 186 249 305 370 433
#     4  12  28  47  75 107 151 196 241 311 373 441
#     4  11  24  41  73 104 137 181 237 302 355 430
#     4  12  25  42  75 106 141 188 252 302 360 436
#     4  12  28  49  70 101 150 195 241 301 377 436
#     4  11  21  44  67 101 138 178 238 297 359 420
#     4  12  26  45  68  96 143 188 240 285 358 441
#
# _framework density 22.611846
#
# number of rings (size 3 to 8) (size 9 to 14) (size 15 to 20)
#    0.000    0.500    2.500    7.125    5.250    0.000 
#    0.000    1.250    0.000    0.000    0.000    0.000 
#    0.000    0.000    0.000    0.000    0.000    0.000 
#
# Total GULP energy -89483.886873 kJ/mol
# GULP energy per Si atom -5592.742930 kJ/mol
# Density = 2.256038 g / cm^3
# Si number density = 22.611846 Si / 1000 Ang^3
#
#
#
# Elastic Constant Matrix: (Units=GPa)
#
#
# Indices 1 2 3 4 5 6 
#
# 1 101.3163 14.2537 6.7271 -14.3289 25.8132 7.9693
# 2 14.2537 127.3526 37.5555 2.0009 -4.5962 25.9880
# 3 6.7271 37.5555 143.7610 5.9744 37.5959 -12.4772
# 4 -14.3289 2.0009 5.9744 27.9798 -5.8480 8.9106
# 5 25.8132 -4.5962 37.5959 -5.8480 43.2404 -2.1359
# 6 7.9693 25.9880 -12.4772 8.9106 -2.1359 32.1917
#
#
#
# Elastic Compliance Matrix: (Units=1/GPa)
#
#
# Indices 1 2 3 4 5 6 
#
# 1 0.013389 -0.001640 0.001572 0.005926 -0.008911 -0.003613
# 2 -0.001640 0.013255 -0.007150 0.006075 0.008727 -0.014169
# 3 0.001572 -0.007150 0.013916 -0.008535 -0.014350 0.012187
# 4 0.005926 0.006075 -0.008535 0.049508 0.010103 -0.022713
# 5 -0.008911 0.008727 -0.014350 0.010103 0.042705 -0.010364
# 6 -0.003613 -0.014169 0.012187 -0.022713 -0.010364 0.053720
#
#
# Mechanical properties :
#
#
# Convention : Reuss Voigt Hill
#
# Bulk Modulus (GPa) = 38.27811 54.38917 46.33364
# Shear Modulus (GPa) = 23.85085 41.60863 32.72974
#
# Velocity S-wave (km/s) = 3.25128 4.29432 3.80868
# Velocity P-wave (km/s) = 5.57311 6.97810 6.31480
#
# Compressibility (1/GPa) = 0.02612459
#
# Stress axis : x y z
#
# Youngs Moduli (GPa) = 74.68761 75.44227 71.86189
#
# Poissons Ratio (x) = 0.12370 -0.11299
# Poissons Ratio (y) = 0.12246 0.51384
# Poissons Ratio (z) = -0.11744 0.53944
#
# Static dielectric constant tensor:
#      x y z
#    x 1.874850 -0.006790 0.008330 
#    y -0.006790 1.827140 -0.046940 
#    z 0.008330 -0.046940 1.872940 
# 
# From -- ./inp_files/298290.got.cif
#   From: 2010.05.17/outbox.cif.g08.bks.cpg/sg2_150_cif.got.tgz:298290.got - 2010.06.03 11:33:40.
