data_PCOD9034511
_publ_section_title
;
Structure prediction by ZEFSAII (Michael W. Deem and Ramdas Pophale) SiO2 
 PCOD9034511
Probable space group: P -1
;
_chemical_formula_sum "Si O2"
_cell_formula_units_Z 14
_cell_length_a 9.491076
_cell_length_b 11.327764
_cell_length_c 7.971276
_cell_angle_alpha 88.396506
_cell_angle_beta 88.053565
_cell_angle_gamma 43.325272
_cell_volume 587.684420
_symmetry_space_group_name_H-M "P -1"
_symmetry_group_IT_number 2
_symmetry_cell_setting 'triclinic'
loop_
_space_group_symop_operation_xyz
x,y,z
-x,-y,-z
loop_
_atom_site_type_symbol
_atom_site_label
_atom_site_fract_x
_atom_site_fract_y
_atom_site_fract_z
Si Si1 0.318829 0.446021 0.898929
Si Si2 0.078187 0.930506 0.755504
Si Si3 0.194724 0.110519 0.359925
Si Si4 0.559843 0.194813 0.413784
Si Si5 0.593517 0.840650 0.889594
Si Si6 0.761355 0.278645 0.907639
Si Si7 0.870602 0.462347 0.464006
O O1 0.540978 0.368435 0.847168
O O2 0.194432 0.512091 0.729319
O O3 0.330925 0.310548 0.988501
O O4 0.235563 0.588558 0.036111
O O5 0.239420 0.845490 0.602010
O O6 0.916982 0.924265 0.735111
O O7 0.204360 0.817242 0.919570
O O8 0.945444 0.127350 0.787748
O O9 0.248135 0.187658 0.236072
O O10 0.030448 0.258896 0.495327
O O11 0.396873 0.929126 0.440646
O O12 0.556897 0.128840 0.239515
O O13 0.347047 0.393243 0.437823
O O14 0.500000 0.000000 0.000000
O O15 0.000000 0.500000 0.500000
#
# Coordination Sequence:
#
# PCOD9034511 Si02
#       7
#     2   2   2   2   2   2   2
#     4  11  24  47  75 110 147 191 247 310 363 437
#     4  11  23  47  73 109 142 194 249 299 370 438
#     4  12  27  49  74 109 152 194 242 307 368 443
#     4  12  27  48  72 105 151 197 242 302 371 437
#     4  12  26  44  75 107 144 195 244 299 372 431
#     4  10  22  44  77 109 147 185 247 316 361 428
#     4  12  27  48  71 105 152 195 242 298 370 448
#
# _framework density 23.822308
#
# number of rings (size 3 to 8) (size 9 to 14) (size 15 to 20)
#    0.000    0.571    4.286    3.429    4.000    2.286 
#    0.000    0.000    0.000    0.000    0.000    0.000 
#    0.000    0.000    0.000    0.000    0.000    0.000 
#
# Total GULP energy -78351.386360 kJ/mol
# GULP energy per Si atom -5596.527597 kJ/mol
# Density = 2.376809 g / cm^3
# Si number density = 23.822308 Si / 1000 Ang^3
#
#
#
# Elastic Constant Matrix: (Units=GPa)
#
#
# Indices 1 2 3 4 5 6 
#
# 1 83.4531 17.2166 21.9754 2.9597 -3.1011 16.6787
# 2 17.2166 120.9375 6.8952 37.2861 -8.1600 11.3802
# 3 21.9754 6.8952 50.0032 -3.3168 0.1301 7.6921
# 4 2.9597 37.2861 -3.3168 30.9576 -2.7323 6.4555
# 5 -3.1011 -8.1600 0.1301 -2.7323 39.6882 -4.5882
# 6 16.6787 11.3802 7.6921 6.4555 -4.5882 34.9066
#
#
#
# Elastic Compliance Matrix: (Units=1/GPa)
#
#
# Indices 1 2 3 4 5 6 
#
# 1 0.014803 -0.001610 -0.005357 0.001130 0.000281 -0.005540
# 2 -0.001610 0.013874 -0.002324 -0.016676 0.001592 0.000051
# 3 -0.005357 -0.002324 0.023592 0.006424 -0.000900 -0.003188
# 4 0.001130 -0.016676 0.006424 0.054312 -0.000387 -0.006614
# 5 0.000281 0.001592 -0.000900 -0.000387 0.025871 0.003017
# 6 -0.005540 0.000051 -0.003188 -0.006614 0.003017 0.033600
#
#
# Mechanical properties :
#
#
# Convention : Reuss Voigt Hill
#
# Bulk Modulus (GPa) = 29.68443 38.50757 34.09600
# Shear Modulus (GPa) = 25.52781 34.99759 30.26270
#
# Velocity S-wave (km/s) = 3.27707 3.83706 3.56807
# Velocity P-wave (km/s) = 5.17752 5.98584 5.59629
#
# Compressibility (1/GPa) = 0.03368769
#
# Stress axis : x y z
#
# Youngs Moduli (GPa) = 67.55313 72.07554 42.38649
#
# Poissons Ratio (x) = 0.11605 0.22708
# Poissons Ratio (y) = 0.10877 0.09850
# Poissons Ratio (z) = 0.36190 0.16749
#
# Static dielectric constant tensor:
#      x y z
#    x 1.910550 -0.021400 -0.028200 
#    y -0.021400 1.943820 0.038460 
#    z -0.028200 0.038460 1.926090 
# 
# From -- ./inp_files/187557.got.cif
#   From: 2010.05.17/outbox.cif.g08.bks.cpg/sg2_94_cif.got.tgz:187557.got - 2010.06.03 11:33:40.
