data_PCOD9034294
_publ_section_title
;
Structure prediction by ZEFSAII (Michael W. Deem and Ramdas Pophale) SiO2 
 PCOD9034294
Probable space group: P -1
;
_chemical_formula_sum "Si O2"
_cell_formula_units_Z 16
_cell_length_a 8.042598
_cell_length_b 16.808222
_cell_length_c 6.719430
_cell_angle_alpha 90.222978
_cell_angle_beta 75.436104
_cell_angle_gamma 52.842549
_cell_volume 686.233542
_symmetry_space_group_name_H-M "P -1"
_symmetry_group_IT_number 2
_symmetry_cell_setting 'triclinic'
loop_
_space_group_symop_operation_xyz
x,y,z
-x,-y,-z
loop_
_atom_site_type_symbol
_atom_site_label
_atom_site_fract_x
_atom_site_fract_y
_atom_site_fract_z
Si Si1 0.032171 0.051488 0.805480
Si Si2 0.758564 0.763037 0.080929
Si Si3 0.284816 0.953504 0.348572
Si Si4 0.115715 0.373007 0.630318
Si Si5 0.437050 0.659560 0.531597
Si Si6 0.971926 0.581515 0.793399
Si Si7 0.450735 0.500269 0.788119
Si Si8 0.028967 0.158775 0.168550
O O1 0.840625 0.087569 0.704917
O O2 0.241556 0.976898 0.597558
O O3 0.032779 0.130918 0.934117
O O4 0.000000 0.000000 0.000000
O O5 0.534054 0.868784 0.212226
O O6 0.889961 0.705275 0.242031
O O7 0.760306 0.675559 0.975600
O O8 0.870201 0.783511 0.878540
O O9 0.175500 0.058641 0.261515
O O10 0.366399 0.334045 0.543981
O O11 0.034810 0.388696 0.432019
O O12 0.983843 0.482964 0.775841
O O13 0.499632 0.569538 0.662841
O O14 0.413730 0.614463 0.337769
O O15 0.216102 0.765440 0.672854
O O16 0.197074 0.551085 0.817134
O O17 0.500000 0.500000 0.000000
#
# Coordination Sequence:
#
# PCOD9034294 Si02
#       8
#     2   2   2   2   2   2   2   2
#     4   9  22  43  68  93 132 173 229 283 340 402
#     4  12  25  41  68 103 137 184 224 284 349 407
#     4  10  24  43  69 100 135 179 229 288 339 415
#     4  10  25  42  70  94 145 183 232 280 340 408
#     4  10  23  42  66 106 131 184 232 282 336 414
#     4  10  23  47  64 102 139 183 228 284 341 414
#     4  10  22  44  72  98 139 177 231 284 347 408
#     4  11  24  44  67 101 141 176 234 282 346 405
#
# _framework density 23.315674999999999
#
# number of rings (size 3 to 8) (size 9 to 14) (size 15 to 20)
#    0.000    1.750    1.250    0.750    7.000    9.500 
#    0.000    0.000    0.000    0.000    0.000    0.000 
#    0.000    0.000    0.000    0.000    0.000    0.000 
#
# Total GULP energy -89428.302279 kJ/mol
# GULP energy per Si atom -5589.268892 kJ/mol
# Density = 2.326261 g / cm^3
# Si number density = 23.315675 Si / 1000 Ang^3
#
#
#
# Elastic Constant Matrix: (Units=GPa)
#
#
# Indices 1 2 3 4 5 6 
#
# 1 53.0179 30.6567 43.9435 2.9798 -0.9832 -4.5449
# 2 30.6567 123.4319 64.0065 17.8139 -3.6029 -9.8647
# 3 43.9435 64.0065 171.1333 18.3256 10.9786 -10.4327
# 4 2.9798 17.8139 18.3256 48.0171 2.9589 -10.7070
# 5 -0.9832 -3.6029 10.9786 2.9589 40.5733 1.0939
# 6 -4.5449 -9.8647 -10.4327 -10.7070 1.0939 22.3414
#
#
#
# Elastic Compliance Matrix: (Units=1/GPa)
#
#
# Indices 1 2 3 4 5 6 
#
# 1 0.025526 -0.003648 -0.005399 0.002189 0.001541 0.002034
# 2 -0.003648 0.011083 -0.002966 -0.002542 0.001844 0.001458
# 3 -0.005399 -0.002966 0.008737 -0.001491 -0.002679 0.001088
# 4 0.002189 -0.002542 -0.001491 0.024666 -0.001852 0.010538
# 5 0.001541 0.001844 -0.002679 -0.001852 0.025769 -0.002272
# 6 0.002034 0.001458 0.001088 0.010538 -0.002272 0.051488
#
#
# Mechanical properties :
#
#
# Convention : Reuss Voigt Hill
#
# Bulk Modulus (GPa) = 46.90545 69.42181 58.16363
# Shear Modulus (GPa) = 28.02662 36.11812 32.07237
#
# Velocity S-wave (km/s) = 3.47082 3.94012 3.71289
# Velocity P-wave (km/s) = 6.01859 7.10906 6.58643
#
# Compressibility (1/GPa) = 0.02131949
#
# Stress axis : x y z
#
# Youngs Moduli (GPa) = 39.17537 90.22988 114.45736
#
# Poissons Ratio (x) = 0.32920 0.61799
# Poissons Ratio (y) = 0.14293 0.33943
# Poissons Ratio (z) = 0.21152 0.26758
#
# Static dielectric constant tensor:
#      x y z
#    x 1.948610 0.049810 -0.020180 
#    y 0.049810 1.910710 0.017330 
#    z -0.020180 0.017330 1.929690 
# 
# From -- ./inp_files/47785.got.cif
#   From: 2010.05.17/outbox.cif.g08.bks.cpg/sg2_24_cif.got.tgz:47785.got - 2010.06.03 11:33:40.
