data_PCOD9034130
_publ_section_title
;
Structure prediction by ZEFSAII (Michael W. Deem and Ramdas Pophale) SiO2 
 PCOD9034130
Probable space group: P -1
;
_chemical_formula_sum "Si O2"
_cell_formula_units_Z 16
_cell_length_a 16.173650
_cell_length_b 6.088277
_cell_length_c 18.900920
_cell_angle_alpha 74.285933
_cell_angle_beta 157.590671
_cell_angle_gamma 108.644610
_cell_volume 670.704398
_symmetry_space_group_name_H-M "P -1"
_symmetry_group_IT_number 2
_symmetry_cell_setting 'triclinic'
loop_
_space_group_symop_operation_xyz
x,y,z
-x,-y,-z
loop_
_atom_site_type_symbol
_atom_site_label
_atom_site_fract_x
_atom_site_fract_y
_atom_site_fract_z
Si Si1 0.948443 0.135601 0.516911
Si Si2 0.151268 0.453275 0.834106
Si Si3 0.176307 0.976930 0.327812
Si Si4 0.541998 0.222096 0.691245
Si Si5 0.763748 0.656284 0.459981
Si Si6 0.130699 0.676687 0.946693
Si Si7 0.096465 0.789775 0.130943
Si Si8 0.353428 0.494387 0.776148
O O1 0.761497 0.282623 0.338971
O O2 0.180869 0.304918 0.699591
O O3 0.857433 0.931904 0.516703
O O4 0.000000 0.000000 0.500000
O O5 0.029825 0.203104 0.787416
O O6 0.973528 0.533605 0.635384
O O7 0.165874 0.631090 0.896573
O O8 0.398514 0.459827 0.004436
O O9 0.218422 0.882216 0.292158
O O10 0.380780 0.020291 0.539148
O O11 0.088109 0.216227 0.227613
O O12 0.393975 0.397527 0.591842
O O13 0.669609 0.161247 0.867924
O O14 0.736154 0.301460 0.781869
O O15 0.643796 0.594596 0.295790
O O16 0.091898 0.425306 0.975815
O O17 0.000000 0.000000 0.000000
#
# Coordination Sequence:
#
# PCOD9034130 Si02
#       8
#     2   2   2   2   2   2   2   2
#     4   9  22  44  68 102 132 171 218 262 334 400
#     4  11  25  42  67 101 135 172 224 274 328 396
#     4  11  26  43  62  99 135 175 228 272 334 393
#     4  12  24  43  69  93 134 179 219 284 328 386
#     4  11  24  40  68 102 130 172 228 269 331 397
#     4  11  24  45  64  97 131 174 225 277 331 392
#     4  11  25  44  66  95 133 176 229 275 335 393
#     4  10  22  44  71  95 136 175 211 274 330 393
#
# _framework density 23.855513999999999
#
# number of rings (size 3 to 8) (size 9 to 14) (size 15 to 20)
#    0.000    1.250    3.750    0.750    3.500    2.000 
#    0.000    5.625    0.000    0.000    0.000    0.000 
#    0.000    0.000    0.000    0.000    0.000    0.000 
#
# Total GULP energy -89462.918929 kJ/mol
# GULP energy per Si atom -5591.432433 kJ/mol
# Density = 2.380122 g / cm^3
# Si number density = 23.855514 Si / 1000 Ang^3
#
#
#
# Elastic Constant Matrix: (Units=GPa)
#
#
# Indices 1 2 3 4 5 6 
#
# 1 94.9468 7.9937 25.8462 10.7712 1.9131 -27.8732
# 2 7.9937 64.6539 10.1151 -9.4173 -4.9189 6.3016
# 3 25.8462 10.1151 123.2058 19.0287 -2.3670 -0.6870
# 4 10.7712 -9.4173 19.0287 22.9380 -11.4882 -9.1989
# 5 1.9131 -4.9189 -2.3670 -11.4882 42.4316 6.6493
# 6 -27.8732 6.3016 -0.6870 -9.1989 6.6493 33.6620
#
#
#
# Elastic Compliance Matrix: (Units=1/GPa)
#
#
# Indices 1 2 3 4 5 6 
#
# 1 0.016131 -0.003851 -0.002493 -0.003779 -0.004512 0.013886
# 2 -0.003851 0.019288 -0.002766 0.013550 0.006623 -0.004462
# 3 -0.002493 -0.002766 0.010562 -0.011380 -0.002068 -0.004033
# 4 -0.003779 0.013550 -0.011380 0.074429 0.019601 0.010570
# 5 -0.004512 0.006623 -0.002068 0.019601 0.030625 -0.005711
# 6 0.013886 -0.004462 -0.004033 0.010570 -0.005711 0.045975
#
#
# Mechanical properties :
#
#
# Convention : Reuss Voigt Hill
#
# Bulk Modulus (GPa) = 36.02326 41.19071 38.60699
# Shear Modulus (GPa) = 22.27317 35.72975 29.00146
#
# Velocity S-wave (km/s) = 3.05892 3.87428 3.49049
# Velocity P-wave (km/s) = 5.25446 6.10882 5.69768
#
# Compressibility (1/GPa) = 0.02775984
#
# Stress axis : x y z
#
# Youngs Moduli (GPa) = 61.99135 51.84500 94.67926
#
# Poissons Ratio (x) = 0.19968 0.23608
# Poissons Ratio (y) = 0.23875 0.26188
# Poissons Ratio (z) = 0.15457 0.14340
#
# Static dielectric constant tensor:
#      x y z
#    x 1.927110 0.015690 0.014180 
#    y 0.015690 1.912910 0.028400 
#    z 0.014180 0.028400 1.916740 
# 
# From -- ./inp_files/139423.got.cif
#   From: 2010.05.17/outbox.cif.g08.bks.cpg/sg2_70_cif.got.tgz:139423.got - 2010.06.03 11:33:40.
