data_PCOD9034942
_publ_section_title
;
Structure prediction by ZEFSAII (Michael W. Deem and Ramdas Pophale) SiO2 
 PCOD9034942
Probable space group: P -1
;
_chemical_formula_sum "Si O2"
_cell_formula_units_Z 14
_cell_length_a 20.112101
_cell_length_b 9.324997
_cell_length_c 20.004540
_cell_angle_alpha 28.579229
_cell_angle_beta 159.443029
_cell_angle_gamma 150.904150
_cell_volume 599.769525
_symmetry_space_group_name_H-M "P -1"
_symmetry_group_IT_number 2
_symmetry_cell_setting 'triclinic'
loop_
_space_group_symop_operation_xyz
x,y,z
-x,-y,-z
loop_
_atom_site_type_symbol
_atom_site_label
_atom_site_fract_x
_atom_site_fract_y
_atom_site_fract_z
Si Si1 0.044293 0.737502 0.505942
Si Si2 0.635277 0.474578 0.700321
Si Si3 0.008112 0.198364 0.020589
Si Si4 0.812551 0.173106 0.143199
Si Si5 0.041883 0.500313 0.334281
Si Si6 0.500306 0.829279 0.897027
Si Si7 0.362167 0.718221 0.440659
O O1 0.278357 0.834252 0.694230
O O2 0.000000 0.500000 0.500000
O O3 0.935412 0.565381 0.540409
O O4 0.969211 0.039018 0.305559
O O5 0.500000 0.500000 0.500000
O O6 0.510408 0.572224 0.601920
O O7 0.619056 0.110730 0.844479
O O8 0.867100 0.686669 0.839479
O O9 0.145321 0.472067 0.989439
O O10 0.786458 0.199282 0.788596
O O11 0.016006 0.846317 0.161726
O O12 0.858760 0.224593 0.243524
O O13 0.608633 0.924620 0.030755
O O14 0.219921 0.503103 0.450770
O O15 0.500000 0.500000 0.000000
O O16 0.500000 0.000000 0.500000
#
# Coordination Sequence:
#
# PCOD9034942 Si02
#       7
#     2   2   2   2   2   2   2
#     4  12  26  45  67  96 142 181 222 279 339 410
#     4  11  26  43  71 102 137 181 229 280 342 405
#     4  10  23  44  70 104 138 168 231 287 338 401
#     4  10  22  45  69  94 136 176 225 278 341 402
#     4  11  24  45  71 102 134 177 226 285 345 400
#     4  11  24  44  67  95 138 180 226 278 335 403
#     4  11  22  43  71 102 140 174 220 288 344 404
#
# _framework density 23.342300000000002
#
# number of rings (size 3 to 8) (size 9 to 14) (size 15 to 20)
#    0.000    1.143    2.857    3.857    4.000    2.286 
#    2.571    0.000    0.000    0.000    0.000    0.000 
#    0.000    0.000    0.000    0.000    0.000    0.000 
#
# Total GULP energy -78154.795657 kJ/mol
# GULP energy per Si atom -5582.485404 kJ/mol
# Density = 2.328917 g / cm^3
# Si number density = 23.342300 Si / 1000 Ang^3
#
#
#
# Elastic Constant Matrix: (Units=GPa)
#
#
# Indices 1 2 3 4 5 6 
#
# 1 80.5511 39.2406 30.8638 3.5743 -16.7360 -25.9741
# 2 39.2406 167.7184 59.4801 13.4635 -10.1485 -41.4094
# 3 30.8638 59.4801 131.5768 27.7998 -1.9029 -14.8662
# 4 3.5743 13.4635 27.7998 55.8715 -1.4457 -5.7674
# 5 -16.7360 -10.1485 -1.9029 -1.4457 33.6970 8.8247
# 6 -25.9741 -41.4094 -14.8662 -5.7674 8.8247 29.2682
#
#
#
# Elastic Compliance Matrix: (Units=1/GPa)
#
#
# Indices 1 2 3 4 5 6 
#
# 1 0.019382 0.000554 -0.003462 0.002035 0.005788 0.014882
# 2 0.000554 0.010323 -0.003383 0.000554 -0.000342 0.013591
# 3 -0.003462 -0.003383 0.010551 -0.004556 -0.001572 -0.002923
# 4 0.002035 0.000554 -0.004556 0.020340 0.000729 0.004065
# 5 0.005788 -0.000342 -0.001572 0.000729 0.034030 -0.006264
# 6 0.014882 0.013591 -0.002923 0.004065 -0.006264 0.067808
#
#
# Mechanical properties :
#
#
# Convention : Reuss Voigt Hill
#
# Bulk Modulus (GPa) = 36.13407 71.00171 53.56789
# Shear Modulus (GPa) = 27.13859 40.45146 33.79502
#
# Velocity S-wave (km/s) = 3.41344 4.16741 3.80913
# Velocity P-wave (km/s) = 5.57218 7.32394 6.50727
#
# Compressibility (1/GPa) = 0.02767471
#
# Stress axis : x y z
#
# Youngs Moduli (GPa) = 51.59438 96.87261 94.77815
#
# Poissons Ratio (x) = -0.05369 0.32809
# Poissons Ratio (y) = -0.02859 0.32064
# Poissons Ratio (z) = 0.17860 0.32772
#
# Static dielectric constant tensor:
#      x y z
#    x 1.925080 0.009810 -0.071310 
#    y 0.009810 1.940820 0.070980 
#    z -0.071310 0.070980 1.979350 
# 
# From -- ./inp_files/601270.got.cif
#   From: 2010.05.17/outbox.cif.g08.bks.cpg/sg2_301_cif.got.tgz:601270.got - 2010.06.03 11:33:40.
