data_PCOD9034821
_publ_section_title
;
Structure prediction by ZEFSAII (Michael W. Deem and Ramdas Pophale) SiO2 
 PCOD9034821
Probable space group: P -1
;
_chemical_formula_sum "Si O2"
_cell_formula_units_Z 16
_cell_length_a 11.138083
_cell_length_b 11.679313
_cell_length_c 6.316828
_cell_angle_alpha 64.447648
_cell_angle_beta 107.156729
_cell_angle_gamma 103.137930
_cell_volume 703.576824
_symmetry_space_group_name_H-M "P -1"
_symmetry_group_IT_number 2
_symmetry_cell_setting 'triclinic'
loop_
_space_group_symop_operation_xyz
x,y,z
-x,-y,-z
loop_
_atom_site_type_symbol
_atom_site_label
_atom_site_fract_x
_atom_site_fract_y
_atom_site_fract_z
Si Si1 0.637457 0.250052 0.367661
Si Si2 0.993670 0.855105 0.030170
Si Si3 0.704329 0.474504 0.534247
Si Si4 0.078145 0.306553 0.485745
Si Si5 0.507557 0.356521 0.849259
Si Si6 0.523608 0.891323 0.267448
Si Si7 0.194264 0.100131 0.451902
Si Si8 0.852711 0.182624 0.236810
O O1 0.709522 0.354120 0.479126
O O2 0.580555 0.135332 0.581071
O O3 0.723471 0.211266 0.250841
O O4 0.527696 0.312315 0.134327
O O5 0.867466 0.840681 0.830500
O O6 0.121349 0.839298 0.977549
O O7 0.978252 0.744729 0.281451
O O8 0.000000 0.000000 0.000000
O O9 0.836329 0.559933 0.569094
O O10 0.634908 0.432853 0.753226
O O11 0.607264 0.559934 0.301785
O O12 0.161775 0.194864 0.545584
O O13 0.960254 0.293327 0.275823
O O14 0.480190 0.236495 0.773276
O O15 0.658427 0.912301 0.437921
O O16 0.500000 0.000000 0.000000
O O17 0.125326 0.955781 0.547098
#
# Coordination Sequence:
#
# PCOD9034821 Si02
#       8
#     2   2   2   2   2   2   2   2
#     4  11  26  44  67 100 139 184 221 277 345 402
#     4  11  21  40  68  96 130 182 225 279 334 400
#     4  10  23  43  69  97 130 183 234 278 330 397
#     4  11  22  41  68  97 131 175 228 283 333 392
#     4  10  22  45  68  95 138 179 231 282 324 402
#     4  11  25  42  68 105 140 176 220 279 347 409
#     4  11  22  39  65  99 133 170 228 273 338 410
#     4  11  24  41  62  99 138 172 226 274 343 406
#
# _framework density 22.740940999999999
#
# number of rings (size 3 to 8) (size 9 to 14) (size 15 to 20)
#    0.000    1.250    3.750    1.875    1.750    8.500 
#    0.000    1.250    0.000    0.000    0.000    0.000 
#    0.000    0.000    0.000    0.000    0.000    0.000 
#
# Total GULP energy -89436.160630 kJ/mol
# GULP energy per Si atom -5589.760039 kJ/mol
# Density = 2.268918 g / cm^3
# Si number density = 22.740941 Si / 1000 Ang^3
#
#
#
# Elastic Constant Matrix: (Units=GPa)
#
#
# Indices 1 2 3 4 5 6 
#
# 1 102.0153 39.6578 26.2001 1.9248 -11.4587 0.1315
# 2 39.6578 77.0476 16.1128 3.2243 -12.2097 13.8093
# 3 26.2001 16.1128 89.1268 -4.0075 -8.5989 -0.5474
# 4 1.9248 3.2243 -4.0075 26.4367 -0.8078 -0.4113
# 5 -11.4587 -12.2097 -8.5989 -0.8078 24.8450 -1.9260
# 6 0.1315 13.8093 -0.5474 -0.4113 -1.9260 39.6873
#
#
#
# Elastic Compliance Matrix: (Units=1/GPa)
#
#
# Indices 1 2 3 4 5 6 
#
# 1 0.013142 -0.006252 -0.002522 -0.000473 0.002271 0.002202
# 2 -0.006252 0.018450 -0.001114 -0.001899 0.005257 -0.006179
# 3 -0.002522 -0.001114 0.012537 0.002316 0.002761 0.000727
# 4 -0.000473 -0.001899 0.002316 0.038491 0.000990 0.001141
# 5 0.002271 0.005257 0.002761 0.000990 0.044899 0.000390
# 6 0.002202 -0.006179 0.000727 0.001141 0.000390 0.027380
#
#
# Mechanical properties :
#
#
# Convention : Reuss Voigt Hill
#
# Bulk Modulus (GPa) = 41.05997 48.01456 44.53726
# Shear Modulus (GPa) = 27.35349 30.60841 28.98095
#
# Velocity S-wave (km/s) = 3.47195 3.67271 3.57374
# Velocity P-wave (km/s) = 5.84528 6.25657 6.05442
#
# Compressibility (1/GPa) = 0.02435462
#
# Stress axis : x y z
#
# Youngs Moduli (GPa) = 76.09401 54.20075 79.76086
#
# Poissons Ratio (x) = 0.33886 0.20112
# Poissons Ratio (y) = 0.47573 0.08883
# Poissons Ratio (z) = 0.19187 0.06037
#
# Static dielectric constant tensor:
#      x y z
#    x 1.890500 -0.013280 -0.005340 
#    y -0.013280 1.841730 0.019210 
#    z -0.005340 0.019210 1.855860 
# 
# From -- ./inp_files/68666.got.cif
#   From: 2010.05.17/outbox.cif.g08.bks.cpg/sg2_35_cif.got.tgz:68666.got - 2010.06.03 11:33:40.
