data_PCOD9034823
_publ_section_title
;
Structure prediction by ZEFSAII (Michael W. Deem and Ramdas Pophale) SiO2 
 PCOD9034823
Probable space group: P -1
;
_chemical_formula_sum "Si O2"
_cell_formula_units_Z 16
_cell_length_a 8.925351
_cell_length_b 11.640440
_cell_length_c 14.461994
_cell_angle_alpha 103.586086
_cell_angle_beta 147.575066
_cell_angle_gamma 73.064235
_cell_volume 770.531429
_symmetry_space_group_name_H-M "P -1"
_symmetry_group_IT_number 2
_symmetry_cell_setting 'triclinic'
loop_
_space_group_symop_operation_xyz
x,y,z
-x,-y,-z
loop_
_atom_site_type_symbol
_atom_site_label
_atom_site_fract_x
_atom_site_fract_y
_atom_site_fract_z
Si Si1 0.151916 0.473994 0.978270
Si Si2 0.061041 0.222564 0.798542
Si Si3 0.183206 0.593326 0.651660
Si Si4 0.226942 0.972444 0.300462
Si Si5 0.471039 0.005621 0.726681
Si Si6 0.758735 0.384552 0.108411
Si Si7 0.648143 0.125374 0.021202
Si Si8 0.100690 0.808862 0.504943
O O1 0.485074 0.460604 0.173043
O O2 0.086683 0.351831 0.876036
O O3 0.063800 0.580218 0.878201
O O4 0.000000 0.500000 0.000000
O O5 0.852241 0.154420 0.734737
O O6 0.972659 0.226951 0.644831
O O7 0.379161 0.143049 0.952065
O O8 0.092123 0.628844 0.716554
O O9 0.159242 0.700828 0.586857
O O10 0.000000 0.500000 0.500000
O O11 0.309196 0.982484 0.238086
O O12 0.500000 0.000000 0.500000
O O13 0.956245 0.070678 0.209358
O O14 0.176237 0.101305 0.583533
O O15 0.365319 0.878724 0.649431
O O16 0.599372 0.038627 0.896161
O O17 0.649744 0.260562 0.011093
O O18 0.500000 0.500000 0.000000
#
# Coordination Sequence:
#
# PCOD9034823 Si02
#       8
#     2   2   2   2   2   2   2   2
#     4  11  26  45  67 101 134 178 224 287 341 399
#     4  11  23  46  70  94 142 181 226 277 339 419
#     4  11  24  41  73  95 126 176 232 277 331 404
#     4  12  26  42  65 106 141 172 228 285 342 390
#     4  10  24  42  65 102 142 176 222 281 335 411
#     4  10  22  45  68  96 130 174 234 269 329 410
#     4  11  24  42  74  93 135 189 223 275 339 417
#     4  10  23  43  69  99 138 179 226 277 342 401
#
# _framework density 20.764890000000001
#
# number of rings (size 3 to 8) (size 9 to 14) (size 15 to 20)
#    0.000    1.250    3.750    1.500   10.500    1.000 
#    0.000    1.250    0.000    0.000    0.000    0.000 
#    0.000    0.000    0.000    0.000    0.000    0.000 
#
# Total GULP energy -89412.506320 kJ/mol
# GULP energy per Si atom -5588.281645 kJ/mol
# Density = 2.071763 g / cm^3
# Si number density = 20.764890 Si / 1000 Ang^3
#
#
#
# Elastic Constant Matrix: (Units=GPa)
#
#
# Indices 1 2 3 4 5 6 
#
# 1 156.9899 55.7819 50.6591 18.1095 -7.7730 29.3086
# 2 55.7819 82.9985 63.8620 26.7687 -10.4983 20.2760
# 3 50.6591 63.8620 121.3363 25.6561 2.1171 14.0626
# 4 18.1095 26.7687 25.6561 38.8485 2.9216 -2.6296
# 5 -7.7730 -10.4983 2.1171 2.9216 31.9024 4.0968
# 6 29.3086 20.2760 14.0626 -2.6296 4.0968 35.3653
#
#
#
# Elastic Compliance Matrix: (Units=1/GPa)
#
#
# Indices 1 2 3 4 5 6 
#
# 1 0.009259 -0.002749 -0.001310 -0.002145 0.002407 -0.006014
# 2 -0.002749 0.033752 -0.011612 -0.016453 0.014690 -0.015381
# 3 -0.001310 -0.011612 0.014846 -0.000625 -0.005379 0.002416
# 4 -0.002145 -0.016453 -0.000625 0.040435 -0.011629 0.015812
# 5 0.002407 0.014690 -0.005379 -0.011629 0.039956 -0.013771
# 6 -0.006014 -0.015381 0.002416 0.015812 -0.013771 0.043889
#
#
# Mechanical properties :
#
#
# Convention : Reuss Voigt Hill
#
# Bulk Modulus (GPa) = 37.71448 77.99229 57.85338
# Shear Modulus (GPa) = 22.49033 33.95802 28.22418
#
# Velocity S-wave (km/s) = 3.29461 4.04834 3.69077
# Velocity P-wave (km/s) = 5.71617 7.71319 6.78852
#
# Compressibility (1/GPa) = 0.02651501
#
# Stress axis : x y z
#
# Youngs Moduli (GPa) = 108.00484 29.62753 67.35883
#
# Poissons Ratio (x) = 0.08146 0.08825
# Poissons Ratio (y) = 0.29694 0.78214
# Poissons Ratio (z) = 0.14150 0.34402
#
# Static dielectric constant tensor:
#      x y z
#    x 1.836950 0.016520 0.011520 
#    y 0.016520 1.756200 -0.017750 
#    z 0.011520 -0.017750 1.765080 
# 
# From -- ./inp_files/500635.got.cif
#   From: 2010.05.17/outbox.cif.g08.bks.cpg/sg2_251_cif.got.tgz:500635.got - 2010.06.03 11:33:40.
