data_PCOD9034738
_publ_section_title
;
Structure prediction by ZEFSAII (Michael W. Deem and Ramdas Pophale) SiO2 
 PCOD9034738
Probable space group: P -1
;
_chemical_formula_sum "Si O2"
_cell_formula_units_Z 12
_cell_length_a 13.277481
_cell_length_b 17.470216
_cell_length_c 11.172751
_cell_angle_alpha 30.313246
_cell_angle_beta 155.781577
_cell_angle_gamma 150.648452
_cell_volume 490.068209
_symmetry_space_group_name_H-M "P -1"
_symmetry_group_IT_number 2
_symmetry_cell_setting 'triclinic'
loop_
_space_group_symop_operation_xyz
x,y,z
-x,-y,-z
loop_
_atom_site_type_symbol
_atom_site_label
_atom_site_fract_x
_atom_site_fract_y
_atom_site_fract_z
Si Si1 0.960042 0.848948 0.377733
Si Si2 0.711120 0.421587 0.359093
Si Si3 0.469939 0.172869 0.240469
Si Si4 0.062002 0.555945 0.778940
Si Si5 0.277276 0.065998 0.630214
Si Si6 0.310107 0.336059 0.450654
O O1 0.742364 0.792952 0.323596
O O2 0.034588 0.690907 0.656374
O O3 0.822155 0.863518 0.084736
O O4 0.189019 0.005294 0.480638
O O5 0.555028 0.240541 0.375728
O O6 0.000000 0.500000 0.500000
O O7 0.809353 0.474070 0.528680
O O8 0.500000 0.500000 0.000000
O O9 0.678849 0.325055 0.180369
O O10 0.500000 0.000000 0.500000
O O11 0.086831 0.397424 0.079446
O O12 0.390937 0.258984 0.527456
O O13 0.000000 0.000000 0.500000
O O14 0.500000 0.000000 0.000000
O O15 0.500000 0.500000 0.500000
#
# Coordination Sequence:
#
# PCOD9034738 Si02
#       6
#     2   2   2   2   2   2
#     4  11  23  43  69  99 138 174 226 280 343 409
#     4  10  22  45  67  97 134 177 231 278 331 397
#     4  11  25  44  67  97 136 183 230 281 336 401
#     4  11  23  43  70  99 136 178 227 282 338 405
#     4  10  24  43  65 100 141 177 220 272 339 410
#     4  11  22  42  72 101 135 175 223 280 344 408
#
# _framework density 24.486388999999999
#
# number of rings (size 3 to 8) (size 9 to 14) (size 15 to 20)
#    0.000    1.333    3.333    1.500    4.667    2.000 
#    0.000    1.667    0.000    0.000    0.000    0.000 
#    0.000    0.000    0.000    0.000    0.000    0.000 
#
# Total GULP energy -66879.245838 kJ/mol
# GULP energy per Si atom -5573.270486 kJ/mol
# Density = 2.443066 g / cm^3
# Si number density = 24.486389 Si / 1000 Ang^3
#
#
#
# Elastic Constant Matrix: (Units=GPa)
#
#
# Indices 1 2 3 4 5 6 
#
# 1 85.9709 71.8829 21.4468 14.0065 5.2340 -2.2495
# 2 71.8829 169.0467 61.2617 17.5474 -10.7472 -71.7217
# 3 21.4468 61.2617 165.0224 21.4057 4.6459 -21.9650
# 4 14.0065 17.5474 21.4057 47.6884 -17.3004 -3.0921
# 5 5.2340 -10.7472 4.6459 -17.3004 36.3498 -1.6121
# 6 -2.2495 -71.7217 -21.9650 -3.0921 -1.6121 76.4677
#
#
#
# Elastic Compliance Matrix: (Units=1/GPa)
#
#
# Indices 1 2 3 4 5 6 
#
# 1 0.035255 -0.026616 0.004163 -0.011155 -0.019834 -0.023600
# 2 -0.026616 0.031690 -0.006098 0.007522 0.018798 0.027889
# 3 0.004163 -0.006098 0.008126 -0.005035 -0.005997 -0.003593
# 4 -0.011155 0.007522 -0.005035 0.031335 0.019696 0.006963
# 5 -0.019834 0.018798 -0.005997 0.019696 0.046824 0.017109
# 6 -0.023600 0.027889 -0.003593 0.006963 0.017109 0.038151
#
#
# Mechanical properties :
#
#
# Convention : Reuss Voigt Hill
#
# Bulk Modulus (GPa) = 55.65058 81.02475 68.33767
# Shear Modulus (GPa) = 19.64842 49.79774 34.72308
#
# Velocity S-wave (km/s) = 2.83578 4.51454 3.76979
# Velocity P-wave (km/s) = 5.78780 7.76764 6.84963
#
# Compressibility (1/GPa) = 0.01796926
#
# Stress axis : x y z
#
# Youngs Moduli (GPa) = 28.36469 31.55570 123.05793
#
# Poissons Ratio (x) = 0.83988 -0.51228
# Poissons Ratio (y) = 0.75495 0.75042
# Poissons Ratio (z) = -0.11808 0.19243
#
# Static dielectric constant tensor:
#      x y z
#    x 3.051810 0.093740 0.420830 
#    y 0.093740 2.267220 0.136790 
#    z 0.420830 0.136790 1.819850 
# 
# From -- ./inp_files/20926.got.cif
#   From: 2010.05.17/outbox.cif.g08.bks.cpg/sg2_11_cif.got.tgz:20926.got - 2010.06.03 11:33:40.
