data_PCOD9034366
_publ_section_title
;
Structure prediction by ZEFSAII (Michael W. Deem and Ramdas Pophale) SiO2 
 PCOD9034366
Probable space group: P -1
;
_chemical_formula_sum "Si O2"
_cell_formula_units_Z 12
_cell_length_a 8.091050
_cell_length_b 15.494586
_cell_length_c 8.081118
_cell_angle_alpha 145.153547
_cell_angle_beta 69.982771
_cell_angle_gamma 120.294186
_cell_volume 494.518746
_symmetry_space_group_name_H-M "P -1"
_symmetry_group_IT_number 2
_symmetry_cell_setting 'triclinic'
loop_
_space_group_symop_operation_xyz
x,y,z
-x,-y,-z
loop_
_atom_site_type_symbol
_atom_site_label
_atom_site_fract_x
_atom_site_fract_y
_atom_site_fract_z
Si Si1 0.524008 0.822383 0.420787
Si Si2 0.277934 0.028049 0.757550
Si Si3 0.121448 0.479435 0.769036
Si Si4 0.446459 0.645321 0.688567
Si Si5 0.158041 0.211697 0.547562
Si Si6 0.235316 0.523482 0.224188
O O1 0.371784 0.905246 0.595915
O O2 0.686427 0.859509 0.566241
O O3 0.387625 0.628380 0.193736
O O4 0.638528 0.886388 0.312706
O O5 0.050249 0.930287 0.651464
O O6 0.371959 0.179894 0.090001
O O7 0.286033 0.636288 0.869147
O O8 0.193094 0.343957 0.595220
O O9 0.942887 0.423066 0.614736
O O10 0.000000 0.500000 0.000000
O O11 0.500000 0.500000 0.500000
O O12 0.349225 0.585036 0.450919
O O13 0.161956 0.329714 0.892386
#
# Coordination Sequence:
#
# PCOD9034366 Si02
#       6
#     2   2   2   2   2   2
#     4  11  23  42  70 100 138 186 234 283 338 417
#     4  11  25  43  68 102 140 182 237 284 342 416
#     4  10  22  44  73  98 135 187 238 275 337 425
#     4  12  26  46  68 104 144 182 225 293 360 409
#     4  11  22  44  72 101 133 187 242 278 333 425
#     4  11  23  43  69  99 141 180 229 288 351 403
#
# _framework density 24.266016
#
# number of rings (size 3 to 8) (size 9 to 14) (size 15 to 20)
#    0.000    1.000    1.667    5.500    7.000    0.667 
#    3.000    1.667    0.000    0.000    0.000    0.000 
#    0.000    0.000    0.000    0.000    0.000    0.000 
#
# Total GULP energy -66970.106694 kJ/mol
# GULP energy per Si atom -5580.842225 kJ/mol
# Density = 2.421079 g / cm^3
# Si number density = 24.266016 Si / 1000 Ang^3
#
#
#
# Elastic Constant Matrix: (Units=GPa)
#
#
# Indices 1 2 3 4 5 6 
#
# 1 194.0989 39.7616 47.4056 12.5427 41.7513 -25.7269
# 2 39.7616 100.9314 41.8478 7.2155 15.4772 -0.0725
# 3 47.4056 41.8478 104.9241 7.5638 41.9682 1.2967
# 4 12.5427 7.2155 7.5638 28.3817 9.3206 4.2160
# 5 41.7513 15.4772 41.9682 9.3206 48.0834 2.8275
# 6 -25.7269 -0.0725 1.2967 4.2160 2.8275 46.8522
#
#
#
# Elastic Compliance Matrix: (Units=1/GPa)
#
#
# Indices 1 2 3 4 5 6 
#
# 1 0.007541 -0.001837 -0.000382 -0.001618 -0.005581 0.004631
# 2 -0.001837 0.012436 -0.004894 -0.001654 0.002234 -0.000840
# 3 -0.000382 -0.004894 0.016745 0.001201 -0.012940 -0.000008
# 4 -0.001618 -0.001654 0.001201 0.038744 -0.006384 -0.004026
# 5 -0.005581 0.002234 -0.012940 -0.006384 0.037715 -0.004405
# 6 0.004631 -0.000840 -0.000008 -0.004026 -0.004405 0.024514
#
#
# Mechanical properties :
#
#
# Convention : Reuss Voigt Hill
#
# Bulk Modulus (GPa) = 44.45521 73.10938 58.78229
# Shear Modulus (GPa) = 31.36402 42.72610 37.04506
#
# Velocity S-wave (km/s) = 3.59905 4.20067 3.91144
# Velocity P-wave (km/s) = 5.96913 7.32947 6.68400
#
# Compressibility (1/GPa) = 0.02249455
#
# Stress axis : x y z
#
# Youngs Moduli (GPa) = 132.61453 80.41464 59.72077
#
# Poissons Ratio (x) = 0.14774 0.02284
# Poissons Ratio (y) = 0.24364 0.29225
# Poissons Ratio (z) = 0.05071 0.39351
#
# Static dielectric constant tensor:
#      x y z
#    x 2.079880 0.029760 -0.006460 
#    y 0.029760 1.991670 -0.083320 
#    z -0.006460 -0.083320 2.018540 
# 
# From -- ./inp_files/198745.got.cif
#   From: 2010.05.17/outbox.cif.g08.bks.cpg/sg2_100_cif.got.tgz:198745.got - 2010.06.03 11:33:40.
