data_PCOD9034199
_publ_section_title
;
Structure prediction by ZEFSAII (Michael W. Deem and Ramdas Pophale) SiO2 
 PCOD9034199
Probable space group: P -1
;
_chemical_formula_sum "Si O2"
_cell_formula_units_Z 16
_cell_length_a 25.303787
_cell_length_b 8.875989
_cell_length_c 5.358027
_cell_angle_alpha 100.512256
_cell_angle_beta 63.042670
_cell_angle_gamma 138.919070
_cell_volume 678.298907
_symmetry_space_group_name_H-M "P -1"
_symmetry_group_IT_number 2
_symmetry_cell_setting 'triclinic'
loop_
_space_group_symop_operation_xyz
x,y,z
-x,-y,-z
loop_
_atom_site_type_symbol
_atom_site_label
_atom_site_fract_x
_atom_site_fract_y
_atom_site_fract_z
Si Si1 0.336691 0.644993 0.249796
Si Si2 0.831953 0.099302 0.262692
Si Si3 0.907006 0.690335 0.820937
Si Si4 0.499490 0.872234 0.247663
Si Si5 0.979452 0.156513 0.872003
Si Si6 0.245250 0.749301 0.696937
Si Si7 0.733124 0.800813 0.881114
Si Si8 0.415031 0.251464 0.738934
O O1 0.392373 0.655048 0.336845
O O2 0.263737 0.624791 0.486822
O O3 0.291655 0.426152 0.114186
O O4 0.422340 0.909216 0.038610
O O5 0.813670 0.245210 0.334083
O O6 0.801949 0.970460 0.554674
O O7 0.930362 0.222876 0.018100
O O8 0.770520 0.923698 0.106714
O O9 0.954902 0.735609 0.475152
O O10 0.904545 0.870798 0.901861
O O11 0.812083 0.412222 0.983529
O O12 0.969371 0.770438 0.953112
O O13 0.537873 0.783158 0.204480
O O14 0.500000 0.000000 0.500000
O O15 0.343079 0.017240 0.644456
O O16 0.645530 0.737261 0.998184
O O17 0.500000 0.500000 0.500000
#
# Coordination Sequence:
#
# PCOD9034199 Si02
#       8
#     2   2   2   2   2   2   2   2
#     4  11  25  41  66  97 129 184 234 294 349 407
#     4  11  25  45  69 105 142 180 227 282 352 417
#     4  10  23  42  71 104 137 176 227 280 345 418
#     4  11  23  41  66  92 130 177 243 292 347 410
#     4  10  22  44  72 102 137 179 220 279 353 426
#     4  11  25  44  67 105 139 181 233 289 343 410
#     4  11  26  43  70 101 140 185 232 291 345 411
#     4  11  25  45  70  97 142 191 237 289 351 409
#
# _framework density 23.588421
#
# number of rings (size 3 to 8) (size 9 to 14) (size 15 to 20)
#    0.000    1.250    1.250    3.000    7.000    7.500 
#    0.000    0.000    0.000    0.000    0.000    0.000 
#    0.000    0.000    0.000    0.000    0.000    0.000 
#
# Total GULP energy -89460.821909 kJ/mol
# GULP energy per Si atom -5591.301369 kJ/mol
# Density = 2.353473 g / cm^3
# Si number density = 23.588421 Si / 1000 Ang^3
#
#
#
# Elastic Constant Matrix: (Units=GPa)
#
#
# Indices 1 2 3 4 5 6 
#
# 1 111.0039 30.2335 16.8045 14.6597 -30.0512 -26.0309
# 2 30.2335 107.1264 18.5310 2.0319 -3.7167 -15.9729
# 3 16.8045 18.5310 78.7311 8.6216 -9.6820 -13.1215
# 4 14.6597 2.0319 8.6216 39.8419 -11.7577 3.8342
# 5 -30.0512 -3.7167 -9.6820 -11.7577 39.0284 11.3831
# 6 -26.0309 -15.9729 -13.1215 3.8342 11.3831 31.9946
#
#
#
# Elastic Compliance Matrix: (Units=1/GPa)
#
#
# Indices 1 2 3 4 5 6 
#
# 1 0.013966 -0.002447 0.000239 -0.003770 0.007058 0.008180
# 2 -0.002447 0.010775 -0.001673 -0.000352 -0.002432 0.003610
# 3 0.000239 -0.001673 0.014420 -0.003321 0.001057 0.005295
# 4 -0.003770 -0.000352 -0.003321 0.030960 0.008917 -0.011488
# 5 0.007058 -0.002432 0.001057 0.008917 0.036418 -0.009063
# 6 0.008180 0.003610 0.005295 -0.011488 -0.009063 0.046485
#
#
# Mechanical properties :
#
#
# Convention : Reuss Voigt Hill
#
# Bulk Modulus (GPa) = 31.84673 47.55550 39.70111
# Shear Modulus (GPa) = 29.19668 37.59246 33.39457
#
# Velocity S-wave (km/s) = 3.52199 3.99643 3.76669
# Velocity P-wave (km/s) = 5.48357 6.44201 5.98202
#
# Compressibility (1/GPa) = 0.03140040
#
# Stress axis : x y z
#
# Youngs Moduli (GPa) = 71.60349 92.80518 69.34663
#
# Poissons Ratio (x) = 0.22708 -0.01658
# Poissons Ratio (y) = 0.17520 0.11600
# Poissons Ratio (z) = -0.01712 0.15524
#
# Static dielectric constant tensor:
#      x y z
#    x 1.779290 0.025970 -0.102350 
#    y 0.025970 1.940970 -0.022780 
#    z -0.102350 -0.022780 1.794480 
# 
# From -- ./inp_files/39015.got.cif
#   From: 2010.05.17/outbox.cif.g08.bks.cpg/sg2_20_cif.got.tgz:39015.got - 2010.06.03 11:33:40.
