data_PCOD9034159
_publ_section_title
;
Structure prediction by ZEFSAII (Michael W. Deem and Ramdas Pophale) SiO2 
 PCOD9034159
Probable space group: P -1
;
_chemical_formula_sum "Si O2"
_cell_formula_units_Z 12
_cell_length_a 13.795540
_cell_length_b 9.406033
_cell_length_c 8.181157
_cell_angle_alpha 55.892413
_cell_angle_beta 63.012729
_cell_angle_gamma 30.615082
_cell_volume 446.595697
_symmetry_space_group_name_H-M "P -1"
_symmetry_group_IT_number 2
_symmetry_cell_setting 'triclinic'
loop_
_space_group_symop_operation_xyz
x,y,z
-x,-y,-z
loop_
_atom_site_type_symbol
_atom_site_label
_atom_site_fract_x
_atom_site_fract_y
_atom_site_fract_z
Si Si1 0.240516 0.334430 0.754995
Si Si2 0.122372 0.803989 0.746318
Si Si3 0.694898 0.162426 0.627326
Si Si4 0.499648 0.703808 0.010426
Si Si5 0.253725 0.537585 0.282554
Si Si6 0.094596 0.422616 0.303386
O O1 0.157157 0.569871 0.801654
O O2 0.283252 0.391328 0.521774
O O3 0.082336 0.394068 0.797428
O O4 0.427175 0.994426 0.891068
O O5 0.148553 0.908382 0.511929
O O6 0.301849 0.604132 0.857012
O O7 0.923701 0.106440 0.785703
O O8 0.500000 0.500000 0.500000
O O9 0.661613 0.179388 0.833452
O O10 0.743659 0.920294 0.658050
O O11 0.553565 0.623397 0.829095
O O12 0.181425 0.495414 0.226960
O O13 0.000000 0.500000 0.500000
#
# Coordination Sequence:
#
# PCOD9034159 Si02
#       6
#     2   2   2   2   2   2
#     4  11  24  45  74 102 137 181 234 282 344 408
#     4  11  23  47  73  99 138 185 230 282 343 410
#     4  10  23  43  70 100 139 182 228 277 348 404
#     4  11  26  45  69 109 137 181 228 292 340 411
#     4  11  24  46  73 100 139 183 230 283 344 409
#     4  10  22  44  71  98 138 185 225 276 350 407
#
# _framework density 26.86994
#
# number of rings (size 3 to 8) (size 9 to 14) (size 15 to 20)
#    0.000    1.333    3.333    2.000    7.000    0.667 
#    0.000    3.333    0.000    0.000    0.000    0.000 
#    0.000    0.000    0.000    0.000    0.000    0.000 
#
# Total GULP energy -67190.047887 kJ/mol
# GULP energy per Si atom -5599.170657 kJ/mol
# Density = 2.680878 g / cm^3
# Si number density = 26.869940 Si / 1000 Ang^3
#
#
#
# Elastic Constant Matrix: (Units=GPa)
#
#
# Indices 1 2 3 4 5 6 
#
# 1 91.3886 36.8122 18.0609 19.1038 -3.0619 22.1379
# 2 36.8122 228.5229 61.5396 13.8154 -6.4572 24.9154
# 3 18.0609 61.5396 137.0876 18.2380 -13.7221 -3.3564
# 4 19.1038 13.8154 18.2380 48.9517 -13.6221 8.8180
# 5 -3.0619 -6.4572 -13.7221 -13.6221 24.2816 4.2877
# 6 22.1379 24.9154 -3.3564 8.8180 4.2877 45.5617
#
#
#
# Elastic Compliance Matrix: (Units=1/GPa)
#
#
# Indices 1 2 3 4 5 6 
#
# 1 0.013659 -0.001147 -0.000942 -0.003780 -0.000296 -0.005320
# 2 -0.001147 0.005495 -0.002375 0.000490 0.000742 -0.002788
# 3 -0.000942 -0.002375 0.009098 -0.002034 0.002799 0.002557
# 4 -0.003780 0.000490 -0.002034 0.027647 0.014957 -0.005339
# 5 -0.000296 0.000742 0.002799 0.014957 0.052713 -0.007911
# 6 -0.005320 -0.002788 0.002557 -0.005339 -0.007911 0.028024
#
#
# Mechanical properties :
#
#
# Convention : Reuss Voigt Hill
#
# Bulk Modulus (GPa) = 51.74391 76.64715 64.19553
# Shear Modulus (GPa) = 32.89351 46.46477 39.67914
#
# Velocity S-wave (km/s) = 3.50262 4.16293 3.84697
# Velocity P-wave (km/s) = 5.97133 7.18984 6.60873
#
# Compressibility (1/GPa) = 0.01932595
#
# Stress axis : x y z
#
# Youngs Moduli (GPa) = 73.21074 181.96711 109.91176
#
# Poissons Ratio (x) = 0.20863 0.10352
# Poissons Ratio (y) = 0.08394 0.26105
# Poissons Ratio (z) = 0.06895 0.43219
#
# Static dielectric constant tensor:
#      x y z
#    x 2.198530 0.002380 -0.052170 
#    y 0.002380 2.020060 0.040450 
#    z -0.052170 0.040450 2.193560 
# 
# From -- ./inp_files/291809.got.cif
#   From: 2010.05.17/outbox.cif.g08.bks.cpg/sg2_146_cif.got.tgz:291809.got - 2010.06.03 11:33:40.
