data_PCOD9034512
_publ_section_title
;
Structure prediction by ZEFSAII (Michael W. Deem and Ramdas Pophale) SiO2 
 PCOD9034512
Probable space group: P -1
;
_chemical_formula_sum "Si O2"
_cell_formula_units_Z 15
_cell_length_a 18.868127
_cell_length_b 4.942838
_cell_length_c 7.247216
_cell_angle_alpha 72.643116
_cell_angle_beta 77.839435
_cell_angle_gamma 69.926761
_cell_volume 601.491792
_symmetry_space_group_name_H-M "P -1"
_symmetry_group_IT_number 2
_symmetry_cell_setting 'triclinic'
loop_
_space_group_symop_operation_xyz
x,y,z
-x,-y,-z
loop_
_atom_site_type_symbol
_atom_site_label
_atom_site_fract_x
_atom_site_fract_y
_atom_site_fract_z
Si Si1 0.670391 0.955645 0.925198
Si Si2 0.765816 0.327973 0.935069
Si Si3 0.869934 0.290808 0.535031
Si Si4 0.865583 0.732035 0.149195
Si Si5 0.577376 0.714735 0.304390
Si Si6 0.600361 0.083606 0.544493
Si Si7 0.000000 0.500000 0.000000
Si Si8 0.021087 0.124097 0.689504
O O1 0.603584 0.876296 0.087780
O O2 0.653285 0.008635 0.708163
O O3 0.741268 0.655531 0.966676
O O4 0.690950 0.232165 0.945235
O O5 0.810918 0.300629 0.724627
O O6 0.815390 0.065144 0.090227
O O7 0.836159 0.544954 0.350318
O O8 0.904578 0.991495 0.457506
O O9 0.947319 0.314557 0.583679
O O10 0.952590 0.717222 0.182827
O O11 0.904602 0.567702 0.978961
O O12 0.607457 0.359764 0.363753
O O13 0.486281 0.817310 0.351777
O O14 0.609093 0.814922 0.454985
O O15 0.002861 0.829886 0.827418
#
# Coordination Sequence:
#
# PCOD9034512 Si02
#       8
#     2   2   2   2   2   2   1   2
#     4  12  27  48  67 105 146 198 221 287 333 431
#     4  12  31  43  69  97 149 185 235 268 357 426
#     4  11  25  43  70  99 126 177 237 299 356 427
#     4  10  25  43  67  95 129 173 222 300 352 424
#     4  10  22  44  78 110 141 179 240 284 338 396
#     4  10  22  44  77 111 140 184 231 292 334 394
#     4   8  22  38  72  92 126 162 220 308 362 414
#     4   9  23  42  71  99 120 171 234 307 367 407
#
# _framework density 24.937995999999998
#
# number of rings (size 3 to 8) (size 9 to 14) (size 15 to 20)
#    0.800    0.800    0.000    2.400    9.333    4.267 
#    0.000    5.333    0.000    0.000    0.000    0.000 
#    0.000    0.000    0.000    0.000    0.000    0.000 
#
# Total GULP energy -83863.259423 kJ/mol
# GULP energy per Si atom -5590.883962 kJ/mol
# Density = 2.488124 g / cm^3
# Si number density = 24.937996 Si / 1000 Ang^3
#
#
#
# Elastic Constant Matrix: (Units=GPa)
#
#
# Indices 1 2 3 4 5 6 
#
# 1 27.4974 3.2858 -6.6125 1.3539 4.8796 9.7034
# 2 3.2858 73.3145 15.7894 2.5494 -2.4695 -4.7469
# 3 -6.6125 15.7894 97.4294 -1.3182 -13.4974 -5.3738
# 4 1.3539 2.5494 -1.3182 34.2457 4.0676 -0.9372
# 5 4.8796 -2.4695 -13.4974 4.0676 40.3648 -2.4186
# 6 9.7034 -4.7469 -5.3738 -0.9372 -2.4186 22.0530
#
#
#
# Elastic Compliance Matrix: (Units=1/GPa)
#
#
# Indices 1 2 3 4 5 6 
#
# 1 0.046017 -0.003984 0.001682 -0.001285 -0.006400 -0.021452
# 2 -0.003984 0.014664 -0.002281 -0.001018 0.000984 0.004418
# 3 0.001682 -0.002281 0.011348 0.000171 0.003550 0.001931
# 4 -0.001285 -0.001018 0.000171 0.029699 -0.002762 0.001347
# 5 -0.006400 0.000984 0.003550 -0.002762 0.027480 0.006789
# 6 -0.021452 0.004418 0.001931 0.001347 0.006789 0.057008
#
#
# Mechanical properties :
#
#
# Convention : Reuss Voigt Hill
#
# Bulk Modulus (GPa) = 15.90779 24.79628 20.35203
# Shear Modulus (GPa) = 23.11207 31.71793 27.41500
#
# Velocity S-wave (km/s) = 3.04761 3.57020 3.31921
# Velocity P-wave (km/s) = 4.33321 5.19229 4.78208
#
# Compressibility (1/GPa) = 0.06286228
#
# Stress axis : x y z
#
# Youngs Moduli (GPa) = 21.73123 68.19318 88.11922
#
# Poissons Ratio (x) = 0.27171 -0.14818
# Poissons Ratio (y) = 0.08659 0.20097
# Poissons Ratio (z) = -0.03654 0.15553
#
# Static dielectric constant tensor:
#      x y z
#    x 2.076570 0.015950 0.028630 
#    y 0.015950 1.988150 0.008940 
#    z 0.028630 0.008940 1.958990 
# 
# From -- ./inp_files/338980.got.cif
#   From: 2010.05.17/outbox.cif.g08.bks.cpg/sg2_170_cif.got.tgz:338980.got - 2010.06.03 11:33:40.
