data_PCOD9034947
_publ_section_title
;
Structure prediction by ZEFSAII (Michael W. Deem and Ramdas Pophale) SiO2 
 PCOD9034947
Probable space group: P -1
;
_chemical_formula_sum "Si O2"
_cell_formula_units_Z 16
_cell_length_a 16.680452
_cell_length_b 10.463433
_cell_length_c 9.446700
_cell_angle_alpha 86.042198
_cell_angle_beta 126.961257
_cell_angle_gamma 137.283975
_cell_volume 648.847141
_symmetry_space_group_name_H-M "P -1"
_symmetry_group_IT_number 2
_symmetry_cell_setting 'triclinic'
loop_
_space_group_symop_operation_xyz
x,y,z
-x,-y,-z
loop_
_atom_site_type_symbol
_atom_site_label
_atom_site_fract_x
_atom_site_fract_y
_atom_site_fract_z
Si Si1 0.338697 0.787641 0.463822
Si Si2 0.816016 0.121614 0.198850
Si Si3 0.379557 0.830581 0.022790
Si Si4 0.469739 0.658193 0.556211
Si Si5 0.891529 0.703003 0.304773
Si Si6 0.578582 0.475743 0.187494
Si Si7 0.117996 0.236260 0.016321
Si Si8 0.063697 0.749983 0.989152
O O1 0.354395 0.651663 0.504627
O O2 0.500000 0.000000 0.500000
O O3 0.105284 0.550410 0.196756
O O4 0.439990 0.968687 0.688115
O O5 0.789824 0.244982 0.133889
O O6 0.935503 0.196453 0.452895
O O7 0.917513 0.178522 0.159575
O O8 0.585793 0.818887 0.987113
O O9 0.273555 0.578052 0.913409
O O10 0.500000 0.000000 0.000000
O O11 0.443711 0.526268 0.666486
O O12 0.350877 0.487322 0.300905
O O13 0.694772 0.964705 0.742018
O O14 0.792087 0.671254 0.330699
O O15 0.933333 0.832693 0.198643
O O16 0.500000 0.500000 0.000000
O O17 0.038663 0.283337 0.990763
O O18 0.000000 0.000000 0.000000
#
# Coordination Sequence:
#
# PCOD9034947 Si02
#       8
#     2   2   2   2   2   2   2   2
#     4  11  22  41  67 100 135 182 224 278 341 424
#     4  11  24  45  73 102 132 191 227 282 356 418
#     4  12  21  44  69 103 145 173 220 301 352 410
#     4  10  22  47  66  97 136 176 237 277 345 415
#     4  12  26  44  67 107 142 177 235 286 353 413
#     4  11  25  45  74  99 132 185 239 288 336 414
#     4  11  27  44  66  99 142 187 226 297 344 403
#     4  10  22  45  69  95 132 181 235 271 346 415
#
# _framework density 24.659119
#
# number of rings (size 3 to 8) (size 9 to 14) (size 15 to 20)
#    0.000    1.000    3.750    4.125    5.250    2.500 
#    4.500    0.000    0.000    0.000    0.000    0.000 
#    0.000    0.000    0.000    0.000    0.000    0.000 
#
# Total GULP energy -89250.073639 kJ/mol
# GULP energy per Si atom -5578.129602 kJ/mol
# Density = 2.460299 g / cm^3
# Si number density = 24.659119 Si / 1000 Ang^3
#
#
#
# Elastic Constant Matrix: (Units=GPa)
#
#
# Indices 1 2 3 4 5 6 
#
# 1 60.0665 4.4101 25.1606 -2.3787 1.7660 22.0741
# 2 4.4101 88.9070 43.3255 7.0264 1.6256 29.6815
# 3 25.1606 43.3255 190.2471 7.6147 -4.8147 20.2707
# 4 -2.3787 7.0264 7.6147 38.5081 -0.6780 1.8480
# 5 1.7660 1.6256 -4.8147 -0.6780 35.1389 -3.1855
# 6 22.0741 29.6815 20.2707 1.8480 -3.1855 38.6740
#
#
#
# Elastic Compliance Matrix: (Units=1/GPa)
#
#
# Indices 1 2 3 4 5 6 
#
# 1 0.023764 0.005742 -0.002808 0.001726 -0.003340 -0.016856
# 2 0.005742 0.017868 -0.003190 -0.001584 -0.002987 -0.015489
# 3 -0.002808 -0.003190 0.006326 -0.000863 0.001218 0.000877
# 4 0.001726 -0.001584 -0.000863 0.026567 0.000330 -0.000559
# 5 -0.003340 -0.002987 0.001218 0.000330 0.029479 0.005972
# 6 -0.016856 -0.015489 0.000877 -0.000559 0.005972 0.047425
#
#
# Mechanical properties :
#
#
# Convention : Reuss Voigt Hill
#
# Bulk Modulus (GPa) = 21.07698 53.89035 37.48366
# Shear Modulus (GPa) = 29.80476 40.21917 35.01197
#
# Velocity S-wave (km/s) = 3.48037 4.04295 3.77216
# Velocity P-wave (km/s) = 4.97157 6.61026 5.84859
#
# Compressibility (1/GPa) = 0.04744512
#
# Stress axis : x y z
#
# Youngs Moduli (GPa) = 42.08056 55.96458 158.07356
#
# Poissons Ratio (x) = -0.32133 0.44387
# Poissons Ratio (y) = -0.24161 0.50432
# Poissons Ratio (z) = 0.11816 0.17855
#
# Static dielectric constant tensor:
#      x y z
#    x 2.061120 -0.092560 0.099600 
#    y -0.092560 2.031880 -0.080400 
#    z 0.099600 -0.080400 2.054560 
# 
# From -- ./inp_files/333295.got.cif
#   From: 2010.05.17/outbox.cif.g08.bks.cpg/sg2_167_cif.got.tgz:333295.got - 2010.06.03 11:33:40.
