data_PCOD9034892
_publ_section_title
;
Structure prediction by ZEFSAII (Michael W. Deem and Ramdas Pophale) SiO2 
 PCOD9034892
Probable space group: P -1
;
_chemical_formula_sum "Si O2"
_cell_formula_units_Z 13
_cell_length_a 9.682838
_cell_length_b 12.712159
_cell_length_c 8.802386
_cell_angle_alpha 85.016778
_cell_angle_beta 110.590717
_cell_angle_gamma 42.986916
_cell_volume 582.435436
_symmetry_space_group_name_H-M "P -1"
_symmetry_group_IT_number 2
_symmetry_cell_setting 'triclinic'
loop_
_space_group_symop_operation_xyz
x,y,z
-x,-y,-z
loop_
_atom_site_type_symbol
_atom_site_label
_atom_site_fract_x
_atom_site_fract_y
_atom_site_fract_z
Si Si1 0.585322 0.336701 0.496600
Si Si2 0.686427 0.333452 0.208719
Si Si3 0.108142 0.968900 0.883346
Si Si4 0.619267 0.769838 0.538125
Si Si5 0.483014 0.126469 0.045885
Si Si6 0.000000 0.500000 0.000000
Si Si7 0.200513 0.128793 0.517964
O O1 0.500000 0.500000 0.500000
O O2 0.552523 0.355507 0.298091
O O3 0.445640 0.314245 0.510505
O O4 0.877969 0.160298 0.683254
O O5 0.827834 0.165720 0.182688
O O6 0.900600 0.285528 0.364512
O O7 0.500000 0.500000 0.000000
O O8 0.370431 0.880509 0.010015
O O9 0.000000 0.000000 0.000000
O O10 0.813951 0.652570 0.771080
O O11 0.739023 0.782033 0.463762
O O12 0.353399 0.984566 0.454996
O O13 0.676198 0.005736 0.278608
O O14 0.210063 0.327276 0.974811
O O15 0.500000 0.000000 0.000000
#
# Coordination Sequence:
#
# PCOD9034892 Si02
#       7
#     2   2   2   2   2   1   2
#     4  12  26  47  71 105 147 194 244 310 374 450
#     4  12  25  46  74 104 143 193 249 305 376 444
#     4  12  27  48  73 108 150 196 251 311 381 446
#     4  10  23  41  71  98 140 181 235 302 363 436
#     4  11  26  47  74 105 149 196 245 313 374 449
#     4  10  24  44  72 106 138 188 250 292 370 446
#     4  10  22  45  69 102 136 190 241 302 374 435
#
# _framework density 22.320070999999999
#
# number of rings (size 3 to 8) (size 9 to 14) (size 15 to 20)
#    0.000    0.923    3.077    3.231    8.615    1.231 
#    0.000    1.538    0.000    0.000    0.000    0.000 
#    0.000    0.000    0.000    0.000    0.000    0.000 
#
# Total GULP energy -72372.827916 kJ/mol
# GULP energy per Si atom -5567.140609 kJ/mol
# Density = 2.226927 g / cm^3
# Si number density = 22.320071 Si / 1000 Ang^3
#
#
#
# Elastic Constant Matrix: (Units=GPa)
#
#
# Indices 1 2 3 4 5 6 
#
# 1 139.3780 57.9434 3.8903 1.3084 -4.6430 12.1916
# 2 57.9434 155.4285 29.8983 -14.8736 -7.8570 2.2628
# 3 3.8903 29.8983 75.4164 -29.1984 -9.3218 -9.7896
# 4 1.3084 -14.8736 -29.1984 45.9221 -4.8171 0.8290
# 5 -4.6430 -7.8570 -9.3218 -4.8171 28.0733 6.0040
# 6 12.1916 2.2628 -9.7896 0.8290 6.0040 25.9968
#
#
#
# Elastic Compliance Matrix: (Units=1/GPa)
#
#
# Indices 1 2 3 4 5 6 
#
# 1 0.008977 -0.003337 0.000053 -0.001094 0.001270 -0.004158
# 2 -0.003337 0.008363 -0.002525 0.001340 0.001277 -0.000452
# 3 0.000053 -0.002525 0.021060 0.013225 0.007276 0.006023
# 4 -0.001094 0.001340 0.013225 0.031613 0.009547 0.002164
# 5 0.001270 0.001277 0.007276 0.009547 0.041945 -0.007958
# 6 -0.004158 -0.000452 0.006023 0.002164 -0.007958 0.044492
#
#
# Mechanical properties :
#
#
# Convention : Reuss Voigt Hill
#
# Bulk Modulus (GPa) = 37.33846 61.52076 49.42961
# Shear Modulus (GPa) = 28.24962 38.56452 33.40707
#
# Velocity S-wave (km/s) = 3.56147 4.16119 3.87295
# Velocity P-wave (km/s) = 5.80319 7.12110 6.49566
#
# Compressibility (1/GPa) = 0.02678203
#
# Stress axis : x y z
#
# Youngs Moduli (GPa) = 111.39995 119.57616 47.48415
#
# Poissons Ratio (x) = 0.39899 -0.00254
# Poissons Ratio (y) = 0.37171 0.11991
# Poissons Ratio (z) = -0.00595 0.30196
#
# Static dielectric constant tensor:
#      x y z
#    x 1.843450 -0.023140 -0.032140 
#    y -0.023140 1.782930 0.039890 
#    z -0.032140 0.039890 1.758990 
# 
# From -- ./inp_files/178012.got.cif
#   From: 2010.05.17/outbox.cif.g08.bks.cpg/sg2_90_cif.got.tgz:178012.got - 2010.06.03 11:33:40.
