data_PCOD9034843
_publ_section_title
;
Structure prediction by ZEFSAII (Michael W. Deem and Ramdas Pophale) SiO2 
 PCOD9034843
Probable space group: P -1
;
_chemical_formula_sum "Si O2"
_cell_formula_units_Z 16
_cell_length_a 6.747115
_cell_length_b 8.953056
_cell_length_c 18.513159
_cell_angle_alpha 46.564554
_cell_angle_beta 112.196628
_cell_angle_gamma 100.431325
_cell_volume 746.727169
_symmetry_space_group_name_H-M "P -1"
_symmetry_group_IT_number 2
_symmetry_cell_setting 'triclinic'
loop_
_space_group_symop_operation_xyz
x,y,z
-x,-y,-z
loop_
_atom_site_type_symbol
_atom_site_label
_atom_site_fract_x
_atom_site_fract_y
_atom_site_fract_z
Si Si1 0.416871 0.803848 0.589589
Si Si2 0.460216 0.262605 0.064874
Si Si3 0.004257 0.795365 0.453814
Si Si4 0.347887 0.812278 0.739042
Si Si5 0.253524 0.593562 0.422190
Si Si6 0.132466 0.384633 0.858418
Si Si7 0.382287 0.089999 0.882081
Si Si8 0.677060 0.370284 0.742525
O O1 0.163143 0.826086 0.531355
O O2 0.459924 0.801370 0.680918
O O3 0.530256 0.590243 0.644097
O O4 0.500000 0.000000 0.500000
O O5 0.477364 0.181469 0.175686
O O6 0.651414 0.117119 0.097998
O O7 0.500000 0.500000 0.000000
O O8 0.247386 0.267860 0.983359
O O9 0.155535 0.748997 0.419464
O O10 0.886527 0.597652 0.524660
O O11 0.826788 0.986967 0.350310
O O12 0.222674 0.607260 0.795819
O O13 0.500000 0.500000 0.500000
O O14 0.244713 0.683311 0.310190
O O15 0.207701 0.260434 0.836450
O O16 0.876219 0.396137 0.814774
O O17 0.533916 0.207407 0.811781
O O18 0.500000 0.000000 0.000000
#
# Coordination Sequence:
#
# PCOD9034843 Si02
#       8
#     2   2   2   2   2   2   2   2
#     4  12  24  41  66 101 143 182 230 274 332 422
#     4   9  22  41  68  96 126 169 225 277 338 401
#     4  11  25  42  67  97 142 186 227 281 346 395
#     4  11  22  41  71  94 137 182 218 284 345 397
#     4  11  25  43  65 100 143 177 235 287 330 413
#     4  10  22  45  68  98 133 175 228 277 345 409
#     4  10  23  43  71  93 134 175 230 281 340 400
#     4  12  24  40  73  99 135 185 228 275 344 408
#
# _framework density 21.426833999999999
#
# number of rings (size 3 to 8) (size 9 to 14) (size 15 to 20)
#    0.000    1.250    2.500    2.625    3.500    2.000 
#    0.000    0.625    5.500    0.000    0.000    0.000 
#    0.000    0.000    0.000    0.000    0.000    0.000 
#
# Total GULP energy -89346.763823 kJ/mol
# GULP energy per Si atom -5584.172739 kJ/mol
# Density = 2.137807 g / cm^3
# Si number density = 21.426834 Si / 1000 Ang^3
#
#
#
# Elastic Constant Matrix: (Units=GPa)
#
#
# Indices 1 2 3 4 5 6 
#
# 1 59.0065 13.8535 17.6875 7.0260 1.4014 -0.1773
# 2 13.8535 94.3637 34.9577 3.9735 -11.9174 -13.5638
# 3 17.6875 34.9577 97.0210 19.8951 0.2044 -3.7005
# 4 7.0260 3.9735 19.8951 53.3586 -1.1262 0.3473
# 5 1.4014 -11.9174 0.2044 -1.1262 24.0998 11.8484
# 6 -0.1773 -13.5638 -3.7005 0.3473 11.8484 31.2032
#
#
#
# Elastic Compliance Matrix: (Units=1/GPa)
#
#
# Indices 1 2 3 4 5 6 
#
# 1 0.018344 -0.002071 -0.002310 -0.001440 -0.001992 -0.000297
# 2 -0.002071 0.013750 -0.004682 0.001086 0.005357 0.003364
# 3 -0.002310 -0.004682 0.013346 -0.004387 -0.002821 0.000654
# 4 -0.001440 0.001086 -0.004387 0.020538 0.002161 -0.001106
# 5 -0.001992 0.005357 -0.002821 0.002161 0.053387 -0.018314
# 6 -0.000297 0.003364 0.000654 -0.001106 -0.018314 0.040552
#
#
# Mechanical properties :
#
#
# Convention : Reuss Voigt Hill
#
# Bulk Modulus (GPa) = 36.61230 42.59872 39.60551
# Shear Modulus (GPa) = 26.71663 33.99181 30.35422
#
# Velocity S-wave (km/s) = 3.53495 3.98730 3.76792
# Velocity P-wave (km/s) = 5.81252 6.41266 6.11995
#
# Compressibility (1/GPa) = 0.02731323
#
# Stress axis : x y z
#
# Youngs Moduli (GPa) = 54.51435 72.72561 74.93011
#
# Poissons Ratio (x) = 0.15062 0.17307
# Poissons Ratio (y) = 0.11290 0.35086
# Poissons Ratio (z) = 0.12592 0.34053
#
# Static dielectric constant tensor:
#      x y z
#    x 1.752020 -0.030850 0.026040 
#    y -0.030850 1.807490 0.005570 
#    z 0.026040 0.005570 1.780770 
# 
# From -- ./inp_files/547789.got.cif
#   From: 2010.05.17/outbox.cif.g08.bks.cpg/sg2_274_cif.got.tgz:547789.got - 2010.06.03 11:33:40.
