data_PCOD9034826
_publ_section_title
;
Structure prediction by ZEFSAII (Michael W. Deem and Ramdas Pophale) SiO2 
 PCOD9034826
Probable space group: P -1
;
_chemical_formula_sum "Si O2"
_cell_formula_units_Z 12
_cell_length_a 14.442955
_cell_length_b 5.576260
_cell_length_c 7.503764
_cell_angle_alpha 59.279437
_cell_angle_beta 64.726503
_cell_angle_gamma 68.781816
_cell_volume 461.689760
_symmetry_space_group_name_H-M "P -1"
_symmetry_group_IT_number 2
_symmetry_cell_setting 'triclinic'
loop_
_space_group_symop_operation_xyz
x,y,z
-x,-y,-z
loop_
_atom_site_type_symbol
_atom_site_label
_atom_site_fract_x
_atom_site_fract_y
_atom_site_fract_z
Si Si1 0.626270 0.022711 0.700180
Si Si2 0.594354 0.085273 0.130640
Si Si3 0.030555 0.701098 0.242209
Si Si4 0.954152 0.231563 0.299723
Si Si5 0.256064 0.514872 0.094311
Si Si6 0.271453 0.471991 0.682301
O O1 0.524059 0.939842 0.728645
O O2 0.648669 0.317880 0.499310
O O3 0.726640 0.771932 0.695817
O O4 0.609693 0.040002 0.921740
O O5 0.635901 0.372151 0.022336
O O6 0.670317 0.848576 0.274015
O O7 0.000000 0.500000 0.500000
O O8 0.017028 0.490435 0.169436
O O9 0.151675 0.723352 0.158448
O O10 0.962818 0.015503 0.204821
O O11 0.835887 0.387361 0.374776
O O12 0.000000 0.000000 0.500000
O O13 0.243568 0.467141 0.914854
#
# Coordination Sequence:
#
# PCOD9034826 Si02
#       6
#     2   2   2   2   2   2
#     4  10  22  45  68  96 137 180 222 285 353 416
#     4  10  24  42  68 101 133 175 231 286 346 418
#     4  10  23  41  68  97 135 182 232 281 344 413
#     4  10  23  42  67  99 134 185 231 280 346 415
#     4  11  25  41  68 101 134 178 231 285 347 417
#     4  11  25  41  69  99 136 178 230 287 347 416
#
# _framework density 25.991479999999999
#
# number of rings (size 3 to 8) (size 9 to 14) (size 15 to 20)
#    0.000    1.667    0.000    3.000   11.667    3.333 
#    0.000    0.000    0.000    0.000    0.000    0.000 
#    0.000    0.000    0.000    0.000    0.000    0.000 
#
# Total GULP energy -67114.926946 kJ/mol
# GULP energy per Si atom -5592.910579 kJ/mol
# Density = 2.593232 g / cm^3
# Si number density = 25.991480 Si / 1000 Ang^3
#
#
#
# Elastic Constant Matrix: (Units=GPa)
#
#
# Indices 1 2 3 4 5 6 
#
# 1 94.6910 7.1334 16.6560 4.0847 2.0828 0.1885
# 2 7.1334 99.1467 25.8657 -24.6124 12.5332 3.9534
# 3 16.6560 25.8657 86.0938 -23.1739 -4.0185 -3.1998
# 4 4.0847 -24.6124 -23.1739 52.7782 3.2094 -3.5822
# 5 2.0828 12.5332 -4.0185 3.2094 49.2903 -6.3558
# 6 0.1885 3.9534 -3.1998 -3.5822 -6.3558 42.6113
#
#
#
# Elastic Compliance Matrix: (Units=1/GPa)
#
#
# Indices 1 2 3 4 5 6 
#
# 1 0.011182 -0.000618 -0.002638 -0.002316 -0.000438 -0.000450
# 2 -0.000618 0.012576 -0.002574 0.004916 -0.003898 -0.001526
# 3 -0.002638 -0.002574 0.014518 0.005406 0.001865 0.002073
# 4 -0.002316 0.004916 0.005406 0.024031 -0.002060 0.001673
# 5 -0.000438 -0.003898 0.001865 -0.002060 0.022051 0.003619
# 6 -0.000450 -0.001526 0.002073 0.001673 0.003619 0.024448
#
#
# Mechanical properties :
#
#
# Convention : Reuss Voigt Hill
#
# Bulk Modulus (GPa) = 37.57227 42.13796 39.85511
# Shear Modulus (GPa) = 38.65854 44.28774 41.47314
#
# Velocity S-wave (km/s) = 3.86081 4.13235 3.99888
# Velocity P-wave (km/s) = 5.86186 6.24627 6.05711
#
# Compressibility (1/GPa) = 0.02661537
#
# Stress axis : x y z
#
# Youngs Moduli (GPa) = 89.43205 79.51664 68.87918
#
# Poissons Ratio (x) = 0.04913 0.18171
# Poissons Ratio (y) = 0.05526 0.17731
# Poissons Ratio (z) = 0.23593 0.20470
#
# Static dielectric constant tensor:
#      x y z
#    x 2.098640 0.101830 0.135270 
#    y 0.101830 2.111500 0.155460 
#    z 0.135270 0.155460 2.118760 
# 
# From -- ./inp_files/28781.got.cif
#   From: 2010.05.17/outbox.cif.g08.bks.cpg/sg2_15_cif.got.tgz:28781.got - 2010.06.03 11:33:40.
