data_PCOD9034797
_publ_section_title
;
Structure prediction by ZEFSAII (Michael W. Deem and Ramdas Pophale) SiO2 
 PCOD9034797
Probable space group: P -1
;
_chemical_formula_sum "Si O2"
_cell_formula_units_Z 14
_cell_length_a 7.901365
_cell_length_b 13.515874
_cell_length_c 8.105957
_cell_angle_alpha 68.158361
_cell_angle_beta 51.345458
_cell_angle_gamma 58.718429
_cell_volume 576.267398
_symmetry_space_group_name_H-M "P -1"
_symmetry_group_IT_number 2
_symmetry_cell_setting 'triclinic'
loop_
_space_group_symop_operation_xyz
x,y,z
-x,-y,-z
loop_
_atom_site_type_symbol
_atom_site_label
_atom_site_fract_x
_atom_site_fract_y
_atom_site_fract_z
Si Si1 0.110176 0.516266 0.158720
Si Si2 0.658900 0.974281 0.086368
Si Si3 0.840221 0.746033 0.989073
Si Si4 0.552099 0.305366 0.924613
Si Si5 0.933906 0.084835 0.334297
Si Si6 0.491346 0.834242 0.677043
Si Si7 0.029040 0.656015 0.462466
O O1 0.372962 0.437111 0.989111
O O2 0.100269 0.579119 0.299961
O O3 0.981391 0.617163 0.045671
O O4 0.982478 0.428168 0.330905
O O5 0.333255 0.870318 0.588781
O O6 0.542690 0.053786 0.261046
O O7 0.897483 0.987482 0.873954
O O8 0.500000 0.000000 0.000000
O O9 0.749725 0.836199 0.140314
O O10 0.613603 0.749734 0.026631
O O11 0.988213 0.806195 0.760891
O O12 0.621756 0.240325 0.097490
O O13 0.768736 0.295089 0.684903
O O14 0.000000 0.000000 0.500000
O O15 0.765633 0.752631 0.546388
#
# Coordination Sequence:
#
# PCOD9034797 Si02
#       7
#     2   2   2   2   2   2   2
#     4  10  22  45  68 106 145 185 248 302 362 432
#     4  10  22  47  69 102 149 189 234 297 366 428
#     4  10  23  43  72 101 152 187 239 305 366 425
#     4  11  22  45  73 103 149 192 235 303 373 431
#     4  10  24  46  75 107 142 193 250 300 359 437
#     4  11  22  48  74 105 148 192 240 299 372 428
#     4  10  24  42  74 109 137 191 250 293 363 449
#
# _framework density 24.294276
#
# number of rings (size 3 to 8) (size 9 to 14) (size 15 to 20)
#    0.857    0.857    1.429    2.143    0.000    4.000 
#    7.714    5.714    0.000    0.000    0.000    0.000 
#    0.000    0.000    0.000    0.000    0.000    0.000 
#
# Total GULP energy -78329.135518 kJ/mol
# GULP energy per Si atom -5594.938251 kJ/mol
# Density = 2.423898 g / cm^3
# Si number density = 24.294276 Si / 1000 Ang^3
#
#
#
# Elastic Constant Matrix: (Units=GPa)
#
#
# Indices 1 2 3 4 5 6 
#
# 1 109.6319 57.2932 72.5897 -26.2487 -11.2934 -14.4916
# 2 57.2932 162.0758 70.4367 -6.2192 -7.8039 -15.7149
# 3 72.5897 70.4367 166.5732 -11.7937 -15.2913 -22.5006
# 4 -26.2487 -6.2192 -11.7937 43.1132 -13.1228 9.9924
# 5 -11.2934 -7.8039 -15.2913 -13.1228 37.5358 -4.2540
# 6 -14.4916 -15.7149 -22.5006 9.9924 -4.2540 36.3993
#
#
#
# Elastic Compliance Matrix: (Units=1/GPa)
#
#
# Indices 1 2 3 4 5 6 
#
# 1 0.017179 -0.003276 -0.004733 0.010523 0.006277 0.000344
# 2 -0.003276 0.008261 -0.002060 -0.001883 -0.000603 0.001435
# 3 -0.004733 -0.002060 0.009575 -0.000724 0.002203 0.003601
# 4 0.010523 -0.001883 -0.000724 0.034530 0.013995 -0.004915
# 5 0.006277 -0.000603 0.002203 0.013995 0.034626 0.003805
# 6 0.000344 0.001435 0.003601 -0.004915 0.003805 0.032249
#
#
# Mechanical properties :
#
#
# Convention : Reuss Voigt Hill
#
# Bulk Modulus (GPa) = 67.22606 93.21337 80.21971
# Shear Modulus (GPa) = 30.95602 39.27374 35.11488
#
# Velocity S-wave (km/s) = 3.57348 4.02504 3.80596
# Velocity P-wave (km/s) = 6.69014 7.74939 7.23916
#
# Compressibility (1/GPa) = 0.01487518
#
# Stress axis : x y z
#
# Youngs Moduli (GPa) = 58.21032 121.04422 104.44184
#
# Poissons Ratio (x) = 0.39659 0.49434
# Poissons Ratio (y) = 0.19072 0.21520
# Poissons Ratio (z) = 0.27552 0.24941
#
# Static dielectric constant tensor:
#      x y z
#    x 1.960080 0.038310 0.009360 
#    y 0.038310 1.961840 -0.013770 
#    z 0.009360 -0.013770 1.973270 
# 
# From -- ./inp_files/48886.got.cif
#   From: 2010.05.17/outbox.cif.g08.bks.cpg/sg2_25_cif.got.tgz:48886.got - 2010.06.03 11:33:40.
