data_PCOD9034085
_publ_section_title
;
Structure prediction by ZEFSAII (Michael W. Deem and Ramdas Pophale) SiO2 
 PCOD9034085
Probable space group: P -1
;
_chemical_formula_sum "Si O2"
_cell_formula_units_Z 14
_cell_length_a 5.042376
_cell_length_b 13.816903
_cell_length_c 12.030708
_cell_angle_alpha 138.580762
_cell_angle_beta 70.500714
_cell_angle_gamma 97.923280
_cell_volume 514.135820
_symmetry_space_group_name_H-M "P -1"
_symmetry_group_IT_number 2
_symmetry_cell_setting 'triclinic'
loop_
_space_group_symop_operation_xyz
x,y,z
-x,-y,-z
loop_
_atom_site_type_symbol
_atom_site_label
_atom_site_fract_x
_atom_site_fract_y
_atom_site_fract_z
Si Si1 0.751861 0.683557 0.247365
Si Si2 0.939013 0.724436 0.630062
Si Si3 0.582830 0.487605 0.685060
Si Si4 0.500000 0.500000 0.500000
Si Si5 0.774333 0.119084 0.847907
Si Si6 0.500000 0.000000 0.000000
Si Si7 0.852854 0.158584 0.531161
Si Si8 0.220796 0.317823 0.006645
O O1 0.617273 0.580295 0.262692
O O2 0.018820 0.736858 0.311470
O O3 0.805656 0.620322 0.061962
O O4 0.485918 0.823264 0.393578
O O5 0.706448 0.628713 0.545214
O O6 0.087586 0.781901 0.550434
O O7 0.222281 0.603520 0.525358
O O8 0.787013 0.858565 0.842924
O O9 0.412389 0.597756 0.715958
O O10 0.799291 0.555986 0.789285
O O11 0.541758 0.232842 0.912181
O O12 0.015082 0.198489 0.936928
O O13 0.951481 0.001731 0.637031
O O14 0.607505 0.039955 0.895404
#
# Coordination Sequence:
#
# PCOD9034085 Si02
#       8
#     2   2   2   1   2   1   2   2
#     4  11  23  45  72 102 145 193 241 306 361 431
#     4  10  23  43  70 102 139 186 236 300 362 436
#     4  11  26  44  70 105 144 194 241 301 373 427
#     4  12  22  44  72 100 140 186 246 292 356 436
#     4  11  26  46  70 109 143 193 241 303 364 436
#     4  10  24  50  72 102 146 186 236 302 366 434
#     4  10  22  44  71 104 142 190 243 296 375 424
#     4  12  27  44  71 108 147 189 248 300 356 442
#
# _framework density 27.230156000000001
#
# number of rings (size 3 to 8) (size 9 to 14) (size 15 to 20)
#    0.000    1.143    1.429    3.429    4.000    4.000 
#    0.000    3.571    0.000    0.000    0.000    0.000 
#    0.000    0.000    0.000    0.000    0.000    0.000 
#
# Total GULP energy -77995.488908 kJ/mol
# GULP energy per Si atom -5571.106351 kJ/mol
# Density = 2.716818 g / cm^3
# Si number density = 27.230156 Si / 1000 Ang^3
#
#
#
# Elastic Constant Matrix: (Units=GPa)
#
#
# Indices 1 2 3 4 5 6 
#
# 1 117.6894 -10.4904 32.9039 -3.0740 -6.9168 -6.5283
# 2 -10.4904 91.9626 25.7101 -37.0907 8.1859 -11.7709
# 3 32.9039 25.7101 147.2295 -26.8888 -13.9257 -10.8296
# 4 -3.0740 -37.0907 -26.8888 49.0592 -13.5425 -1.2241
# 5 -6.9168 8.1859 -13.9257 -13.5425 54.0949 -7.8446
# 6 -6.5283 -11.7709 -10.8296 -1.2241 -7.8446 30.7846
#
#
#
# Elastic Compliance Matrix: (Units=1/GPa)
#
#
# Indices 1 2 3 4 5 6 
#
# 1 0.009547 0.002662 -0.001923 0.001960 0.001213 0.002753
# 2 0.002662 0.017975 -0.000221 0.014523 0.002440 0.008559
# 3 -0.001923 -0.000221 0.009027 0.005910 0.004168 0.003980
# 4 0.001960 0.014523 0.005910 0.038038 0.010886 0.012334
# 5 0.001213 0.002440 0.004168 0.010886 0.023382 0.009048
# 6 0.002753 0.008559 0.003980 0.012334 0.009048 0.040536
#
#
# Mechanical properties :
#
#
# Convention : Reuss Voigt Hill
#
# Bulk Modulus (GPa) = 26.60769 50.34762 38.47766
# Shear Modulus (GPa) = 33.33372 47.37159 40.35265
#
# Velocity S-wave (km/s) = 3.50258 4.17546 3.85374
# Velocity P-wave (km/s) = 5.11371 6.46342 5.82777
#
# Compressibility (1/GPa) = 0.03758312
#
# Stress axis : x y z
#
# Youngs Moduli (GPa) = 104.74431 55.63288 110.78034
#
# Poissons Ratio (x) = -0.14807 0.21307
# Poissons Ratio (y) = -0.27878 0.02449
# Poissons Ratio (z) = 0.20146 0.01230
#
# Static dielectric constant tensor:
#      x y z
#    x 2.147970 -0.271790 -0.125380 
#    y -0.271790 2.333480 0.111250 
#    z -0.125380 0.111250 2.307350 
# 
# From -- ./inp_files/34513.got.cif
#   From: 2010.05.17/outbox.cif.g08.bks.cpg/sg2_18_cif.got.tgz:34513.got - 2010.06.03 11:33:40.
