data_PCOD9034218
_publ_section_title
;
Structure prediction by ZEFSAII (Michael W. Deem and Ramdas Pophale) SiO2 
 PCOD9034218
Probable space group: P -1
;
_chemical_formula_sum "Si O2"
_cell_formula_units_Z 15
_cell_length_a 12.736321
_cell_length_b 12.618660
_cell_length_c 7.835031
_cell_angle_alpha 108.647858
_cell_angle_beta 129.885353
_cell_angle_gamma 41.732930
_cell_volume 611.309918
_symmetry_space_group_name_H-M "P -1"
_symmetry_group_IT_number 2
_symmetry_cell_setting 'triclinic'
loop_
_space_group_symop_operation_xyz
x,y,z
-x,-y,-z
loop_
_atom_site_type_symbol
_atom_site_label
_atom_site_fract_x
_atom_site_fract_y
_atom_site_fract_z
Si Si1 0.459214 0.454773 0.684701
Si Si2 0.831593 0.837001 0.102310
Si Si3 0.000000 0.500000 0.000000
Si Si4 0.282752 0.916433 0.639285
Si Si5 0.975731 0.613256 0.668431
Si Si6 0.569202 0.617389 0.035252
Si Si7 0.825589 0.249635 0.716485
Si Si8 0.423844 0.012864 0.613486
O O1 0.423971 0.381221 0.751355
O O2 0.683660 0.310649 0.761795
O O3 0.298501 0.575842 0.426561
O O4 0.449787 0.577664 0.838562
O O5 0.925685 0.656540 0.115403
O O6 0.949027 0.836576 0.076559
O O7 0.856328 0.903827 0.325385
O O8 0.592617 0.963979 0.886993
O O9 0.080265 0.391323 0.202519
O O10 0.172183 0.869873 0.442781
O O11 0.400057 0.899014 0.590536
O O12 0.449738 0.782690 0.888648
O O13 0.799500 0.798969 0.510349
O O14 0.000000 0.500000 0.500000
O O15 0.200608 0.530825 0.869661
O O16 0.500000 0.000000 0.500000
#
# Coordination Sequence:
#
# PCOD9034218 Si02
#       8
#     2   2   1   2   2   2   2   2
#     4   9  21  42  70 107 142 189 251 301 364 460
#     4  12  25  48  73 109 146 199 248 314 381 455
#     4  12  26  46  76 104 150 198 258 312 380 448
#     4  11  25  47  72 108 155 195 245 317 385 451
#     4  12  26  45  75 110 141 203 252 311 374 458
#     4  10  22  44  72 103 146 196 245 304 372 450
#     4  10  23  44  76 110 150 193 247 311 383 457
#     4  12  27  48  70 108 151 191 254 311 374 457
#
# _framework density 24.537472999999999
#
# number of rings (size 3 to 8) (size 9 to 14) (size 15 to 20)
#    0.000    1.067    1.333    4.000    3.733    4.267 
#    2.400    1.333    0.000    0.000    0.000    0.000 
#    0.000    0.000    0.000    0.000    0.000    0.000 
#
# Total GULP energy -83618.824095 kJ/mol
# GULP energy per Si atom -5574.588273 kJ/mol
# Density = 2.448162 g / cm^3
# Si number density = 24.537473 Si / 1000 Ang^3
#
#
#
# Elastic Constant Matrix: (Units=GPa)
#
#
# Indices 1 2 3 4 5 6 
#
# 1 94.7977 37.2979 31.4985 -19.1548 -25.8601 15.6256
# 2 37.2979 117.9107 25.3715 -1.9244 -7.9111 12.6392
# 3 31.4985 25.3715 55.4287 -5.0018 11.0046 20.7033
# 4 -19.1548 -1.9244 -5.0018 28.7543 -5.2137 -6.2903
# 5 -25.8601 -7.9111 11.0046 -5.2137 37.5242 2.2703
# 6 15.6256 12.6392 20.7033 -6.2903 2.2703 31.6224
#
#
#
# Elastic Compliance Matrix: (Units=1/GPa)
#
#
# Indices 1 2 3 4 5 6 
#
# 1 0.031260 -0.003202 -0.020921 0.022840 0.030060 0.001915
# 2 -0.003202 0.010202 -0.002701 -0.002084 0.000518 -0.001179
# 3 -0.020921 -0.002701 0.041729 -0.015722 -0.028381 -0.016993
# 4 0.022840 -0.002084 -0.015722 0.053878 0.026875 0.008628
# 5 0.030060 0.000518 -0.028381 0.026875 0.059253 0.004612
# 6 0.001915 -0.001179 -0.016993 0.008628 0.004612 0.043658
#
#
# Mechanical properties :
#
#
# Convention : Reuss Voigt Hill
#
# Bulk Modulus (GPa) = 33.84817 50.71921 42.28369
# Shear Modulus (GPa) = 16.47579 31.17813 23.82696
#
# Velocity S-wave (km/s) = 2.59405 3.56846 3.11954
# Velocity P-wave (km/s) = 4.77458 6.13951 5.49955
#
# Compressibility (1/GPa) = 0.02954370
#
# Stress axis : x y z
#
# Youngs Moduli (GPa) = 31.99025 98.01855 23.96415
#
# Poissons Ratio (x) = 0.31387 0.50135
# Poissons Ratio (y) = 0.10244 0.06472
# Poissons Ratio (z) = 0.66926 0.26471
#
# Static dielectric constant tensor:
#      x y z
#    x 2.079110 0.002090 -0.003190 
#    y 0.002090 1.960580 0.014350 
#    z -0.003190 0.014350 1.980960 
# 
# From -- ./inp_files/259175.got.cif
#   From: 2010.05.17/outbox.cif.g08.bks.cpg/sg2_130_cif.got.tgz:259175.got - 2010.06.03 11:33:40.
