data_PCOD9034416
_publ_section_title
;
Structure prediction by ZEFSAII (Michael W. Deem and Ramdas Pophale) SiO2 
 PCOD9034416
Probable space group: P -1
;
_chemical_formula_sum "Si O2"
_cell_formula_units_Z 10
_cell_length_a 12.085981
_cell_length_b 9.604839
_cell_length_c 5.313618
_cell_angle_alpha 101.899224
_cell_angle_beta 78.714148
_cell_angle_gamma 137.036838
_cell_volume 410.420683
_symmetry_space_group_name_H-M "P -1"
_symmetry_group_IT_number 2
_symmetry_cell_setting 'triclinic'
loop_
_space_group_symop_operation_xyz
x,y,z
-x,-y,-z
loop_
_atom_site_type_symbol
_atom_site_label
_atom_site_fract_x
_atom_site_fract_y
_atom_site_fract_z
Si Si1 0.618209 0.761790 0.921655
Si Si2 0.480289 0.736163 0.484555
Si Si3 0.670730 0.100073 0.853901
Si Si4 0.135697 0.514933 0.352713
Si Si5 0.923197 0.863839 0.736097
O O1 0.486152 0.659801 0.719959
O O2 0.721646 0.004144 0.942164
O O3 0.735730 0.741182 0.791349
O O4 0.540674 0.698878 0.207108
O O5 0.617225 0.982974 0.564947
O O6 0.304870 0.643770 0.477484
O O7 0.794561 0.341777 0.872632
O O8 0.500000 0.000000 0.000000
O O9 0.061508 0.290947 0.303998
O O10 0.000000 0.500000 0.500000
O O11 0.000000 0.000000 0.500000
O O12 0.000000 0.000000 0.000000
#
# Coordination Sequence:
#
# PCOD9034416 Si02
#       5
#     2   2   2   2   2
#     4  10  23  44  76  96 153 184 245 294 373 430
#     4  10  23  44  76 108 140 191 246 302 367 435
#     4  10  22  44  74 108 147 185 247 303 370 438
#     4  12  26  45  78 112 148 195 253 305 375 441
#     4  12  29  51  70 108 157 198 240 311 377 437
#
# _framework density 24.365241000000001
#
# number of rings (size 3 to 8) (size 9 to 14) (size 15 to 20)
#    1.200    0.000    2.000    3.000    2.800    4.800 
#    0.000    6.000    0.000    0.000    0.000    0.000 
#    0.000    0.000    0.000    0.000    0.000    0.000 
#
# Total GULP energy -55867.043960 kJ/mol
# GULP energy per Si atom -5586.704396 kJ/mol
# Density = 2.430979 g / cm^3
# Si number density = 24.365241 Si / 1000 Ang^3
#
#
#
# Elastic Constant Matrix: (Units=GPa)
#
#
# Indices 1 2 3 4 5 6 
#
# 1 137.9993 40.4943 47.1377 6.3638 -38.8090 -15.3784
# 2 40.4943 174.9495 53.7482 -12.2070 -15.7707 -41.5167
# 3 47.1377 53.7482 164.9895 -16.0858 -15.9282 -4.9807
# 4 6.3638 -12.2070 -16.0858 24.3625 4.7773 -5.2117
# 5 -38.8090 -15.7707 -15.9282 4.7773 49.9955 6.7894
# 6 -15.3784 -41.5167 -4.9807 -5.2117 6.7894 43.1981
#
#
#
# Elastic Compliance Matrix: (Units=1/GPa)
#
#
# Indices 1 2 3 4 5 6 
#
# 1 0.011163 -0.001521 -0.002593 -0.006935 0.008006 0.000118
# 2 -0.001521 0.009015 -0.001739 0.005753 -0.000624 0.008715
# 3 -0.002593 -0.001739 0.007764 0.004785 -0.000401 -0.001059
# 4 -0.006935 0.005753 0.004785 0.053030 -0.008656 0.011371
# 5 0.008006 -0.000624 -0.000401 -0.008656 0.027140 -0.003106
# 6 0.000118 0.008715 -0.001059 0.011371 -0.003106 0.033305
#
#
# Mechanical properties :
#
#
# Convention : Reuss Voigt Hill
#
# Bulk Modulus (GPa) = 61.59125 84.52206 73.05666
# Shear Modulus (GPa) = 31.53848 45.94843 38.74346
#
# Velocity S-wave (km/s) = 3.60169 4.34731 3.99195
# Velocity P-wave (km/s) = 6.52912 7.74363 7.16216
#
# Compressibility (1/GPa) = 0.01623607
#
# Stress axis : x y z
#
# Youngs Moduli (GPa) = 89.58068 110.92138 128.79788
#
# Poissons Ratio (x) = 0.16875 0.33403
# Poissons Ratio (y) = 0.13628 0.22392
# Poissons Ratio (z) = 0.23232 0.19284
#
# Static dielectric constant tensor:
#      x y z
#    x 1.939940 -0.047260 0.014880 
#    y -0.047260 2.063070 0.031190 
#    z 0.014880 0.031190 1.944040 
# 
# From -- ./inp_files/59854.got.cif
#   From: 2010.05.17/outbox.cif.g08.bks.cpg/sg2_30_cif.got.tgz:59854.got - 2010.06.03 11:33:40.
