data_PCOD9034092
_publ_section_title
;
Structure prediction by ZEFSAII (Michael W. Deem and Ramdas Pophale) SiO2 
 PCOD9034092
Probable space group: P -1
;
_chemical_formula_sum "Si O2"
_cell_formula_units_Z 16
_cell_length_a 24.773545
_cell_length_b 5.694892
_cell_length_c 23.237012
_cell_angle_alpha 116.939340
_cell_angle_beta 168.473702
_cell_angle_gamma 64.669800
_cell_volume 581.603393
_symmetry_space_group_name_H-M "P -1"
_symmetry_group_IT_number 2
_symmetry_cell_setting 'triclinic'
loop_
_space_group_symop_operation_xyz
x,y,z
-x,-y,-z
loop_
_atom_site_type_symbol
_atom_site_label
_atom_site_fract_x
_atom_site_fract_y
_atom_site_fract_z
Si Si1 0.203349 0.827948 0.054652
Si Si2 0.735620 0.652377 0.625646
Si Si3 0.766386 0.683899 0.786744
Si Si4 0.128693 0.934350 0.770286
Si Si5 0.283074 0.455954 0.820500
Si Si6 0.483564 0.812696 0.718845
Si Si7 0.237944 0.375819 0.509567
Si Si8 0.588506 0.154548 0.187101
O O1 0.033024 0.666001 0.909843
O O2 0.061279 0.715988 0.836459
O O3 0.521828 0.807652 0.383639
O O4 0.161359 0.119651 0.064100
O O5 0.733755 0.796555 0.701028
O O6 0.589658 0.354367 0.434176
O O7 0.500000 0.500000 0.500000
O O8 0.000000 0.500000 0.000000
O O9 0.835930 0.976604 0.442009
O O10 0.225450 0.639426 0.836746
O O11 0.205222 0.099088 0.926855
O O12 0.355629 0.062559 0.978403
O O13 0.000000 0.500000 0.500000
O O14 0.500000 0.500000 0.000000
O O15 0.390515 0.196012 0.930824
O O16 0.360720 0.594553 0.614245
O O17 0.362068 0.096324 0.618813
O O18 0.263930 0.551510 0.613736
#
# Coordination Sequence:
#
# PCOD9034092 Si02
#       8
#     2   2   2   2   2   2   2   2
#     4  11  23  42  65  97 135 186 237 294 359 429
#     4  11  23  42  65  97 135 186 237 294 359 429
#     4  12  24  40  64  96 138 186 235 296 357 428
#     4  11  24  45  69 101 141 187 236 298 360 428
#     4  12  26  44  70 104 140 185 238 293 356 436
#     4  10  22  44  71 105 142 188 240 301 361 431
#     4  10  22  44  71 105 142 188 240 301 361 431
#     4  11  24  45  69 101 141 187 236 298 360 428
#
# _framework density 27.510155999999998
#
# number of rings (size 3 to 8) (size 9 to 14) (size 15 to 20)
#    0.000    1.000    1.250    5.250    0.000    5.000 
#    0.000    7.500    0.000    0.000    0.000    0.000 
#    0.000    0.000    0.000    0.000    0.000    0.000 
#
# Total GULP energy -89285.723187 kJ/mol
# GULP energy per Si atom -5580.357699 kJ/mol
# Density = 2.744754 g / cm^3
# Si number density = 27.510156 Si / 1000 Ang^3
#
#
#
# Elastic Constant Matrix: (Units=GPa)
#
#
# Indices 1 2 3 4 5 6 
#
# 1 47.9148 9.8473 37.5140 -20.7600 44.7031 28.2883
# 2 9.8473 151.1467 20.8799 -21.1129 -0.1635 -6.5040
# 3 37.5140 20.8799 148.4531 -0.1926 -10.7868 12.5472
# 4 -20.7600 -21.1129 -0.1926 31.8376 10.1840 -1.3491
# 5 44.7031 -0.1635 -10.7868 10.1840 21.6375 -4.9042
# 6 28.2883 -6.5040 12.5472 -1.3491 -4.9042 29.1595
#
#
#
# Elastic Compliance Matrix: (Units=1/GPa)
#
#
# Indices 1 2 3 4 5 6 
#
# 1 -0.005238 -0.000991 0.002200 -0.009494 0.017849 0.006477
# 2 -0.000991 0.007597 -0.001080 0.004453 0.000233 0.003366
# 3 0.002200 -0.001080 0.006574 0.001575 -0.003307 -0.005688
# 4 -0.009494 0.004453 0.001575 0.025033 0.011513 0.012621
# 5 0.017849 0.000233 -0.003307 0.011513 -0.001242 -0.015517
# 6 0.006477 0.003366 -0.005688 0.012621 -0.015517 0.029183
#
#
# Mechanical properties :
#
#
# Convention : Reuss Voigt Hill
#
# Bulk Modulus (GPa) = 108.78947 53.77743 81.28345
# Shear Modulus (GPa) = 77.26462 35.14515 56.20489
#
# Velocity S-wave (km/s) = 5.30536 3.57814 4.52493
# Velocity P-wave (km/s) = 8.78409 6.05487 7.54392
#
# Compressibility (1/GPa) = 0.00919207
#
# Stress axis : x y z
#
# Youngs Moduli (GPa) = -190.89600 131.63163 152.10333
#
# Poissons Ratio (x) = 0.13043 -0.33467
# Poissons Ratio (y) = -0.18916 0.16425
# Poissons Ratio (z) = 0.42003 0.14214
#
# Static dielectric constant tensor:
#      x y z
#    x 3.331910 0.139850 -0.686730 
#    y 0.139850 2.265180 -0.009150 
#    z -0.686730 -0.009150 2.465030 
# 
# From -- ./inp_files/128880.got.cif
#   From: 2010.05.17/outbox.cif.g08.bks.cpg/sg2_65_cif.got.tgz:128880.got - 2010.06.03 11:33:40.
