data_PCOD9034358
_publ_section_title
;
Structure prediction by ZEFSAII (Michael W. Deem and Ramdas Pophale) SiO2 
 PCOD9034358
Probable space group: P -1
;
_chemical_formula_sum "Si O2"
_cell_formula_units_Z 15
_cell_length_a 19.946908
_cell_length_b 8.074121
_cell_length_c 7.281724
_cell_angle_alpha 124.363641
_cell_angle_beta 115.657736
_cell_angle_gamma 37.189425
_cell_volume 584.826232
_symmetry_space_group_name_H-M "P -1"
_symmetry_group_IT_number 2
_symmetry_cell_setting 'triclinic'
loop_
_space_group_symop_operation_xyz
x,y,z
-x,-y,-z
loop_
_atom_site_type_symbol
_atom_site_label
_atom_site_fract_x
_atom_site_fract_y
_atom_site_fract_z
Si Si1 0.118572 0.437866 0.063699
Si Si2 0.864198 0.329865 0.257243
Si Si3 0.226511 0.076207 0.566015
Si Si4 0.081673 0.188173 0.165893
Si Si5 0.395928 0.715462 0.228601
Si Si6 0.288464 0.352421 0.384098
Si Si7 0.635412 0.377191 0.263853
Si Si8 0.000000 0.000000 0.500000
O O1 0.136356 0.219731 0.090314
O O2 0.219671 0.395366 0.160668
O O3 0.022214 0.747482 0.259295
O O4 0.050186 0.543583 0.862244
O O5 0.814681 0.374600 0.432223
O O6 0.983910 0.146540 0.363906
O O7 0.784155 0.664206 0.306572
O O8 0.872760 0.126562 0.008275
O O9 0.329739 0.795403 0.383458
O O10 0.256421 0.947109 0.725017
O O11 0.125159 0.186903 0.405162
O O12 0.527695 0.466761 0.252410
O O13 0.356971 0.021244 0.323343
O O14 0.370789 0.622920 0.965262
O O15 0.362118 0.403649 0.511721
#
# Coordination Sequence:
#
# PCOD9034358 Si02
#       8
#     2   2   2   2   2   2   2   1
#     4   9  17  29  56  89 116 154 202 236 285 355
#     4   9  18  30  57  84 116 154 201 240 288 348
#     4  11  21  39  59  93 118 155 200 248 295 356
#     4  10  17  32  56  89 117 157 199 239 287 349
#     4  10  22  43  61  87 117 158 201 246 300 366
#     4  10  19  37  57  88 116 158 197 244 296 358
#     4  11  24  38  64  87 121 154 198 251 308 348
#     4   8  12  28  48  82 112 148 196 234 270 346
#
# _framework density 25.648644999999998
#
# number of rings (size 3 to 8) (size 9 to 14) (size 15 to 20)
#    0.000    2.133    4.000    1.600    0.000    1.067 
#    0.000    0.667    0.000   18.400    0.000    0.933 
#    0.000    0.000    0.000    0.000    0.000    0.000 
#
# Total GULP energy -83605.050515 kJ/mol
# GULP energy per Si atom -5573.670034 kJ/mol
# Density = 2.559027 g / cm^3
# Si number density = 25.648645 Si / 1000 Ang^3
#
#
#
# Elastic Constant Matrix: (Units=GPa)
#
#
# Indices 1 2 3 4 5 6 
#
# 1 63.8974 -1.5987 23.2672 -18.4187 -1.8511 -12.9900
# 2 -1.5987 91.1137 37.1298 -20.0647 14.3880 -0.2151
# 3 23.2672 37.1298 173.7263 -33.0413 6.8574 7.1036
# 4 -18.4187 -20.0647 -33.0413 41.8220 -5.5201 6.1875
# 5 -1.8511 14.3880 6.8574 -5.5201 39.4585 -4.2873
# 6 -12.9900 -0.2151 7.1036 6.1875 -4.2873 30.8201
#
#
#
# Elastic Compliance Matrix: (Units=1/GPa)
#
#
# Indices 1 2 3 4 5 6 
#
# 1 0.020406 0.002601 -0.002264 0.007578 0.002325 0.007943
# 2 0.002601 0.013679 -0.002065 0.005581 -0.003723 0.000029
# 3 -0.002264 -0.002065 0.007509 0.004427 -0.000435 -0.003649
# 4 0.007578 0.005581 0.004427 0.034324 0.001873 -0.004418
# 5 0.002325 -0.003723 -0.000435 0.001873 0.027639 0.004523
# 6 0.007943 0.000029 -0.003649 -0.004418 0.004523 0.038151
#
#
# Mechanical properties :
#
#
# Convention : Reuss Voigt Hill
#
# Bulk Modulus (GPa) = 26.21996 49.59266 37.90631
# Shear Modulus (GPa) = 31.66998 40.41607 36.04302
#
# Velocity S-wave (km/s) = 3.51773 3.97389 3.75275
# Velocity P-wave (km/s) = 5.17148 6.35870 5.79557
#
# Compressibility (1/GPa) = 0.03813888
#
# Stress axis : x y z
#
# Youngs Moduli (GPa) = 49.00496 73.10231 133.17173
#
# Poissons Ratio (x) = -0.19014 0.30153
# Poissons Ratio (y) = -0.12746 0.27496
# Poissons Ratio (z) = 0.11096 0.15093
#
# Static dielectric constant tensor:
#      x y z
#    x 1.918990 0.288020 -0.146950 
#    y 0.288020 1.739610 0.113390 
#    z -0.146950 0.113390 2.017030 
# 
# From -- ./inp_files/356310.got.cif
#   From: 2010.05.17/outbox.cif.g08.bks.cpg/sg2_179_cif.got.tgz:356310.got - 2010.06.03 11:33:40.
