data_PCOD9034001
_publ_section_title
;
Structure prediction by ZEFSAII (Michael W. Deem and Ramdas Pophale) SiO2 
 PCOD9034001
Probable space group: P -1
;
_chemical_formula_sum "Si O2"
_cell_formula_units_Z 13
_cell_length_a 9.305913
_cell_length_b 11.502231
_cell_length_c 11.613007
_cell_angle_alpha 117.789192
_cell_angle_beta 133.498364
_cell_angle_gamma 97.651308
_cell_volume 563.706202
_symmetry_space_group_name_H-M "P -1"
_symmetry_group_IT_number 2
_symmetry_cell_setting 'triclinic'
loop_
_space_group_symop_operation_xyz
x,y,z
-x,-y,-z
loop_
_atom_site_type_symbol
_atom_site_label
_atom_site_fract_x
_atom_site_fract_y
_atom_site_fract_z
Si Si1 0.257021 0.354608 0.207679
Si Si2 0.179231 0.728164 0.342658
Si Si3 0.000000 0.500000 0.500000
Si Si4 0.242222 0.054272 0.581665
Si Si5 0.190831 0.783029 0.919212
Si Si6 0.362126 0.623347 0.200275
Si Si7 0.541454 0.832805 0.816516
O O1 0.500000 0.500000 0.500000
O O2 0.325304 0.483367 0.199592
O O3 0.279048 0.215021 0.116322
O O4 0.968479 0.249000 0.065944
O O5 0.291711 0.717997 0.281930
O O6 0.378862 0.780955 0.581634
O O7 0.156627 0.874652 0.395982
O O8 0.875152 0.517825 0.091359
O O9 0.008123 0.406171 0.349343
O O10 0.692960 0.291974 0.272596
O O11 0.343187 0.210314 0.618200
O O12 0.517494 0.148279 0.851908
O O13 0.000000 0.000000 0.500000
O O14 0.262547 0.948088 0.963645
#
# Coordination Sequence:
#
# PCOD9034001 Si02
#       7
#     2   2   1   2   2   2   2
#     4  12  23  45  70 105 135 181 232 287 344 410
#     4  10  22  44  70  99 133 178 231 287 336 407
#     4  12  22  42  66 102 140 184 228 270 352 410
#     4  11  26  46  68 102 139 182 231 282 348 414
#     4  11  25  46  69  99 143 182 233 292 341 410
#     4  11  22  42  72  98 136 179 228 286 343 397
#     4  11  24  43  69 102 144 181 228 287 346 415
#
# _framework density 23.06166
#
# number of rings (size 3 to 8) (size 9 to 14) (size 15 to 20)
#    0.000    0.923    3.077    4.154    0.000    5.538 
#    5.538    0.000    0.000    0.000    0.000    0.000 
#    0.000    0.000    0.000    0.000    0.000    0.000 
#
# Total GULP energy -72551.407870 kJ/mol
# GULP energy per Si atom -5580.877528 kJ/mol
# Density = 2.300917 g / cm^3
# Si number density = 23.061660 Si / 1000 Ang^3
#
#
#
# Elastic Constant Matrix: (Units=GPa)
#
#
# Indices 1 2 3 4 5 6 
#
# 1 114.0624 75.4276 45.3539 23.3722 22.0636 -1.4669
# 2 75.4276 127.0180 37.6441 30.7105 13.3619 -5.5925
# 3 45.3539 37.6441 78.6984 21.2390 -5.0479 -8.3415
# 4 23.3722 30.7105 21.2390 39.6331 0.7838 8.6707
# 5 22.0636 13.3619 -5.0479 0.7838 49.7985 14.0603
# 6 -1.4669 -5.5925 -8.3415 8.6707 14.0603 33.1125
#
#
#
# Elastic Compliance Matrix: (Units=1/GPa)
#
#
# Indices 1 2 3 4 5 6 
#
# 1 0.018170 -0.007710 -0.006796 -0.001192 -0.006949 0.001054
# 2 -0.007710 0.014814 -0.000087 -0.007944 -0.001856 0.005007
# 3 -0.006796 -0.000087 0.019459 -0.007515 0.003720 0.004974
# 4 -0.001192 -0.007944 -0.007515 0.039526 0.005825 -0.016111
# 5 -0.006949 -0.001856 0.003720 0.005825 0.027593 -0.012926
# 6 0.001054 0.005007 0.004974 -0.016111 -0.012926 0.042053
#
#
# Mechanical properties :
#
#
# Convention : Reuss Voigt Hill
#
# Bulk Modulus (GPa) = 42.99885 70.73667 56.86776
# Shear Modulus (GPa) = 25.18237 35.26571 30.22404
#
# Velocity S-wave (km/s) = 3.30806 3.91473 3.62411
# Velocity P-wave (km/s) = 5.76860 7.15353 6.49806
#
# Compressibility (1/GPa) = 0.02325644
#
# Stress axis : x y z
#
# Youngs Moduli (GPa) = 55.03608 67.50522 51.39141
#
# Poissons Ratio (x) = 0.52049 0.34923
# Poissons Ratio (y) = 0.42435 0.00447
# Poissons Ratio (z) = 0.37400 0.00587
#
# Static dielectric constant tensor:
#      x y z
#    x 1.813980 0.001520 0.011930 
#    y 0.001520 1.901950 -0.033850 
#    z 0.011930 -0.033850 1.871170 
# 
# From -- ./inp_files/260593.got.cif
#   From: 2010.05.17/outbox.cif.g08.bks.cpg/sg2_131_cif.got.tgz:260593.got - 2010.06.03 11:33:40.
