data_PCOD9034647
_publ_section_title
;
Structure prediction by ZEFSAII (Michael W. Deem and Ramdas Pophale) SiO2 
 PCOD9034647
Probable space group: P -1
;
_chemical_formula_sum "Si O2"
_cell_formula_units_Z 16
_cell_length_a 9.166908
_cell_length_b 23.037680
_cell_length_c 9.755807
_cell_angle_alpha 134.874026
_cell_angle_beta 45.598785
_cell_angle_gamma 149.429727
_cell_volume 717.859782
_symmetry_space_group_name_H-M "P -1"
_symmetry_group_IT_number 2
_symmetry_cell_setting 'triclinic'
loop_
_space_group_symop_operation_xyz
x,y,z
-x,-y,-z
loop_
_atom_site_type_symbol
_atom_site_label
_atom_site_fract_x
_atom_site_fract_y
_atom_site_fract_z
Si Si1 0.754159 0.904440 0.608576
Si Si2 0.646195 0.429233 0.888484
Si Si3 0.731641 0.254241 0.549459
Si Si4 0.318142 0.305996 0.626563
Si Si5 0.600739 0.599536 0.704180
Si Si6 0.676928 0.357478 0.239144
Si Si7 0.324789 0.866652 0.351024
Si Si8 0.711845 0.917744 0.955842
O O1 0.452926 0.828150 0.597929
O O2 0.769992 0.812553 0.474308
O O3 0.786168 0.961592 0.825019
O O4 0.000000 0.000000 0.500000
O O5 0.707861 0.347410 0.727769
O O6 0.428235 0.377153 0.814873
O O7 0.976388 0.560337 0.862875
O O8 0.504250 0.429385 0.117172
O O9 0.612955 0.181218 0.648911
O O10 0.049665 0.307070 0.394009
O O11 0.599680 0.388781 0.476397
O O12 0.027854 0.246768 0.632502
O O13 0.500000 0.500000 0.500000
O O14 0.438917 0.631601 0.801586
O O15 0.456142 0.217525 0.167061
O O16 0.500000 0.000000 0.500000
O O17 0.466114 0.897817 0.160659
O O18 0.000000 0.000000 0.000000
#
# Coordination Sequence:
#
# PCOD9034647 Si02
#       8
#     2   2   2   2   2   2   2   2
#     4  10  22  45  66  95 131 174 224 278 342 402
#     4  11  25  44  70  99 140 179 223 282 346 400
#     4  11  24  44  71  97 141 179 223 284 338 404
#     4  10  23  42  67  98 133 175 223 283 336 403
#     4  12  25  41  70 103 137 178 232 273 340 408
#     4  11  22  45  68  96 135 179 225 278 341 409
#     4  12  24  44  67 100 136 178 231 279 333 403
#     4  11  25  42  70  97 132 182 223 276 349 403
#
# _framework density 22.288477
#
# number of rings (size 3 to 8) (size 9 to 14) (size 15 to 20)
#    0.000    1.000    2.500    4.500    3.500    1.000 
#    0.000    2.500    0.000    0.000    0.000    0.000 
#    0.000    0.000    0.000    0.000    0.000    0.000 
#
# Total GULP energy -89287.767551 kJ/mol
# GULP energy per Si atom -5580.485472 kJ/mol
# Density = 2.223775 g / cm^3
# Si number density = 22.288477 Si / 1000 Ang^3
#
#
#
# Elastic Constant Matrix: (Units=GPa)
#
#
# Indices 1 2 3 4 5 6 
#
# 1 80.2684 17.7170 29.4929 9.4982 26.1169 5.7643
# 2 17.7170 89.2470 42.0780 -2.2727 12.7405 7.0472
# 3 29.4929 42.0780 157.5346 -16.7611 45.3234 8.6539
# 4 9.4982 -2.2727 -16.7611 33.4409 -1.1044 8.3360
# 5 26.1169 12.7405 45.3234 -1.1044 36.8034 -5.9041
# 6 5.7643 7.0472 8.6539 8.3360 -5.9041 30.3895
#
#
#
# Elastic Compliance Matrix: (Units=1/GPa)
#
#
# Indices 1 2 3 4 5 6 
#
# 1 0.017952 -0.001729 0.001130 -0.003862 -0.014462 -0.005076
# 2 -0.001729 0.013141 -0.003117 0.000295 0.000226 -0.001869
# 3 0.001130 -0.003117 0.013191 0.007677 -0.017129 -0.008682
# 4 -0.003862 0.000295 0.007677 0.037965 -0.007835 -0.013458
# 5 -0.014462 0.000226 -0.017129 -0.007835 0.061697 0.021704
# 6 -0.005076 -0.001869 -0.008682 -0.013458 0.021704 0.044683
#
#
# Mechanical properties :
#
#
# Convention : Reuss Voigt Hill
#
# Bulk Modulus (GPa) = 27.13722 56.18065 41.65894
# Shear Modulus (GPa) = 23.99866 35.97758 29.98812
#
# Velocity S-wave (km/s) = 3.28492 4.02204 3.67202
# Velocity P-wave (km/s) = 5.15649 6.84324 6.05885
#
# Compressibility (1/GPa) = 0.03684975
#
# Stress axis : x y z
#
# Youngs Moduli (GPa) = 55.70449 76.09993 75.81018
#
# Poissons Ratio (x) = 0.13161 -0.08564
# Poissons Ratio (y) = 0.09633 0.23631
# Poissons Ratio (z) = -0.06293 0.23721
#
# Static dielectric constant tensor:
#      x y z
#    x 1.763600 -0.022540 0.054430 
#    y -0.022540 3.023160 0.685300 
#    z 0.054430 0.685300 2.233760 
# 
# From -- ./inp_files/225817.got.cif
#   From: 2010.05.17/outbox.cif.g08.bks.cpg/sg2_113_cif.got.tgz:225817.got - 2010.06.03 11:33:40.
