data_PCOD9034522
_publ_section_title
;
Structure prediction by ZEFSAII (Michael W. Deem and Ramdas Pophale) SiO2 
 PCOD9034522
Probable space group: P -1
;
_chemical_formula_sum "Si O2"
_cell_formula_units_Z 10
_cell_length_a 14.741674
_cell_length_b 7.061718
_cell_length_c 8.500611
_cell_angle_alpha 73.356936
_cell_angle_beta 143.539646
_cell_angle_gamma 128.220513
_cell_volume 368.468930
_symmetry_space_group_name_H-M "P -1"
_symmetry_group_IT_number 2
_symmetry_cell_setting 'triclinic'
loop_
_space_group_symop_operation_xyz
x,y,z
-x,-y,-z
loop_
_atom_site_type_symbol
_atom_site_label
_atom_site_fract_x
_atom_site_fract_y
_atom_site_fract_z
Si Si1 0.843978 0.264622 0.537504
Si Si2 0.709741 0.530987 0.844354
Si Si3 0.396762 0.305199 0.752867
Si Si4 0.310499 0.037922 0.287606
Si Si5 0.967293 0.791520 0.624188
O O1 0.137004 0.490257 0.534266
O O2 0.074607 0.378746 0.837294
O O3 0.697510 0.998910 0.288144
O O4 0.760483 0.167455 0.622946
O O5 0.567454 0.438647 0.823177
O O6 0.562229 0.272582 0.583572
O O7 0.747144 0.788028 0.780275
O O8 0.192575 0.263505 0.455970
O O9 0.500000 0.500000 0.000000
O O10 0.179562 0.906439 0.976746
O O11 0.000000 0.000000 0.500000
#
# Coordination Sequence:
#
# PCOD9034522 Si02
#       5
#     2   2   2   2   2
#     4  11  25  48  77 106 144 194 246 297 365 431
#     4  10  22  44  79 106 140 190 245 302 360 433
#     4  11  26  48  69 107 150 189 240 300 367 435
#     4  10  22  45  74 108 146 186 242 301 361 435
#     4  12  27  49  71 106 153 195 239 302 365 433
#
# _framework density 27.139329
#
# number of rings (size 3 to 8) (size 9 to 14) (size 15 to 20)
#    0.000    1.200    2.000    2.400    5.600    2.400 
#   14.400    0.000    0.000    0.000    0.000    0.000 
#    0.000    0.000    0.000    0.000    0.000    0.000 
#
# Total GULP energy -56076.606259 kJ/mol
# GULP energy per Si atom -5607.660626 kJ/mol
# Density = 2.707756 g / cm^3
# Si number density = 27.139329 Si / 1000 Ang^3
#
#
#
# Elastic Constant Matrix: (Units=GPa)
#
#
# Indices 1 2 3 4 5 6 
#
# 1 108.9559 42.0056 38.9044 13.7484 -4.2761 -7.7060
# 2 42.0056 155.6204 51.9816 5.5945 -10.3705 -29.0236
# 3 38.9044 51.9816 150.0735 18.9076 -27.8935 -8.7852
# 4 13.7484 5.5945 18.9076 40.4780 -7.5055 -5.1031
# 5 -4.2761 -10.3705 -27.8935 -7.5055 57.1997 10.5831
# 6 -7.7060 -29.0236 -8.7852 -5.1031 10.5831 51.9602
#
#
#
# Elastic Compliance Matrix: (Units=1/GPa)
#
#
# Indices 1 2 3 4 5 6 
#
# 1 0.011051 -0.002328 -0.001879 -0.002722 -0.000856 -0.000072
# 2 -0.002328 0.008554 -0.002330 0.001158 -0.000391 0.004232
# 3 -0.001879 -0.002330 0.008905 -0.002662 0.003629 -0.001075
# 4 -0.002722 0.001158 -0.002662 0.027330 0.001908 0.002089
# 5 -0.000856 -0.000391 0.003629 0.001908 0.020039 -0.003626
# 6 -0.000072 0.004232 -0.001075 0.002089 -0.003626 0.022361
#
#
# Mechanical properties :
#
#
# Convention : Reuss Voigt Hill
#
# Bulk Modulus (GPa) = 64.78441 75.60366 70.19404
# Shear Modulus (GPa) = 42.93375 48.71147 45.82261
#
# Velocity S-wave (km/s) = 3.98172 4.24118 4.11350
# Velocity P-wave (km/s) = 6.71280 7.20428 6.96287
#
# Compressibility (1/GPa) = 0.01543581
#
# Stress axis : x y z
#
# Youngs Moduli (GPa) = 90.48790 116.90020 112.30236
#
# Poissons Ratio (x) = 0.27214 0.21100
# Poissons Ratio (y) = 0.21066 0.26169
# Poissons Ratio (z) = 0.17002 0.27240
#
# Static dielectric constant tensor:
#      x y z
#    x 2.119750 -0.000050 -0.042880 
#    y -0.000050 2.123610 0.013070 
#    z -0.042880 0.013070 2.185380 
# 
# From -- ./inp_files/344127.got.cif
#   From: 2010.05.17/outbox.cif.g08.bks.cpg/sg2_173_cif.got.tgz:344127.got - 2010.06.03 11:33:40.
