data_PCOD9034107
_publ_section_title
;
Structure prediction by ZEFSAII (Michael W. Deem and Ramdas Pophale) SiO2 
 PCOD9034107
Probable space group: P -1
;
_chemical_formula_sum "Si O2"
_cell_formula_units_Z 12
_cell_length_a 8.734491
_cell_length_b 14.919611
_cell_length_c 11.676784
_cell_angle_alpha 145.026597
_cell_angle_beta 42.219477
_cell_angle_gamma 147.350342
_cell_volume 464.206782
_symmetry_space_group_name_H-M "P -1"
_symmetry_group_IT_number 2
_symmetry_cell_setting 'triclinic'
loop_
_space_group_symop_operation_xyz
x,y,z
-x,-y,-z
loop_
_atom_site_type_symbol
_atom_site_label
_atom_site_fract_x
_atom_site_fract_y
_atom_site_fract_z
Si Si1 0.696423 0.436565 0.356795
Si Si2 0.262688 0.209001 0.815384
Si Si3 0.558272 0.221870 0.436802
Si Si4 0.748521 0.394884 0.906117
Si Si5 0.771726 0.013806 0.201793
Si Si6 0.809295 0.189570 0.914596
O O1 0.500000 0.500000 0.500000
O O2 0.679139 0.389369 0.450533
O O3 0.022043 0.589290 0.289284
O O4 0.672536 0.983242 0.716557
O O5 0.401562 0.235159 0.643694
O O6 0.986669 0.199660 0.938234
O O7 0.499921 0.628001 0.056764
O O8 0.196661 0.014112 0.710509
O O9 0.393462 0.759621 0.868126
O O10 0.782134 0.192369 0.336820
O O11 0.549400 0.185891 0.860511
O O12 0.938790 0.609673 0.084415
O O13 0.000000 0.000000 0.000000
#
# Coordination Sequence:
#
# PCOD9034107 Si02
#       6
#     2   2   2   2   2   2
#     4  10  24  47  70 109 150 186 240 298 360 436
#     4  10  22  44  71 108 144 184 241 305 354 425
#     4  12  24  42  72 108 143 196 236 295 363 434
#     4   8  23  43  70  98 150 180 243 293 360 416
#     4  10  23  45  72 105 140 191 246 296 362 424
#     4  10  22  45  73 100 145 191 241 291 362 421
#
# _framework density 25.850548
#
# number of rings (size 3 to 8) (size 9 to 14) (size 15 to 20)
#    2.000    0.000    0.000    3.000    0.000    4.000 
#    6.000    0.000    0.000    1.000    0.000    0.000 
#    0.000    0.000    0.000    0.000    0.000    0.000 
#
# Total GULP energy -67053.053636 kJ/mol
# GULP energy per Si atom -5587.754470 kJ/mol
# Density = 2.579171 g / cm^3
# Si number density = 25.850548 Si / 1000 Ang^3
#
#
#
# Elastic Constant Matrix: (Units=GPa)
#
#
# Indices 1 2 3 4 5 6 
#
# 1 77.8259 54.1936 52.5035 13.4344 -12.6508 -9.6212
# 2 54.1936 154.5999 42.5603 -8.9885 -5.0077 -18.2779
# 3 52.5035 42.5603 129.1543 -3.7556 -21.9903 -12.0563
# 4 13.4344 -8.9885 -3.7556 37.2376 -5.8452 11.7779
# 5 -12.6508 -5.0077 -21.9903 -5.8452 62.5209 14.8618
# 6 -9.6212 -18.2779 -12.0563 11.7779 14.8618 64.2446
#
#
#
# Elastic Compliance Matrix: (Units=1/GPa)
#
#
# Indices 1 2 3 4 5 6 
#
# 1 0.026084 -0.007284 -0.008342 -0.012857 -0.000070 0.002641
# 2 -0.007284 0.009371 0.000000 0.004539 -0.000503 0.000859
# 3 -0.008342 0.000000 0.011735 0.004876 0.003049 -0.000647
# 4 -0.012857 0.004539 0.004876 0.036151 0.004620 -0.007415
# 5 -0.000070 -0.000503 0.003049 0.004620 0.018567 -0.004724
# 6 0.002641 0.000859 -0.000647 -0.007415 -0.004724 0.018536
#
#
# Mechanical properties :
#
#
# Convention : Reuss Voigt Hill
#
# Bulk Modulus (GPa) = 62.75202 73.34388 68.04795
# Shear Modulus (GPa) = 31.84492 46.95546 39.40019
#
# Velocity S-wave (km/s) = 3.51363 4.26657 3.90828
# Velocity P-wave (km/s) = 6.38658 7.25985 6.83717
#
# Compressibility (1/GPa) = 0.01593574
#
# Stress axis : x y z
#
# Youngs Moduli (GPa) = 38.33730 106.71101 85.21760
#
# Poissons Ratio (x) = 0.77733 0.71092
# Poissons Ratio (y) = 0.27927 0.00003
# Poissons Ratio (z) = 0.31982 0.00003
#
# Static dielectric constant tensor:
#      x y z
#    x 2.151240 -0.037330 -0.025320 
#    y -0.037330 2.179050 0.101140 
#    z -0.025320 0.101140 1.969460 
# 
# From -- ./inp_files/521831.got.cif
#   From: 2010.05.17/outbox.cif.g08.bks.cpg/sg2_261_cif.got.tgz:521831.got - 2010.06.03 11:33:40.
