data_PCOD9034991
_publ_section_title
;
Structure prediction by ZEFSAII (Michael W. Deem and Ramdas Pophale) SiO2 
 PCOD9034991
Probable space group: P -1
;
_chemical_formula_sum "Si O2"
_cell_formula_units_Z 16
_cell_length_a 20.575309
_cell_length_b 8.714056
_cell_length_c 17.789762
_cell_angle_alpha 34.198602
_cell_angle_beta 159.332003
_cell_angle_gamma 139.151760
_cell_volume 630.314590
_symmetry_space_group_name_H-M "P -1"
_symmetry_group_IT_number 2
_symmetry_cell_setting 'triclinic'
loop_
_space_group_symop_operation_xyz
x,y,z
-x,-y,-z
loop_
_atom_site_type_symbol
_atom_site_label
_atom_site_fract_x
_atom_site_fract_y
_atom_site_fract_z
Si Si1 0.106784 0.138375 0.190140
Si Si2 0.574940 0.709344 0.805047
Si Si3 0.668248 0.950840 0.259903
Si Si4 0.432668 0.263899 0.605070
Si Si5 0.634326 0.717224 0.703441
Si Si6 0.004660 0.739322 0.469749
Si Si7 0.803623 0.082494 0.993287
Si Si8 0.213180 0.505384 0.534690
O O1 0.269241 0.190252 0.403911
O O2 0.170107 0.305478 0.119281
O O3 0.111715 0.814025 0.305748
O O4 0.917557 0.221521 0.995420
O O5 0.660236 0.602697 0.861871
O O6 0.430736 0.551151 0.760136
O O7 0.438633 0.966227 0.519444
O O8 0.729873 0.819189 0.979649
O O9 0.586440 0.911238 0.269823
O O10 0.784605 0.673115 0.467143
O O11 0.802910 0.193177 0.312621
O O12 0.500000 0.000000 0.000000
O O13 0.464871 0.563181 0.549797
O O14 0.619952 0.213193 0.780603
O O15 0.939822 0.001726 0.242159
O O16 0.865633 0.671092 0.412749
O O17 0.000000 0.500000 0.500000
#
# Coordination Sequence:
#
# PCOD9034991 Si02
#       8
#     2   2   2   2   2   2   2   2
#     4  11  24  45  69 101 138 183 235 288 347 418
#     4  10  23  43  72 101 136 188 233 286 359 414
#     4  12  27  45  71 106 141 190 234 287 360 413
#     4  12  23  45  70 102 142 181 230 296 351 414
#     4  10  22  45  69  99 139 184 233 294 348 413
#     4  12  26  45  71 105 144 182 234 293 342 425
#     4  12  25  43  69 105 140 183 239 279 360 420
#     4  11  22  46  70  97 143 180 229 295 342 413
#
# _framework density 25.384150000000002
#
# number of rings (size 3 to 8) (size 9 to 14) (size 15 to 20)
#    0.000    0.750    6.250    1.500    1.750    1.500 
#    2.250    0.000    0.000    0.000    0.000    0.000 
#    0.000    0.000    0.000    0.000    0.000    0.000 
#
# Total GULP energy -89483.055118 kJ/mol
# GULP energy per Si atom -5592.690945 kJ/mol
# Density = 2.532637 g / cm^3
# Si number density = 25.384150 Si / 1000 Ang^3
#
#
#
# Elastic Constant Matrix: (Units=GPa)
#
#
# Indices 1 2 3 4 5 6 
#
# 1 178.8649 36.5583 52.2335 21.1132 11.6595 36.2951
# 2 36.5583 114.8789 22.5343 22.9157 15.8148 1.0442
# 3 52.2335 22.5343 90.9381 24.9274 9.5572 4.0739
# 4 21.1132 22.9157 24.9274 37.9738 6.2236 7.8378
# 5 11.6595 15.8148 9.5572 6.2236 36.5008 15.7178
# 6 36.2951 1.0442 4.0739 7.8378 15.7178 53.8433
#
#
#
# Elastic Compliance Matrix: (Units=1/GPa)
#
#
# Indices 1 2 3 4 5 6 
#
# 1 0.008275 -0.002060 -0.004267 0.000343 0.001802 -0.005791
# 2 -0.002060 0.011037 0.000343 -0.005662 -0.004687 0.003341
# 3 -0.004267 0.000343 0.015855 -0.008519 -0.003131 0.003824
# 4 0.000343 -0.005662 -0.008519 0.036073 0.000525 -0.004881
# 5 0.001802 -0.004687 -0.003131 0.000525 0.034310 -0.010979
# 6 -0.005791 0.003341 0.003824 -0.004881 -0.010979 0.026038
#
#
# Mechanical properties :
#
#
# Convention : Reuss Voigt Hill
#
# Bulk Modulus (GPa) = 43.10266 67.48158 55.29212
# Shear Modulus (GPa) = 33.04930 43.88730 38.46830
#
# Velocity S-wave (km/s) = 3.61219 4.16255 3.89710
# Velocity P-wave (km/s) = 5.86637 7.05296 6.48685
#
# Compressibility (1/GPa) = 0.02320042
#
# Stress axis : x y z
#
# Youngs Moduli (GPa) = 120.84493 90.60025 63.07176
#
# Poissons Ratio (x) = 0.18667 0.26910
# Poissons Ratio (y) = 0.24898 -0.02165
# Poissons Ratio (z) = 0.51559 -0.03110
#
# Static dielectric constant tensor:
#      x y z
#    x 2.005310 -0.056370 0.027500 
#    y -0.056370 2.089540 -0.129070 
#    z 0.027500 -0.129070 2.061010 
# 
# From -- ./inp_files/577570.got.cif
#   From: 2010.05.17/outbox.cif.g08.bks.cpg/sg2_289_cif.got.tgz:577570.got - 2010.06.03 11:33:40.
