data_PCOD9034754
_publ_section_title
;
Structure prediction by ZEFSAII (Michael W. Deem and Ramdas Pophale) SiO2 
 PCOD9034754
Probable space group: P -1
;
_chemical_formula_sum "Si O2"
_cell_formula_units_Z 16
_cell_length_a 11.855510
_cell_length_b 7.128425
_cell_length_c 9.767121
_cell_angle_alpha 95.188477
_cell_angle_beta 79.136963
_cell_angle_gamma 59.697630
_cell_volume 682.926389
_symmetry_space_group_name_H-M "P -1"
_symmetry_group_IT_number 2
_symmetry_cell_setting 'triclinic'
loop_
_space_group_symop_operation_xyz
x,y,z
-x,-y,-z
loop_
_atom_site_type_symbol
_atom_site_label
_atom_site_fract_x
_atom_site_fract_y
_atom_site_fract_z
Si Si1 0.394726 0.258743 0.005728
Si Si2 0.664801 0.495230 0.238110
Si Si3 0.358164 0.203311 0.491407
Si Si4 0.976956 0.046012 0.707875
Si Si5 0.081513 0.523634 0.153376
Si Si6 0.424967 0.451390 0.278886
Si Si7 0.211216 0.941432 0.471663
Si Si8 0.969905 0.253199 0.097239
O O1 0.236040 0.337539 0.064858
O O2 0.414875 0.413033 0.118115
O O3 0.411796 0.318054 0.851040
O O4 0.500000 0.000000 0.000000
O O5 0.682871 0.606405 0.374662
O O6 0.576795 0.386182 0.275954
O O7 0.813706 0.331993 0.135522
O O8 0.382777 0.295861 0.352759
O O9 0.500000 0.000000 0.500000
O O10 0.260551 0.110278 0.492169
O O11 0.134555 0.928766 0.622640
O O12 0.953798 0.980795 0.859335
O O13 0.916066 0.309487 0.728114
O O14 0.903104 0.976059 0.613340
O O15 0.999809 0.407797 0.197420
O O16 0.999721 0.690865 0.055508
O O17 0.331215 0.701381 0.375051
#
# Coordination Sequence:
#
# PCOD9034754 Si02
#       8
#     2   2   2   2   2   2   2   2
#     4  11  25  46  72 104 136 184 229 285 348 407
#     4  11  24  46  67 104 140 182 233 281 342 412
#     4  12  25  42  69  99 139 180 227 281 342 407
#     4  11  23  43  69  99 135 181 224 280 336 411
#     4  10  22  45  67  99 138 174 228 282 334 414
#     4  12  25  46  70  99 144 178 228 289 339 406
#     4  11  26  42  70 103 135 180 230 274 347 407
#     4  10  23  41  68  97 135 180 225 278 341 398
#
# _framework density 23.428587
#
# number of rings (size 3 to 8) (size 9 to 14) (size 15 to 20)
#    0.000    1.000    2.500    3.375    3.500    0.000 
#   11.250    3.125    0.000    0.000    0.000    0.000 
#    0.000    0.000    0.000    0.000    0.000    0.000 
#
# Total GULP energy -89465.797218 kJ/mol
# GULP energy per Si atom -5591.612326 kJ/mol
# Density = 2.337526 g / cm^3
# Si number density = 23.428587 Si / 1000 Ang^3
#
#
#
# Elastic Constant Matrix: (Units=GPa)
#
#
# Indices 1 2 3 4 5 6 
#
# 1 146.7293 33.3514 21.6574 0.8832 -4.1764 34.8838
# 2 33.3514 83.4997 22.2217 -4.9109 3.0592 16.7723
# 3 21.6574 22.2217 69.6431 0.2327 -0.5986 5.9637
# 4 0.8832 -4.9109 0.2327 34.3411 -1.7733 1.4929
# 5 -4.1764 3.0592 -0.5986 -1.7733 30.1726 5.5396
# 6 34.8838 16.7723 5.9637 1.4929 5.5396 38.3360
#
#
#
# Elastic Compliance Matrix: (Units=1/GPa)
#
#
# Indices 1 2 3 4 5 6 
#
# 1 0.009454 -0.001846 -0.001644 0.000001 0.002925 -0.007961
# 2 -0.001846 0.014720 -0.003785 0.002309 -0.000930 -0.004127
# 3 -0.001644 -0.003785 0.016028 -0.000619 0.000321 0.000636
# 4 0.000001 0.002309 -0.000619 0.029656 0.001928 -0.002349
# 5 0.002925 -0.000930 0.000321 0.001928 0.035130 -0.007456
# 6 -0.007961 -0.004127 0.000636 -0.002349 -0.007456 0.036205
#
#
# Mechanical properties :
#
#
# Convention : Reuss Voigt Hill
#
# Bulk Modulus (GPa) = 38.98448 50.48145 44.73296
# Shear Modulus (GPa) = 30.43341 35.41270 32.92305
#
# Velocity S-wave (km/s) = 3.60805 3.89204 3.75274
# Velocity P-wave (km/s) = 5.83380 6.46460 6.15728
#
# Compressibility (1/GPa) = 0.02565123
#
# Stress axis : x y z
#
# Youngs Moduli (GPa) = 105.77975 67.93650 62.39022
#
# Poissons Ratio (x) = 0.12544 0.10256
# Poissons Ratio (y) = 0.19531 0.23614
# Poissons Ratio (z) = 0.17388 0.25713
#
# Static dielectric constant tensor:
#      x y z
#    x 1.908830 0.003380 0.060830 
#    y 0.003380 1.895350 0.044850 
#    z 0.060830 0.044850 2.001040 
# 
# From -- ./inp_files/410477.got.cif
#   From: 2010.05.17/outbox.cif.g08.bks.cpg/sg2_206_cif.got.tgz:410477.got - 2010.06.03 11:33:40.
