data_PCOD9034915
_publ_section_title
;
Structure prediction by ZEFSAII (Michael W. Deem and Ramdas Pophale) SiO2 
 PCOD9034915
Probable space group: P -1
;
_chemical_formula_sum "Si O2"
_cell_formula_units_Z 16
_cell_length_a 11.926557
_cell_length_b 9.905839
_cell_length_c 14.703694
_cell_angle_alpha 132.266378
_cell_angle_beta 147.398584
_cell_angle_gamma 45.831666
_cell_volume 654.682525
_symmetry_space_group_name_H-M "P -1"
_symmetry_group_IT_number 2
_symmetry_cell_setting 'triclinic'
loop_
_space_group_symop_operation_xyz
x,y,z
-x,-y,-z
loop_
_atom_site_type_symbol
_atom_site_label
_atom_site_fract_x
_atom_site_fract_y
_atom_site_fract_z
Si Si1 0.901923 0.740236 0.999020
Si Si2 0.870138 0.124015 0.056307
Si Si3 0.736361 0.400953 0.946962
Si Si4 0.035582 0.448827 0.395993
Si Si5 0.513334 0.199517 0.561996
Si Si6 0.507929 0.787211 0.878489
Si Si7 0.075392 0.779763 0.481040
Si Si8 0.721872 0.345746 0.625506
O O1 0.010476 0.638984 0.932097
O O2 0.088425 0.663689 0.171034
O O3 0.836689 0.966810 0.030227
O O4 0.676480 0.723892 0.878942
O O5 0.976750 0.256865 0.246814
O O6 0.692907 0.301649 0.964009
O O7 0.000000 0.000000 0.000000
O O8 0.663325 0.274114 0.765065
O O9 0.606248 0.624611 0.948086
O O10 0.284234 0.371272 0.492264
O O11 0.932457 0.656435 0.370262
O O12 0.000000 0.500000 0.500000
O O13 0.618050 0.191661 0.530408
O O14 0.500000 0.000000 0.500000
O O15 0.275567 0.771106 0.682241
O O16 0.500000 0.000000 0.000000
O O17 0.139544 0.693754 0.387508
O O18 0.000000 0.000000 0.500000
O O19 0.500000 0.500000 0.500000
#
# Coordination Sequence:
#
# PCOD9034915 Si02
#       8
#     2   2   2   2   2   2   2   2
#     4  10  23  44  72 104 143 182 239 305 370 422
#     4  10  24  46  73 107 141 192 247 299 365 444
#     4  10  22  45  69 104 139 182 244 301 359 438
#     4  12  27  47  75 104 154 197 245 311 375 444
#     4  11  23  44  73 106 146 190 247 309 368 439
#     4  12  26  44  69  98 144 190 236 301 366 444
#     4  12  28  47  70 107 148 199 249 302 385 448
#     4  11  22  44  74 107 143 187 251 304 358 448
#
# _framework density 24.439325
#
# number of rings (size 3 to 8) (size 9 to 14) (size 15 to 20)
#    0.000    1.000    2.500    4.125    8.750    3.000 
#    2.250    1.250    0.000    0.000    0.000    0.000 
#    0.000    0.000    0.000    0.000    0.000    0.000 
#
# Total GULP energy -89087.053964 kJ/mol
# GULP energy per Si atom -5567.940873 kJ/mol
# Density = 2.438370 g / cm^3
# Si number density = 24.439325 Si / 1000 Ang^3
#
#
#
# Elastic Constant Matrix: (Units=GPa)
#
#
# Indices 1 2 3 4 5 6 
#
# 1 57.7519 21.5835 5.9392 8.2472 -17.7411 36.0846
# 2 21.5835 186.1467 22.8769 21.3266 -2.0387 47.4034
# 3 5.9392 22.8769 62.5469 18.4026 -14.6348 1.5356
# 4 8.2472 21.3266 18.4026 46.4873 3.1103 1.1933
# 5 -17.7411 -2.0387 -14.6348 3.1103 28.4764 3.9244
# 6 36.0846 47.4034 1.5356 1.1933 3.9244 45.8352
#
#
#
# Elastic Compliance Matrix: (Units=1/GPa)
#
#
# Indices 1 2 3 4 5 6 
#
# 1 0.179048 0.032307 0.033674 -0.066085 0.164273 -0.187844
# 2 0.032307 0.013851 0.004490 -0.014845 0.030859 -0.042165
# 3 0.033674 0.004490 0.028326 -0.021221 0.043032 -0.035235
# 4 -0.066085 -0.014845 -0.021221 0.051181 -0.068742 0.072644
# 5 0.164273 0.030859 0.043032 -0.068742 0.193753 -0.177482
# 6 -0.187844 -0.042165 -0.035235 0.072644 -0.177482 0.227793
#
#
# Mechanical properties :
#
#
# Convention : Reuss Voigt Hill
#
# Bulk Modulus (GPa) = 2.76117 45.24941 24.00529
# Shear Modulus (GPa) = 7.42135 41.22950 24.32543
#
# Velocity S-wave (km/s) = 1.74449 4.11178 3.15832
# Velocity P-wave (km/s) = 2.27814 6.41074 4.81079
#
# Compressibility (1/GPa) = 0.36216597
#
# Stress axis : x y z
#
# Youngs Moduli (GPa) = 5.58509 72.19862 35.30351
#
# Poissons Ratio (x) = -2.33252 -1.18881
# Poissons Ratio (y) = -0.18044 -0.15850
# Poissons Ratio (z) = -0.18807 -0.32415
#
# Static dielectric constant tensor:
#      x y z
#    x 1.900690 -0.142500 0.047840 
#    y -0.142500 1.834320 -0.120650 
#    z 0.047840 -0.120650 2.080210 
# 
# From -- ./inp_files/516306.got.cif
#   From: 2010.05.17/outbox.cif.g08.bks.cpg/sg2_259_cif.got.tgz:516306.got - 2010.06.03 11:33:40.
