data_PCOD9034970
_publ_section_title
;
Structure prediction by ZEFSAII (Michael W. Deem and Ramdas Pophale) SiO2 
 PCOD9034970
Probable space group: P -1
;
_chemical_formula_sum "Si O2"
_cell_formula_units_Z 13
_cell_length_a 14.213374
_cell_length_b 6.958952
_cell_length_c 15.974402
_cell_angle_alpha 119.723561
_cell_angle_beta 26.440579
_cell_angle_gamma 109.095955
_cell_volume 582.434644
_symmetry_space_group_name_H-M "P -1"
_symmetry_group_IT_number 2
_symmetry_cell_setting 'triclinic'
loop_
_space_group_symop_operation_xyz
x,y,z
-x,-y,-z
loop_
_atom_site_type_symbol
_atom_site_label
_atom_site_fract_x
_atom_site_fract_y
_atom_site_fract_z
Si Si1 0.269375 0.196989 0.705326
Si Si2 0.713371 0.519670 0.965567
Si Si3 0.000000 0.000000 0.000000
Si Si4 0.169913 0.473080 0.676894
Si Si5 0.586945 0.450118 0.224590
Si Si6 0.664889 0.965515 0.989282
Si Si7 0.221999 0.963850 0.263191
O O1 0.253146 0.278476 0.640267
O O2 0.272735 0.420978 0.805680
O O3 0.500000 0.000000 0.500000
O O4 0.087668 0.089988 0.862883
O O5 0.676394 0.310972 0.896408
O O6 0.961451 0.434321 0.786788
O O7 0.555165 0.567562 0.183324
O O8 0.697026 0.744573 0.973475
O O9 0.092171 0.727402 0.834975
O O10 0.366857 0.466610 0.454864
O O11 0.702706 0.179838 0.054984
O O12 0.407858 0.043674 0.181053
O O13 0.806540 0.920654 0.781216
O O14 0.000000 0.000000 0.500000
#
# Coordination Sequence:
#
# PCOD9034970 Si02
#       7
#     2   2   1   2   2   2   2
#     4  12  27  45  66  96 134 185 229 278 332 394
#     4  11  25  42  67 103 132 176 220 273 340 396
#     4  12  26  42  66  90 132 176 228 280 330 390
#     4  12  27  41  68  99 134 179 230 275 336 395
#     4  11  25  43  65  98 136 174 227 275 332 395
#     4  10  24  42  70  97 136 172 218 280 330 401
#     4  10  22  45  69  97 134 172 219 271 333 407
#
# _framework density 22.320101999999999
#
# number of rings (size 3 to 8) (size 9 to 14) (size 15 to 20)
#    0.000    0.923    3.077    2.308    4.308    3.077 
#    0.000    0.000    0.000    0.000    0.000    0.000 
#    0.000    0.000    0.000    0.000    0.000    0.000 
#
# Total GULP energy -72492.369606 kJ/mol
# GULP energy per Si atom -5576.336124 kJ/mol
# Density = 2.226930 g / cm^3
# Si number density = 22.320102 Si / 1000 Ang^3
#
#
#
# Elastic Constant Matrix: (Units=GPa)
#
#
# Indices 1 2 3 4 5 6 
#
# 1 81.4834 53.3990 35.0731 -2.4176 3.1074 -8.5653
# 2 53.3990 173.4455 34.3289 -26.6523 10.4148 -27.8934
# 3 35.0731 34.3289 95.8621 -50.0953 16.1235 -22.7698
# 4 -2.4176 -26.6523 -50.0953 48.0893 -5.4475 10.5618
# 5 3.1074 10.4148 16.1235 -5.4475 20.4354 -7.6494
# 6 -8.5653 -27.8934 -22.7698 10.5618 -7.6494 29.0666
#
#
#
# Elastic Compliance Matrix: (Units=1/GPa)
#
#
# Indices 1 2 3 4 5 6 
#
# 1 0.025774 -0.008955 -0.021913 -0.023920 0.008887 -0.007133
# 2 -0.008955 0.010263 0.008422 0.011675 -0.004239 0.008450
# 3 -0.021913 0.008422 0.047026 0.046757 -0.019481 0.016347
# 4 -0.023920 0.011675 0.046757 0.070536 -0.016339 0.010853
# 5 0.008887 -0.004239 -0.019481 -0.016339 0.062925 0.005787
# 6 -0.007133 0.008450 0.016347 0.010853 0.005787 0.050796
#
#
# Mechanical properties :
#
#
# Convention : Reuss Voigt Hill
#
# Bulk Modulus (GPa) = 26.19603 66.26591 46.23097
# Shear Modulus (GPa) = 15.38773 34.71760 25.05266
#
# Velocity S-wave (km/s) = 2.62851 3.94819 3.35390
# Velocity P-wave (km/s) = 4.57975 7.10898 5.97962
#
# Compressibility (1/GPa) = 0.03817372
#
# Stress axis : x y z
#
# Youngs Moduli (GPa) = 38.79855 97.43842 21.26462
#
# Poissons Ratio (x) = 0.87252 0.46596
# Poissons Ratio (y) = 0.34743 -0.17910
# Poissons Ratio (z) = 0.85018 -0.82065
#
# Static dielectric constant tensor:
#      x y z
#    x 1.834640 -0.009850 -0.014740 
#    y -0.009850 1.779000 -0.004480 
#    z -0.014740 -0.004480 1.840710 
# 
# From -- ./inp_files/119954.got.cif
#   From: 2010.05.17/outbox.cif.g08.bks.cpg/sg2_60_cif.got.tgz:119954.got - 2010.06.03 11:33:40.
