data_PCOD9034976
_publ_section_title
;
Structure prediction by ZEFSAII (Michael W. Deem and Ramdas Pophale) SiO2 
 PCOD9034976
Probable space group: P -1
;
_chemical_formula_sum "Si O2"
_cell_formula_units_Z 14
_cell_length_a 5.304072
_cell_length_b 15.172926
_cell_length_c 13.909318
_cell_angle_alpha 143.500601
_cell_angle_beta 115.819947
_cell_angle_gamma 70.813559
_cell_volume 598.879735
_symmetry_space_group_name_H-M "P -1"
_symmetry_group_IT_number 2
_symmetry_cell_setting 'triclinic'
loop_
_space_group_symop_operation_xyz
x,y,z
-x,-y,-z
loop_
_atom_site_type_symbol
_atom_site_label
_atom_site_fract_x
_atom_site_fract_y
_atom_site_fract_z
Si Si1 0.721391 0.980055 0.604936
Si Si2 0.219627 0.891649 0.079030
Si Si3 0.805928 0.437296 0.501897
Si Si4 0.247105 0.883034 0.864210
Si Si5 0.030278 0.577430 0.857413
Si Si6 0.957939 0.738734 0.164279
Si Si7 0.387350 0.318915 0.751070
O O1 0.617501 0.030419 0.736643
O O2 0.982630 0.092781 0.718745
O O3 0.500000 0.000000 0.500000
O O4 0.753228 0.804105 0.452794
O O5 0.306867 0.830544 0.936813
O O6 0.101042 0.741758 0.975593
O O7 0.018147 0.020726 0.123017
O O8 0.500000 0.500000 0.500000
O O9 0.771009 0.260842 0.330306
O O10 0.000000 0.500000 0.500000
O O11 0.908787 0.488157 0.668513
O O12 0.500000 0.000000 0.000000
O O13 0.285251 0.480622 0.850785
O O14 0.857701 0.620940 0.962354
O O15 0.276715 0.694185 0.205501
O O16 0.752538 0.726671 0.209604
#
# Coordination Sequence:
#
# PCOD9034976 Si02
#       7
#     2   2   2   2   2   2   2
#     4   9  20  42  64  98 133 177 227 278 341 415
#     4  10  22  45  69  98 136 186 229 287 349 412
#     4  12  27  47  71 104 140 178 234 295 350 410
#     4  11  24  46  73  99 140 181 244 285 352 419
#     4  11  23  44  68 101 137 183 229 284 353 410
#     4  10  23  41  67  96 138 178 226 276 343 414
#     4  11  22  42  65 100 138 177 225 283 338 412
#
# _framework density 23.37698
#
# number of rings (size 3 to 8) (size 9 to 14) (size 15 to 20)
#    0.000    1.429    1.429    3.000    2.000    2.286 
#   30.857    0.000    0.000    0.000    0.000    0.000 
#    0.000    0.000    0.000    0.000    0.000    0.000 
#
# Total GULP energy -78100.103226 kJ/mol
# GULP energy per Si atom -5578.578802 kJ/mol
# Density = 2.332377 g / cm^3
# Si number density = 23.376980 Si / 1000 Ang^3
#
#
#
# Elastic Constant Matrix: (Units=GPa)
#
#
# Indices 1 2 3 4 5 6 
#
# 1 82.6091 21.3312 22.5630 -8.9447 -4.4130 1.8474
# 2 21.3312 85.0067 37.0768 -2.3472 1.3324 -2.3177
# 3 22.5630 37.0768 231.8280 -4.4132 -2.1807 7.6262
# 4 -8.9447 -2.3472 -4.4132 49.6166 3.9176 0.4356
# 5 -4.4130 1.3324 -2.1807 3.9176 16.5705 3.4340
# 6 1.8474 -2.3177 7.6262 0.4356 3.4340 22.5220
#
#
#
# Elastic Compliance Matrix: (Units=1/GPa)
#
#
# Indices 1 2 3 4 5 6 
#
# 1 0.013556 -0.003157 -0.000683 0.001959 0.003685 -0.001805
# 2 -0.003157 0.013537 -0.001972 0.000091 -0.002778 0.002742
# 3 -0.000683 -0.001972 0.004770 0.000148 0.000966 -0.001912
# 4 0.001959 0.000091 0.000148 0.020873 -0.004415 0.000068
# 5 0.003685 -0.002778 0.000966 -0.004415 0.064948 -0.010733
# 6 -0.001805 0.002742 -0.001912 0.000068 -0.010733 0.047114
#
#
# Mechanical properties :
#
#
# Convention : Reuss Voigt Hill
#
# Bulk Modulus (GPa) = 49.40934 62.37620 55.89277
# Shear Modulus (GPa) = 27.29714 38.97336 33.13525
#
# Velocity S-wave (km/s) = 3.42086 4.08753 3.76896
# Velocity P-wave (km/s) = 6.06505 7.00127 6.54991
#
# Compressibility (1/GPa) = 0.02023909
#
# Stress axis : x y z
#
# Youngs Moduli (GPa) = 73.76681 73.87167 209.63061
#
# Poissons Ratio (x) = 0.23319 0.14322
# Poissons Ratio (y) = 0.23286 0.41347
# Poissons Ratio (z) = 0.05040 0.14570
#
# Static dielectric constant tensor:
#      x y z
#    x 1.767710 -0.203070 -0.064930 
#    y -0.203070 1.626870 -0.146010 
#    z -0.064930 -0.146010 1.964040 
# 
# From -- ./inp_files/368175.got.cif
#   From: 2010.05.17/outbox.cif.g08.bks.cpg/sg2_185_cif.got.tgz:368175.got - 2010.06.03 11:33:40.
