data_PCOD9034016
_publ_section_title
;
Structure prediction by ZEFSAII (Michael W. Deem and Ramdas Pophale) SiO2 
 PCOD9034016
Probable space group: P -1
;
_chemical_formula_sum "Si O2"
_cell_formula_units_Z 16
_cell_length_a 5.715301
_cell_length_b 17.286731
_cell_length_c 14.159974
_cell_angle_alpha 29.783329
_cell_angle_beta 79.692752
_cell_angle_gamma 73.061916
_cell_volume 656.668200
_symmetry_space_group_name_H-M "P -1"
_symmetry_group_IT_number 2
_symmetry_cell_setting 'triclinic'
loop_
_space_group_symop_operation_xyz
x,y,z
-x,-y,-z
loop_
_atom_site_type_symbol
_atom_site_label
_atom_site_fract_x
_atom_site_fract_y
_atom_site_fract_z
Si Si1 0.151022 0.636256 0.851075
Si Si2 0.541928 0.827980 0.137789
Si Si3 0.251877 0.095284 0.467978
Si Si4 0.230031 0.625673 0.377711
Si Si5 0.299810 0.168376 0.091144
Si Si6 0.744253 0.238729 0.104191
Si Si7 0.806965 0.600748 0.528540
Si Si8 0.523795 0.225237 0.461273
O O1 0.318574 0.641845 0.925942
O O2 0.288732 0.686513 0.695913
O O3 0.932651 0.803571 0.701967
O O4 0.000000 0.500000 0.000000
O O5 0.273399 0.797959 0.186854
O O6 0.715786 0.714048 0.323076
O O7 0.641385 0.813036 0.041744
O O8 0.500000 0.000000 0.000000
O O9 0.314905 0.218416 0.406836
O O10 0.500000 0.000000 0.500000
O O11 0.170644 0.952929 0.673946
O O12 0.500000 0.500000 0.500000
O O13 0.158846 0.574795 0.333554
O O14 0.086167 0.612112 0.498994
O O15 0.494794 0.244079 0.055801
O O16 0.006896 0.260401 0.026487
O O17 0.365574 0.969879 0.316506
O O18 0.619221 0.668964 0.553077
#
# Coordination Sequence:
#
# PCOD9034016 Si02
#       8
#     2   2   2   2   2   2   2   2
#     4  12  26  45  71 108 148 189 243 317 369 443
#     4  11  23  41  69 106 145 176 242 303 360 424
#     4  11  22  44  74  98 141 200 245 298 369 449
#     4   9  22  43  67  92 138 190 237 288 368 433
#     4  11  25  43  74 109 142 197 246 305 358 444
#     4  11  24  46  72 102 147 196 250 290 375 446
#     4  10  22  44  70  99 142 192 233 298 366 444
#     4  11  23  42  70 108 141 190 247 296 373 438
#
# _framework density 24.365428000000001
#
# number of rings (size 3 to 8) (size 9 to 14) (size 15 to 20)
#    0.000    1.250    3.750    1.875    1.750    6.000 
#    2.250    0.000    0.000    0.000    0.000    0.000 
#    0.000    0.000    0.000    0.000    0.000    0.000 
#
# Total GULP energy -89192.687855 kJ/mol
# GULP energy per Si atom -5574.542991 kJ/mol
# Density = 2.430997 g / cm^3
# Si number density = 24.365428 Si / 1000 Ang^3
#
#
#
# Elastic Constant Matrix: (Units=GPa)
#
#
# Indices 1 2 3 4 5 6 
#
# 1 109.4770 67.4230 43.1657 14.1458 -28.7585 -4.4385
# 2 67.4230 166.9579 31.9478 15.9312 -36.7931 1.9486
# 3 43.1657 31.9478 68.3119 1.5347 -22.3780 20.0142
# 4 14.1458 15.9312 1.5347 39.9340 -0.8871 -7.3707
# 5 -28.7585 -36.7931 -22.3780 -0.8871 53.2373 2.8622
# 6 -4.4385 1.9486 20.0142 -7.3707 2.8622 40.2018
#
#
#
# Elastic Compliance Matrix: (Units=1/GPa)
#
#
# Indices 1 2 3 4 5 6 
#
# 1 0.016666 -0.004353 -0.009814 -0.002584 0.001485 0.006357
# 2 -0.004353 0.008756 0.000569 -0.002231 0.004003 -0.001882
# 3 -0.009814 0.000569 0.027575 -0.000498 0.007506 -0.015465
# 4 -0.002584 -0.002231 -0.000498 0.027792 -0.002973 0.005378
# 5 0.001485 0.004003 0.007506 -0.002973 0.025788 -0.006148
# 6 0.006357 -0.001882 -0.015465 0.005378 -0.006148 0.034790
#
#
# Mechanical properties :
#
#
# Convention : Reuss Voigt Hill
#
# Bulk Modulus (GPa) = 38.75881 69.97999 54.36940
# Shear Modulus (GPa) = 28.22249 40.15528 34.18889
#
# Velocity S-wave (km/s) = 3.40707 4.06401 3.74996
# Velocity P-wave (km/s) = 5.60530 7.12776 6.41188
#
# Compressibility (1/GPa) = 0.02580059
#
# Stress axis : x y z
#
# Youngs Moduli (GPa) = 60.00170 114.21310 36.26496
#
# Poissons Ratio (x) = 0.49717 0.35589
# Poissons Ratio (y) = 0.26119 -0.02062
# Poissons Ratio (z) = 0.58884 -0.06495
#
# Static dielectric constant tensor:
#      x y z
#    x 3.117880 -0.286460 0.575800 
#    y -0.286460 1.988240 -0.176230 
#    z 0.575800 -0.176230 2.535370 
# 
# From -- ./inp_files/485113.got.cif
#   From: 2010.05.17/outbox.cif.g08.bks.cpg/sg2_243_cif.got.tgz:485113.got - 2010.06.03 11:33:40.
