data_PCOD9034807
_publ_section_title
;
Structure prediction by ZEFSAII (Michael W. Deem and Ramdas Pophale) SiO2 
 PCOD9034807
Probable space group: P -1
;
_chemical_formula_sum "Si O2"
_cell_formula_units_Z 16
_cell_length_a 9.919249
_cell_length_b 19.512141
_cell_length_c 20.289372
_cell_angle_alpha 19.903365
_cell_angle_beta 37.150581
_cell_angle_gamma 47.556296
_cell_volume 752.358722
_symmetry_space_group_name_H-M "P -1"
_symmetry_group_IT_number 2
_symmetry_cell_setting 'triclinic'
loop_
_space_group_symop_operation_xyz
x,y,z
-x,-y,-z
loop_
_atom_site_type_symbol
_atom_site_label
_atom_site_fract_x
_atom_site_fract_y
_atom_site_fract_z
Si Si1 0.262634 0.518013 0.900973
Si Si2 0.567566 0.092796 0.984143
Si Si3 0.189326 0.200635 0.784282
Si Si4 0.004908 0.886500 0.386376
Si Si5 0.589200 0.986205 0.402774
Si Si6 0.948503 0.421252 0.453302
Si Si7 0.647151 0.701022 0.807271
Si Si8 0.361783 0.515207 0.311972
O O1 0.392919 0.446976 0.855008
O O2 0.428074 0.761552 0.636056
O O3 0.263008 0.377709 0.091588
O O4 0.000000 0.500000 0.000000
O O5 0.651911 0.895334 0.146094
O O6 0.702017 0.230223 0.744322
O O7 0.657350 0.265023 0.852827
O O8 0.283435 0.024958 0.154933
O O9 0.079907 0.348540 0.736173
O O10 0.335210 0.361622 0.524025
O O11 0.000000 0.000000 0.000000
O O12 0.872187 0.849010 0.542197
O O13 0.980195 0.654198 0.575319
O O14 0.856642 0.989393 0.303795
O O15 0.531093 0.174184 0.218977
O O16 0.500000 0.000000 0.500000
O O17 0.145985 0.415493 0.434891
O O18 0.500000 0.500000 0.000000
#
# Coordination Sequence:
#
# PCOD9034807 Si02
#       8
#     2   2   2   2   2   2   2   2
#     4  12  27  44  68 106 136 168 229 284 324 399
#     4  11  24  41  66  97 136 168 220 278 333 392
#     4  11  21  41  68  95 129 175 220 270 332 399
#     4  11  24  44  68  98 133 175 226 273 337 392
#     4  10  22  45  68  91 132 177 219 270 337 390
#     4  11  21  45  64  96 131 170 221 276 320 400
#     4  11  23  47  70  95 135 181 225 269 335 407
#     4  11  23  42  67  92 134 175 212 272 336 387
#
# _framework density 21.266449999999999
#
# number of rings (size 3 to 8) (size 9 to 14) (size 15 to 20)
#    0.000    1.000    6.250    1.125    5.250    2.000 
#    9.000    0.000    0.000    0.000    0.000    0.000 
#    0.000    0.000    0.000    0.000    0.000    0.000 
#
# Total GULP energy -89464.680348 kJ/mol
# GULP energy per Si atom -5591.542522 kJ/mol
# Density = 2.121805 g / cm^3
# Si number density = 21.266450 Si / 1000 Ang^3
#
#
#
# Elastic Constant Matrix: (Units=GPa)
#
#
# Indices 1 2 3 4 5 6 
#
# 1 89.7185 28.2953 30.2383 -0.1231 9.6163 -35.7027
# 2 28.2953 111.2068 27.6363 -0.9157 19.3212 -21.9677
# 3 30.2383 27.6363 62.7202 -0.1685 4.3967 -28.3912
# 4 -0.1231 -0.9157 -0.1685 35.7348 -12.7163 -1.6839
# 5 9.6163 19.3212 4.3967 -12.7163 25.7538 0.4356
# 6 -35.7027 -21.9677 -28.3912 -1.6839 0.4356 49.3496
#
#
#
# Elastic Compliance Matrix: (Units=1/GPa)
#
#
# Indices 1 2 3 4 5 6 
#
# 1 0.017166 -0.000422 -0.002826 -0.001851 -0.006704 0.010602
# 2 -0.000422 0.012244 -0.002932 -0.003148 -0.010140 0.003441
# 3 -0.002826 -0.002932 0.023179 0.000225 -0.000760 0.009999
# 4 -0.001851 -0.003148 0.000225 0.035067 0.020356 -0.001594
# 5 -0.006704 -0.010140 -0.000760 0.020356 0.059284 -0.009630
# 6 0.010602 0.003441 0.009999 -0.001594 -0.009630 0.035248
#
#
# Mechanical properties :
#
#
# Convention : Reuss Voigt Hill
#
# Bulk Modulus (GPa) = 24.85787 48.44283 36.65035
# Shear Modulus (GPa) = 24.04352 33.99933 29.02142
#
# Velocity S-wave (km/s) = 3.36606 4.00275 3.69813
# Velocity P-wave (km/s) = 5.17893 6.64764 5.95871
#
# Compressibility (1/GPa) = 0.04022871
#
# Stress axis : x y z
#
# Youngs Moduli (GPa) = 58.25330 81.67557 43.14338
#
# Poissons Ratio (x) = 0.03443 0.12194
# Poissons Ratio (y) = 0.02456 0.12649
# Poissons Ratio (z) = 0.16465 0.23946
#
# Static dielectric constant tensor:
#      x y z
#    x 1.752180 0.005480 0.008740 
#    y 0.005480 1.773870 -0.010010 
#    z 0.008740 -0.010010 1.780190 
# 
# From -- ./inp_files/591587.got.cif
#   From: 2010.05.17/outbox.cif.g08.bks.cpg/sg2_296_cif.got.tgz:591587.got - 2010.06.03 11:33:40.
