data_PCOD9034994
_publ_section_title
;
Structure prediction by ZEFSAII (Michael W. Deem and Ramdas Pophale) SiO2 
 PCOD9034994
Probable space group: P -1
;
_chemical_formula_sum "Si O2"
_cell_formula_units_Z 16
_cell_length_a 14.561579
_cell_length_b 6.187747
_cell_length_c 13.033178
_cell_angle_alpha 133.762278
_cell_angle_beta 121.920679
_cell_angle_gamma 51.117375
_cell_volume 650.799626
_symmetry_space_group_name_H-M "P -1"
_symmetry_group_IT_number 2
_symmetry_cell_setting 'triclinic'
loop_
_space_group_symop_operation_xyz
x,y,z
-x,-y,-z
loop_
_atom_site_type_symbol
_atom_site_label
_atom_site_fract_x
_atom_site_fract_y
_atom_site_fract_z
Si Si1 0.469525 0.395725 0.158627
Si Si2 0.681178 0.473434 0.082818
Si Si3 0.681394 0.848810 0.638343
Si Si4 0.108689 0.986738 0.267063
Si Si5 0.932592 0.354791 0.130281
Si Si6 0.283122 0.275341 0.148632
Si Si7 0.026352 0.016346 0.639033
Si Si8 0.694853 0.443306 0.313598
O O1 0.393752 0.280914 0.152923
O O2 0.611595 0.245402 0.205768
O O3 0.420811 0.786076 0.282438
O O4 0.430404 0.383315 0.013794
O O5 0.791020 0.499553 0.097705
O O6 0.666045 0.599480 0.232570
O O7 0.720742 0.075749 0.982445
O O8 0.701240 0.676315 0.704478
O O9 0.658876 0.674213 0.468753
O O10 0.799609 0.895242 0.691594
O O11 0.164706 0.594564 0.147287
O O12 0.082550 0.026459 0.384374
O O13 0.978653 0.230312 0.230607
O O14 0.977734 0.627707 0.215584
O O15 0.000000 0.000000 0.000000
O O16 0.162921 0.765477 0.661200
O O17 0.000000 0.000000 0.500000
#
# Coordination Sequence:
#
# PCOD9034994 Si02
#       8
#     2   2   2   2   2   2   2   2
#     4  10  24  47  72  96 141 186 232 286 342 414
#     4  11  25  43  67 106 139 177 234 287 346 404
#     4  10  23  45  71 102 134 184 237 282 345 418
#     4  11  22  42  71  95 139 179 221 287 338 411
#     4  12  25  42  69 100 138 187 235 274 341 426
#     4  10  22  45  70 100 136 183 237 285 338 411
#     4  12  28  45  66 107 143 176 227 287 357 411
#     4  12  25  45  69 105 143 181 227 290 354 412
#
# _framework density 24.585141
#
# number of rings (size 3 to 8) (size 9 to 14) (size 15 to 20)
#    0.000    1.000    1.250    6.000    5.250    3.000 
#    4.500    0.000    0.000    0.000    0.000    0.000 
#    0.000    0.000    0.000    0.000    0.000    0.000 
#
# Total GULP energy -89497.299782 kJ/mol
# GULP energy per Si atom -5593.581236 kJ/mol
# Density = 2.452918 g / cm^3
# Si number density = 24.585141 Si / 1000 Ang^3
#
#
#
# Elastic Constant Matrix: (Units=GPa)
#
#
# Indices 1 2 3 4 5 6 
#
# 1 119.2539 41.9628 19.4293 -24.5204 -3.4641 -4.9566
# 2 41.9628 80.7902 42.3151 -2.6123 -3.2158 -12.6033
# 3 19.4293 42.3151 127.3942 -15.6397 -17.9269 -1.1529
# 4 -24.5204 -2.6123 -15.6397 30.0461 5.5918 -4.7964
# 5 -3.4641 -3.2158 -17.9269 5.5918 44.0710 -9.8720
# 6 -4.9566 -12.6033 -1.1529 -4.7964 -9.8720 40.7761
#
#
#
# Elastic Compliance Matrix: (Units=1/GPa)
#
#
# Indices 1 2 3 4 5 6 
#
# 1 0.012892 -0.007156 0.001754 0.010926 -0.000029 0.000683
# 2 -0.007156 0.019839 -0.006260 -0.006712 0.000161 0.004335
# 3 0.001754 -0.006260 0.010865 0.005931 0.003370 0.000099
# 4 0.010926 -0.006712 0.005931 0.045774 -0.002061 0.004307
# 5 -0.000029 0.000161 0.003370 -0.002061 0.025704 0.006122
# 6 0.000683 0.004335 0.000099 0.004307 0.006122 0.027939
#
#
# Mechanical properties :
#
#
# Convention : Reuss Voigt Hill
#
# Bulk Modulus (GPa) = 49.33051 59.42808 54.37929
# Shear Modulus (GPa) = 28.88589 37.89408 33.38998
#
# Velocity S-wave (km/s) = 3.43145 3.93025 3.68929
# Velocity P-wave (km/s) = 5.98402 6.69482 6.34938
#
# Compressibility (1/GPa) = 0.02027143
#
# Stress axis : x y z
#
# Youngs Moduli (GPa) = 77.56753 50.40485 92.03945
#
# Poissons Ratio (x) = 0.36071 -0.16147
# Poissons Ratio (y) = 0.55510 0.57621
# Poissons Ratio (z) = -0.13608 0.31556
#
# Static dielectric constant tensor:
#      x y z
#    x 1.927520 0.018480 -0.004410 
#    y 0.018480 2.015890 -0.038940 
#    z -0.004410 -0.038940 2.034860 
# 
# From -- ./inp_files/442283.got.cif
#   From: 2010.05.17/outbox.cif.g08.bks.cpg/sg2_222_cif.got.tgz:442283.got - 2010.06.03 11:33:40.
