data_PCOD9034839
_publ_section_title
;
Structure prediction by ZEFSAII (Michael W. Deem and Ramdas Pophale) SiO2 
 PCOD9034839
Probable space group: P -1
;
_chemical_formula_sum "Si O2"
_cell_formula_units_Z 12
_cell_length_a 9.511761
_cell_length_b 9.668055
_cell_length_c 12.862448
_cell_angle_alpha 36.577759
_cell_angle_beta 135.359592
_cell_angle_gamma 129.153097
_cell_volume 490.166493
_symmetry_space_group_name_H-M "P -1"
_symmetry_group_IT_number 2
_symmetry_cell_setting 'triclinic'
loop_
_space_group_symop_operation_xyz
x,y,z
-x,-y,-z
loop_
_atom_site_type_symbol
_atom_site_label
_atom_site_fract_x
_atom_site_fract_y
_atom_site_fract_z
Si Si1 0.702467 0.932813 0.594122
Si Si2 0.559303 0.862297 0.013794
Si Si3 0.098185 0.240494 0.854146
Si Si4 0.230696 0.465979 0.987580
Si Si5 0.413729 0.237589 0.586250
Si Si6 0.976525 0.683137 0.573545
O O1 0.814296 0.769188 0.826801
O O2 0.634828 0.785748 0.545068
O O3 0.500000 0.000000 0.500000
O O4 0.848165 0.158002 0.492295
O O5 0.556434 0.051455 0.805926
O O6 0.783283 0.792739 0.168828
O O7 0.500000 0.000000 0.000000
O O8 0.399081 0.638185 0.033487
O O9 0.265491 0.369114 0.947608
O O10 0.941165 0.428029 0.653671
O O11 0.000000 0.000000 0.000000
O O12 0.053708 0.614451 0.771336
O O13 0.500000 0.500000 0.500000
O O14 0.212124 0.186845 0.581024
#
# Coordination Sequence:
#
# PCOD9034839 Si02
#       6
#     2   2   2   2   2   2
#     4  12  24  43  74 105 134 185 234 282 348 415
#     4  12  24  43  70 101 139 180 228 288 345 408
#     4  10  22  45  68  97 137 181 226 282 343 405
#     4  10  24  44  72  97 142 180 232 276 354 405
#     4  12  25  46  68 102 144 177 236 290 340 415
#     4  10  25  46  71  97 142 182 230 284 347 404
#
# _framework density 24.481480000000001
#
# number of rings (size 3 to 8) (size 9 to 14) (size 15 to 20)
#    1.000    0.000    1.667    5.000    0.000    2.000 
#    0.000    2.500    0.000    0.000    0.000    0.000 
#    0.000    0.000    0.000    0.000    0.000    0.000 
#
# Total GULP energy -67074.463834 kJ/mol
# GULP energy per Si atom -5589.538653 kJ/mol
# Density = 2.442576 g / cm^3
# Si number density = 24.481480 Si / 1000 Ang^3
#
#
#
# Elastic Constant Matrix: (Units=GPa)
#
#
# Indices 1 2 3 4 5 6 
#
# 1 123.5268 44.3435 1.8182 2.2710 9.0189 -23.8708
# 2 44.3435 113.9035 6.4808 -21.7268 0.0610 -16.1732
# 3 1.8182 6.4808 124.9749 -12.1600 -10.0243 5.9824
# 4 2.2710 -21.7268 -12.1600 39.8096 -2.6449 -6.6167
# 5 9.0189 0.0610 -10.0243 -2.6449 29.8252 -1.0162
# 6 -23.8708 -16.1732 5.9824 -6.6167 -1.0162 37.0892
#
#
#
# Elastic Compliance Matrix: (Units=1/GPa)
#
#
# Indices 1 2 3 4 5 6 
#
# 1 0.010739 -0.003917 -0.000699 -0.002402 -0.003524 0.004791
# 2 -0.003917 0.012418 0.000139 0.007901 0.002054 0.004337
# 3 -0.000699 0.000139 0.008595 0.002763 0.003304 -0.001192
# 4 -0.002402 0.007901 0.002763 0.031936 0.004719 0.007281
# 5 -0.003524 0.002054 0.003304 0.004719 0.036117 -0.000074
# 6 0.004791 0.004337 -0.001192 0.007281 -0.000074 0.033426
#
#
# Mechanical properties :
#
#
# Convention : Reuss Voigt Hill
#
# Bulk Modulus (GPa) = 43.86144 51.96558 47.91351
# Shear Modulus (GPa) = 33.38112 41.99565 37.68838
#
# Velocity S-wave (km/s) = 3.69660 4.14624 3.92786
# Velocity P-wave (km/s) = 6.01456 6.64788 6.33913
#
# Compressibility (1/GPa) = 0.02279907
#
# Stress axis : x y z
#
# Youngs Moduli (GPa) = 93.11710 80.52717 116.34022
#
# Poissons Ratio (x) = 0.31542 0.08130
# Poissons Ratio (y) = 0.36473 -0.01616
# Poissons Ratio (z) = 0.06507 -0.01118
#
# Static dielectric constant tensor:
#      x y z
#    x 1.945390 0.010810 0.012940 
#    y 0.010810 1.959100 0.034090 
#    z 0.012940 0.034090 1.960940 
# 
# From -- ./inp_files/380913.got.cif
#   From: 2010.05.17/outbox.cif.g08.bks.cpg/sg2_191_cif.got.tgz:380913.got - 2010.06.03 11:33:40.
