data_PCOD9034995
_publ_section_title
;
Structure prediction by ZEFSAII (Michael W. Deem and Ramdas Pophale) SiO2 
 PCOD9034995
Probable space group: P -1
;
_chemical_formula_sum "Si O2"
_cell_formula_units_Z 16
_cell_length_a 12.167683
_cell_length_b 8.280522
_cell_length_c 16.976191
_cell_angle_alpha 55.576236
_cell_angle_beta 34.429266
_cell_angle_gamma 43.005388
_cell_volume 656.409510
_symmetry_space_group_name_H-M "P -1"
_symmetry_group_IT_number 2
_symmetry_cell_setting 'triclinic'
loop_
_space_group_symop_operation_xyz
x,y,z
-x,-y,-z
loop_
_atom_site_type_symbol
_atom_site_label
_atom_site_fract_x
_atom_site_fract_y
_atom_site_fract_z
Si Si1 0.050580 0.003464 0.285208
Si Si2 0.397544 0.534529 0.636581
Si Si3 0.450647 0.429216 0.964007
Si Si4 0.141602 0.728364 0.919865
Si Si5 0.712362 0.749517 0.133920
Si Si6 0.728360 0.825422 0.780949
Si Si7 0.804765 0.766084 0.566921
Si Si8 0.558948 0.148782 0.366267
O O1 0.294298 0.789193 0.160163
O O2 0.894297 0.914868 0.433572
O O3 0.120766 0.089421 0.295444
O O4 0.878195 0.239655 0.269763
O O5 0.500000 0.500000 0.500000
O O6 0.429792 0.289205 0.705728
O O7 0.522994 0.609954 0.603258
O O8 0.312136 0.623816 0.923408
O O9 0.500000 0.500000 0.000000
O O10 0.266031 0.363226 0.113894
O O11 0.201618 0.496031 0.896406
O O12 0.188581 0.906976 0.797783
O O13 0.870445 0.822739 0.062847
O O14 0.545509 0.954724 0.115717
O O15 0.784882 0.764579 0.673083
O O16 0.574541 0.827216 0.640537
O O17 0.000000 0.500000 0.500000
O O18 0.500000 0.000000 0.500000
#
# Coordination Sequence:
#
# PCOD9034995 Si02
#       8
#     2   2   2   2   2   2   2   2
#     4  12  25  46  74 101 142 193 243 291 356 428
#     4  11  25  45  71 104 142 186 243 293 352 424
#     4  12  26  48  70 107 147 186 235 295 362 429
#     4  10  22  45  70 100 141 182 227 295 352 415
#     4  10  23  41  74 102 137 179 238 294 347 410
#     4  12  26  44  75 105 140 187 245 291 354 431
#     4  12  27  46  69 104 144 190 237 298 364 420
#     4  11  24  46  69  98 142 184 234 290 356 424
#
# _framework density 24.375025999999998
#
# number of rings (size 3 to 8) (size 9 to 14) (size 15 to 20)
#    0.000    0.750    2.500    4.500    8.750    0.000 
#    4.500    1.250    0.000    0.000    0.000    0.000 
#    0.000    0.000    0.000    0.000    0.000    0.000 
#
# Total GULP energy -89340.493872 kJ/mol
# GULP energy per Si atom -5583.780867 kJ/mol
# Density = 2.431955 g / cm^3
# Si number density = 24.375026 Si / 1000 Ang^3
#
#
#
# Elastic Constant Matrix: (Units=GPa)
#
#
# Indices 1 2 3 4 5 6 
#
# 1 161.3259 22.0189 63.6176 -1.9423 -9.7495 15.5223
# 2 22.0189 63.7338 34.9283 -17.2964 -4.6526 1.0831
# 3 63.6176 34.9283 102.1286 -42.7945 -9.8938 21.6343
# 4 -1.9423 -17.2964 -42.7945 46.7222 5.7226 5.3674
# 5 -9.7495 -4.6526 -9.8938 5.7226 43.2763 -4.2860
# 6 15.5223 1.0831 21.6343 5.3674 -4.2860 39.9250
#
#
#
# Elastic Compliance Matrix: (Units=1/GPa)
#
#
# Indices 1 2 3 4 5 6 
#
# 1 0.010438 -0.000098 -0.011797 -0.011049 0.001500 0.003983
# 2 -0.000098 0.019766 -0.007339 0.000090 0.000765 0.003549
# 3 -0.011797 -0.007339 0.038384 0.034496 -0.001292 -0.020790
# 4 -0.011049 0.000090 0.034496 0.055648 -0.004163 -0.022328
# 5 0.001500 0.000765 -0.001292 -0.004163 0.024104 0.003244
# 6 0.003983 0.003549 -0.020790 -0.022328 0.003244 0.038018
#
#
# Mechanical properties :
#
#
# Convention : Reuss Voigt Hill
#
# Bulk Modulus (GPa) = 33.20039 63.14643 48.17341
# Shear Modulus (GPa) = 21.28869 39.75958 30.52413
#
# Velocity S-wave (km/s) = 2.95851 4.04314 3.54258
# Velocity P-wave (km/s) = 5.03196 6.91075 6.04479
#
# Compressibility (1/GPa) = 0.03012013
#
# Stress axis : x y z
#
# Youngs Moduli (GPa) = 95.79991 50.59177 26.05250
#
# Poissons Ratio (x) = 0.00495 0.30734
# Poissons Ratio (y) = 0.00937 0.19121
# Poissons Ratio (z) = 1.13016 0.37131
#
# Static dielectric constant tensor:
#      x y z
#    x 1.904470 -0.007880 0.047270 
#    y -0.007880 2.127540 0.034640 
#    z 0.047270 0.034640 2.107570 
# 
# From -- ./inp_files/566617.got.cif
#   From: 2010.05.17/outbox.cif.g08.bks.cpg/sg2_284_cif.got.tgz:566617.got - 2010.06.03 11:33:40.
