data_PCOD9034554
_publ_section_title
;
Structure prediction by ZEFSAII (Michael W. Deem and Ramdas Pophale) SiO2 
 PCOD9034554
Probable space group: P -1
;
_chemical_formula_sum "Si O2"
_cell_formula_units_Z 14
_cell_length_a 12.003544
_cell_length_b 5.581710
_cell_length_c 10.484051
_cell_angle_alpha 111.715099
_cell_angle_beta 59.261264
_cell_angle_gamma 114.648842
_cell_volume 537.563527
_symmetry_space_group_name_H-M "P -1"
_symmetry_group_IT_number 2
_symmetry_cell_setting 'triclinic'
loop_
_space_group_symop_operation_xyz
x,y,z
-x,-y,-z
loop_
_atom_site_type_symbol
_atom_site_label
_atom_site_fract_x
_atom_site_fract_y
_atom_site_fract_z
Si Si1 0.319104 0.377269 0.454794
Si Si2 0.360093 0.322989 0.991361
Si Si3 0.419484 0.210508 0.629312
Si Si4 0.134141 0.881765 0.321948
Si Si5 0.739330 0.283342 0.040417
Si Si6 0.165893 0.735639 0.746658
Si Si7 0.078315 0.299963 0.283436
O O1 0.369223 0.327332 0.555725
O O2 0.452281 0.560458 0.342327
O O3 0.210464 0.539638 0.581131
O O4 0.253618 0.100060 0.366771
O O5 0.230518 0.310264 0.154093
O O6 0.500000 0.500000 0.000000
O O7 0.326882 0.486317 0.919976
O O8 0.363900 0.011448 0.925336
O O9 0.500000 0.000000 0.500000
O O10 0.282141 0.016421 0.728712
O O11 0.089951 0.606674 0.372278
O O12 0.037918 0.057343 0.361341
O O13 0.179125 0.769894 0.140569
O O14 0.829421 0.364018 0.130788
O O15 0.025569 0.771244 0.787469
#
# Coordination Sequence:
#
# PCOD9034554 Si02
#       7
#     2   2   2   2   2   2   2
#     4  10  23  45  69  96 139 183 235 286 345 419
#     4  10  22  45  64 100 142 184 226 280 347 415
#     4   9  22  45  66  99 134 188 230 286 349 412
#     4  10  24  45  69  99 138 185 228 284 347 411
#     4  10  24  43  69 103 133 180 228 290 345 404
#     4  11  25  42  70 102 141 178 236 287 348 415
#     4  10  25  43  68 104 140 185 228 289 346 409
#
# _framework density 26.043436
#
# number of rings (size 3 to 8) (size 9 to 14) (size 15 to 20)
#    0.000    2.000    0.000    0.429    8.000    8.000 
#   23.143    0.000    0.000    0.000    0.000    0.000 
#    0.000    0.000    0.000    0.000    0.000    0.000 
#
# Total GULP energy -78255.055839 kJ/mol
# GULP energy per Si atom -5589.646846 kJ/mol
# Density = 2.598416 g / cm^3
# Si number density = 26.043436 Si / 1000 Ang^3
#
#
#
# Elastic Constant Matrix: (Units=GPa)
#
#
# Indices 1 2 3 4 5 6 
#
# 1 145.6472 53.0708 24.5777 -16.9420 10.3336 6.2021
# 2 53.0708 199.6757 34.5676 -1.7970 5.2963 -5.3112
# 3 24.5777 34.5676 84.1576 -1.4808 0.6208 15.9831
# 4 -16.9420 -1.7970 -1.4808 39.3874 -7.3581 -0.4851
# 5 10.3336 5.2963 0.6208 -7.3581 40.6473 -1.0125
# 6 6.2021 -5.3112 15.9831 -0.4851 -1.0125 52.0112
#
#
#
# Elastic Compliance Matrix: (Units=1/GPa)
#
#
# Indices 1 2 3 4 5 6 
#
# 1 0.008297 -0.001915 -0.001431 0.003179 -0.001281 -0.000741
# 2 -0.001915 0.005935 -0.002171 -0.000679 -0.000339 0.001489
# 3 -0.001431 -0.002171 0.014013 -0.000187 0.000290 -0.004353
# 4 0.003179 -0.000679 -0.000187 0.027514 0.004262 -0.000051
# 5 -0.001281 -0.000339 0.000290 0.004262 0.025753 0.000570
# 6 -0.000741 0.001489 -0.004353 -0.000051 0.000570 0.020815
#
#
# Mechanical properties :
#
#
# Convention : Reuss Voigt Hill
#
# Bulk Modulus (GPa) = 58.09434 72.65697 65.37565
# Shear Modulus (GPa) = 41.98193 47.56014 44.77104
#
# Velocity S-wave (km/s) = 4.01932 4.27803 4.15069
# Velocity P-wave (km/s) = 6.62534 7.23609 6.93744
#
# Compressibility (1/GPa) = 0.01721338
#
# Stress axis : x y z
#
# Youngs Moduli (GPa) = 120.52165 168.48258 71.36055
#
# Poissons Ratio (x) = 0.32260 0.10209
# Poissons Ratio (y) = 0.23077 0.15492
# Poissons Ratio (z) = 0.17242 0.36576
#
# Static dielectric constant tensor:
#      x y z
#    x -0.651270 3.133930 7.680970 
#    y 3.133930 -1.791870 -9.214650 
#    z 7.680970 -9.214650 -19.703030 
# 
# From -- ./inp_files/369349.got.cif
#   From: 2010.05.17/outbox.cif.g08.bks.cpg/sg2_185_cif.got.tgz:369349.got - 2010.06.03 11:33:40.
