data_PCOD9034685
_publ_section_title
;
Structure prediction by ZEFSAII (Michael W. Deem and Ramdas Pophale) SiO2 
 PCOD9034685
Probable space group: P -1
;
_chemical_formula_sum "Si O2"
_cell_formula_units_Z 16
_cell_length_a 15.870234
_cell_length_b 5.041212
_cell_length_c 14.392511
_cell_angle_alpha 125.879277
_cell_angle_beta 138.926027
_cell_angle_gamma 54.351331
_cell_volume 591.114787
_symmetry_space_group_name_H-M "P -1"
_symmetry_group_IT_number 2
_symmetry_cell_setting 'triclinic'
loop_
_space_group_symop_operation_xyz
x,y,z
-x,-y,-z
loop_
_atom_site_type_symbol
_atom_site_label
_atom_site_fract_x
_atom_site_fract_y
_atom_site_fract_z
Si Si1 0.797445 0.354729 0.012223
Si Si2 0.592854 0.001643 0.476936
Si Si3 0.873337 0.311001 0.471579
Si Si4 0.708258 0.811730 0.725355
Si Si5 0.819731 0.303252 0.225929
Si Si6 0.426830 0.001642 0.037894
Si Si7 0.962697 0.423373 0.762615
Si Si8 0.637197 0.193519 0.357242
O O1 0.668376 0.640176 0.934907
O O2 0.759173 0.008535 0.890940
O O3 0.815604 0.470509 0.156838
O O4 0.934892 0.360294 0.080155
O O5 0.670591 0.032711 0.643147
O O6 0.583438 0.607259 0.393204
O O7 0.439225 0.223605 0.383203
O O8 0.668666 0.076221 0.464684
O O9 0.845167 0.466646 0.377605
O O10 0.902423 0.511510 0.626756
O O11 0.754152 0.157937 0.373236
O O12 0.000000 0.000000 0.500000
O O13 0.835639 0.508243 0.741223
O O14 0.940260 0.958036 0.241107
O O15 0.675005 0.228699 0.096460
O O16 0.543403 0.959081 0.200009
O O17 0.500000 0.000000 0.000000
#
# Coordination Sequence:
#
# PCOD9034685 Si02
#       8
#     2   2   2   2   2   2   2   2
#     4  11  24  43  66  99 142 184 240 292 361 423
#     4  11  27  46  75 107 142 188 239 298 363 426
#     4  10  22  45  67 101 142 182 241 291 353 428
#     4  11  23  46  67 105 140 186 235 303 349 434
#     4  10  23  43  66 100 138 185 235 294 356 429
#     4  11  23  41  66  98 140 181 235 291 356 424
#     4  10  23  44  64  99 137 187 241 286 361 417
#     4  12  24  50  72 107 145 188 238 296 362 426
#
# _framework density 27.067499000000002
#
# number of rings (size 3 to 8) (size 9 to 14) (size 15 to 20)
#    0.000    1.250    3.750    1.125    0.000    6.500 
#    6.750    0.000    0.000    0.000    0.000    0.000 
#    0.000    0.000    0.000    0.000    0.000    0.000 
#
# Total GULP energy -89505.591033 kJ/mol
# GULP energy per Si atom -5594.099440 kJ/mol
# Density = 2.700589 g / cm^3
# Si number density = 27.067499 Si / 1000 Ang^3
#
#
#
# Elastic Constant Matrix: (Units=GPa)
#
#
# Indices 1 2 3 4 5 6 
#
# 1 96.4940 39.8771 15.2140 -1.7944 5.5785 -23.0180
# 2 39.8771 81.9926 22.5238 0.2531 10.5555 -15.1282
# 3 15.2140 22.5238 92.9067 -1.8291 6.1094 -14.6952
# 4 -1.7944 0.2531 -1.8291 33.0685 -7.2255 -3.2022
# 5 5.5785 10.5555 6.1094 -7.2255 47.4327 -9.7585
# 6 -23.0180 -15.1282 -14.6952 -3.2022 -9.7585 45.7982
#
#
#
# Elastic Compliance Matrix: (Units=1/GPa)
#
#
# Indices 1 2 3 4 5 6 
#
# 1 0.014108 -0.005987 -0.000037 0.001561 0.001033 0.005430
# 2 -0.005987 0.016348 -0.002692 -0.001071 -0.002564 0.000906
# 3 -0.000037 -0.002692 0.011918 0.000922 -0.000186 0.002941
# 4 0.001561 -0.001071 0.000922 0.032028 0.005674 0.004175
# 5 0.001033 -0.002564 -0.000186 0.005674 0.023450 0.005006
# 6 0.005430 0.000906 0.002941 0.004175 0.005006 0.027166
#
#
# Mechanical properties :
#
#
# Convention : Reuss Voigt Hill
#
# Bulk Modulus (GPa) = 40.09398 47.40255 43.74827
# Shear Modulus (GPa) = 33.16442 38.17845 35.67143
#
# Velocity S-wave (km/s) = 3.50415 3.75972 3.63419
# Velocity P-wave (km/s) = 5.58721 6.03308 5.81442
#
# Compressibility (1/GPa) = 0.02494140
#
# Stress axis : x y z
#
# Youngs Moduli (GPa) = 70.88121 61.16894 83.90825
#
# Poissons Ratio (x) = 0.36623 0.00311
# Poissons Ratio (y) = 0.42438 0.22589
# Poissons Ratio (z) = 0.00263 0.16467
#
# Static dielectric constant tensor:
#      x y z
#    x 2.117760 -0.015220 0.006220 
#    y -0.015220 2.176370 -0.000480 
#    z 0.006220 -0.000480 2.101670 
# 
# From -- ./inp_files/484438.got.cif
#   From: 2010.05.17/outbox.cif.g08.bks.cpg/sg2_243_cif.got.tgz:484438.got - 2010.06.03 11:33:40.
