data_PCOD9034342
_publ_section_title
;
Structure prediction by ZEFSAII (Michael W. Deem and Ramdas Pophale) SiO2 
 PCOD9034342
Probable space group: P -1
;
_chemical_formula_sum "Si O2"
_cell_formula_units_Z 16
_cell_length_a 8.511422
_cell_length_b 15.159840
_cell_length_c 15.020017
_cell_angle_alpha 27.761009
_cell_angle_beta 134.861579
_cell_angle_gamma 132.822907
_cell_volume 630.742790
_symmetry_space_group_name_H-M "P -1"
_symmetry_group_IT_number 2
_symmetry_cell_setting 'triclinic'
loop_
_space_group_symop_operation_xyz
x,y,z
-x,-y,-z
loop_
_atom_site_type_symbol
_atom_site_label
_atom_site_fract_x
_atom_site_fract_y
_atom_site_fract_z
Si Si1 0.058622 0.152427 0.467152
Si Si2 0.546485 0.138703 0.309586
Si Si3 0.375620 0.417239 0.884875
Si Si4 0.916423 0.185926 0.840807
Si Si5 0.296594 0.695368 0.187141
Si Si6 0.215213 0.545985 0.106330
Si Si7 0.196896 0.256191 0.613754
Si Si8 0.273954 0.785820 0.438599
O O1 0.812890 0.204523 0.346710
O O2 0.231712 0.333976 0.338149
O O3 0.161341 0.119329 0.634327
O O4 0.000000 0.000000 0.500000
O O5 0.500000 0.000000 0.500000
O O6 0.436002 0.989787 0.322257
O O7 0.413966 0.316347 0.083651
O O8 0.573568 0.371104 0.942130
O O9 0.378974 0.642987 0.673296
O O10 0.139547 0.330017 0.826240
O O11 0.782188 0.161039 0.901784
O O12 0.771878 0.272562 0.630142
O O13 0.000000 0.000000 0.000000
O O14 0.189918 0.678329 0.062118
O O15 0.220388 0.479464 0.390308
O O16 0.565412 0.741667 0.245943
O O17 0.000000 0.500000 0.000000
O O18 0.973067 0.205953 0.627649
#
# Coordination Sequence:
#
# PCOD9034342 Si02
#       8
#     2   2   2   2   2   2   2   2
#     4  11  24  45  71 108 150 196 255 318 388 455
#     4  12  26  48  71 110 150 195 261 314 381 459
#     4  12  26  48  77 107 150 203 256 315 386 461
#     4  12  26  47  75 112 157 198 257 323 384 460
#     4  10  24  44  74 110 146 198 256 315 383 456
#     4  11  24  49  75 105 151 201 256 311 379 468
#     4  10  22  44  73 105 149 194 258 313 379 461
#     4  12  25  46  75 108 151 206 250 320 387 453
#
# _framework density 25.366917000000001
#
# number of rings (size 3 to 8) (size 9 to 14) (size 15 to 20)
#    0.000    0.750    5.000    1.875    7.000    0.500 
#    6.750    1.250    0.000    0.000    0.000    0.000 
#    0.000    0.000    0.000    0.000    0.000    0.000 
#
# Total GULP energy -89553.283290 kJ/mol
# GULP energy per Si atom -5597.080206 kJ/mol
# Density = 2.530918 g / cm^3
# Si number density = 25.366917 Si / 1000 Ang^3
#
#
#
# Elastic Constant Matrix: (Units=GPa)
#
#
# Indices 1 2 3 4 5 6 
#
# 1 99.6932 31.0660 20.8193 12.3384 -9.8790 -2.8291
# 2 31.0660 137.4359 46.0291 19.5680 -4.0822 -9.6742
# 3 20.8193 46.0291 127.4514 -0.7582 -7.4347 -7.9396
# 4 12.3384 19.5680 -0.7582 54.9976 -1.5724 -4.1275
# 5 -9.8790 -4.0822 -7.4347 -1.5724 30.6115 -4.2076
# 6 -2.8291 -9.6742 -7.9396 -4.1275 -4.2076 55.8453
#
#
#
# Elastic Compliance Matrix: (Units=1/GPa)
#
#
# Indices 1 2 3 4 5 6 
#
# 1 0.011358 -0.001872 -0.000995 -0.001791 0.003111 0.000212
# 2 -0.001872 0.009151 -0.002971 -0.002817 -0.000133 0.000850
# 3 -0.000995 -0.002971 0.009255 0.001532 0.001746 0.000995
# 4 -0.001791 -0.002817 0.001532 0.019710 0.000588 0.001140
# 5 0.003111 -0.000133 0.001746 0.000588 0.034524 0.003027
# 6 0.000212 0.000850 0.000995 0.001140 0.003027 0.018518
#
#
# Mechanical properties :
#
#
# Convention : Reuss Voigt Hill
#
# Bulk Modulus (GPa) = 55.28530 62.26771 58.77650
# Shear Modulus (GPa) = 41.59002 46.06861 43.82931
#
# Velocity S-wave (km/s) = 4.05351 4.26618 4.16121
# Velocity P-wave (km/s) = 6.61434 6.99051 6.80503
#
# Compressibility (1/GPa) = 0.01808799
#
# Stress axis : x y z
#
# Youngs Moduli (GPa) = 88.04485 109.27665 108.05459
#
# Poissons Ratio (x) = 0.20453 0.10755
# Poissons Ratio (y) = 0.16479 0.32100
# Poissons Ratio (z) = 0.08764 0.32463
#
# Static dielectric constant tensor:
#      x y z
#    x 1.987610 -0.100890 -0.018010 
#    y -0.100890 1.990580 0.011690 
#    z -0.018010 0.011690 2.140910 
# 
# From -- ./inp_files/505170.got.cif
#   From: 2010.05.17/outbox.cif.g08.bks.cpg/sg2_253_cif.got.tgz:505170.got - 2010.06.03 11:33:40.
