data_PCOD9034563
_publ_section_title
;
Structure prediction by ZEFSAII (Michael W. Deem and Ramdas Pophale) SiO2 
 PCOD9034563
Probable space group: P -1
;
_chemical_formula_sum "Si O2"
_cell_formula_units_Z 14
_cell_length_a 7.330434
_cell_length_b 8.364747
_cell_length_c 10.070620
_cell_angle_alpha 102.915382
_cell_angle_beta 86.341130
_cell_angle_gamma 74.657578
_cell_volume 575.443306
_symmetry_space_group_name_H-M "P -1"
_symmetry_group_IT_number 2
_symmetry_cell_setting 'triclinic'
loop_
_space_group_symop_operation_xyz
x,y,z
-x,-y,-z
loop_
_atom_site_type_symbol
_atom_site_label
_atom_site_fract_x
_atom_site_fract_y
_atom_site_fract_z
Si Si1 0.842475 0.588946 0.322565
Si Si2 0.592967 0.633175 0.096869
Si Si3 0.280187 0.598856 0.505968
Si Si4 0.844530 0.713283 0.863432
Si Si5 0.048569 0.849296 0.363086
Si Si6 0.504152 0.985977 0.839864
Si Si7 0.111317 0.897696 0.787383
O O1 0.687203 0.562114 0.219647
O O2 0.809035 0.548359 0.467605
O O3 0.038352 0.464005 0.237210
O O4 0.866753 0.775818 0.349323
O O5 0.476635 0.830739 0.173601
O O6 0.500000 0.500000 0.000000
O O7 0.751319 0.667299 0.993758
O O8 0.500000 0.500000 0.500000
O O9 0.221660 0.697852 0.388393
O O10 0.187443 0.745005 0.647544
O O11 0.999371 0.821487 0.890344
O O12 0.685215 0.819343 0.785965
O O13 0.000000 0.000000 0.500000
O O14 0.045684 0.942103 0.240746
O O15 0.302961 0.951040 0.813421
O O16 0.500000 0.000000 0.000000
#
# Coordination Sequence:
#
# PCOD9034563 Si02
#       7
#     2   2   2   2   2   2   2
#     4  11  23  44  68  97 138 180 220 281 346 395
#     4  11  25  44  67 105 140 176 225 272 338 424
#     4  10  24  41  70  96 130 174 229 285 333 397
#     4  10  25  41  70 100 138 179 220 274 341 408
#     4  10  22  45  64  94 131 177 233 280 332 401
#     4  10  23  42  65  98 137 176 226 271 333 409
#     4  10  22  46  68  98 139 177 224 277 347 399
#
# _framework density 24.329070000000002
#
# number of rings (size 3 to 8) (size 9 to 14) (size 15 to 20)
#    0.000    1.714    1.429    0.857   10.000    4.571 
#    0.000    1.429    0.000    0.000    0.000    0.000 
#    0.000    0.000    0.000    0.000    0.000    0.000 
#
# Total GULP energy -78065.411285 kJ/mol
# GULP energy per Si atom -5576.100806 kJ/mol
# Density = 2.427370 g / cm^3
# Si number density = 24.329070 Si / 1000 Ang^3
#
#
#
# Elastic Constant Matrix: (Units=GPa)
#
#
# Indices 1 2 3 4 5 6 
#
# 1 115.5595 38.0115 27.2051 -1.0630 18.7583 -0.6570
# 2 38.0115 113.4492 25.8315 -19.1137 15.8055 5.8017
# 3 27.2051 25.8315 49.4251 -10.0124 16.8659 6.2019
# 4 -1.0630 -19.1137 -10.0124 37.3140 3.8114 10.5887
# 5 18.7583 15.8055 16.8659 3.8114 37.5700 0.2760
# 6 -0.6570 5.8017 6.2019 10.5887 0.2760 58.9842
#
#
#
# Elastic Compliance Matrix: (Units=1/GPa)
#
#
# Indices 1 2 3 4 5 6 
#
# 1 0.010974 -0.002864 -0.004556 -0.002558 -0.001979 0.001351
# 2 -0.002864 0.011868 -0.001916 0.006431 -0.003340 -0.002137
# 3 -0.004556 -0.001916 0.030124 0.009459 -0.011368 -0.004675
# 4 -0.002558 0.006431 0.009459 0.035784 -0.009246 -0.008036
# 5 -0.001979 -0.003340 -0.011368 -0.009246 0.035030 0.002998
# 6 0.001351 -0.002137 -0.004675 -0.008036 0.002998 0.019099
#
#
# Mechanical properties :
#
#
# Convention : Reuss Voigt Hill
#
# Bulk Modulus (GPa) = 29.15920 51.17001 40.16461
# Shear Modulus (GPa) = 28.90496 39.26600 34.08548
#
# Velocity S-wave (km/s) = 3.45060 4.02176 3.74708
# Velocity P-wave (km/s) = 5.28080 6.53025 5.93848
#
# Compressibility (1/GPa) = 0.03429449
#
# Stress axis : x y z
#
# Youngs Moduli (GPa) = 91.12846 84.25772 33.19657
#
# Poissons Ratio (x) = 0.24129 0.15124
# Poissons Ratio (y) = 0.26097 0.06360
# Poissons Ratio (z) = 0.41516 0.16144
#
# Static dielectric constant tensor:
#      x y z
#    x 1.725430 -0.128030 0.253080 
#    y -0.128030 2.020310 0.049700 
#    z 0.253080 0.049700 1.785520 
# 
# From -- ./inp_files/360837.got.cif
#   From: 2010.05.17/outbox.cif.g08.bks.cpg/sg2_181_cif.got.tgz:360837.got - 2010.06.03 11:33:40.
