data_PCOD9034708
_publ_section_title
;
Structure prediction by ZEFSAII (Michael W. Deem and Ramdas Pophale) SiO2 
 PCOD9034708
Probable space group: P -1
;
_chemical_formula_sum "Si O2"
_cell_formula_units_Z 16
_cell_length_a 9.082290
_cell_length_b 15.118734
_cell_length_c 10.507040
_cell_angle_alpha 25.669187
_cell_angle_beta 95.642534
_cell_angle_gamma 96.194682
_cell_volume 621.311486
_symmetry_space_group_name_H-M "P -1"
_symmetry_group_IT_number 2
_symmetry_cell_setting 'triclinic'
loop_
_space_group_symop_operation_xyz
x,y,z
-x,-y,-z
loop_
_atom_site_type_symbol
_atom_site_label
_atom_site_fract_x
_atom_site_fract_y
_atom_site_fract_z
Si Si1 0.829684 0.320831 0.351815
Si Si2 0.413845 0.040070 0.810767
Si Si3 0.170589 0.021945 0.403232
Si Si4 0.970756 0.379955 0.880278
Si Si5 0.555054 0.476599 0.234236
Si Si6 0.755746 0.651809 0.216992
Si Si7 0.825485 0.972223 0.009887
Si Si8 0.346249 0.787648 0.906785
O O1 0.979308 0.444562 0.244273
O O2 0.694620 0.473684 0.153577
O O3 0.850648 0.195281 0.388720
O O4 0.787023 0.153790 0.674768
O O5 0.461681 0.266511 0.478741
O O6 0.244145 0.017450 0.870645
O O7 0.437958 0.872137 0.924702
O O8 0.500000 0.000000 0.000000
O O9 0.261547 0.162994 0.125553
O O10 0.275136 0.981263 0.582975
O O11 0.027877 0.161794 0.219801
O O12 0.082223 0.422086 0.716446
O O13 0.797393 0.350919 0.880857
O O14 0.630124 0.490309 0.366015
O O15 0.770294 0.759993 0.213461
O O16 0.444227 0.659847 0.985859
O O17 0.000000 0.000000 0.000000
#
# Coordination Sequence:
#
# PCOD9034708 Si02
#       8
#     2   2   2   2   2   2   2   2
#     4  10  22  45  67  91 133 170 210 266 325 372
#     4  12  27  45  64  89 136 175 208 271 320 373
#     4   9  22  42  71  93 132 167 210 269 320 382
#     4   9  21  42  67 100 130 163 210 268 326 380
#     4  11  25  44  62  97 128 172 217 255 324 386
#     4   8  20  44  65  89 130 167 210 264 321 367
#     4  11  22  41  70  94 123 171 222 263 316 383
#     4  12  26  41  66 102 128 168 218 263 325 383
#
# _framework density 25.751981000000001
#
# number of rings (size 3 to 8) (size 9 to 14) (size 15 to 20)
#    0.750    1.000    1.250    1.875    3.500    4.500 
#    0.000    1.875    0.000    0.000    0.000    0.000 
#    0.000    0.000    0.000    0.000    0.000    0.000 
#
# Total GULP energy -89477.965921 kJ/mol
# GULP energy per Si atom -5592.372870 kJ/mol
# Density = 2.569337 g / cm^3
# Si number density = 25.751981 Si / 1000 Ang^3
#
#
#
# Elastic Constant Matrix: (Units=GPa)
#
#
# Indices 1 2 3 4 5 6 
#
# 1 116.9909 23.7459 11.8504 -19.9959 13.7234 4.6746
# 2 23.7459 118.0260 29.6028 -35.3736 7.6293 -0.8366
# 3 11.8504 29.6028 72.6819 -11.3382 6.1822 11.6862
# 4 -19.9959 -35.3736 -11.3382 42.7743 4.5586 1.1826
# 5 13.7234 7.6293 6.1822 4.5586 32.1590 -8.5002
# 6 4.6746 -0.8366 11.6862 1.1826 -8.5002 34.5636
#
#
#
# Elastic Compliance Matrix: (Units=1/GPa)
#
#
# Indices 1 2 3 4 5 6 
#
# 1 0.010326 -0.000114 0.000248 0.005531 -0.006046 -0.003159
# 2 -0.000114 0.012482 -0.003262 0.009785 -0.003621 0.000195
# 3 0.000248 -0.003262 0.017025 0.002648 -0.004872 -0.007158
# 4 0.005531 0.009785 0.002648 0.036167 -0.011782 -0.005541
# 5 -0.006046 -0.003621 -0.004872 -0.011782 0.040510 0.012743
# 6 -0.003159 0.000195 -0.007158 -0.005541 0.012743 0.035108
#
#
# Mechanical properties :
#
#
# Convention : Reuss Voigt Hill
#
# Bulk Modulus (GPa) = 29.78220 48.67745 39.22982
# Shear Modulus (GPa) = 29.57421 38.06603 33.82012
#
# Velocity S-wave (km/s) = 3.39252 3.84888 3.62788
# Velocity P-wave (km/s) = 5.18996 6.22055 5.72848
#
# Compressibility (1/GPa) = 0.03357710
#
# Stress axis : x y z
#
# Youngs Moduli (GPa) = 96.83866 80.11611 58.73658
#
# Poissons Ratio (x) = 0.00911 -0.01455
# Poissons Ratio (y) = 0.01101 0.19161
# Poissons Ratio (z) = -0.02398 0.26136
#
# Static dielectric constant tensor:
#      x y z
#    x 2.138440 -0.008730 0.003650 
#    y -0.008730 2.017900 0.025380 
#    z 0.003650 0.025380 2.081030 
# 
# From -- ./inp_files/398282.got.cif
#   From: 2010.05.17/outbox.cif.g08.bks.cpg/sg2_200_cif.got.tgz:398282.got - 2010.06.03 11:33:40.
