data_PCOD9034026
_publ_section_title
;
Structure prediction by ZEFSAII (Michael W. Deem and Ramdas Pophale) SiO2 
 PCOD9034026
Probable space group: P -1
;
_chemical_formula_sum "Si O2"
_cell_formula_units_Z 14
_cell_length_a 12.864953
_cell_length_b 6.204196
_cell_length_c 8.276604
_cell_angle_alpha 92.347516
_cell_angle_beta 109.751864
_cell_angle_gamma 67.041302
_cell_volume 569.338039
_symmetry_space_group_name_H-M "P -1"
_symmetry_group_IT_number 2
_symmetry_cell_setting 'triclinic'
loop_
_space_group_symop_operation_xyz
x,y,z
-x,-y,-z
loop_
_atom_site_type_symbol
_atom_site_label
_atom_site_fract_x
_atom_site_fract_y
_atom_site_fract_z
Si Si1 0.016068 0.336662 0.745152
Si Si2 0.735978 0.946947 0.289598
Si Si3 0.110485 0.194761 0.131717
Si Si4 0.314795 0.392272 0.185508
Si Si5 0.215144 0.748646 0.405543
Si Si6 0.610569 0.304810 0.960382
Si Si7 0.483791 0.072955 0.679145
O O1 0.899804 0.308039 0.611725
O O2 0.980036 0.604467 0.792115
O O3 0.130226 0.235856 0.686022
O O4 0.048253 0.192165 0.928250
O O5 0.651328 0.834489 0.323991
O O6 0.738462 0.147602 0.418807
O O7 0.675467 0.078402 0.097762
O O8 0.212954 0.291063 0.143053
O O9 0.169796 0.955516 0.253378
O O10 0.296792 0.583967 0.044272
O O11 0.441018 0.180969 0.207380
O O12 0.310333 0.520533 0.358310
O O13 0.551941 0.234489 0.772271
O O14 0.500000 0.500000 0.000000
O O15 0.500000 0.000000 0.500000
#
# Coordination Sequence:
#
# PCOD9034026 Si02
#       7
#     2   2   2   2   2   2   2
#     4  10  23  42  68  99 140 179 232 282 343 410
#     4  12  25  44  69 101 144 179 230 290 347 403
#     4  10  22  44  71 100 135 184 229 285 343 413
#     4  11  23  44  70  96 140 181 231 277 346 412
#     4  11  24  44  68 103 137 185 231 284 341 414
#     4  12  27  45  69 104 139 180 233 286 343 409
#     4  12  27  46  70 101 139 183 233 281 349 414
#
# _framework density 24.589963000000001
#
# number of rings (size 3 to 8) (size 9 to 14) (size 15 to 20)
#    0.000    0.857    1.429    5.571    4.000    4.000 
#    0.000    0.000    0.000    0.000    0.000    0.000 
#    0.000    0.000    0.000    0.000    0.000    0.000 
#
# Total GULP energy -78480.344460 kJ/mol
# GULP energy per Si atom -5605.738890 kJ/mol
# Density = 2.453399 g / cm^3
# Si number density = 24.589963 Si / 1000 Ang^3
#
#
#
# Elastic Constant Matrix: (Units=GPa)
#
#
# Indices 1 2 3 4 5 6 
#
# 1 131.5611 24.0095 8.8171 12.9897 -22.0609 3.3556
# 2 24.0095 62.6530 7.9175 9.8339 -14.4790 -7.0176
# 3 8.8171 7.9175 70.3649 10.7715 12.3540 13.8275
# 4 12.9897 9.8339 10.7715 36.6528 4.8525 -11.1251
# 5 -22.0609 -14.4790 12.3540 4.8525 40.5462 8.7082
# 6 3.3556 -7.0176 13.8275 -11.1251 8.7082 34.5169
#
#
#
# Elastic Compliance Matrix: (Units=1/GPa)
#
#
# Indices 1 2 3 4 5 6 
#
# 1 0.009608 -0.001901 -0.000499 -0.004859 0.006195 -0.004250
# 2 -0.001901 0.019518 -0.003040 -0.003836 0.006802 0.002419
# 3 -0.000499 -0.003040 0.018074 -0.006443 -0.004197 -0.008828
# 4 -0.004859 -0.003836 -0.006443 0.038560 -0.010385 0.017322
# 5 0.006195 0.006802 -0.004197 -0.010385 0.035075 -0.009734
# 6 -0.004250 0.002419 -0.008828 0.017322 -0.009734 0.041451
#
#
# Mechanical properties :
#
#
# Convention : Reuss Voigt Hill
#
# Bulk Modulus (GPa) = 27.53221 38.45192 32.99206
# Shear Modulus (GPa) = 26.98694 37.26551 32.12622
#
# Velocity S-wave (km/s) = 3.31641 3.89714 3.61844
# Velocity P-wave (km/s) = 5.08779 5.99345 5.55909
#
# Compressibility (1/GPa) = 0.03632110
#
# Stress axis : x y z
#
# Youngs Moduli (GPa) = 104.07662 51.23375 55.32749
#
# Poissons Ratio (x) = 0.09738 0.02761
# Poissons Ratio (y) = 0.19781 0.16821
# Poissons Ratio (z) = 0.05193 0.15577
#
# Static dielectric constant tensor:
#      x y z
#    x 1.912280 -0.027010 0.006300 
#    y -0.027010 1.937760 -0.025160 
#    z 0.006300 -0.025160 1.951050 
# 
# From -- ./inp_files/289021.got.cif
#   From: 2010.05.17/outbox.cif.g08.bks.cpg/sg2_145_cif.got.tgz:289021.got - 2010.06.03 11:33:40.
