data_PCOD9034206
_publ_section_title
;
Structure prediction by ZEFSAII (Michael W. Deem and Ramdas Pophale) SiO2 
 PCOD9034206
Probable space group: P -1
;
_chemical_formula_sum "Si O2"
_cell_formula_units_Z 16
_cell_length_a 14.579345
_cell_length_b 5.187619
_cell_length_c 25.724870
_cell_angle_alpha 101.679945
_cell_angle_beta 18.318602
_cell_angle_gamma 101.314313
_cell_volume 598.798625
_symmetry_space_group_name_H-M "P -1"
_symmetry_group_IT_number 2
_symmetry_cell_setting 'triclinic'
loop_
_space_group_symop_operation_xyz
x,y,z
-x,-y,-z
loop_
_atom_site_type_symbol
_atom_site_label
_atom_site_fract_x
_atom_site_fract_y
_atom_site_fract_z
Si Si1 0.811067 0.659894 0.695651
Si Si2 0.253422 0.357256 0.499277
Si Si3 0.643445 0.279924 0.450112
Si Si4 0.207284 0.481116 0.101550
Si Si5 0.841671 0.298483 0.975436
Si Si6 0.871376 0.842656 0.015207
Si Si7 0.750286 0.145442 0.814813
Si Si8 0.268948 0.951903 0.391959
O O1 0.511326 0.676285 0.826464
O O2 0.943769 0.400171 0.637614
O O3 0.738117 0.848285 0.790684
O O4 0.101593 0.757108 0.513438
O O5 0.378649 0.611478 0.473249
O O6 0.402166 0.180996 0.368041
O O7 0.103218 0.194173 0.619951
O O8 0.500000 0.500000 0.500000
O O9 0.978867 0.305984 0.251010
O O10 0.500000 0.000000 0.500000
O O11 0.295493 0.731057 0.099358
O O12 0.096045 0.611102 0.113355
O O13 0.480255 0.292152 0.937073
O O14 0.929291 0.016058 0.938963
O O15 0.975174 0.544156 0.945136
O O16 0.526768 0.844445 0.213808
O O17 0.000000 0.000000 0.000000
O O18 0.000000 0.000000 0.500000
#
# Coordination Sequence:
#
# PCOD9034206 Si02
#       8
#     2   2   2   2   2   2   2   2
#     4  11  22  40  76 105 143 173 245 300 373 430
#     4  10  23  43  70 105 142 185 240 305 359 441
#     4  11  28  49  70 102 148 197 247 288 350 448
#     4  10  22  44  72 102 146 186 231 294 371 422
#     4  12  25  47  74 107 141 187 245 303 360 449
#     4  12  29  51  72 102 150 194 250 302 366 438
#     4   9  20  41  66 111 141 179 222 296 371 435
#     4  11  24  44  75 106 142 191 240 314 379 420
#
# _framework density 26.720167
#
# number of rings (size 3 to 8) (size 9 to 14) (size 15 to 20)
#    0.000    1.250    2.500    1.875    7.000    4.500 
#    4.500    0.000    0.000    0.000    0.000    0.000 
#    0.000    0.000    0.000    0.000    0.000    0.000 
#
# Total GULP energy -89295.460426 kJ/mol
# GULP energy per Si atom -5580.966277 kJ/mol
# Density = 2.665935 g / cm^3
# Si number density = 26.720167 Si / 1000 Ang^3
#
#
#
# Elastic Constant Matrix: (Units=GPa)
#
#
# Indices 1 2 3 4 5 6 
#
# 1 95.6015 21.6339 2.2992 -12.7511 6.3393 21.6182
# 2 21.6339 105.8317 19.7678 -8.0773 14.9531 25.3369
# 3 2.2992 19.7678 67.7889 -12.7545 11.1675 -1.3866
# 4 -12.7511 -8.0773 -12.7545 36.9522 4.1488 -7.3258
# 5 6.3393 14.9531 11.1675 4.1488 39.7758 3.3770
# 6 21.6182 25.3369 -1.3866 -7.3258 3.3770 36.3305
#
#
#
# Elastic Compliance Matrix: (Units=1/GPa)
#
#
# Indices 1 2 3 4 5 6 
#
# 1 0.012551 -0.000708 0.000571 0.003355 -0.001725 -0.006116
# 2 -0.000708 0.012606 -0.003309 0.000081 -0.003010 -0.008200
# 3 0.000571 -0.003309 0.017961 0.007141 -0.005022 0.004560
# 4 0.003355 0.000081 0.007141 0.032486 -0.006414 0.005367
# 5 -0.001725 -0.003010 -0.005022 -0.006414 0.028714 -0.001029
# 6 -0.006116 -0.008200 0.004560 0.005367 -0.001029 0.038235
#
#
# Mechanical properties :
#
#
# Convention : Reuss Voigt Hill
#
# Bulk Modulus (GPa) = 27.60358 39.62490 33.61424
# Shear Modulus (GPa) = 30.95550 37.64645 34.30097
#
# Velocity S-wave (km/s) = 3.40738 3.75762 3.58678
# Velocity P-wave (km/s) = 5.08265 5.80414 5.45534
#
# Compressibility (1/GPa) = 0.03622718
#
# Stress axis : x y z
#
# Youngs Moduli (GPa) = 79.67186 79.32445 55.67496
#
# Poissons Ratio (x) = 0.05620 -0.03180
# Poissons Ratio (y) = 0.05644 0.18422
# Poissons Ratio (z) = -0.04550 0.26247
#
# Static dielectric constant tensor:
#      x y z
#    x 2.666810 -0.358010 0.685690 
#    y -0.358010 2.325060 -0.432590 
#    z 0.685690 -0.432590 3.317130 
# 
# From -- ./inp_files/619021.got.cif
#   From: 2010.05.17/outbox.cif.g08.bks.cpg/sg2_310_cif.got.tgz:619021.got - 2010.06.03 11:33:40.
