data_PCOD9034756
_publ_section_title
;
Structure prediction by ZEFSAII (Michael W. Deem and Ramdas Pophale) SiO2 
 PCOD9034756
Probable space group: P -1
;
_chemical_formula_sum "Si O2"
_cell_formula_units_Z 12
_cell_length_a 17.319510
_cell_length_b 5.558325
_cell_length_c 8.916539
_cell_angle_alpha 112.190000
_cell_angle_beta 142.276480
_cell_angle_gamma 72.200592
_cell_volume 486.262299
_symmetry_space_group_name_H-M "P -1"
_symmetry_group_IT_number 2
_symmetry_cell_setting 'triclinic'
loop_
_space_group_symop_operation_xyz
x,y,z
-x,-y,-z
loop_
_atom_site_type_symbol
_atom_site_label
_atom_site_fract_x
_atom_site_fract_y
_atom_site_fract_z
Si Si1 0.858343 0.494219 0.841513
Si Si2 0.500983 0.220782 0.361600
Si Si3 0.690483 0.124461 0.881207
Si Si4 0.054587 0.657629 0.759663
Si Si5 0.581418 0.614876 0.017673
Si Si6 0.805316 0.885634 0.592719
O O1 0.794109 0.710601 0.687222
O O2 0.807966 0.198734 0.681543
O O3 0.873142 0.525814 0.050732
O O4 0.000000 0.500000 0.000000
O O5 0.500000 0.500000 0.500000
O O6 0.611515 0.086890 0.595999
O O7 0.512005 0.237493 0.205620
O O8 0.365368 0.098895 0.154740
O O9 0.644409 0.384244 0.960125
O O10 0.837945 0.148405 0.086243
O O11 0.000000 0.500000 0.500000
O O12 0.939788 0.803252 0.703074
O O13 0.500000 0.500000 0.000000
O O14 0.693430 0.786874 0.293013
#
# Coordination Sequence:
#
# PCOD9034756 Si02
#       6
#     2   2   2   2   2   2
#     4  10  24  46  68 101 149 185 231 282 362 426
#     4   9  22  43  65  97 133 180 229 290 346 417
#     4  10  22  45  67  99 139 177 238 289 359 411
#     4  11  22  43  73 103 137 183 234 296 350 425
#     4  11  25  42  69  99 137 185 239 290 349 429
#     4  11  25  48  69 109 143 189 232 293 361 425
#
# _framework density 24.678041
#
# number of rings (size 3 to 8) (size 9 to 14) (size 15 to 20)
#    0.000    1.667    1.667    2.000    4.667    4.667 
#   15.000    8.333    0.000    0.000    0.000    0.000 
#    0.000    0.000    0.000    0.000    0.000    0.000 
#
# Total GULP energy -67162.587296 kJ/mol
# GULP energy per Si atom -5596.882275 kJ/mol
# Density = 2.462187 g / cm^3
# Si number density = 24.678041 Si / 1000 Ang^3
#
#
#
# Elastic Constant Matrix: (Units=GPa)
#
#
# Indices 1 2 3 4 5 6 
#
# 1 138.5348 75.3889 83.3598 -4.0282 7.7893 16.5474
# 2 75.3889 138.6788 73.5783 16.3320 -8.6996 15.8679
# 3 83.3598 73.5783 200.1807 12.8469 -7.7725 24.2316
# 4 -4.0282 16.3320 12.8469 34.6542 15.2391 6.8905
# 5 7.7893 -8.6996 -7.7725 15.2391 52.8905 -6.0536
# 6 16.5474 15.8679 24.2316 6.8905 -6.0536 50.7634
#
#
#
# Elastic Compliance Matrix: (Units=1/GPa)
#
#
# Indices 1 2 3 4 5 6 
#
# 1 0.014563 -0.007105 -0.004047 0.010270 -0.007193 -0.002846
# 2 -0.007105 0.013024 -0.001098 -0.009235 0.005769 0.000710
# 3 -0.004047 -0.001098 0.007550 -0.003586 0.002425 -0.001165
# 4 0.010270 -0.009235 -0.003586 0.044667 -0.017214 -0.006865
# 5 -0.007193 0.005769 0.002425 -0.017214 0.026794 0.004916
# 6 -0.002846 0.000710 -0.001165 -0.006865 0.004916 0.022479
#
#
# Mechanical properties :
#
#
# Convention : Reuss Voigt Hill
#
# Bulk Modulus (GPa) = 94.00460 104.67205 99.33833
# Shear Modulus (GPa) = 31.82261 43.99942 37.91101
#
# Velocity S-wave (km/s) = 3.59487 4.22707 3.92372
# Velocity P-wave (km/s) = 7.44351 8.14440 7.80183
#
# Compressibility (1/GPa) = 0.01063778
#
# Stress axis : x y z
#
# Youngs Moduli (GPa) = 68.66852 76.78211 132.45859
#
# Poissons Ratio (x) = 0.54551 0.53602
# Poissons Ratio (y) = 0.48786 0.14542
# Poissons Ratio (z) = 0.27788 0.08429
#
# Static dielectric constant tensor:
#      x y z
#    x 2.145770 -0.059330 0.051370 
#    y -0.059330 2.045490 -0.052460 
#    z 0.051370 -0.052460 1.932630 
# 
# From -- ./inp_files/30730.got.cif
#   From: 2010.05.17/outbox.cif.g08.bks.cpg/sg2_16_cif.got.tgz:30730.got - 2010.06.03 11:33:40.
