data_PCOD9034114
_publ_section_title
;
Structure prediction by ZEFSAII (Michael W. Deem and Ramdas Pophale) SiO2 
 PCOD9034114
Probable space group: P -1
;
_chemical_formula_sum "Si O2"
_cell_formula_units_Z 14
_cell_length_a 8.419251
_cell_length_b 9.211962
_cell_length_c 11.613135
_cell_angle_alpha 111.939422
_cell_angle_beta 109.203069
_cell_angle_gamma 121.250947
_cell_volume 537.076021
_symmetry_space_group_name_H-M "P -1"
_symmetry_group_IT_number 2
_symmetry_cell_setting 'triclinic'
loop_
_space_group_symop_operation_xyz
x,y,z
-x,-y,-z
loop_
_atom_site_type_symbol
_atom_site_label
_atom_site_fract_x
_atom_site_fract_y
_atom_site_fract_z
Si Si1 0.690947 0.588810 0.217776
Si Si2 0.170051 0.809523 0.290905
Si Si3 0.573941 0.318599 0.577816
Si Si4 0.940507 0.806063 0.853679
Si Si5 0.294067 0.138507 0.856660
Si Si6 0.359342 0.920844 0.107766
Si Si7 0.758364 0.441850 0.403298
O O1 0.709890 0.782104 0.244421
O O2 0.791428 0.604864 0.370360
O O3 0.882113 0.635048 0.188216
O O4 0.424738 0.344914 0.040157
O O5 0.265322 0.722490 0.355778
O O6 0.252498 0.845845 0.189442
O O7 0.303708 0.058975 0.442393
O O8 0.642191 0.401016 0.486506
O O9 0.673398 0.544003 0.728509
O O10 0.027787 0.911175 0.777043
O O11 0.132037 0.801159 0.935330
O O12 0.000000 0.000000 0.000000
O O13 0.473550 0.113785 0.885482
O O14 0.548724 0.192866 0.220564
O O15 0.000000 0.500000 0.500000
#
# Coordination Sequence:
#
# PCOD9034114 Si02
#       7
#     2   2   2   2   2   2   2
#     4  11  23  43  73 104 149 185 241 299 349 425
#     4  10  22  44  71 110 138 187 235 298 357 419
#     4  10  23  42  72 102 146 183 238 292 361 425
#     4  12  25  46  74 107 141 189 245 295 355 424
#     4  11  25  43  72 108 143 186 244 296 358 416
#     4  11  24  43  73 101 142 190 241 289 358 425
#     4  11  21  42  73 102 140 190 236 289 360 427
#
# _framework density 26.067074000000002
#
# number of rings (size 3 to 8) (size 9 to 14) (size 15 to 20)
#    0.000    1.143    2.857    3.000    0.000    4.571 
#    0.000   10.714    3.143    0.000    0.000    0.000 
#    0.000    0.000    0.000    0.000    0.000    0.000 
#
# Total GULP energy -78452.779500 kJ/mol
# GULP energy per Si atom -5603.769964 kJ/mol
# Density = 2.600774 g / cm^3
# Si number density = 26.067074 Si / 1000 Ang^3
#
#
#
# Elastic Constant Matrix: (Units=GPa)
#
#
# Indices 1 2 3 4 5 6 
#
# 1 69.7105 25.3454 -0.3562 -6.6045 1.0040 -8.0509
# 2 25.3454 179.0830 65.8166 -13.5016 -3.2967 -14.9762
# 3 -0.3562 65.8166 73.9219 10.4359 0.1744 -4.3093
# 4 -6.6045 -13.5016 10.4359 63.7457 -5.3759 13.0360
# 5 1.0040 -3.2967 0.1744 -5.3759 41.0947 1.1179
# 6 -8.0509 -14.9762 -4.3093 13.0360 1.1179 38.6172
#
#
#
# Elastic Compliance Matrix: (Units=1/GPa)
#
#
# Indices 1 2 3 4 5 6 
#
# 1 0.015801 -0.003179 0.003066 -0.000103 -0.000734 0.002460
# 2 -0.003179 0.009693 -0.009029 0.003104 0.001272 0.001004
# 3 0.003066 -0.009029 0.022493 -0.005755 -0.001692 0.001640
# 4 -0.000103 0.003104 -0.005755 0.018718 0.002884 -0.005862
# 5 -0.000734 0.001272 -0.001692 0.002884 0.024880 -0.001542
# 6 0.002460 0.001004 0.001640 -0.005862 -0.001542 0.029004
#
#
# Mechanical properties :
#
#
# Convention : Reuss Voigt Hill
#
# Bulk Modulus (GPa) = 33.66388 56.03635 44.85011
# Shear Modulus (GPa) = 33.60775 44.15215 38.87995
#
# Velocity S-wave (km/s) = 3.59455 4.12003 3.86623
# Velocity P-wave (km/s) = 5.49273 6.64654 6.09699
#
# Compressibility (1/GPa) = 0.02970543
#
# Stress axis : x y z
#
# Youngs Moduli (GPa) = 63.28577 103.16200 44.45787
#
# Poissons Ratio (x) = 0.32793 -0.13631
# Poissons Ratio (y) = 0.20117 0.40139
# Poissons Ratio (z) = -0.19404 0.93140
#
# Static dielectric constant tensor:
#      x y z
#    x 2.025760 -0.014720 -0.054680 
#    y -0.014720 2.026770 0.005510 
#    z -0.054680 0.005510 2.057260 
# 
# From -- ./inp_files/158401.got.cif
#   From: 2010.05.17/outbox.cif.g08.bks.cpg/sg2_80_cif.got.tgz:158401.got - 2010.06.03 11:33:40.
