data_PCOD9034019
_publ_section_title
;
Structure prediction by ZEFSAII (Michael W. Deem and Ramdas Pophale) SiO2 
 PCOD9034019
Probable space group: P -1
;
_chemical_formula_sum "Si O2"
_cell_formula_units_Z 14
_cell_length_a 21.073847
_cell_length_b 13.315937
_cell_length_c 5.075231
_cell_angle_alpha 109.006900
_cell_angle_beta 116.129223
_cell_angle_gamma 25.244959
_cell_volume 535.424529
_symmetry_space_group_name_H-M "P -1"
_symmetry_group_IT_number 2
_symmetry_cell_setting 'triclinic'
loop_
_space_group_symop_operation_xyz
x,y,z
-x,-y,-z
loop_
_atom_site_type_symbol
_atom_site_label
_atom_site_fract_x
_atom_site_fract_y
_atom_site_fract_z
Si Si1 0.912708 0.197448 0.309278
Si Si2 0.207088 0.896586 0.417969
Si Si3 0.301364 0.965720 0.932180
Si Si4 0.592842 0.954202 0.946000
Si Si5 0.261970 0.366365 0.458813
Si Si6 0.353283 0.600058 0.957140
Si Si7 0.880300 0.660229 0.667809
O O1 0.862352 0.373625 0.510149
O O2 0.748420 0.361256 0.076324
O O3 0.000000 0.000000 0.500000
O O4 0.036537 0.069534 0.205143
O O5 0.186036 0.042157 0.625640
O O6 0.315364 0.741901 0.224727
O O7 0.285709 0.724857 0.656385
O O8 0.466613 0.678117 0.989862
O O9 0.337914 0.022207 0.876025
O O10 0.240401 0.087172 0.210886
O O11 0.440637 0.175217 0.654549
O O12 0.733214 0.691963 0.866990
O O13 0.500000 0.000000 0.000000
O O14 0.218494 0.318288 0.502758
O O15 0.000000 0.500000 0.500000
O O16 0.000000 0.500000 0.000000
#
# Coordination Sequence:
#
# PCOD9034019 Si02
#       7
#     2   2   2   2   2   2   2
#     4  10  22  44  70  99 144 192 235 297 366 430
#     4  11  25  44  69 106 146 188 241 298 364 426
#     4  11  24  46  74 105 143 192 241 304 363 428
#     4  10  23  43  70 103 136 187 241 303 357 429
#     4  10  22  45  67 101 140 183 246 291 362 440
#     4  11  24  46  69 105 142 191 245 295 355 439
#     4  11  27  46  71 107 145 187 238 302 373 435
#
# _framework density 26.147473999999999
#
# number of rings (size 3 to 8) (size 9 to 14) (size 15 to 20)
#    0.000    1.429    1.429    2.143    4.000    5.714 
#   10.286    0.000    0.000    0.000    0.000    0.000 
#    0.000    0.000    0.000    0.000    0.000    0.000 
#
# Total GULP energy -78215.039978 kJ/mol
# GULP energy per Si atom -5586.788570 kJ/mol
# Density = 2.608796 g / cm^3
# Si number density = 26.147474 Si / 1000 Ang^3
#
#
#
# Elastic Constant Matrix: (Units=GPa)
#
#
# Indices 1 2 3 4 5 6 
#
# 1 142.7475 44.3819 41.5912 25.9531 23.9817 -28.4260
# 2 44.3819 141.9480 34.1400 49.7353 5.8938 -15.4205
# 3 41.5912 34.1400 118.3418 39.6053 -0.1838 -17.9843
# 4 25.9531 49.7353 39.6053 49.0003 -13.5782 5.3856
# 5 23.9817 5.8938 -0.1838 -13.5782 60.4174 2.8761
# 6 -28.4260 -15.4205 -17.9843 5.3856 2.8761 54.9075
#
#
#
# Elastic Compliance Matrix: (Units=1/GPa)
#
#
# Indices 1 2 3 4 5 6 
#
# 1 0.011088 0.001059 0.000244 -0.009930 -0.007090 0.007463
# 2 0.001059 0.014334 0.003743 -0.020952 -0.006907 0.008217
# 3 0.000244 0.003743 0.014431 -0.017788 -0.004792 0.007900
# 4 -0.009930 -0.020952 -0.017788 0.070412 0.022944 -0.024959
# 5 -0.007090 -0.006907 -0.004792 0.022944 0.025695 -0.010776
# 6 0.007463 0.008217 0.007900 -0.024959 -0.010776 0.029984
#
#
# Mechanical properties :
#
#
# Convention : Reuss Voigt Hill
#
# Bulk Modulus (GPa) = 20.02260 71.47371 45.74816
# Shear Modulus (GPa) = 28.98547 51.72664 40.35605
#
# Velocity S-wave (km/s) = 3.33308 4.45259 3.93288
# Velocity P-wave (km/s) = 4.74202 7.33678 6.17718
#
# Compressibility (1/GPa) = 0.04994356
#
# Stress axis : x y z
#
# Youngs Moduli (GPa) = 90.19000 69.76342 69.29601
#
# Poissons Ratio (x) = -0.07387 -0.01691
# Poissons Ratio (y) = -0.09549 -0.25935
# Poissons Ratio (z) = -0.02201 -0.26110
#
# Static dielectric constant tensor:
#      x y z
#    x 0.927120 0.583690 -0.075150 
#    y 0.583690 1.846050 -0.089760 
#    z -0.075150 -0.089760 2.235040 
# 
# From -- ./inp_files/124401.got.cif
#   From: 2010.05.17/outbox.cif.g08.bks.cpg/sg2_63_cif.got.tgz:124401.got - 2010.06.03 11:33:40.
