data_PCOD9034273
_publ_section_title
;
Structure prediction by ZEFSAII (Michael W. Deem and Ramdas Pophale) SiO2 
 PCOD9034273
Probable space group: P -1
;
_chemical_formula_sum "Si O2"
_cell_formula_units_Z 16
_cell_length_a 9.190432
_cell_length_b 14.821921
_cell_length_c 11.984212
_cell_angle_alpha 58.900041
_cell_angle_beta 27.173461
_cell_angle_gamma 67.854724
_cell_volume 623.984787
_symmetry_space_group_name_H-M "P -1"
_symmetry_group_IT_number 2
_symmetry_cell_setting 'triclinic'
loop_
_space_group_symop_operation_xyz
x,y,z
-x,-y,-z
loop_
_atom_site_type_symbol
_atom_site_label
_atom_site_fract_x
_atom_site_fract_y
_atom_site_fract_z
Si Si1 0.347242 0.226609 0.050151
Si Si2 0.080297 0.140949 0.862623
Si Si3 0.939927 0.614127 0.317715
Si Si4 0.740473 0.040840 0.949557
Si Si5 0.188896 0.800245 0.758111
Si Si6 0.910716 0.091163 0.581344
Si Si7 0.450165 0.555414 0.144898
Si Si8 0.018166 0.548525 0.082387
O O1 0.100078 0.207122 0.129227
O O2 0.108415 0.205457 0.334684
O O3 0.575038 0.141908 0.966991
O O4 0.559351 0.345364 0.829216
O O5 0.037337 0.259471 0.774647
O O6 0.464661 0.148163 0.568498
O O7 0.868084 0.055514 0.976833
O O8 0.924149 0.140354 0.093861
O O9 0.746153 0.552028 0.593277
O O10 0.298361 0.588931 0.113312
O O11 0.783877 0.569426 0.333081
O O12 0.008302 0.059675 0.657828
O O13 0.474406 0.934361 0.167012
O O14 0.193933 0.675286 0.865099
O O15 0.000000 0.000000 0.500000
O O16 0.812479 0.537824 0.915638
O O17 0.000000 0.500000 0.000000
#
# Coordination Sequence:
#
# PCOD9034273 Si02
#       8
#     2   2   2   2   2   2   2   2
#     4  11  23  40  67  98 131 176 224 277 334 399
#     4  11  24  44  67  97 137 183 220 277 336 398
#     4  10  23  38  58  90 132 170 231 276 318 387
#     4  10  22  44  72  96 127 173 221 277 341 399
#     4  11  26  42  64  99 144 178 226 272 335 399
#     4   9  22  42  71  99 128 159 227 281 334 403
#     4  11  21  39  58  93 125 176 226 273 328 376
#     4  11  22  38  57  86 132 182 215 268 326 381
#
# _framework density 25.641652000000001
#
# number of rings (size 3 to 8) (size 9 to 14) (size 15 to 20)
#    0.000    1.500    3.750    0.375    5.250    2.500 
#    0.000    1.250    0.000    0.000    0.000    0.000 
#    0.000    0.000    0.000    0.000    0.000    0.000 
#
# Total GULP energy -89227.453503 kJ/mol
# GULP energy per Si atom -5576.715844 kJ/mol
# Density = 2.558329 g / cm^3
# Si number density = 25.641652 Si / 1000 Ang^3
#
#
#
# Elastic Constant Matrix: (Units=GPa)
#
#
# Indices 1 2 3 4 5 6 
#
# 1 174.3560 31.5303 32.3692 14.1779 8.8767 30.1807
# 2 31.5303 78.7285 24.4964 9.5992 -1.7398 11.3513
# 3 32.3692 24.4964 51.5013 0.7573 22.1503 11.6809
# 4 14.1779 9.5992 0.7573 32.5114 -3.6041 4.3706
# 5 8.8767 -1.7398 22.1503 -3.6041 37.3294 3.9417
# 6 30.1807 11.3513 11.6809 4.3706 3.9417 56.2459
#
#
#
# Elastic Compliance Matrix: (Units=1/GPa)
#
#
# Indices 1 2 3 4 5 6 
#
# 1 0.007241 -0.001110 -0.003525 -0.002332 0.000386 -0.002775
# 2 -0.001110 0.016967 -0.010017 -0.003413 0.006770 -0.000958
# 3 -0.003525 -0.010017 0.035633 0.001701 -0.020377 -0.002191
# 4 -0.002332 -0.003413 0.001701 0.033204 0.002717 -0.001184
# 5 0.000386 0.006770 -0.020377 0.002717 0.039399 -0.000314
# 6 -0.002775 -0.000958 -0.002191 -0.001184 -0.000314 0.020030
#
#
# Mechanical properties :
#
#
# Convention : Reuss Voigt Hill
#
# Bulk Modulus (GPa) = 32.74823 53.48639 43.11731
# Shear Modulus (GPa) = 26.04735 39.63001 32.83868
#
# Velocity S-wave (km/s) = 3.19065 3.93559 3.58254
# Velocity P-wave (km/s) = 5.13546 6.44642 5.82792
#
# Compressibility (1/GPa) = 0.03053600
#
# Stress axis : x y z
#
# Youngs Moduli (GPa) = 138.10342 58.93762 28.06372
#
# Poissons Ratio (x) = 0.06542 0.09894
# Poissons Ratio (y) = 0.15330 0.28112
# Poissons Ratio (z) = 0.48688 0.59039
#
# Static dielectric constant tensor:
#      x y z
#    x 2.111660 0.012120 0.035700 
#    y 0.012120 2.111580 0.132670 
#    z 0.035700 0.132670 2.372580 
# 
# From -- ./inp_files/54849.got.cif
#   From: 2010.05.17/outbox.cif.g08.bks.cpg/sg2_28_cif.got.tgz:54849.got - 2010.06.03 11:33:40.
