data_PCOD9034244
_publ_section_title
;
Structure prediction by ZEFSAII (Michael W. Deem and Ramdas Pophale) SiO2 
 PCOD9034244
Probable space group: P -1
;
_chemical_formula_sum "Si O2"
_cell_formula_units_Z 12
_cell_length_a 7.736441
_cell_length_b 8.123469
_cell_length_c 9.276432
_cell_angle_alpha 74.195941
_cell_angle_beta 123.590228
_cell_angle_gamma 102.060128
_cell_volume 466.048662
_symmetry_space_group_name_H-M "P -1"
_symmetry_group_IT_number 2
_symmetry_cell_setting 'triclinic'
loop_
_space_group_symop_operation_xyz
x,y,z
-x,-y,-z
loop_
_atom_site_type_symbol
_atom_site_label
_atom_site_fract_x
_atom_site_fract_y
_atom_site_fract_z
Si Si1 0.725342 0.025725 0.536396
Si Si2 0.179754 0.365495 0.289023
Si Si3 0.646610 0.938363 0.207114
Si Si4 0.026723 0.134378 0.850987
Si Si5 0.602443 0.540186 0.339979
Si Si6 0.245457 0.493039 0.879452
O O1 0.812077 0.837967 0.642208
O O2 0.696856 0.051070 0.345816
O O3 0.500000 0.000000 0.500000
O O4 0.818119 0.165046 0.662043
O O5 0.269557 0.457044 0.453936
O O6 0.933610 0.400492 0.153158
O O7 0.158595 0.300978 0.924368
O O8 0.856985 0.929836 0.219799
O O9 0.566379 0.743220 0.254464
O O10 0.500000 0.000000 0.000000
O O11 0.000000 0.000000 0.000000
O O12 0.758445 0.483698 0.301322
O O13 0.372578 0.438154 0.256692
O O14 0.500000 0.500000 0.000000
#
# Coordination Sequence:
#
# PCOD9034244 Si02
#       6
#     2   2   2   2   2   2
#     4  11  25  45  73 112 147 200 252 311 386 451
#     4  10  23  45  76 102 149 190 253 309 376 459
#     4  10  22  44  72 108 149 190 252 311 379 455
#     4  11  26  45  70 108 147 198 251 316 373 453
#     4   9  22  43  71 109 137 196 246 311 376 457
#     4  11  26  46  72 107 150 198 250 309 382 450
#
# _framework density 25.748384999999999
#
# number of rings (size 3 to 8) (size 9 to 14) (size 15 to 20)
#    0.000    1.667    0.000    2.000   11.667    3.333 
#    3.000    0.000    0.000    0.000    0.000    0.000 
#    0.000    0.000    0.000    0.000    0.000    0.000 
#
# Total GULP energy -66920.934792 kJ/mol
# GULP energy per Si atom -5576.744566 kJ/mol
# Density = 2.568978 g / cm^3
# Si number density = 25.748385 Si / 1000 Ang^3
#
#
#
# Elastic Constant Matrix: (Units=GPa)
#
#
# Indices 1 2 3 4 5 6 
#
# 1 117.7555 32.6211 24.2634 -4.3647 15.5946 5.9989
# 2 32.6211 119.8274 36.4467 0.9513 13.4036 14.3272
# 3 24.2634 36.4467 113.1863 10.5933 8.9930 21.7409
# 4 -4.3647 0.9513 10.5933 28.5559 2.1628 5.5066
# 5 15.5946 13.4036 8.9930 2.1628 63.1204 6.8998
# 6 5.9989 14.3272 21.7409 5.5066 6.8998 40.8928
#
#
#
# Elastic Compliance Matrix: (Units=1/GPa)
#
#
# Indices 1 2 3 4 5 6 
#
# 1 0.009678 -0.001998 -0.001512 0.002228 -0.001838 0.000094
# 2 -0.001998 0.009957 -0.002404 0.000690 -0.001102 -0.001824
# 3 -0.001512 -0.002404 0.011099 -0.003420 -0.000104 -0.004359
# 4 0.002228 0.000690 -0.003420 0.037382 -0.001097 -0.003599
# 5 -0.001838 -0.001102 -0.000104 -0.001097 0.016799 -0.001976
# 6 0.000094 -0.001824 -0.004359 -0.003599 -0.001976 0.028215
#
#
# Mechanical properties :
#
#
# Convention : Reuss Voigt Hill
#
# Bulk Modulus (GPa) = 52.89670 59.71463 56.30566
# Shear Modulus (GPa) = 38.09212 43.67635 40.88423
#
# Velocity S-wave (km/s) = 3.85047 4.12305 3.98909
# Velocity P-wave (km/s) = 6.35267 6.77555 6.56751
#
# Compressibility (1/GPa) = 0.01890477
#
# Stress axis : x y z
#
# Youngs Moduli (GPa) = 103.32224 100.43641 90.09974
#
# Poissons Ratio (x) = 0.20070 0.13622
# Poissons Ratio (y) = 0.20647 0.21663
# Poissons Ratio (z) = 0.15621 0.24149
#
# Static dielectric constant tensor:
#      x y z
#    x 1.998410 0.019240 -0.022090 
#    y 0.019240 2.074030 0.018360 
#    z -0.022090 0.018360 2.170840 
# 
# From -- ./inp_files/180848.got.cif
#   From: 2010.05.17/outbox.cif.g08.bks.cpg/sg2_91_cif.got.tgz:180848.got - 2010.06.03 11:33:40.
