data_PCOD9034711
_publ_section_title
;
Structure prediction by ZEFSAII (Michael W. Deem and Ramdas Pophale) SiO2 
 PCOD9034711
Probable space group: P -1
;
_chemical_formula_sum "Si O2"
_cell_formula_units_Z 16
_cell_length_a 17.035026
_cell_length_b 8.948638
_cell_length_c 10.837200
_cell_angle_alpha 97.290802
_cell_angle_beta 85.175987
_cell_angle_gamma 152.695405
_cell_volume 750.197864
_symmetry_space_group_name_H-M "P -1"
_symmetry_group_IT_number 2
_symmetry_cell_setting 'triclinic'
loop_
_space_group_symop_operation_xyz
x,y,z
-x,-y,-z
loop_
_atom_site_type_symbol
_atom_site_label
_atom_site_fract_x
_atom_site_fract_y
_atom_site_fract_z
Si Si1 0.138291 0.215201 0.612846
Si Si2 0.944800 0.376166 0.634175
Si Si3 0.641246 0.632565 0.555108
Si Si4 0.517094 0.392272 0.816327
Si Si5 0.216734 0.655509 0.783341
Si Si6 0.823083 0.610707 0.011292
Si Si7 0.062313 0.327768 0.216573
Si Si8 0.713532 0.734648 0.071396
O O1 0.289853 0.371045 0.552754
O O2 0.211513 0.498375 0.680572
O O3 0.031003 0.946275 0.706059
O O4 0.000000 0.000000 0.500000
O O5 0.000000 0.500000 0.500000
O O6 0.096534 0.571177 0.720366
O O7 0.878672 0.422756 0.697445
O O8 0.802255 0.007497 0.610362
O O9 0.500000 0.500000 0.500000
O O10 0.572545 0.456190 0.676023
O O11 0.411162 0.368762 0.845623
O O12 0.392368 0.041623 0.828458
O O13 0.668366 0.668623 0.925440
O O14 0.153037 0.480322 0.903389
O O15 0.786957 0.485420 0.867084
O O16 0.700029 0.531141 0.073429
O O17 0.000000 0.000000 0.000000
O O18 0.905069 0.106798 0.123202
#
# Coordination Sequence:
#
# PCOD9034711 Si02
#       8
#     2   2   2   2   2   2   2   2
#     4  12  24  43  73 101 139 184 230 294 342 407
#     4  12  24  45  74 101 135 182 238 280 341 419
#     4  12  27  44  71 101 143 183 228 288 352 409
#     4  11  26  43  70 100 140 185 227 280 355 415
#     4  12  24  44  71 102 137 185 234 282 342 421
#     4  10  23  40  71  97 135 176 230 284 344 398
#     4  11  22  43  71 102 138 171 234 290 339 411
#     4  10  22  45  67  92 148 175 222 290 346 400
#
# _framework density 21.327707
#
# number of rings (size 3 to 8) (size 9 to 14) (size 15 to 20)
#    0.000    0.750    6.250    1.500    5.250    3.500 
#    2.250    0.000    0.000    0.000    0.000    0.000 
#    0.000    0.000    0.000    0.000    0.000    0.000 
#
# Total GULP energy -89318.996089 kJ/mol
# GULP energy per Si atom -5582.437256 kJ/mol
# Density = 2.127916 g / cm^3
# Si number density = 21.327707 Si / 1000 Ang^3
#
#
#
# Elastic Constant Matrix: (Units=GPa)
#
#
# Indices 1 2 3 4 5 6 
#
# 1 95.2729 10.5495 37.1748 -2.9091 -18.8287 -18.3459
# 2 10.5495 60.8076 28.7431 -6.7372 0.5889 -15.4550
# 3 37.1748 28.7431 120.7538 -15.0481 -5.6641 -12.1009
# 4 -2.9091 -6.7372 -15.0481 36.0592 -11.0187 2.3278
# 5 -18.8287 0.5889 -5.6641 -11.0187 47.2065 14.9049
# 6 -18.3459 -15.4550 -12.1009 2.3278 14.9049 33.2148
#
#
#
# Elastic Compliance Matrix: (Units=1/GPa)
#
#
# Indices 1 2 3 4 5 6 
#
# 1 0.013462 0.000593 -0.003581 0.000472 0.003530 0.004790
# 2 0.000593 0.021035 -0.004291 0.000415 -0.003652 0.010162
# 3 -0.003581 -0.004291 0.010853 0.003811 0.001058 -0.000762
# 4 0.000472 0.000415 0.003811 0.032753 0.009820 -0.004860
# 5 0.003530 -0.003652 0.001058 0.009820 0.029212 -0.013161
# 6 0.004790 0.010162 -0.000762 -0.004860 -0.013161 0.043450
#
#
# Mechanical properties :
#
#
# Convention : Reuss Voigt Hill
#
# Bulk Modulus (GPa) = 32.47602 47.75211 40.11406
# Shear Modulus (GPa) = 28.47607 36.65388 32.56497
#
# Velocity S-wave (km/s) = 3.65796 4.15010 3.91178
# Velocity P-wave (km/s) = 5.75335 6.73816 6.26514
#
# Compressibility (1/GPa) = 0.03079195
#
# Stress axis : x y z
#
# Youngs Moduli (GPa) = 74.28173 47.54055 92.13840
#
# Poissons Ratio (x) = -0.02817 0.32996
# Poissons Ratio (y) = -0.04402 0.39533
# Poissons Ratio (z) = 0.26601 0.20398
#
# Static dielectric constant tensor:
#      x y z
#    x 1.805930 -0.018650 -0.088370 
#    y -0.018650 1.686530 -0.024530 
#    z -0.088370 -0.024530 1.745620 
# 
# From -- ./inp_files/329030.got.cif
#   From: 2010.05.17/outbox.cif.g08.bks.cpg/sg2_165_cif.got.tgz:329030.got - 2010.06.03 11:33:40.
