data_PCOD9034113
_publ_section_title
;
Structure prediction by ZEFSAII (Michael W. Deem and Ramdas Pophale) SiO2 
 PCOD9034113
Probable space group: P -1
;
_chemical_formula_sum "Si O2"
_cell_formula_units_Z 14
_cell_length_a 10.684676
_cell_length_b 9.270176
_cell_length_c 12.018716
_cell_angle_alpha 36.995336
_cell_angle_beta 129.074762
_cell_angle_gamma 122.074682
_cell_volume 555.147082
_symmetry_space_group_name_H-M "P -1"
_symmetry_group_IT_number 2
_symmetry_cell_setting 'triclinic'
loop_
_space_group_symop_operation_xyz
x,y,z
-x,-y,-z
loop_
_atom_site_type_symbol
_atom_site_label
_atom_site_fract_x
_atom_site_fract_y
_atom_site_fract_z
Si Si1 0.686443 0.071312 0.573319
Si Si2 0.407729 0.465733 0.851813
Si Si3 0.259847 0.442007 0.138982
Si Si4 0.132900 0.091974 0.856766
Si Si5 0.856022 0.068223 0.294872
Si Si6 0.324658 0.363656 0.474098
Si Si7 0.136166 0.711488 0.277047
O O1 0.708744 0.311234 0.364494
O O2 0.714227 0.142517 0.671663
O O3 0.500000 0.000000 0.500000
O O4 0.779671 0.834497 0.746855
O O5 0.553303 0.494919 0.827304
O O6 0.301290 0.226204 0.908387
O O7 0.500000 0.500000 0.000000
O O8 0.254939 0.438805 0.270528
O O9 0.161550 0.645679 0.900062
O O10 0.999647 0.268478 0.718231
O O11 0.128444 0.017448 0.771781
O O12 0.095463 0.854804 0.056192
O O13 0.694990 0.923320 0.343976
O O14 0.000000 0.000000 0.500000
O O15 0.500000 0.500000 0.500000
O O16 0.202175 0.460751 0.436806
#
# Coordination Sequence:
#
# PCOD9034113 Si02
#       7
#     2   2   2   2   2   2   2
#     4  10  22  44  71 109 148 198 253 318 382 463
#     4  11  25  45  81 116 151 204 269 320 397 481
#     4  11  26  48  76 112 161 196 262 327 394 468
#     4  11  25  48  75 113 153 206 265 318 395 478
#     4  12  30  50  78 115 158 214 266 326 401 476
#     4  12  27  48  79 114 155 205 262 328 403 463
#     4  11  25  47  77 105 161 203 255 332 389 461
#
# _framework density 25.218541999999999
#
# number of rings (size 3 to 8) (size 9 to 14) (size 15 to 20)
#    0.000    0.857    1.429    5.143    6.000    7.429 
#    0.000    0.000    0.000    0.000    0.000    0.000 
#    0.000    0.000    0.000    0.000    0.000    0.000 
#
# Total GULP energy -78341.601751 kJ/mol
# GULP energy per Si atom -5595.828696 kJ/mol
# Density = 2.516114 g / cm^3
# Si number density = 25.218542 Si / 1000 Ang^3
#
#
#
# Elastic Constant Matrix: (Units=GPa)
#
#
# Indices 1 2 3 4 5 6 
#
# 1 67.2602 16.9606 20.6446 0.3291 -0.3874 -0.9696
# 2 16.9606 105.5459 61.4455 8.8311 1.9625 -10.1069
# 3 20.6446 61.4455 195.9470 -7.3335 -1.3213 -11.5358
# 4 0.3291 8.8311 -7.3335 50.3850 -2.5780 2.7676
# 5 -0.3874 1.9625 -1.3213 -2.5780 22.6661 -2.7843
# 6 -0.9696 -10.1069 -11.5358 2.7676 -2.7843 44.1879
#
#
#
# Elastic Compliance Matrix: (Units=1/GPa)
#
#
# Indices 1 2 3 4 5 6 
#
# 1 0.015681 -0.001959 -0.001052 0.000126 0.000346 -0.000365
# 2 -0.001959 0.012382 -0.003680 -0.002871 -0.001411 0.001919
# 3 -0.001052 -0.003680 0.006481 0.001601 0.000957 0.000787
# 4 0.000126 -0.002871 0.001601 0.020788 0.002539 -0.001378
# 5 0.000346 -0.001411 0.000957 0.002539 0.044912 0.002606
# 6 -0.000365 0.001919 0.000787 -0.001378 0.002606 0.023518
#
#
# Mechanical properties :
#
#
# Convention : Reuss Voigt Hill
#
# Bulk Modulus (GPa) = 47.25761 62.98384 55.12072
# Shear Modulus (GPa) = 34.67449 41.42796 38.05122
#
# Velocity S-wave (km/s) = 3.71207 4.05749 3.88862
# Velocity P-wave (km/s) = 6.09529 6.85423 6.48587
#
# Compressibility (1/GPa) = 0.02116061
#
# Stress axis : x y z
#
# Youngs Moduli (GPa) = 63.77256 80.76123 154.29496
#
# Poissons Ratio (x) = 0.15822 0.16235
# Poissons Ratio (y) = 0.12494 0.56787
# Poissons Ratio (z) = 0.06710 0.29723
#
# Static dielectric constant tensor:
#      x y z
#    x 2.028880 -0.019060 0.033490 
#    y -0.019060 2.317630 -0.137270 
#    z 0.033490 -0.137270 2.072870 
# 
# From -- ./inp_files/418787.got.cif
#   From: 2010.05.17/outbox.cif.g08.bks.cpg/sg2_210_cif.got.tgz:418787.got - 2010.06.03 11:33:40.
