data_PCOD9034725
_publ_section_title
;
Structure prediction by ZEFSAII (Michael W. Deem and Ramdas Pophale) SiO2 
 PCOD9034725
Probable space group: P -1
;
_chemical_formula_sum "Si O2"
_cell_formula_units_Z 14
_cell_length_a 12.267627
_cell_length_b 14.647816
_cell_length_c 6.964415
_cell_angle_alpha 43.657991
_cell_angle_beta 85.317229
_cell_angle_gamma 50.885118
_cell_volume 478.901179
_symmetry_space_group_name_H-M "P -1"
_symmetry_group_IT_number 2
_symmetry_cell_setting 'triclinic'
loop_
_space_group_symop_operation_xyz
x,y,z
-x,-y,-z
loop_
_atom_site_type_symbol
_atom_site_label
_atom_site_fract_x
_atom_site_fract_y
_atom_site_fract_z
Si Si1 0.102505 0.184351 0.261345
Si Si2 0.246276 0.651049 0.978748
Si Si3 0.312714 0.839982 0.424777
Si Si4 0.707628 0.331919 0.633680
Si Si5 0.092086 0.360709 0.504073
Si Si6 0.586969 0.981988 0.275388
Si Si7 0.276137 0.402161 0.909515
O O1 0.287688 0.033987 0.596386
O O2 0.946914 0.225216 0.266234
O O3 0.194355 0.071846 0.203673
O O4 0.967437 0.448826 0.896588
O O5 0.294193 0.743470 0.736127
O O6 0.457635 0.365414 0.351722
O O7 0.188215 0.726321 0.097519
O O8 0.223988 0.858695 0.217995
O O9 0.500000 0.500000 0.500000
O O10 0.680687 0.486233 0.265409
O O11 0.317584 0.109060 0.808273
O O12 0.000000 0.500000 0.500000
O O13 0.955317 0.383949 0.402562
O O14 0.625682 0.800641 0.647228
O O15 0.368379 0.252000 0.925329
#
# Coordination Sequence:
#
# PCOD9034725 Si02
#       7
#     2   2   2   2   2   2   2
#     4  11  23  41  64  97 125 168 224 265 332 394
#     4  10  23  42  62  96 134 170 217 271 321 393
#     4  10  24  40  65  96 130 180 213 264 338 391
#     4  10  23  42  67  99 134 174 222 271 330 397
#     4  11  25  43  65 101 130 172 226 281 335 396
#     4  10  25  41  71  96 128 180 223 274 338 396
#     4  10  22  45  67  96 133 176 219 277 334 393
#
# _framework density 29.23359
#
# number of rings (size 3 to 8) (size 9 to 14) (size 15 to 20)
#    0.000    1.714    0.000    3.000   10.000    5.714 
#    0.000    0.000    0.000    0.000    0.000    0.000 
#    0.000    0.000    0.000    0.000    0.000    0.000 
#
# Total GULP energy -78433.571062 kJ/mol
# GULP energy per Si atom -5602.397933 kJ/mol
# Density = 2.916705 g / cm^3
# Si number density = 29.233590 Si / 1000 Ang^3
#
#
#
# Elastic Constant Matrix: (Units=GPa)
#
#
# Indices 1 2 3 4 5 6 
#
# 1 161.2550 52.0978 48.3932 -7.7438 7.8292 -4.0879
# 2 52.0978 228.7305 31.8591 -16.7685 -1.1927 4.9017
# 3 48.3932 31.8591 84.2432 -22.9309 -13.9863 -1.4896
# 4 -7.7438 -16.7685 -22.9309 58.3843 2.8486 6.1233
# 5 7.8292 -1.1927 -13.9863 2.8486 46.3883 -6.1707
# 6 -4.0879 4.9017 -1.4896 6.1233 -6.1707 60.1027
#
#
#
# Elastic Compliance Matrix: (Units=1/GPa)
#
#
# Indices 1 2 3 4 5 6 
#
# 1 0.008206 -0.001279 -0.005001 -0.001145 -0.002807 0.000367
# 2 -0.001279 0.004867 -0.000867 0.000954 -0.000060 -0.000609
# 3 -0.005001 -0.000867 0.017587 0.005693 0.005799 0.000182
# 4 -0.001145 0.000954 0.005693 0.019670 0.000464 -0.001971
# 5 -0.002807 -0.000060 0.005799 0.000464 0.024066 0.002381
# 6 0.000367 -0.000609 0.000182 -0.001971 0.002381 0.017163
#
#
# Mechanical properties :
#
#
# Convention : Reuss Voigt Hill
#
# Bulk Modulus (GPa) = 61.10396 82.10320 71.60358
# Shear Modulus (GPa) = 44.92057 55.76698 50.34378
#
# Velocity S-wave (km/s) = 3.92421 4.37238 4.15435
# Velocity P-wave (km/s) = 6.44049 7.32370 6.89625
#
# Compressibility (1/GPa) = 0.01636555
#
# Stress axis : x y z
#
# Youngs Moduli (GPa) = 121.86103 205.47883 56.86074
#
# Poissons Ratio (x) = 0.26278 0.28438
# Poissons Ratio (y) = 0.15585 0.04928
# Poissons Ratio (z) = 0.60947 0.17810
#
# Static dielectric constant tensor:
#      x y z
#    x 2.306830 0.057180 -0.023210 
#    y 0.057180 2.344250 0.115590 
#    z -0.023210 0.115590 2.348880 
# 
# From -- ./inp_files/278793.got.cif
#   From: 2010.05.17/outbox.cif.g08.bks.cpg/sg2_140_cif.got.tgz:278793.got - 2010.06.03 11:33:40.
