data_PCOD9034644
_publ_section_title
;
Structure prediction by ZEFSAII (Michael W. Deem and Ramdas Pophale) SiO2 
 PCOD9034644
Probable space group: P -1
;
_chemical_formula_sum "Si O2"
_cell_formula_units_Z 14
_cell_length_a 12.203850
_cell_length_b 7.826609
_cell_length_c 8.902813
_cell_angle_alpha 113.305249
_cell_angle_beta 112.006581
_cell_angle_gamma 45.785457
_cell_volume 553.403774
_symmetry_space_group_name_H-M "P -1"
_symmetry_group_IT_number 2
_symmetry_cell_setting 'triclinic'
loop_
_space_group_symop_operation_xyz
x,y,z
-x,-y,-z
loop_
_atom_site_type_symbol
_atom_site_label
_atom_site_fract_x
_atom_site_fract_y
_atom_site_fract_z
Si Si1 0.075262 0.232365 0.006431
Si Si2 0.425965 0.981365 0.808071
Si Si3 0.616722 0.446966 0.789581
Si Si4 0.203227 0.508581 0.846910
Si Si5 0.844199 0.569689 0.508908
Si Si6 0.082497 0.799786 0.342796
Si Si7 0.630772 0.027850 0.737088
O O1 0.041317 0.116555 0.821473
O O2 0.248496 0.069262 0.096504
O O3 0.000000 0.500000 0.000000
O O4 0.969569 0.285750 0.113227
O O5 0.253589 0.239414 0.805266
O O6 0.477613 0.715886 0.749312
O O7 0.511141 0.995998 0.719169
O O8 0.500000 0.000000 0.000000
O O9 0.760531 0.290975 0.691100
O O10 0.565523 0.294269 0.755306
O O11 0.688504 0.476934 0.985235
O O12 0.212232 0.517196 0.676593
O O13 0.870456 0.438771 0.633061
O O14 0.726026 0.852467 0.585095
O O15 0.000000 0.500000 0.500000
O O16 0.000000 0.000000 0.500000
#
# Coordination Sequence:
#
# PCOD9034644 Si02
#       7
#     2   2   2   2   2   2   2
#     4  11  20  40  64  97 125 172 212 265 327 383
#     4  10  22  45  66  93 133 175 217 268 323 387
#     4  10  23  43  66  95 128 175 220 262 325 393
#     4  10  23  39  68  91 132 174 215 266 328 386
#     4  12  22  40  64  99 132 170 215 271 331 377
#     4  11  23  37  61  95 138 164 211 274 325 379
#     4  12  23  40  71  95 134 168 221 272 321 390
#
# _framework density 25.297982999999999
#
# number of rings (size 3 to 8) (size 9 to 14) (size 15 to 20)
#    0.000    1.143    4.286    2.571    2.000    4.000 
#    0.000    0.714    3.143    0.000    0.000    0.000 
#    0.000    0.000    0.000    0.000    0.000    0.000 
#
# Total GULP energy -78426.990504 kJ/mol
# GULP energy per Si atom -5601.927893 kJ/mol
# Density = 2.524040 g / cm^3
# Si number density = 25.297983 Si / 1000 Ang^3
#
#
#
# Elastic Constant Matrix: (Units=GPa)
#
#
# Indices 1 2 3 4 5 6 
#
# 1 80.9347 45.2641 24.5311 -2.3220 -14.8161 4.1542
# 2 45.2641 131.3491 32.5300 13.4355 5.0838 20.8460
# 3 24.5311 32.5300 143.6909 14.3528 -10.9859 -11.1512
# 4 -2.3220 13.4355 14.3528 44.5436 -4.2571 -0.8058
# 5 -14.8161 5.0838 -10.9859 -4.2571 23.3546 -0.8896
# 6 4.1542 20.8460 -11.1512 -0.8058 -0.8896 46.2803
#
#
#
# Elastic Compliance Matrix: (Units=1/GPa)
#
#
# Indices 1 2 3 4 5 6 
#
# 1 0.019939 -0.008125 -0.000772 0.005218 0.015084 0.002065
# 2 -0.008125 0.012761 -0.002264 -0.004610 -0.010060 -0.005838
# 3 -0.000772 -0.002264 0.008293 -0.001617 0.003728 0.003131
# 4 0.005218 -0.004610 -0.001617 0.025456 0.008263 0.001821
# 5 0.015084 -0.010060 0.003728 0.008263 0.058041 0.005335
# 6 0.002065 -0.005838 0.003131 0.001821 0.005335 0.024940
#
#
# Mechanical properties :
#
#
# Convention : Reuss Voigt Hill
#
# Bulk Modulus (GPa) = 53.55741 62.29171 57.92456
# Shear Modulus (GPa) = 28.09361 39.74567 33.91964
#
# Velocity S-wave (km/s) = 3.33604 3.96801 3.66567
# Velocity P-wave (km/s) = 6.00462 6.75797 6.39240
#
# Compressibility (1/GPa) = 0.01867155
#
# Stress axis : x y z
#
# Youngs Moduli (GPa) = 50.15310 78.36154 120.58115
#
# Poissons Ratio (x) = 0.63670 0.09312
# Poissons Ratio (y) = 0.40750 0.27294
# Poissons Ratio (z) = 0.03873 0.17738
#
# Static dielectric constant tensor:
#      x y z
#    x 1.997960 0.030610 0.002560 
#    y 0.030610 2.045810 -0.002760 
#    z 0.002560 -0.002760 2.008310 
# 
# From -- ./inp_files/296176.got.cif
#   From: 2010.05.17/outbox.cif.g08.bks.cpg/sg2_149_cif.got.tgz:296176.got - 2010.06.03 11:33:40.
