data_PCOD9034983
_publ_section_title
;
Structure prediction by ZEFSAII (Michael W. Deem and Ramdas Pophale) SiO2 
 PCOD9034983
Probable space group: P -1
;
_chemical_formula_sum "Si O2"
_cell_formula_units_Z 12
_cell_length_a 8.153145
_cell_length_b 5.141449
_cell_length_c 14.546124
_cell_angle_alpha 93.858335
_cell_angle_beta 68.332444
_cell_angle_gamma 58.546349
_cell_volume 456.682603
_symmetry_space_group_name_H-M "P -1"
_symmetry_group_IT_number 2
_symmetry_cell_setting 'triclinic'
loop_
_space_group_symop_operation_xyz
x,y,z
-x,-y,-z
loop_
_atom_site_type_symbol
_atom_site_label
_atom_site_fract_x
_atom_site_fract_y
_atom_site_fract_z
Si Si1 0.381488 0.828754 0.933832
Si Si2 0.196089 0.870466 0.156895
Si Si3 0.948691 0.687160 0.632100
Si Si4 0.804625 0.552265 0.105028
Si Si5 0.175453 0.150287 0.720401
Si Si6 0.371031 0.264970 0.451974
O O1 0.622710 0.511542 0.889184
O O2 0.253458 0.689326 0.916499
O O3 0.384191 0.082303 0.878555
O O4 0.266120 0.983364 0.059018
O O5 0.969713 0.919425 0.193360
O O6 0.172084 0.032809 0.262253
O O7 0.043141 0.352114 0.660513
O O8 0.178743 0.608390 0.544606
O O9 0.779052 0.770434 0.588193
O O10 0.817526 0.596825 0.211908
O O11 0.000000 0.500000 0.000000
O O12 0.416348 0.821073 0.648065
O O13 0.500000 0.000000 0.500000
#
# Coordination Sequence:
#
# PCOD9034983 Si02
#       6
#     2   2   2   2   2   2
#     4  11  27  43  69 105 150 197 235 295 347 421
#     4  11  25  41  66 103 139 188 241 290 358 419
#     4  10  22  45  69  98 141 178 237 301 361 426
#     4  12  24  45  69 104 149 193 244 286 352 419
#     4  11  24  39  71 102 138 188 238 293 354 425
#     4   9  21  45  71  99 133 183 234 303 362 433
#
# _framework density 26.276456
#
# number of rings (size 3 to 8) (size 9 to 14) (size 15 to 20)
#    0.000    1.333    1.667    2.500    7.000    2.000 
#    0.000    7.500    0.000    0.000    0.000    0.000 
#    0.000    0.000    0.000    0.000    0.000    0.000 
#
# Total GULP energy -67166.908840 kJ/mol
# GULP energy per Si atom -5597.242403 kJ/mol
# Density = 2.621665 g / cm^3
# Si number density = 26.276456 Si / 1000 Ang^3
#
#
#
# Elastic Constant Matrix: (Units=GPa)
#
#
# Indices 1 2 3 4 5 6 
#
# 1 143.9617 40.7117 70.6390 6.3035 1.8447 -18.4170
# 2 40.7117 99.2130 37.7199 0.8489 6.6638 -21.4806
# 3 70.6390 37.7199 164.7465 33.8067 -8.0633 -17.7237
# 4 6.3035 0.8489 33.8067 24.4644 -19.8798 8.7167
# 5 1.8447 6.6638 -8.0633 -19.8798 64.8847 10.5774
# 6 -18.4170 -21.4806 -17.7237 8.7167 10.5774 43.7079
#
#
#
# Elastic Compliance Matrix: (Units=1/GPa)
#
#
# Indices 1 2 3 4 5 6 
#
# 1 0.009579 -0.002319 -0.004394 0.004208 0.000691 0.000108
# 2 -0.002319 0.013086 -0.000231 -0.005700 -0.004281 0.007533
# 3 -0.004394 -0.000231 0.016294 -0.035475 -0.011041 0.014389
# 4 0.004208 -0.005700 -0.035475 0.152274 0.052236 -0.058423
# 5 0.000691 -0.004281 -0.011041 0.052236 0.034551 -0.025069
# 6 0.000108 0.007533 0.014389 -0.058423 -0.025069 0.050180
#
#
# Mechanical properties :
#
#
# Convention : Reuss Voigt Hill
#
# Bulk Modulus (GPa) = 39.88797 78.45140 59.16968
# Shear Modulus (GPa) = 16.76668 43.86809 30.31739
#
# Velocity S-wave (km/s) = 2.52878 4.09036 3.40043
# Velocity P-wave (km/s) = 4.87231 7.22697 6.16313
#
# Compressibility (1/GPa) = 0.02507022
#
# Stress axis : x y z
#
# Youngs Moduli (GPa) = 104.39469 76.41629 61.37127
#
# Poissons Ratio (x) = 0.17722 0.26968
# Poissons Ratio (y) = 0.24210 0.01419
# Poissons Ratio (z) = 0.45874 0.01767
#
# Static dielectric constant tensor:
#      x y z
#    x 2.106500 -0.061180 0.012620 
#    y -0.061180 2.118010 -0.016710 
#    z 0.012620 -0.016710 2.116570 
# 
# From -- ./inp_files/136473.got.cif
#   From: 2010.05.17/outbox.cif.g08.bks.cpg/sg2_69_cif.got.tgz:136473.got - 2010.06.03 11:33:40.
