data_PCOD9034972
_publ_section_title
;
Structure prediction by ZEFSAII (Michael W. Deem and Ramdas Pophale) SiO2 
 PCOD9034972
Probable space group: P -1
;
_chemical_formula_sum "Si O2"
_cell_formula_units_Z 14
_cell_length_a 13.327552
_cell_length_b 9.366385
_cell_length_c 15.414691
_cell_angle_alpha 58.033528
_cell_angle_beta 152.136685
_cell_angle_gamma 133.334107
_cell_volume 637.009001
_symmetry_space_group_name_H-M "P -1"
_symmetry_group_IT_number 2
_symmetry_cell_setting 'triclinic'
loop_
_space_group_symop_operation_xyz
x,y,z
-x,-y,-z
loop_
_atom_site_type_symbol
_atom_site_label
_atom_site_fract_x
_atom_site_fract_y
_atom_site_fract_z
Si Si1 0.077548 0.170309 0.256023
Si Si2 0.762498 0.391276 0.785799
Si Si3 0.694685 0.461916 0.214562
Si Si4 0.126872 0.912455 0.683428
Si Si5 0.529074 0.187474 0.507796
Si Si6 0.466508 0.990419 0.165421
Si Si7 0.818795 0.489672 0.493488
O O1 0.241356 0.413531 0.304312
O O2 0.269554 0.117386 0.382670
O O3 0.942641 0.078759 0.274223
O O4 0.831055 0.088085 0.033387
O O5 0.759729 0.300312 0.718591
O O6 0.536556 0.188218 0.726833
O O7 0.000000 0.500000 0.000000
O O8 0.607101 0.224961 0.225516
O O9 0.729717 0.527604 0.321015
O O10 0.980993 0.574992 0.355630
O O11 0.500000 0.500000 0.000000
O O12 0.416879 0.010128 0.838949
O O13 0.980804 0.682522 0.615798
O O14 0.000000 0.000000 0.500000
O O15 0.581350 0.335918 0.420767
O O16 0.500000 0.000000 0.500000
#
# Coordination Sequence:
#
# PCOD9034972 Si02
#       7
#     2   2   2   2   2   2   2
#     4  11  24  43  69  97 139 181 226 287 352 414
#     4  10  22  45  69  97 142 178 230 292 345 421
#     4  10  23  45  70  95 146 181 229 291 357 420
#     4  11  23  40  70  98 133 176 234 286 347 411
#     4  12  25  43  71  99 141 185 234 288 357 418
#     4  10  23  42  66 104 129 178 234 287 342 419
#     4  10  24  44  65 104 134 183 238 285 349 425
#
# _framework density 21.977710999999999
#
# number of rings (size 3 to 8) (size 9 to 14) (size 15 to 20)
#    0.000    1.429    1.429    2.571    6.000    1.143 
#    5.143    3.571    0.000    0.000    0.000    0.000 
#    0.000    0.000    0.000    0.000    0.000    0.000 
#
# Total GULP energy -77986.785974 kJ/mol
# GULP energy per Si atom -5570.484712 kJ/mol
# Density = 2.192769 g / cm^3
# Si number density = 21.977711 Si / 1000 Ang^3
#
#
#
# Elastic Constant Matrix: (Units=GPa)
#
#
# Indices 1 2 3 4 5 6 
#
# 1 134.5792 23.7802 31.1966 -1.9237 5.9713 2.0104
# 2 23.7802 78.3183 -13.9593 5.6247 14.8683 4.0634
# 3 31.1966 -13.9593 97.8058 6.0041 12.6015 0.4437
# 4 -1.9237 5.6247 6.0041 22.6763 1.6013 -5.5288
# 5 5.9713 14.8683 12.6015 1.6013 24.5838 3.9759
# 6 2.0104 4.0634 0.4437 -5.5288 3.9759 36.2593
#
#
#
# Elastic Compliance Matrix: (Units=1/GPa)
#
#
# Indices 1 2 3 4 5 6 
#
# 1 0.008978 -0.003997 -0.003858 0.002678 0.002010 0.000185
# 2 -0.003997 0.017793 0.005737 -0.005754 -0.012132 -0.001390
# 3 -0.003858 0.005737 0.013759 -0.004821 -0.009219 -0.000321
# 4 0.002678 -0.005754 -0.004821 0.048902 0.000834 0.007920
# 5 0.002010 -0.012132 -0.009219 0.000834 0.052895 -0.004312
# 6 0.000185 -0.001390 -0.000321 0.007920 -0.004312 0.029409
#
#
# Mechanical properties :
#
#
# Convention : Reuss Voigt Hill
#
# Bulk Modulus (GPa) = 27.55352 43.63758 35.59555
# Shear Modulus (GPa) = 26.58585 34.68294 30.63439
#
# Velocity S-wave (km/s) = 3.48181 3.97684 3.73753
# Velocity P-wave (km/s) = 5.35987 6.40199 5.90397
#
# Compressibility (1/GPa) = 0.03629300
#
# Stress axis : x y z
#
# Youngs Moduli (GPa) = 111.38880 56.20155 72.67948
#
# Poissons Ratio (x) = 0.22465 0.28042
# Poissons Ratio (y) = 0.44524 -0.41697
# Poissons Ratio (z) = 0.42977 -0.32243
#
# Static dielectric constant tensor:
#      x y z
#    x 1.827580 0.025760 -0.039740 
#    y 0.025760 1.825920 -0.012830 
#    z -0.039740 -0.012830 1.847460 
# 
# From -- ./inp_files/515257.got.cif
#   From: 2010.05.17/outbox.cif.g08.bks.cpg/sg2_258_cif.got.tgz:515257.got - 2010.06.03 11:33:40.
