data_PCOD9034806
_publ_section_title
;
Structure prediction by ZEFSAII (Michael W. Deem and Ramdas Pophale) SiO2 
 PCOD9034806
Probable space group: P -1
;
_chemical_formula_sum "Si O2"
_cell_formula_units_Z 16
_cell_length_a 12.508291
_cell_length_b 20.905833
_cell_length_c 6.821557
_cell_angle_alpha 111.957428
_cell_angle_beta 69.158918
_cell_angle_gamma 156.401648
_cell_volume 661.886574
_symmetry_space_group_name_H-M "P -1"
_symmetry_group_IT_number 2
_symmetry_cell_setting 'triclinic'
loop_
_space_group_symop_operation_xyz
x,y,z
-x,-y,-z
loop_
_atom_site_type_symbol
_atom_site_label
_atom_site_fract_x
_atom_site_fract_y
_atom_site_fract_z
Si Si1 0.427847 0.847946 0.417057
Si Si2 0.066622 0.778972 0.548526
Si Si3 0.586397 0.273239 0.037744
Si Si4 0.966310 0.042575 0.729500
Si Si5 0.598366 0.686479 0.920312
Si Si6 0.100732 0.618072 0.699215
Si Si7 0.723803 0.543576 0.815325
Si Si8 0.230364 0.284975 0.556961
O O1 0.187701 0.769318 0.424529
O O2 0.360624 0.791037 0.618116
O O3 0.695338 0.036974 0.423614
O O4 0.432250 0.782396 0.208659
O O5 0.945354 0.714858 0.774664
O O6 0.846188 0.680163 0.420281
O O7 0.817849 0.367892 0.129668
O O8 0.596594 0.359415 0.079905
O O9 0.312975 0.115361 0.159175
O O10 0.198100 0.169284 0.888906
O O11 0.011360 0.135481 0.676784
O O12 0.000000 0.000000 0.500000
O O13 0.447555 0.543322 0.974180
O O14 0.756126 0.746458 0.696405
O O15 0.000000 0.500000 0.500000
O O16 0.879470 0.556884 0.763601
O O17 0.506661 0.421439 0.643755
#
# Coordination Sequence:
#
# PCOD9034806 Si02
#       8
#     2   2   2   2   2   2   2   2
#     4  10  24  44  67  96 130 172 223 266 323 386
#     4  10  22  45  68  89 133 178 218 272 316 379
#     4  12  24  40  70  99 129 174 212 267 333 392
#     4  11  24  39  64 101 134 163 206 267 329 390
#     4  11  24  39  66 101 130 166 216 267 329 393
#     4  11  24  42  66  97 138 168 212 271 329 391
#     4  10  24  42  61  97 129 174 221 268 317 376
#     4  11  22  42  68  95 133 172 215 267 332 380
#
# _framework density 24.173327
#
# number of rings (size 3 to 8) (size 9 to 14) (size 15 to 20)
#    0.000    1.250    1.250    3.750    5.250    4.500 
#    0.000   17.500    0.000    0.000    0.000    0.000 
#    0.000    0.000    0.000    0.000    0.000    0.000 
#
# Total GULP energy -89576.660756 kJ/mol
# GULP energy per Si atom -5598.541297 kJ/mol
# Density = 2.411831 g / cm^3
# Si number density = 24.173327 Si / 1000 Ang^3
#
#
#
# Elastic Constant Matrix: (Units=GPa)
#
#
# Indices 1 2 3 4 5 6 
#
# 1 131.4845 22.3103 35.5042 -9.6449 33.8166 14.6694
# 2 22.3103 98.8902 33.8248 -34.2667 19.2240 -0.9433
# 3 35.5042 33.8248 113.8525 -13.2485 14.2177 9.2079
# 4 -9.6449 -34.2667 -13.2485 50.2741 -6.0845 13.2129
# 5 33.8166 19.2240 14.2177 -6.0845 47.0293 -6.9741
# 6 14.6694 -0.9433 9.2079 13.2129 -6.9741 41.5361
#
#
#
# Elastic Compliance Matrix: (Units=1/GPa)
#
#
# Indices 1 2 3 4 5 6 
#
# 1 0.010855 0.000515 -0.001810 0.002447 -0.007973 -0.005538
# 2 0.000515 0.015359 -0.002649 0.010131 -0.005028 -0.003313
# 3 -0.001810 -0.002649 0.010575 0.001114 -0.001008 -0.002289
# 4 0.002447 0.010131 0.001114 0.029991 -0.004003 -0.011093
# 5 -0.007973 -0.005028 -0.001008 -0.004003 0.030214 0.009272
# 6 -0.005538 -0.003313 -0.002289 -0.011093 0.009272 0.031549
#
#
# Mechanical properties :
#
#
# Convention : Reuss Voigt Hill
#
# Bulk Modulus (GPa) = 34.59964 58.61175 46.60570
# Shear Modulus (GPa) = 34.23194 44.60710 39.41952
#
# Velocity S-wave (km/s) = 3.76720 4.30036 4.04258
# Velocity P-wave (km/s) = 5.76772 6.99690 6.41183
#
# Compressibility (1/GPa) = 0.02890203
#
# Stress axis : x y z
#
# Youngs Moduli (GPa) = 92.12586 65.11045 94.56061
#
# Poissons Ratio (x) = -0.03355 0.17113
# Poissons Ratio (y) = -0.04747 0.25047
# Poissons Ratio (z) = 0.16672 0.17246
#
# Static dielectric constant tensor:
#      x y z
#    x 1.919860 0.017380 -0.006170 
#    y 0.017380 1.999240 -0.024000 
#    z -0.006170 -0.024000 1.887260 
# 
# From -- ./inp_files/70496.got.cif
#   From: 2010.05.17/outbox.cif.g08.bks.cpg/sg2_36_cif.got.tgz:70496.got - 2010.06.03 11:33:40.
