data_PCOD9034489
_publ_section_title
;
Structure prediction by ZEFSAII (Michael W. Deem and Ramdas Pophale) SiO2 
 PCOD9034489
Probable space group: P -1
;
_chemical_formula_sum "Si O2"
_cell_formula_units_Z 13
_cell_length_a 11.749857
_cell_length_b 5.310990
_cell_length_c 9.905508
_cell_angle_alpha 108.328576
_cell_angle_beta 124.710002
_cell_angle_gamma 72.053863
_cell_volume 475.715212
_symmetry_space_group_name_H-M "P -1"
_symmetry_group_IT_number 2
_symmetry_cell_setting 'triclinic'
loop_
_space_group_symop_operation_xyz
x,y,z
-x,-y,-z
loop_
_atom_site_type_symbol
_atom_site_label
_atom_site_fract_x
_atom_site_fract_y
_atom_site_fract_z
Si Si1 0.391883 0.486823 0.138106
Si Si2 0.684364 0.876619 0.562291
Si Si3 0.899743 0.383251 0.514161
Si Si4 0.169247 0.092882 0.780635
Si Si5 0.427543 0.070509 0.781932
Si Si6 0.500000 0.500000 0.500000
Si Si7 0.839549 0.083797 0.953277
O O1 0.478703 0.703916 0.160809
O O2 0.389217 0.472186 0.297003
O O3 0.228050 0.603969 0.013865
O O4 0.484608 0.189436 0.129239
O O5 0.801096 0.630932 0.553085
O O6 0.636308 0.045967 0.421009
O O7 0.557704 0.729451 0.489979
O O8 0.747946 0.005148 0.753718
O O9 0.000000 0.500000 0.500000
O O10 0.007291 0.222157 0.666314
O O11 0.819467 0.192315 0.339241
O O12 0.292297 0.203714 0.799449
O O13 0.185836 0.052730 0.944421
O O14 0.000000 0.000000 0.000000
#
# Coordination Sequence:
#
# PCOD9034489 Si02
#       7
#     2   2   2   2   2   1   2
#     4  11  25  48  77 111 157 202 263 322 393 462
#     4  11  24  48  82 113 155 203 267 324 388 465
#     4  11  23  46  76 108 148 212 263 313 375 489
#     4  11  26  46  77 110 154 202 265 319 395 463
#     4  11  24  49  82 110 143 212 273 320 373 474
#     4  10  22  44  76 108 144 206 258 312 374 464
#     4  12  29  48  70 121 163 203 245 334 405 471
#
# _framework density 27.327272000000001
#
# number of rings (size 3 to 8) (size 9 to 14) (size 15 to 20)
#    0.000    0.923    1.538    4.615    4.308    4.308 
#    8.308    0.000    0.000    0.923    0.000    0.000 
#    0.000    0.000    0.000    0.000    0.000    0.000 
#
# Total GULP energy -72611.869128 kJ/mol
# GULP energy per Si atom -5585.528394 kJ/mol
# Density = 2.726507 g / cm^3
# Si number density = 27.327272 Si / 1000 Ang^3
#
#
#
# Elastic Constant Matrix: (Units=GPa)
#
#
# Indices 1 2 3 4 5 6 
#
# 1 150.9086 60.7009 38.6645 -6.5859 -15.6564 -18.5283
# 2 60.7009 158.6261 39.0738 -25.6566 -5.6957 -7.5047
# 3 38.6645 39.0738 142.9082 -16.7108 -5.2095 -15.8848
# 4 -6.5859 -25.6566 -16.7108 28.8806 -1.1255 -6.6099
# 5 -15.6564 -5.6957 -5.2095 -1.1255 37.2076 4.3395
# 6 -18.5283 -7.5047 -15.8848 -6.6099 4.3395 56.1216
#
#
#
# Elastic Compliance Matrix: (Units=1/GPa)
#
#
# Indices 1 2 3 4 5 6 
#
# 1 0.008609 -0.002929 -0.001339 -0.000906 0.002755 0.001752
# 2 -0.002929 0.008755 -0.000701 0.006894 0.000124 0.000808
# 3 -0.001339 -0.000701 0.008342 0.004444 0.000361 0.002321
# 4 -0.000906 0.006894 0.004444 0.044792 0.001833 0.007015
# 5 0.002755 0.000124 0.000361 0.001833 0.028270 -0.000942
# 6 0.001752 0.000808 0.002321 0.007015 -0.000942 0.020061
#
#
# Mechanical properties :
#
#
# Convention : Reuss Voigt Hill
#
# Bulk Modulus (GPa) = 63.41778 81.03571 72.22674
# Shear Modulus (GPa) = 37.30660 45.37554 41.34107
#
# Velocity S-wave (km/s) = 3.69884 4.07928 3.89371
# Velocity P-wave (km/s) = 6.44198 7.20455 6.83391
#
# Compressibility (1/GPa) = 0.01576845
#
# Stress axis : x y z
#
# Youngs Moduli (GPa) = 116.15366 114.21420 119.87169
#
# Poissons Ratio (x) = 0.33457 0.16052
# Poissons Ratio (y) = 0.34025 0.08402
# Poissons Ratio (z) = 0.15554 0.08005
#
# Static dielectric constant tensor:
#      x y z
#    x 2.019140 0.133190 0.189230 
#    y 0.133190 1.941090 -0.063540 
#    z 0.189230 -0.063540 2.188550 
# 
# From -- ./inp_files/23986.got.cif
#   From: 2010.05.17/outbox.cif.g08.bks.cpg/sg2_12_cif.got.tgz:23986.got - 2010.06.03 11:33:40.
