data_PCOD9034659
_publ_section_title
;
Structure prediction by ZEFSAII (Michael W. Deem and Ramdas Pophale) SiO2 
 PCOD9034659
Probable space group: P -1
;
_chemical_formula_sum "Si O2"
_cell_formula_units_Z 13
_cell_length_a 8.319224
_cell_length_b 16.035243
_cell_length_c 5.851895
_cell_angle_alpha 77.551368
_cell_angle_beta 94.799586
_cell_angle_gamma 137.395075
_cell_volume 512.695160
_symmetry_space_group_name_H-M "P -1"
_symmetry_group_IT_number 2
_symmetry_cell_setting 'triclinic'
loop_
_space_group_symop_operation_xyz
x,y,z
-x,-y,-z
loop_
_atom_site_type_symbol
_atom_site_label
_atom_site_fract_x
_atom_site_fract_y
_atom_site_fract_z
Si Si1 0.688151 0.571535 0.276493
Si Si2 0.658101 0.850149 0.468139
Si Si3 0.000000 0.000000 0.000000
Si Si4 0.161141 0.794357 0.684855
Si Si5 0.660887 0.999276 0.747909
Si Si6 0.875217 0.360578 0.540636
Si Si7 0.325279 0.311047 0.145231
O O1 0.500000 0.500000 0.500000
O O2 0.563892 0.453716 0.164331
O O3 0.947874 0.635544 0.314184
O O4 0.697377 0.672775 0.130843
O O5 0.869371 0.922537 0.271982
O O6 0.663703 0.939892 0.555536
O O7 0.403872 0.741009 0.374218
O O8 0.674199 0.784590 0.710534
O O9 0.813887 0.009799 0.946726
O O10 0.377061 0.893518 0.829004
O O11 0.131833 0.682775 0.690226
O O12 0.907276 0.733652 0.754227
O O13 0.242312 0.874639 0.414854
O O14 0.000000 0.500000 0.500000
#
# Coordination Sequence:
#
# PCOD9034659 Si02
#       7
#     2   2   1   2   2   2   2
#     4  11  24  44  67 102 134 182 226 276 345 417
#     4  11  25  45  68 106 140 182 226 290 338 408
#     4  12  24  42  74 104 136 184 234 282 340 410
#     4  10  22  45  66  96 141 180 224 287 339 407
#     4  10  24  44  65 100 138 179 232 277 341 402
#     4  11  23  45  71 101 140 175 238 282 348 410
#     4  11  23  42  69  97 140 180 222 279 344 407
#
# _framework density 25.356200000000001
#
# number of rings (size 3 to 8) (size 9 to 14) (size 15 to 20)
#    0.000    1.231    4.615    0.462    2.154    2.462 
#    0.000    3.846    0.000    0.000    0.000    0.000 
#    0.000    0.000    0.000    0.000    0.000    0.000 
#
# Total GULP energy -72501.659397 kJ/mol
# GULP energy per Si atom -5577.050723 kJ/mol
# Density = 2.529849 g / cm^3
# Si number density = 25.356200 Si / 1000 Ang^3
#
#
#
# Elastic Constant Matrix: (Units=GPa)
#
#
# Indices 1 2 3 4 5 6 
#
# 1 132.3275 51.5934 35.4451 -7.7083 28.1243 21.2111
# 2 51.5934 140.1745 11.6304 -10.1909 5.3785 7.0933
# 3 35.4451 11.6304 98.4184 -31.5433 30.7340 1.1745
# 4 -7.7083 -10.1909 -31.5433 16.4910 2.6354 3.1571
# 5 28.1243 5.3785 30.7340 2.6354 48.1915 0.6960
# 6 21.2111 7.0933 1.1745 3.1571 0.6960 61.0399
#
#
#
# Elastic Compliance Matrix: (Units=1/GPa)
#
#
# Indices 1 2 3 4 5 6 
#
# 1 0.011039 -0.003326 -0.000363 0.004057 -0.006010 -0.003584
# 2 -0.003326 0.009904 0.012159 0.029499 -0.008508 -0.001658
# 3 -0.000363 0.012159 0.111878 0.237797 -0.085286 -0.014766
# 4 0.004057 0.029499 0.237797 0.572736 -0.188102 -0.036891
# 5 -0.006010 -0.008508 -0.085286 -0.188102 0.089691 0.013424
# 6 -0.003584 -0.001658 -0.014766 -0.036891 0.013424 0.019860
#
#
# Mechanical properties :
#
#
# Convention : Reuss Voigt Hill
#
# Bulk Modulus (GPa) = 6.67730 63.13982 34.90856
# Shear Modulus (GPa) = 5.89560 43.29457 24.59509
#
# Velocity S-wave (km/s) = 1.52649 4.13662 3.11783
# Velocity P-wave (km/s) = 2.39708 6.91163 5.17285
#
# Compressibility (1/GPa) = 0.14976104
#
# Stress axis : x y z
#
# Youngs Moduli (GPa) = 90.58686 100.96569 8.93829
#
# Poissons Ratio (x) = 0.33582 0.00324
# Poissons Ratio (y) = 0.30130 -0.10868
# Poissons Ratio (z) = 0.03287 -1.22761
#
# Static dielectric constant tensor:
#      x y z
#    x 2.015940 -0.024970 0.037880 
#    y -0.024970 2.167250 0.143600 
#    z 0.037880 0.143600 2.114060 
# 
# From -- ./inp_files/27352.got.cif
#   From: 2010.05.17/outbox.cif.g08.bks.cpg/sg2_14_cif.got.tgz:27352.got - 2010.06.03 11:33:40.
