data_PCOD9034472
_publ_section_title
;
Structure prediction by ZEFSAII (Michael W. Deem and Ramdas Pophale) SiO2 
 PCOD9034472
Probable space group: P -1
;
_chemical_formula_sum "Si O2"
_cell_formula_units_Z 16
_cell_length_a 8.590768
_cell_length_b 7.867379
_cell_length_c 11.998413
_cell_angle_alpha 73.933978
_cell_angle_beta 107.390828
_cell_angle_gamma 71.058401
_cell_volume 666.256046
_symmetry_space_group_name_H-M "P -1"
_symmetry_group_IT_number 2
_symmetry_cell_setting 'triclinic'
loop_
_space_group_symop_operation_xyz
x,y,z
-x,-y,-z
loop_
_atom_site_type_symbol
_atom_site_label
_atom_site_fract_x
_atom_site_fract_y
_atom_site_fract_z
Si Si1 0.050709 0.658420 0.544290
Si Si2 0.524891 0.492222 0.374539
Si Si3 0.236033 0.037794 0.719770
Si Si4 0.704124 0.334180 0.058801
Si Si5 0.916640 0.801292 0.116711
Si Si6 0.247523 0.872596 0.132117
Si Si7 0.551300 0.873743 0.647669
Si Si8 0.044313 0.359467 0.216921
O O1 0.264511 0.585641 0.596046
O O2 0.000000 0.500000 0.500000
O O3 0.938583 0.859044 0.415476
O O4 0.988363 0.675746 0.654852
O O5 0.500000 0.500000 0.500000
O O6 0.410544 0.716753 0.267631
O O7 0.464003 0.330781 0.341354
O O8 0.199561 0.167706 0.800996
O O9 0.264933 0.830017 0.811930
O O10 0.409447 0.998857 0.689275
O O11 0.869347 0.387728 0.103782
O O12 0.500000 0.500000 0.000000
O O13 0.722632 0.245214 0.956763
O O14 0.059957 0.894051 0.144318
O O15 0.041025 0.572173 0.168608
O O16 0.789623 0.914339 0.964680
O O17 0.758673 0.812591 0.737868
O O18 0.500000 0.000000 0.500000
#
# Coordination Sequence:
#
# PCOD9034472 Si02
#       8
#     2   2   2   2   2   2   2   2
#     4  12  24  43  71 105 143 187 243 298 359 427
#     4  12  26  46  76 104 144 186 236 305 365 428
#     4  11  24  46  71 100 148 186 237 296 359 425
#     4  11  26  47  70 102 147 193 238 297 360 430
#     4  10  22  44  75  98 140 188 237 291 349 434
#     4  10  22  48  68 104 140 185 238 290 365 430
#     4  12  26  45  69 113 149 184 241 301 364 427
#     4  12  24  45  75 105 140 193 241 296 360 421
#
# _framework density 24.014790999999999
#
# number of rings (size 3 to 8) (size 9 to 14) (size 15 to 20)
#    0.000    0.750    3.750    3.750    1.750    1.500 
#    2.250    1.875    0.000    0.000    0.000    0.000 
#    0.000    0.000    0.000    0.000    0.000    0.000 
#
# Total GULP energy -89641.796424 kJ/mol
# GULP energy per Si atom -5602.612276 kJ/mol
# Density = 2.396013 g / cm^3
# Si number density = 24.014791 Si / 1000 Ang^3
#
#
#
# Elastic Constant Matrix: (Units=GPa)
#
#
# Indices 1 2 3 4 5 6 
#
# 1 130.0556 28.5347 58.7589 -7.1799 8.0564 -40.9739
# 2 28.5347 47.7045 45.1408 -18.8305 3.8676 -24.4145
# 3 58.7589 45.1408 188.2990 -32.9831 -3.7598 -27.6215
# 4 -7.1799 -18.8305 -32.9831 58.9700 -11.1634 1.8232
# 5 8.0564 3.8676 -3.7598 -11.1634 50.1208 -2.5459
# 6 -40.9739 -24.4145 -27.6215 1.8232 -2.5459 51.3296
#
#
#
# Elastic Compliance Matrix: (Units=1/GPa)
#
#
# Indices 1 2 3 4 5 6 
#
# 1 0.011337 -0.000982 -0.002426 -0.000845 -0.001750 0.007221
# 2 -0.000982 0.036545 -0.005035 0.008216 -0.000521 0.013572
# 3 -0.002426 -0.005035 0.007790 0.002835 0.001987 -0.000142
# 4 -0.000845 0.008216 0.002835 0.021841 0.004793 0.004221
# 5 -0.001750 -0.000521 0.001987 0.004793 0.021506 0.000321
# 6 0.007221 0.013572 -0.000142 0.004221 0.000321 0.031491
#
#
# Mechanical properties :
#
#
# Convention : Reuss Voigt Hill
#
# Bulk Modulus (GPa) = 25.78210 70.10309 47.94260
# Shear Modulus (GPa) = 31.18664 47.65908 39.42286
#
# Velocity S-wave (km/s) = 3.60758 4.45969 4.05607
# Velocity P-wave (km/s) = 5.30208 7.46816 6.47632
#
# Compressibility (1/GPa) = 0.03878660
#
# Stress axis : x y z
#
# Youngs Moduli (GPa) = 88.20563 27.36347 128.36551
#
# Poissons Ratio (x) = 0.02686 0.31143
# Poissons Ratio (y) = 0.08660 0.64633
# Poissons Ratio (z) = 0.21400 0.13778
#
# Static dielectric constant tensor:
#      x y z
#    x 1.930360 0.027350 0.028120 
#    y 0.027350 1.972670 0.007160 
#    z 0.028120 0.007160 1.911170 
# 
# From -- ./inp_files/297941.got.cif
#   From: 2010.05.17/outbox.cif.g08.bks.cpg/sg2_149_cif.got.tgz:297941.got - 2010.06.03 11:33:40.
