data_PCOD9034791
_publ_section_title
;
Structure prediction by ZEFSAII (Michael W. Deem and Ramdas Pophale) SiO2 
 PCOD9034791
Probable space group: P -1
;
_chemical_formula_sum "Si O2"
_cell_formula_units_Z 16
_cell_length_a 9.244441
_cell_length_b 12.517928
_cell_length_c 11.690321
_cell_angle_alpha 131.651110
_cell_angle_beta 68.098323
_cell_angle_gamma 137.772079
_cell_volume 659.979623
_symmetry_space_group_name_H-M "P -1"
_symmetry_group_IT_number 2
_symmetry_cell_setting 'triclinic'
loop_
_space_group_symop_operation_xyz
x,y,z
-x,-y,-z
loop_
_atom_site_type_symbol
_atom_site_label
_atom_site_fract_x
_atom_site_fract_y
_atom_site_fract_z
Si Si1 0.508829 0.230938 0.374322
Si Si2 0.111218 0.174054 0.443056
Si Si3 0.292909 0.272051 0.802061
Si Si4 0.898071 0.518887 0.275883
Si Si5 0.266797 0.582408 0.328439
Si Si6 0.467488 0.306891 0.013596
Si Si7 0.623006 0.132964 0.942159
Si Si8 0.127911 0.199561 0.182978
O O1 0.352395 0.265714 0.458929
O O2 0.697805 0.373772 0.324418
O O3 0.641142 0.288444 0.491591
O O4 0.345382 0.994550 0.222316
O O5 0.086960 0.067726 0.654542
O O6 0.075308 0.294601 0.610198
O O7 0.096087 0.191328 0.321762
O O8 0.519438 0.344714 0.744553
O O9 0.303235 0.244131 0.914356
O O10 0.317313 0.457834 0.910542
O O11 0.125852 0.602134 0.313524
O O12 0.821130 0.365843 0.087044
O O13 0.109927 0.345676 0.239011
O O14 0.483755 0.148872 0.913161
O O15 0.378324 0.308797 0.162013
O O16 0.500000 0.000000 0.000000
O O17 0.000000 0.000000 0.000000
#
# Coordination Sequence:
#
# PCOD9034791 Si02
#       8
#     2   2   2   2   2   2   2   2
#     4  11  25  43  71 104 140 179 238 303 350 414
#     4  12  25  43  71 103 142 185 240 288 361 419
#     4  10  25  44  69 101 147 193 232 282 354 439
#     4  11  25  44  71 104 141 177 239 303 350 416
#     4  11  26  44  68 101 144 187 239 291 353 418
#     4  10  22  45  68 104 144 185 240 288 351 424
#     4  10  24  42  73 100 142 176 233 297 360 408
#     4  11  22  36  74 102 134 185 239 297 350 409
#
# _framework density 24.243172999999999
#
# number of rings (size 3 to 8) (size 9 to 14) (size 15 to 20)
#    0.000    1.250    2.500    2.250   10.500    1.000 
#    0.000    1.250    0.000    0.000    0.000    0.000 
#    0.000    0.000    0.000    0.000    0.000    0.000 
#
# Total GULP energy -89465.036481 kJ/mol
# GULP energy per Si atom -5591.564780 kJ/mol
# Density = 2.418799 g / cm^3
# Si number density = 24.243173 Si / 1000 Ang^3
#
#
#
# Elastic Constant Matrix: (Units=GPa)
#
#
# Indices 1 2 3 4 5 6 
#
# 1 66.0806 14.7811 11.9934 2.9378 -12.7668 -5.9705
# 2 14.7811 75.1616 18.4837 6.2475 -0.7711 -5.8836
# 3 11.9934 18.4837 139.1687 31.6101 12.1363 -4.6895
# 4 2.9378 6.2475 31.6101 29.0963 -3.6242 1.9318
# 5 -12.7668 -0.7711 12.1363 -3.6242 36.7208 7.2368
# 6 -5.9705 -5.8836 -4.6895 1.9318 7.2368 31.1530
#
#
#
# Elastic Compliance Matrix: (Units=1/GPa)
#
#
# Indices 1 2 3 4 5 6 
#
# 1 0.017465 -0.002945 -0.002122 0.001964 0.006752 0.000781
# 2 -0.002945 0.014481 -0.001057 -0.001950 -0.001030 0.002372
# 3 -0.002122 -0.001057 0.011012 -0.012523 -0.006283 0.003287
# 4 0.001964 -0.001950 -0.012523 0.050095 0.011221 -0.007590
# 5 0.006752 -0.001030 -0.006283 0.011221 0.034425 -0.008539
# 6 0.000781 0.002372 0.003287 -0.007590 -0.008539 0.035646
#
#
# Mechanical properties :
#
#
# Convention : Reuss Voigt Hill
#
# Bulk Modulus (GPa) = 32.56459 41.21414 36.88936
# Shear Modulus (GPa) = 26.93818 35.07088 31.00453
#
# Velocity S-wave (km/s) = 3.33703 3.80758 3.58005
# Velocity P-wave (km/s) = 5.32065 6.03054 5.68669
#
# Compressibility (1/GPa) = 0.03070820
#
# Stress axis : x y z
#
# Youngs Moduli (GPa) = 57.25816 69.05628 90.81051
#
# Poissons Ratio (x) = 0.20340 0.19274
# Poissons Ratio (y) = 0.16865 0.09597
# Poissons Ratio (z) = 0.12152 0.07298
#
# Static dielectric constant tensor:
#      x y z
#    x 1.803850 0.000550 -0.013440 
#    y 0.000550 2.043770 -0.003180 
#    z -0.013440 -0.003180 1.915870 
# 
# From -- ./inp_files/393081.got.cif
#   From: 2010.05.17/outbox.cif.g08.bks.cpg/sg2_197_cif.got.tgz:393081.got - 2010.06.03 11:33:40.
