data_PCOD9034959
_publ_section_title
;
Structure prediction by ZEFSAII (Michael W. Deem and Ramdas Pophale) SiO2 
 PCOD9034959
Probable space group: P -1
;
_chemical_formula_sum "Si O2"
_cell_formula_units_Z 16
_cell_length_a 12.178164
_cell_length_b 9.331655
_cell_length_c 11.051805
_cell_angle_alpha 104.903872
_cell_angle_beta 145.241003
_cell_angle_gamma 63.666992
_cell_volume 627.455996
_symmetry_space_group_name_H-M "P -1"
_symmetry_group_IT_number 2
_symmetry_cell_setting 'triclinic'
loop_
_space_group_symop_operation_xyz
x,y,z
-x,-y,-z
loop_
_atom_site_type_symbol
_atom_site_label
_atom_site_fract_x
_atom_site_fract_y
_atom_site_fract_z
Si Si1 0.560818 0.313418 0.057405
Si Si2 0.217601 0.573471 0.529630
Si Si3 0.078092 0.591992 0.985115
Si Si4 0.174711 0.278909 0.463301
Si Si5 0.743526 0.721147 0.058101
Si Si6 0.559405 0.342244 0.602687
Si Si7 0.014348 0.929045 0.632433
Si Si8 0.423137 0.925339 0.617547
O O1 0.683788 0.318531 0.293417
O O2 0.369383 0.269739 0.914555
O O3 0.740934 0.156408 0.119528
O O4 0.500000 0.500000 0.000000
O O5 0.175162 0.445124 0.547167
O O6 0.398828 0.431042 0.584471
O O7 0.991423 0.684000 0.285980
O O8 0.926084 0.681215 0.754677
O O9 0.252930 0.438796 0.039758
O O10 0.192818 0.704241 0.156895
O O11 0.000000 0.500000 0.000000
O O12 0.041860 0.225987 0.428436
O O13 0.383398 0.111184 0.597182
O O14 0.593856 0.862681 0.865812
O O15 0.500000 0.500000 0.500000
O O16 0.515950 0.202521 0.464864
O O17 0.812690 0.057666 0.552373
O O18 0.000000 0.000000 0.500000
#
# Coordination Sequence:
#
# PCOD9034959 Si02
#       8
#     2   2   2   2   2   2   2   2
#     4  12  23  43  76  95 135 185 234 296 349 412
#     4  11  25  41  69 105 134 180 241 283 352 427
#     4  11  22  41  69 102 141 183 229 293 344 421
#     4   9  23  43  64 102 144 174 238 291 349 422
#     4  11  22  42  65 101 133 177 238 284 351 413
#     4  12  22  40  72 101 139 187 235 280 354 427
#     4  10  22  45  69  96 138 186 229 296 351 410
#     4  10  23  42  67  99 142 183 233 290 359 405
#
# _framework density 25.499797999999998
#
# number of rings (size 3 to 8) (size 9 to 14) (size 15 to 20)
#    0.750    0.500    3.750    3.000    0.000    3.000 
#    0.000    1.875    5.500    0.000    0.000    0.000 
#    0.000    0.000    0.000    0.000    0.000    0.000 
#
# Total GULP energy -89179.416855 kJ/mol
# GULP energy per Si atom -5573.713553 kJ/mol
# Density = 2.544176 g / cm^3
# Si number density = 25.499798 Si / 1000 Ang^3
#
#
#
# Elastic Constant Matrix: (Units=GPa)
#
#
# Indices 1 2 3 4 5 6 
#
# 1 109.1966 16.7534 35.3991 -8.2241 15.4550 0.3407
# 2 16.7534 89.3644 57.4798 -23.1997 -3.9285 -1.4657
# 3 35.3991 57.4798 150.9240 -17.2948 -2.4270 9.0302
# 4 -8.2241 -23.1997 -17.2948 61.4341 7.3912 0.1486
# 5 15.4550 -3.9285 -2.4270 7.3912 34.9028 -10.2799
# 6 0.3407 -1.4657 9.0302 0.1486 -10.2799 37.7798
#
#
#
# Elastic Compliance Matrix: (Units=1/GPa)
#
#
# Indices 1 2 3 4 5 6 
#
# 1 0.010857 -0.000537 -0.002215 0.001307 -0.005631 -0.001127
# 2 -0.000537 0.016129 -0.005648 0.004248 0.001456 0.002360
# 3 -0.002215 -0.005648 0.009468 0.000211 0.000254 -0.002394
# 4 0.001307 0.004248 0.000211 0.018646 -0.004377 -0.001162
# 5 -0.005631 0.001456 0.000254 -0.004377 0.035083 0.009610
# 6 -0.001127 0.002360 -0.002394 -0.001162 0.009610 0.029763
#
#
# Mechanical properties :
#
#
# Convention : Reuss Voigt Hill
#
# Bulk Modulus (GPa) = 50.88100 63.19438 57.03769
# Shear Modulus (GPa) = 34.89245 42.81351 38.85298
#
# Velocity S-wave (km/s) = 3.70312 4.10197 3.90764
# Velocity P-wave (km/s) = 6.18716 6.87539 6.54034
#
# Compressibility (1/GPa) = 0.01965370
#
# Stress axis : x y z
#
# Youngs Moduli (GPa) = 92.10417 61.99968 105.61934
#
# Poissons Ratio (x) = 0.03331 0.23398
# Poissons Ratio (y) = 0.04948 0.59652
# Poissons Ratio (z) = 0.20404 0.35016
#
# Static dielectric constant tensor:
#      x y z
#    x 1.908620 -0.075630 -0.294660 
#    y -0.075630 1.977770 -0.116710 
#    z -0.294660 -0.116710 1.822170 
# 
# From -- ./inp_files/421496.got.cif
#   From: 2010.05.17/outbox.cif.g08.bks.cpg/sg2_211_cif.got.tgz:421496.got - 2010.06.03 11:33:40.
