data_PCOD9034657
_publ_section_title
;
Structure prediction by ZEFSAII (Michael W. Deem and Ramdas Pophale) SiO2 
 PCOD9034657
Probable space group: P -1
;
_chemical_formula_sum "Si O2"
_cell_formula_units_Z 16
_cell_length_a 9.535719
_cell_length_b 9.130569
_cell_length_c 11.840002
_cell_angle_alpha 89.248738
_cell_angle_beta 99.148504
_cell_angle_gamma 46.971281
_cell_volume 733.353890
_symmetry_space_group_name_H-M "P -1"
_symmetry_group_IT_number 2
_symmetry_cell_setting 'triclinic'
loop_
_space_group_symop_operation_xyz
x,y,z
-x,-y,-z
loop_
_atom_site_type_symbol
_atom_site_label
_atom_site_fract_x
_atom_site_fract_y
_atom_site_fract_z
Si Si1 0.517892 0.866969 0.099269
Si Si2 0.909105 0.452801 0.399532
Si Si3 0.850407 0.968681 0.493254
Si Si4 0.808987 0.798582 0.268872
Si Si5 0.115947 0.005411 0.112220
Si Si6 0.136610 0.541135 0.977491
Si Si7 0.836453 0.333367 0.786979
Si Si8 0.581120 0.601676 0.531167
O O1 0.585005 0.918659 0.214008
O O2 0.325266 0.914155 0.099101
O O3 0.686051 0.640546 0.075297
O O4 0.500000 0.000000 0.000000
O O5 0.893773 0.573926 0.293763
O O6 0.708168 0.552854 0.437320
O O7 0.000000 0.500000 0.500000
O O8 0.045455 0.215146 0.403352
O O9 0.847121 0.876578 0.378286
O O10 0.620873 0.162993 0.484596
O O11 0.000000 0.000000 0.500000
O O12 0.932953 0.786258 0.187524
O O13 0.162020 0.845312 0.212365
O O14 0.986693 0.245141 0.106735
O O15 0.000000 0.000000 0.000000
O O16 0.227372 0.552835 0.102613
O O17 0.000000 0.500000 0.000000
O O18 0.718584 0.488022 0.663279
O O19 0.500000 0.500000 0.500000
#
# Coordination Sequence:
#
# PCOD9034657 Si02
#       8
#     2   2   2   2   2   2   2   2
#     4  12  24  43  71 101 138 177 225 277 337 404
#     4  10  22  45  66  96 139 171 225 282 327 398
#     4  11  23  44  70  96 134 180 222 279 341 394
#     4  11  24  45  69  99 138 180 225 282 332 400
#     4  10  24  44  66  99 139 174 226 280 331 400
#     4  11  22  45  71  97 136 178 221 278 338 399
#     4  11  23  45  67  98 140 175 224 283 335 395
#     4  12  24  43  68  98 135 177 221 279 338 402
#
# _framework density 21.817571999999998
#
# number of rings (size 3 to 8) (size 9 to 14) (size 15 to 20)
#    0.000    1.000    6.250    0.750    3.500    4.000 
#    6.750    0.000    0.000    0.000    0.000    0.000 
#    0.000    0.000    0.000    0.000    0.000    0.000 
#
# Total GULP energy -89182.512253 kJ/mol
# GULP energy per Si atom -5573.907016 kJ/mol
# Density = 2.176791 g / cm^3
# Si number density = 21.817572 Si / 1000 Ang^3
#
#
#
# Elastic Constant Matrix: (Units=GPa)
#
#
# Indices 1 2 3 4 5 6 
#
# 1 171.4147 51.2993 19.2363 -10.1109 -5.6284 -0.0636
# 2 51.2993 163.3869 19.3522 -13.9857 -12.5775 -1.1282
# 3 19.2363 19.3522 45.7367 -5.5468 8.5887 7.7495
# 4 -10.1109 -13.9857 -5.5468 31.8157 11.1182 -4.4581
# 5 -5.6284 -12.5775 8.5887 11.1182 38.2075 -2.7799
# 6 -0.0636 -1.1282 7.7495 -4.4581 -2.7799 42.4702
#
#
#
# Elastic Compliance Matrix: (Units=1/GPa)
#
#
# Indices 1 2 3 4 5 6 
#
# 1 0.006662 -0.001703 -0.002203 0.000803 0.000719 0.000498
# 2 -0.001703 0.007311 -0.002830 0.001470 0.002438 0.001022
# 3 -0.002203 -0.002830 0.027248 0.005345 -0.009307 -0.005099
# 4 0.000803 0.001470 0.005345 0.037552 -0.011362 0.002263
# 5 0.000719 0.002438 -0.009307 -0.011362 0.032677 0.002710
# 6 0.000498 0.001022 -0.005099 0.002263 0.002710 0.024919
#
#
# Mechanical properties :
#
#
# Convention : Reuss Voigt Hill
#
# Bulk Modulus (GPa) = 36.03787 62.25709 49.14748
# Shear Modulus (GPa) = 31.42849 41.87538 36.65193
#
# Velocity S-wave (km/s) = 3.79953 4.38578 4.10314
# Velocity P-wave (km/s) = 5.98349 7.36505 6.70993
#
# Compressibility (1/GPa) = 0.02774859
#
# Stress axis : x y z
#
# Youngs Moduli (GPa) = 150.10699 136.77988 36.69968
#
# Poissons Ratio (x) = 0.23297 0.08086
# Poissons Ratio (y) = 0.25567 0.10386
# Poissons Ratio (z) = 0.33071 0.38707
#
# Static dielectric constant tensor:
#      x y z
#    x 1.706320 0.053110 -0.009880 
#    y 0.053110 1.763180 -0.119830 
#    z -0.009880 -0.119830 2.078050 
# 
# From -- ./inp_files/381992.got.cif
#   From: 2010.05.17/outbox.cif.g08.bks.cpg/sg2_191_cif.got.tgz:381992.got - 2010.06.03 11:33:40.
