data_PCOD9034880
_publ_section_title
;
Structure prediction by ZEFSAII (Michael W. Deem and Ramdas Pophale) SiO2 
 PCOD9034880
Probable space group: P -1
;
_chemical_formula_sum "Si O2"
_cell_formula_units_Z 12
_cell_length_a 9.870414
_cell_length_b 12.211233
_cell_length_c 5.234842
_cell_angle_alpha 58.125420
_cell_angle_beta 61.735653
_cell_angle_gamma 75.818286
_cell_volume 471.916540
_symmetry_space_group_name_H-M "P -1"
_symmetry_group_IT_number 2
_symmetry_cell_setting 'triclinic'
loop_
_space_group_symop_operation_xyz
x,y,z
-x,-y,-z
loop_
_atom_site_type_symbol
_atom_site_label
_atom_site_fract_x
_atom_site_fract_y
_atom_site_fract_z
Si Si1 0.774265 0.103546 0.489202
Si Si2 0.844068 0.553297 0.961026
Si Si3 0.316822 0.262864 0.461055
Si Si4 0.449973 0.578312 0.693351
Si Si5 0.579505 0.128390 0.152655
Si Si6 0.872646 0.828589 0.856246
O O1 0.706185 0.161218 0.216952
O O2 0.943743 0.159459 0.324681
O O3 0.804753 0.949993 0.615607
O O4 0.660678 0.117820 0.818266
O O5 0.799320 0.621204 0.648268
O O6 0.827471 0.685699 0.977903
O O7 0.731387 0.428158 0.188956
O O8 0.000000 0.500000 0.000000
O O9 0.445019 0.297614 0.516759
O O10 0.436683 0.226691 0.175259
O O11 0.203438 0.157432 0.812376
O O12 0.500000 0.500000 0.500000
O O13 0.500000 0.500000 0.000000
O O14 0.500000 0.000000 0.500000
#
# Coordination Sequence:
#
# PCOD9034880 Si02
#       6
#     2   2   2   2   2   2
#     4  11  28  45  75 114 153 193 241 311 371 451
#     4  11  26  47  72 105 151 195 253 309 377 436
#     4  11  25  45  79 105 152 195 251 311 370 449
#     4  10  22  45  69 101 136 188 245 304 357 427
#     4  12  25  46  75 111 147 194 251 296 378 438
#     4  11  25  47  73 108 153 195 246 304 379 439
#
# _framework density 25.428222999999999
#
# number of rings (size 3 to 8) (size 9 to 14) (size 15 to 20)
#    0.000    1.000    3.333    1.500    7.000    2.000 
#    0.000    0.000    0.000    0.000    0.000    0.000 
#    0.000    0.000    0.000    0.000    0.000    0.000 
#
# Total GULP energy -66882.030129 kJ/mol
# GULP energy per Si atom -5573.502511 kJ/mol
# Density = 2.537035 g / cm^3
# Si number density = 25.428223 Si / 1000 Ang^3
#
#
#
# Elastic Constant Matrix: (Units=GPa)
#
#
# Indices 1 2 3 4 5 6 
#
# 1 225.1660 52.5553 61.6096 4.7466 -9.6858 -12.3538
# 2 52.5553 96.0696 32.2593 13.4831 -1.6779 -3.0579
# 3 61.6096 32.2593 103.2240 16.5075 -5.9818 2.8228
# 4 4.7466 13.4831 16.5075 26.8062 6.5203 12.0336
# 5 -9.6858 -1.6779 -5.9818 6.5203 44.4966 -5.1774
# 6 -12.3538 -3.0579 2.8228 12.0336 -5.1774 52.9341
#
#
#
# Elastic Compliance Matrix: (Units=1/GPa)
#
#
# Indices 1 2 3 4 5 6 
#
# 1 0.005868 -0.002341 -0.002960 0.001250 0.000745 0.001181
# 2 -0.002341 0.013215 -0.001744 -0.006178 0.000869 0.001799
# 3 -0.002960 -0.001744 0.013323 -0.007541 0.002236 0.000431
# 4 0.001250 -0.006178 -0.007541 0.053031 -0.010225 -0.012719
# 5 0.000745 0.000869 0.002236 -0.010225 0.025035 0.004878
# 6 0.001181 0.001799 0.000431 -0.012719 0.004878 0.022617
#
#
# Mechanical properties :
#
#
# Convention : Reuss Voigt Hill
#
# Bulk Modulus (GPa) = 54.59396 79.70091 67.14743
# Shear Modulus (GPa) = 32.61959 43.38308 38.00133
#
# Velocity S-wave (km/s) = 3.58552 4.13498 3.87001
# Velocity P-wave (km/s) = 6.21753 7.36267 6.81420
#
# Compressibility (1/GPa) = 0.01831705
#
# Stress axis : x y z
#
# Youngs Moduli (GPa) = 170.41901 75.67327 75.06005
#
# Poissons Ratio (x) = 0.17715 0.22215
# Poissons Ratio (y) = 0.39895 0.13087
# Poissons Ratio (z) = 0.50437 0.13194
#
# Static dielectric constant tensor:
#      x y z
#    x 1.201680 -0.013300 1.299200 
#    y -0.013300 2.226770 0.028670 
#    z 1.299200 0.028670 0.034970 
# 
# From -- ./inp_files/26394.got.cif
#   From: 2010.05.17/outbox.cif.g08.bks.cpg/sg2_14_cif.got.tgz:26394.got - 2010.06.03 11:33:40.
