data_PCOD9034313
_publ_section_title
;
Structure prediction by ZEFSAII (Michael W. Deem and Ramdas Pophale) SiO2 
 PCOD9034313
Probable space group: P -1
;
_chemical_formula_sum "Si O2"
_cell_formula_units_Z 16
_cell_length_a 15.015065
_cell_length_b 11.642202
_cell_length_c 9.361336
_cell_angle_alpha 113.603597
_cell_angle_beta 56.529713
_cell_angle_gamma 66.345057
_cell_volume 726.938538
_symmetry_space_group_name_H-M "P -1"
_symmetry_group_IT_number 2
_symmetry_cell_setting 'triclinic'
loop_
_space_group_symop_operation_xyz
x,y,z
-x,-y,-z
loop_
_atom_site_type_symbol
_atom_site_label
_atom_site_fract_x
_atom_site_fract_y
_atom_site_fract_z
Si Si1 0.800298 0.393525 0.860287
Si Si2 0.399500 0.884984 0.387400
Si Si3 0.339404 0.436770 0.621786
Si Si4 0.278395 0.993492 0.860345
Si Si5 0.900864 0.220267 0.243935
Si Si6 0.911611 0.689061 0.570481
Si Si7 0.285326 0.732138 0.308684
Si Si8 0.356452 0.146016 0.330356
O O1 0.606397 0.636073 0.097126
O O2 0.785172 0.424517 0.059188
O O3 0.800443 0.244948 0.747443
O O4 0.957995 0.323959 0.609187
O O5 0.272562 0.889249 0.446812
O O6 0.339983 0.988609 0.649499
O O7 0.393533 0.999369 0.334695
O O8 0.243381 0.597368 0.655398
O O9 0.350038 0.281516 0.489016
O O10 0.553969 0.264069 0.382403
O O11 0.250323 0.100481 0.081576
O O12 0.070642 0.148152 0.091321
O O13 0.794513 0.284459 0.511170
O O14 0.000000 0.000000 0.000000
O O15 0.835697 0.693578 0.499677
O O16 0.000000 0.500000 0.500000
O O17 0.500000 0.500000 0.000000
O O18 0.500000 0.000000 0.000000
#
# Coordination Sequence:
#
# PCOD9034313 Si02
#       8
#     2   2   2   2   2   2   2   2
#     4  10  24  44  69 107 141 186 238 301 350 427
#     4  10  24  45  71 103 144 186 239 290 368 419
#     4  11  28  48  70 108 144 188 244 290 366 427
#     4  11  24  46  72 108 140 194 235 296 357 424
#     4  12  25  48  75 104 146 188 240 298 358 424
#     4  12  25  41  69 103 144 189 244 291 355 429
#     4  10  22  44  73 100 142 190 231 299 356 419
#     4  12  26  45  72 101 142 190 235 297 356 427
#
# _framework density 22.010113
#
# number of rings (size 3 to 8) (size 9 to 14) (size 15 to 20)
#    0.000    1.000    3.750    1.500    7.000    2.000 
#    2.250    1.250    0.000    0.000    0.000    0.000 
#    0.000    0.000    0.000    0.000    0.000    0.000 
#
# Total GULP energy -89336.006543 kJ/mol
# GULP energy per Si atom -5583.500409 kJ/mol
# Density = 2.196002 g / cm^3
# Si number density = 22.010113 Si / 1000 Ang^3
#
#
#
# Elastic Constant Matrix: (Units=GPa)
#
#
# Indices 1 2 3 4 5 6 
#
# 1 87.2435 12.5539 28.5439 -18.8130 12.9022 -10.2649
# 2 12.5539 69.4277 29.5975 -0.9470 4.1414 -3.8091
# 3 28.5439 29.5975 108.3026 -28.3659 1.1457 -9.8503
# 4 -18.8130 -0.9470 -28.3659 32.2987 -10.3318 -2.2107
# 5 12.9022 4.1414 1.1457 -10.3318 39.0254 -3.0184
# 6 -10.2649 -3.8091 -9.8503 -2.2107 -3.0184 21.9352
#
#
#
# Elastic Compliance Matrix: (Units=1/GPa)
#
#
# Indices 1 2 3 4 5 6 
#
# 1 0.014711 -0.001730 -0.000777 0.007617 -0.002122 0.006711
# 2 -0.001730 0.017392 -0.006296 -0.007145 -0.003117 -0.001766
# 3 -0.000777 -0.006296 0.015894 0.015524 0.005184 0.007959
# 4 0.007617 -0.007145 0.015524 0.054256 0.013433 0.016612
# 5 -0.002122 -0.003117 0.005184 0.013433 0.030552 0.006352
# 6 0.006711 -0.001766 0.007959 0.016612 0.006352 0.054545
#
#
# Mechanical properties :
#
#
# Convention : Reuss Voigt Hill
#
# Bulk Modulus (GPa) = 32.90473 45.15159 39.02816
# Shear Modulus (GPa) = 23.24653 31.60376 27.42514
#
# Velocity S-wave (km/s) = 3.25341 3.79340 3.53374
# Velocity P-wave (km/s) = 5.39399 6.30437 5.86687
#
# Compressibility (1/GPa) = 0.03039077
#
# Stress axis : x y z
#
# Youngs Moduli (GPa) = 67.97620 57.49782 62.91778
#
# Poissons Ratio (x) = 0.09949 0.04887
# Poissons Ratio (y) = 0.11762 0.39613
# Poissons Ratio (z) = 0.05279 0.36201
#
# Static dielectric constant tensor:
#      x y z
#    x 1.734480 -0.213310 0.118960 
#    y -0.213310 1.668720 0.098800 
#    z 0.118960 0.098800 1.731670 
# 
# From -- ./inp_files/307936.got.cif
#   From: 2010.05.17/outbox.cif.g08.bks.cpg/sg2_154_cif.got.tgz:307936.got - 2010.06.03 11:33:40.
