data_PCOD9034634
_publ_section_title
;
Structure prediction by ZEFSAII (Michael W. Deem and Ramdas Pophale) SiO2 
 PCOD9034634
Probable space group: P -1
;
_chemical_formula_sum "Si O2"
_cell_formula_units_Z 14
_cell_length_a 9.271965
_cell_length_b 12.210560
_cell_length_c 14.921070
_cell_angle_alpha 117.159029
_cell_angle_beta 64.140706
_cell_angle_gamma 156.494117
_cell_volume 598.743302
_symmetry_space_group_name_H-M "P -1"
_symmetry_group_IT_number 2
_symmetry_cell_setting 'triclinic'
loop_
_space_group_symop_operation_xyz
x,y,z
-x,-y,-z
loop_
_atom_site_type_symbol
_atom_site_label
_atom_site_fract_x
_atom_site_fract_y
_atom_site_fract_z
Si Si1 0.232951 0.862775 0.360580
Si Si2 0.927989 0.815254 0.994969
Si Si3 0.189756 0.994232 0.194490
Si Si4 0.377703 0.214032 0.517587
Si Si5 0.745986 0.189015 0.203418
Si Si6 0.231083 0.642715 0.398733
Si Si7 0.439726 0.505794 0.676692
O O1 0.428207 0.130056 0.409219
O O2 0.398521 0.904360 0.248209
O O3 0.302000 0.825933 0.411213
O O4 0.812172 0.599999 0.367689
O O5 0.091786 0.814349 0.893910
O O6 0.500000 0.500000 0.000000
O O7 0.000000 0.000000 0.000000
O O8 0.088551 0.911754 0.087482
O O9 0.547427 0.158622 0.185782
O O10 0.281495 0.200770 0.259330
O O11 0.852048 0.726950 0.252088
O O12 0.410561 0.175895 0.592869
O O13 0.590727 0.486817 0.582286
O O14 0.000000 0.000000 0.500000
O O15 0.037183 0.435688 0.292146
O O16 0.000000 0.500000 0.500000
#
# Coordination Sequence:
#
# PCOD9034634 Si02
#       7
#     2   2   2   2   2   2   2
#     4  10  22  45  66 105 141 194 247 292 350 435
#     4  12  30  50  76 112 145 183 242 309 373 429
#     4  11  24  49  74 104 144 193 243 290 362 436
#     4  10  23  40  63 100 143 188 232 289 352 415
#     4  11  26  47  72 102 142 194 241 300 360 435
#     4  12  24  41  71 102 142 187 250 291 354 432
#     4  10  23  43  73 106 145 189 238 298 356 420
#
# _framework density 23.382307999999998
#
# number of rings (size 3 to 8) (size 9 to 14) (size 15 to 20)
#    0.000    1.143    2.857    1.714    6.000    1.143 
#    0.000    7.857    0.000    0.000    0.000    0.000 
#    0.000    0.000    0.000    0.000    0.000    0.000 
#
# Total GULP energy -78115.396041 kJ/mol
# GULP energy per Si atom -5579.671146 kJ/mol
# Density = 2.332909 g / cm^3
# Si number density = 23.382308 Si / 1000 Ang^3
#
#
#
# Elastic Constant Matrix: (Units=GPa)
#
#
# Indices 1 2 3 4 5 6 
#
# 1 157.4802 49.9873 96.9643 2.4089 5.8089 -9.2669
# 2 49.9873 98.5808 62.4563 6.1926 -12.1679 -20.7794
# 3 96.9643 62.4563 190.4357 12.8654 -7.3222 -1.5693
# 4 2.4089 6.1926 12.8654 37.6138 9.5108 5.2086
# 5 5.8089 -12.1679 -7.3222 9.5108 55.9093 7.0483
# 6 -9.2669 -20.7794 -1.5693 5.2086 7.0483 37.9315
#
#
#
# Elastic Compliance Matrix: (Units=1/GPa)
#
#
# Indices 1 2 3 4 5 6 
#
# 1 0.010048 -0.002404 -0.004540 0.001803 -0.002618 0.001189
# 2 -0.002404 0.015815 -0.003590 -0.003000 0.002745 0.007830
# 3 -0.004540 -0.003590 0.008927 -0.002196 0.001573 -0.002697
# 4 0.001803 -0.003000 -0.002196 0.029742 -0.005641 -0.004330
# 5 -0.002618 0.002745 0.001573 -0.005641 0.020179 -0.002046
# 6 0.001189 0.007830 -0.002697 -0.004330 -0.002046 0.031806
#
#
# Mechanical properties :
#
#
# Convention : Reuss Voigt Hill
#
# Bulk Modulus (GPa) = 72.88100 96.14586 84.51343
# Shear Modulus (GPa) = 35.17205 42.09683 38.63444
#
# Velocity S-wave (km/s) = 3.88263 4.24768 4.06925
# Velocity P-wave (km/s) = 7.16496 8.07870 7.63551
#
# Compressibility (1/GPa) = 0.01372100
#
# Stress axis : x y z
#
# Youngs Moduli (GPa) = 99.52676 63.23045 112.02300
#
# Poissons Ratio (x) = 0.15202 0.50859
# Poissons Ratio (y) = 0.23929 0.40215
# Poissons Ratio (z) = 0.45186 0.22699
#
# Static dielectric constant tensor:
#      x y z
#    x 2.026580 0.044350 0.005200 
#    y 0.044350 1.954810 -0.012640 
#    z 0.005200 -0.012640 1.892170 
# 
# From -- ./inp_files/500555.got.cif
#   From: 2010.05.17/outbox.cif.g08.bks.cpg/sg2_251_cif.got.tgz:500555.got - 2010.06.03 11:33:40.
