data_PCOD9034045
_publ_section_title
;
Structure prediction by ZEFSAII (Michael W. Deem and Ramdas Pophale) SiO2 
 PCOD9034045
Probable space group: P -1
;
_chemical_formula_sum "Si O2"
_cell_formula_units_Z 14
_cell_length_a 7.156526
_cell_length_b 11.598626
_cell_length_c 12.416245
_cell_angle_alpha 37.662350
_cell_angle_beta 108.574567
_cell_angle_gamma 119.005975
_cell_volume 546.600670
_symmetry_space_group_name_H-M "P -1"
_symmetry_group_IT_number 2
_symmetry_cell_setting 'triclinic'
loop_
_space_group_symop_operation_xyz
x,y,z
-x,-y,-z
loop_
_atom_site_type_symbol
_atom_site_label
_atom_site_fract_x
_atom_site_fract_y
_atom_site_fract_z
Si Si1 0.452557 0.812632 0.999510
Si Si2 0.652499 0.821954 0.573421
Si Si3 0.188079 0.713527 0.669641
Si Si4 0.252877 0.736268 0.247159
Si Si5 0.777385 0.682063 0.482768
Si Si6 0.854721 0.790042 0.187285
Si Si7 0.717359 0.518366 0.966055
O O1 0.595365 0.051901 0.823486
O O2 0.298114 0.794643 0.085614
O O3 0.623817 0.720304 0.141260
O O4 0.339223 0.675839 0.979604
O O5 0.405414 0.743207 0.623934
O O6 0.666866 0.747965 0.510827
O O7 0.772184 0.719294 0.752670
O O8 0.755280 0.067949 0.421944
O O9 0.994151 0.686181 0.575510
O O10 0.139235 0.523289 0.884086
O O11 0.324144 0.549312 0.412718
O O12 0.006098 0.668148 0.287427
O O13 0.831547 0.824819 0.282993
O O14 0.000000 0.000000 0.000000
O O15 0.500000 0.500000 0.000000
#
# Coordination Sequence:
#
# PCOD9034045 Si02
#       7
#     2   2   2   2   2   2   2
#     4  10  22  46  64  99 140 176 235 277 341 419
#     4  10  23  45  66 104 137 189 231 277 354 407
#     4  10  25  44  71 101 143 180 228 298 335 412
#     4  10  23  41  68  98 133 185 221 283 346 402
#     4  12  24  44  67 106 136 176 241 278 352 418
#     4  10  25  42  64  97 133 180 221 288 343 401
#     4  10  22  44  71 101 133 188 228 278 348 401
#
# _framework density 25.612846000000001
#
# number of rings (size 3 to 8) (size 9 to 14) (size 15 to 20)
#    0.000    1.714    1.429    0.857    4.000   12.571 
#    5.143    0.000    0.000    0.000    0.000    0.000 
#    0.000    0.000    0.000    0.000    0.000    0.000 
#
# Total GULP energy -78434.146728 kJ/mol
# GULP energy per Si atom -5602.439052 kJ/mol
# Density = 2.555455 g / cm^3
# Si number density = 25.612846 Si / 1000 Ang^3
#
#
#
# Elastic Constant Matrix: (Units=GPa)
#
#
# Indices 1 2 3 4 5 6 
#
# 1 129.5499 58.3520 51.9658 -3.9676 -1.3284 -16.4219
# 2 58.3520 60.6888 34.4244 -4.9704 -1.3163 -21.1894
# 3 51.9658 34.4244 157.5546 12.6861 9.0999 -13.0798
# 4 -3.9676 -4.9704 12.6861 37.2525 -7.3291 12.3100
# 5 -1.3284 -1.3163 9.0999 -7.3291 44.0155 7.6193
# 6 -16.4219 -21.1894 -13.0798 12.3100 7.6193 42.9083
#
#
#
# Elastic Compliance Matrix: (Units=1/GPa)
#
#
# Indices 1 2 3 4 5 6 
#
# 1 0.014298 -0.013153 -0.002227 0.001530 0.001160 -0.002347
# 2 -0.013153 0.034313 -0.002154 -0.000045 -0.000912 0.011429
# 3 -0.002227 -0.002154 0.008331 -0.004816 -0.003098 0.002555
# 4 0.001530 -0.000045 -0.004816 0.034489 0.008927 -0.012385
# 5 0.001160 -0.000912 -0.003098 0.008927 0.026269 -0.008177
# 6 -0.002347 0.011429 0.002555 -0.012385 -0.008177 0.033835
#
#
# Mechanical properties :
#
#
# Convention : Reuss Voigt Hill
#
# Bulk Modulus (GPa) = 45.71655 70.80863 58.26259
# Shear Modulus (GPa) = 25.78712 38.37201 32.07957
#
# Velocity S-wave (km/s) = 3.17646 3.87480 3.54288
# Velocity P-wave (km/s) = 5.59831 6.90829 6.28751
#
# Compressibility (1/GPa) = 0.02187392
#
# Stress axis : x y z
#
# Youngs Moduli (GPa) = 69.93926 29.14356 120.03492
#
# Poissons Ratio (x) = 0.38334 0.26732
# Poissons Ratio (y) = 0.91993 0.25851
# Poissons Ratio (z) = 0.15576 0.06276
#
# Static dielectric constant tensor:
#      x y z
#    x 2.079500 0.023740 0.050920 
#    y 0.023740 1.994250 -0.026540 
#    z 0.050920 -0.026540 2.064980 
# 
# From -- ./inp_files/388892.got.cif
#   From: 2010.05.17/outbox.cif.g08.bks.cpg/sg2_195_cif.got.tgz:388892.got - 2010.06.03 11:33:40.
