data_PCOD9034779
_publ_section_title
;
Structure prediction by ZEFSAII (Michael W. Deem and Ramdas Pophale) SiO2 
 PCOD9034779
Probable space group: P -1
;
_chemical_formula_sum "Si O2"
_cell_formula_units_Z 14
_cell_length_a 9.200201
_cell_length_b 10.549497
_cell_length_c 11.532574
_cell_angle_alpha 141.680476
_cell_angle_beta 107.317029
_cell_angle_gamma 97.364928
_cell_volume 524.474291
_symmetry_space_group_name_H-M "P -1"
_symmetry_group_IT_number 2
_symmetry_cell_setting 'triclinic'
loop_
_space_group_symop_operation_xyz
x,y,z
-x,-y,-z
loop_
_atom_site_type_symbol
_atom_site_label
_atom_site_fract_x
_atom_site_fract_y
_atom_site_fract_z
Si Si1 0.015383 0.723660 0.240194
Si Si2 0.569418 0.794346 0.241853
Si Si3 0.103720 0.545252 0.737730
Si Si4 0.490308 0.259506 0.069556
Si Si5 0.303664 0.106265 0.150291
Si Si6 0.747540 0.468688 0.585444
Si Si7 0.297804 0.506541 0.150367
O O1 0.926408 0.610605 0.264816
O O2 0.873648 0.744040 0.141000
O O3 0.223617 0.992471 0.501080
O O4 0.000000 0.500000 0.000000
O O5 0.404788 0.736906 0.248795
O O6 0.500000 0.500000 0.000000
O O7 0.556844 0.865970 0.159190
O O8 0.285473 0.597707 0.751394
O O9 0.901815 0.433755 0.549247
O O10 0.178528 0.836643 0.992094
O O11 0.343833 0.077604 0.004990
O O12 0.454475 0.471884 0.205421
O O13 0.521834 0.270669 0.364914
O O14 0.217383 0.263418 0.246108
O O15 0.772935 0.455780 0.720824
#
# Coordination Sequence:
#
# PCOD9034779 Si02
#       7
#     2   2   2   2   2   2   2
#     4  12  26  42  71 114 142 181 244 296 359 420
#     4  10  24  46  69 102 147 191 227 289 361 430
#     4  12  24  41  67 103 139 178 236 298 348 418
#     4  10  23  45  66  99 140 190 233 286 353 431
#     4  10  24  46  66  96 140 187 238 286 358 420
#     4  10  23  43  71  97 135 186 237 293 355 424
#     4  10  22  45  68 102 143 183 230 296 359 422
#
# _framework density 26.693396
#
# number of rings (size 3 to 8) (size 9 to 14) (size 15 to 20)
#    0.000    1.429    2.857    0.857    4.000    3.429 
#    2.571    0.000    0.000    0.000    0.000    0.000 
#    0.000    0.000    0.000    0.000    0.000    0.000 
#
# Total GULP energy -78289.793893 kJ/mol
# GULP energy per Si atom -5592.128135 kJ/mol
# Density = 2.663264 g / cm^3
# Si number density = 26.693396 Si / 1000 Ang^3
#
#
#
# Elastic Constant Matrix: (Units=GPa)
#
#
# Indices 1 2 3 4 5 6 
#
# 1 139.9479 18.7210 36.7966 -8.6185 16.4775 -17.2858
# 2 18.7210 91.4773 46.2967 -9.2887 3.0927 9.4728
# 3 36.7966 46.2967 156.9959 -0.2018 31.6650 -0.2811
# 4 -8.6185 -9.2887 -0.2018 40.3329 -6.4012 7.5022
# 5 16.4775 3.0927 31.6650 -6.4012 44.2239 -1.6272
# 6 -17.2858 9.4728 -0.2811 7.5022 -1.6272 46.9483
#
#
#
# Elastic Compliance Matrix: (Units=1/GPa)
#
#
# Indices 1 2 3 4 5 6 
#
# 1 0.008279 -0.001316 -0.001148 0.000561 -0.001974 0.003149
# 2 -0.001316 0.014224 -0.004535 0.004215 0.003207 -0.003944
# 3 -0.001148 -0.004535 0.009219 -0.002355 -0.006171 0.000710
# 4 0.000561 0.004215 -0.002355 0.027575 0.004994 -0.004891
# 5 -0.001974 0.003207 -0.006171 0.004994 0.028219 -0.001231
# 6 0.003149 -0.003944 0.000710 -0.004891 -0.001231 0.023998
#
#
# Mechanical properties :
#
#
# Convention : Reuss Voigt Hill
#
# Bulk Modulus (GPa) = 56.41744 65.78333 61.10038
# Shear Modulus (GPa) = 38.04624 45.40812 41.72718
#
# Velocity S-wave (km/s) = 3.77942 4.12891 3.95802
# Velocity P-wave (km/s) = 6.34244 6.88681 6.62022
#
# Compressibility (1/GPa) = 0.01772502
#
# Stress axis : x y z
#
# Youngs Moduli (GPa) = 120.78383 70.30464 108.47491
#
# Poissons Ratio (x) = 0.09250 0.12454
# Poissons Ratio (y) = 0.15891 0.49190
# Poissons Ratio (z) = 0.13867 0.31881
#
# Static dielectric constant tensor:
#      x y z
#    x 2.287990 -0.013260 -0.015300 
#    y -0.013260 2.159760 -0.014940 
#    z -0.015300 -0.014940 2.108950 
# 
# From -- ./inp_files/429103.got.cif
#   From: 2010.05.17/outbox.cif.g08.bks.cpg/sg2_215_cif.got.tgz:429103.got - 2010.06.03 11:33:40.
