data_PCOD9034454
_publ_section_title
;
Structure prediction by ZEFSAII (Michael W. Deem and Ramdas Pophale) SiO2 
 PCOD9034454
Probable space group: P -1
;
_chemical_formula_sum "Si O2"
_cell_formula_units_Z 16
_cell_length_a 15.402656
_cell_length_b 5.654310
_cell_length_c 9.394218
_cell_angle_alpha 77.862115
_cell_angle_beta 81.119795
_cell_angle_gamma 121.966846
_cell_volume 642.809699
_symmetry_space_group_name_H-M "P -1"
_symmetry_group_IT_number 2
_symmetry_cell_setting 'triclinic'
loop_
_space_group_symop_operation_xyz
x,y,z
-x,-y,-z
loop_
_atom_site_type_symbol
_atom_site_label
_atom_site_fract_x
_atom_site_fract_y
_atom_site_fract_z
Si Si1 0.380656 0.886829 0.093559
Si Si2 0.990336 0.291271 0.155098
Si Si3 0.235632 0.872493 0.707786
Si Si4 0.709970 0.320184 0.547594
Si Si5 0.346724 0.268790 0.885845
Si Si6 0.813795 0.622677 0.004321
Si Si7 0.945585 0.646020 0.567153
Si Si8 0.448583 0.649500 0.573734
O O1 0.358087 0.803739 0.274586
O O2 0.279392 0.615379 0.057338
O O3 0.500000 0.000000 0.000000
O O4 0.380611 0.170859 0.023203
O O5 0.061630 0.175004 0.101681
O O6 0.060545 0.456734 0.256428
O O7 0.866942 0.110449 0.263365
O O8 0.000000 0.500000 0.000000
O O9 0.287340 0.896178 0.539405
O O10 0.326502 0.077100 0.774960
O O11 0.190818 0.551966 0.831270
O O12 0.831544 0.515591 0.543406
O O13 0.667822 0.485925 0.452468
O O14 0.431676 0.587933 0.755459
O O15 0.231208 0.193762 0.960947
O O16 0.000000 0.500000 0.500000
O O17 0.000000 0.000000 0.500000
O O18 0.500000 0.500000 0.500000
O O19 0.500000 0.000000 0.500000
#
# Coordination Sequence:
#
# PCOD9034454 Si02
#       8
#     2   2   2   2   2   2   2   2
#     4  11  26  47  71 104 150 196 251 323 400 454
#     4  10  22  46  73 106 152 201 253 300 387 470
#     4  10  22  44  75 105 147 197 255 309 380 458
#     4  12  25  49  78 113 157 198 263 330 390 462
#     4  11  25  46  73 103 150 197 258 317 382 474
#     4  10  22  45  67 105 147 194 255 309 381 465
#     4  12  28  49  75 115 162 202 255 324 397 467
#     4  12  28  49  79 111 147 205 267 322 385 461
#
# _framework density 24.890723999999999
#
# number of rings (size 3 to 8) (size 9 to 14) (size 15 to 20)
#    0.000    1.000    3.750    1.500    5.250    3.000 
#    4.500    0.000    0.000    0.000    0.000    0.000 
#    0.000    0.000    0.000    0.000    0.000    0.000 
#
# Total GULP energy -89298.989806 kJ/mol
# GULP energy per Si atom -5581.186863 kJ/mol
# Density = 2.483407 g / cm^3
# Si number density = 24.890724 Si / 1000 Ang^3
#
#
#
# Elastic Constant Matrix: (Units=GPa)
#
#
# Indices 1 2 3 4 5 6 
#
# 1 170.2959 27.5434 15.3681 2.1483 -28.4152 -16.6132
# 2 27.5434 75.5998 17.1494 11.3261 -7.6733 3.8144
# 3 15.3681 17.1494 107.1199 16.8384 -12.1438 -14.8441
# 4 2.1483 11.3261 16.8384 30.8952 -4.6699 9.6514
# 5 -28.4152 -7.6733 -12.1438 -4.6699 58.3670 7.4446
# 6 -16.6132 3.8144 -14.8441 9.6514 7.4446 37.6725
#
#
#
# Elastic Compliance Matrix: (Units=1/GPa)
#
#
# Indices 1 2 3 4 5 6 
#
# 1 0.006991 -0.002419 0.000115 -0.000146 0.002731 0.002870
# 2 -0.002419 0.015232 -0.001824 -0.003565 0.000480 -0.002509
# 3 0.000115 -0.001824 0.011861 -0.007790 0.000800 0.006747
# 4 -0.000146 -0.003565 -0.007790 0.042890 0.003105 -0.014375
# 5 0.002731 0.000480 0.000800 0.003105 0.019342 -0.003147
# 6 0.002870 -0.002509 0.006747 -0.014375 -0.003147 0.035027
#
#
# Mechanical properties :
#
#
# Convention : Reuss Voigt Hill
#
# Bulk Modulus (GPa) = 38.71954 52.57084 45.64519
# Shear Modulus (GPa) = 33.73607 44.91724 39.32665
#
# Velocity S-wave (km/s) = 3.68552 4.25264 3.97920
# Velocity P-wave (km/s) = 5.80520 6.72902 6.28411
#
# Compressibility (1/GPa) = 0.02582675
#
# Stress axis : x y z
#
# Youngs Moduli (GPa) = 143.04941 65.65099 84.30872
#
# Poissons Ratio (x) = 0.15879 -0.00966
# Poissons Ratio (y) = 0.34599 0.15382
# Poissons Ratio (z) = -0.01640 0.11978
#
# Static dielectric constant tensor:
#      x y z
#    x 2.058750 0.128510 -0.157890 
#    y 0.128510 2.254150 -0.140300 
#    z -0.157890 -0.140300 2.195720 
# 
# From -- ./inp_files/288636.got.cif
#   From: 2010.05.17/outbox.cif.g08.bks.cpg/sg2_145_cif.got.tgz:288636.got - 2010.06.03 11:33:40.
