data_PCOD9034179
_publ_section_title
;
Structure prediction by ZEFSAII (Michael W. Deem and Ramdas Pophale) SiO2 
 PCOD9034179
Probable space group: P -1
;
_chemical_formula_sum "Si O2"
_cell_formula_units_Z 16
_cell_length_a 11.842175
_cell_length_b 6.590966
_cell_length_c 19.165445
_cell_angle_alpha 59.222559
_cell_angle_beta 37.284681
_cell_angle_gamma 48.759421
_cell_volume 681.126545
_symmetry_space_group_name_H-M "P -1"
_symmetry_group_IT_number 2
_symmetry_cell_setting 'triclinic'
loop_
_space_group_symop_operation_xyz
x,y,z
-x,-y,-z
loop_
_atom_site_type_symbol
_atom_site_label
_atom_site_fract_x
_atom_site_fract_y
_atom_site_fract_z
Si Si1 0.290193 0.977692 0.119807
Si Si2 0.598578 0.014810 0.782603
Si Si3 0.480501 0.749173 0.586626
Si Si4 0.158360 0.274234 0.513747
Si Si5 0.872004 0.885022 0.197334
Si Si6 0.885094 0.802726 0.973259
Si Si7 0.142392 0.591173 0.241360
Si Si8 0.514805 0.759194 0.346629
O O1 0.280207 0.973676 0.209444
O O2 0.113490 0.182713 0.115547
O O3 0.312529 0.695056 0.133500
O O4 0.500000 0.000000 0.000000
O O5 0.742456 0.713174 0.737643
O O6 0.556123 0.211164 0.704427
O O7 0.364627 0.063379 0.909738
O O8 0.709856 0.598367 0.536440
O O9 0.297242 0.880265 0.710736
O O10 0.443399 0.535319 0.599072
O O11 0.500000 0.000000 0.500000
O O12 0.000000 0.500000 0.500000
O O13 0.028489 0.228737 0.647880
O O14 0.327153 0.000015 0.440604
O O15 0.012350 0.019136 0.077547
O O16 0.723262 0.800893 0.241038
O O17 0.024826 0.640592 0.216420
O O18 0.000000 0.500000 0.000000
#
# Coordination Sequence:
#
# PCOD9034179 Si02
#       8
#     2   2   2   2   2   2   2   2
#     4   9  23  42  66  97 134 177 220 281 334 405
#     4  11  24  42  69 103 134 183 223 282 346 413
#     4  11  24  46  66  96 138 179 235 286 342 412
#     4  11  24  44  67 102 138 178 227 290 339 411
#     4  10  24  44  65 101 137 180 231 289 340 411
#     4  10  22  44  72 100 140 181 230 285 343 408
#     4  11  23  44  67  98 140 177 230 282 343 404
#     4  11  26  42  72 103 136 184 234 283 349 410
#
# _framework density 23.490496
#
# number of rings (size 3 to 8) (size 9 to 14) (size 15 to 20)
#    0.000    1.500    2.500    0.750    1.750   13.500 
#    0.000    1.250    0.000    0.000    0.000    0.000 
#    0.000    0.000    0.000    0.000    0.000    0.000 
#
# Total GULP energy -89312.754747 kJ/mol
# GULP energy per Si atom -5582.047172 kJ/mol
# Density = 2.343703 g / cm^3
# Si number density = 23.490496 Si / 1000 Ang^3
#
#
#
# Elastic Constant Matrix: (Units=GPa)
#
#
# Indices 1 2 3 4 5 6 
#
# 1 146.8649 48.9244 39.3300 -25.9223 -1.4936 -3.6653
# 2 48.9244 95.1358 25.2307 -22.4994 -11.7635 1.0222
# 3 39.3300 25.2307 63.4256 -8.6961 -9.0853 9.4951
# 4 -25.9223 -22.4994 -8.6961 35.9839 1.0472 0.6659
# 5 -1.4936 -11.7635 -9.0853 1.0472 46.2833 -3.9614
# 6 -3.6653 1.0222 9.4951 0.6659 -3.9614 30.8728
#
#
#
# Elastic Compliance Matrix: (Units=1/GPa)
#
#
# Indices 1 2 3 4 5 6 
#
# 1 0.009903 -0.003009 -0.004955 0.004046 -0.001291 0.002546
# 2 -0.003009 0.014612 -0.002704 0.006225 0.002965 0.000237
# 3 -0.004955 -0.002704 0.021304 -0.000069 0.002763 -0.006695
# 4 0.004046 0.006225 -0.000069 0.034560 0.000888 -0.000336
# 5 -0.001291 0.002965 0.002763 0.000888 0.022997 0.001830
# 6 0.002546 0.000237 -0.006695 -0.000336 0.001830 0.034987
#
#
# Mechanical properties :
#
#
# Convention : Reuss Voigt Hill
#
# Bulk Modulus (GPa) = 40.84652 59.15515 50.00084
# Shear Modulus (GPa) = 29.78686 35.42410 32.60548
#
# Velocity S-wave (km/s) = 3.56482 3.88753 3.72967
# Velocity P-wave (km/s) = 5.86261 6.73705 6.31498
#
# Compressibility (1/GPa) = 0.02448189
#
# Stress axis : x y z
#
# Youngs Moduli (GPa) = 100.98220 68.43726 46.94030
#
# Poissons Ratio (x) = 0.20590 0.23261
# Poissons Ratio (y) = 0.30382 0.12694
# Poissons Ratio (z) = 0.50040 0.18507
#
# Static dielectric constant tensor:
#      x y z
#    x 1.963890 -0.004190 0.037450 
#    y -0.004190 1.873760 -0.010640 
#    z 0.037450 -0.010640 1.929780 
# 
# From -- ./inp_files/592683.got.cif
#   From: 2010.05.17/outbox.cif.g08.bks.cpg/sg2_297_cif.got.tgz:592683.got - 2010.06.03 11:33:40.
