data_PCOD9034212
_publ_section_title
;
Structure prediction by ZEFSAII (Michael W. Deem and Ramdas Pophale) SiO2 
 PCOD9034212
Probable space group: P -1
;
_chemical_formula_sum "Si O2"
_cell_formula_units_Z 16
_cell_length_a 8.744404
_cell_length_b 15.851780
_cell_length_c 10.206622
_cell_angle_alpha 35.302862
_cell_angle_beta 125.649109
_cell_angle_gamma 110.653107
_cell_volume 641.214537
_symmetry_space_group_name_H-M "P -1"
_symmetry_group_IT_number 2
_symmetry_cell_setting 'triclinic'
loop_
_space_group_symop_operation_xyz
x,y,z
-x,-y,-z
loop_
_atom_site_type_symbol
_atom_site_label
_atom_site_fract_x
_atom_site_fract_y
_atom_site_fract_z
Si Si1 0.501558 0.286559 0.429338
Si Si2 0.226935 0.516760 0.679081
Si Si3 0.503636 0.230695 0.812319
Si Si4 0.752898 0.980053 0.962251
Si Si5 0.884098 0.560680 0.662321
Si Si6 0.904527 0.759695 0.080742
Si Si7 0.078217 0.271369 0.264967
Si Si8 0.080742 0.948491 0.765466
O O1 0.578413 0.433420 0.256659
O O2 0.509300 0.259658 0.623643
O O3 0.283480 0.284188 0.288521
O O4 0.660100 0.139296 0.642951
O O5 0.248709 0.341547 0.880000
O O6 0.063684 0.552189 0.666356
O O7 0.111349 0.632207 0.362409
O O8 0.419962 0.088568 0.986022
O O9 0.330920 0.374880 0.588592
O O10 0.727081 0.173317 0.037033
O O11 0.867735 0.861448 0.063749
O O12 0.864067 0.005792 0.116331
O O13 0.907889 0.672847 0.649137
O O14 0.912949 0.399745 0.949639
O O15 0.917073 0.863246 0.830759
O O16 0.049010 0.104173 0.472363
#
# Coordination Sequence:
#
# PCOD9034212 Si02
#       8
#     2   2   2   2   2   2   2   2
#     4  10  19  33  59  84 112 142 185 245 280 326
#     4  11  22  37  50  83 124 151 180 229 289 343
#     4  10  17  32  56  86 114 137 180 244 282 315
#     4  11  17  32  57  86 110 143 189 236 279 323
#     4  10  21  35  56  84 118 146 182 237 283 342
#     4  11  23  33  54  85 118 155 183 226 289 340
#     4  10  20  36  60  88 108 143 195 235 285 326
#     4  11  18  34  60  87 112 141 191 244 273 329
#
# _framework density 24.952646000000001
#
# number of rings (size 3 to 8) (size 9 to 14) (size 15 to 20)
#    0.000    1.500    7.500    1.125    1.750    0.500 
#    0.000    4.375    0.000    0.750    0.000    0.000 
#    0.000    0.000    0.000    0.000    0.000    0.000 
#
# Total GULP energy -89447.077583 kJ/mol
# GULP energy per Si atom -5590.442349 kJ/mol
# Density = 2.489585 g / cm^3
# Si number density = 24.952646 Si / 1000 Ang^3
#
#
#
# Elastic Constant Matrix: (Units=GPa)
#
#
# Indices 1 2 3 4 5 6 
#
# 1 111.4501 47.6662 37.2984 -11.8718 -17.3645 12.3810
# 2 47.6662 97.5170 37.1526 -23.8374 -4.8775 30.2394
# 3 37.2984 37.1526 139.8323 -10.4769 -11.5881 16.0664
# 4 -11.8718 -23.8374 -10.4769 33.9101 -0.3153 -10.9711
# 5 -17.3645 -4.8775 -11.5881 -0.3153 36.6614 -9.0012
# 6 12.3810 30.2394 16.0664 -10.9711 -9.0012 32.9374
#
#
#
# Elastic Compliance Matrix: (Units=1/GPa)
#
#
# Indices 1 2 3 4 5 6 
#
# 1 0.012739 -0.006226 -0.001628 0.000762 0.005555 0.003493
# 2 -0.006226 0.019671 -0.001840 0.006579 -0.004242 -0.013790
# 3 -0.001628 -0.001840 0.008357 0.000305 0.001305 -0.001317
# 4 0.000762 0.006579 0.000305 0.036650 0.003275 0.006628
# 5 0.005555 -0.004242 0.001305 0.003275 0.032521 0.011149
# 6 0.003493 -0.013790 -0.001317 0.006628 0.011149 0.047605
#
#
# Mechanical properties :
#
#
# Convention : Reuss Voigt Hill
#
# Bulk Modulus (GPa) = 46.77339 65.89264 56.33302
# Shear Modulus (GPa) = 27.16579 35.81394 31.48986
#
# Velocity S-wave (km/s) = 3.30312 3.79261 3.55630
# Velocity P-wave (km/s) = 5.77347 6.75596 6.28395
#
# Compressibility (1/GPa) = 0.02137968
#
# Stress axis : x y z
#
# Youngs Moduli (GPa) = 78.50160 50.83680 119.66349
#
# Poissons Ratio (x) = 0.31648 0.19477
# Poissons Ratio (y) = 0.48871 0.22019
# Poissons Ratio (z) = 0.12777 0.09354
#
# Static dielectric constant tensor:
#      x y z
#    x 1.982030 -0.020940 0.007040 
#    y -0.020940 2.080080 0.001100 
#    z 0.007040 0.001100 2.010730 
# 
# From -- ./inp_files/389066.got.cif
#   From: 2010.05.17/outbox.cif.g08.bks.cpg/sg2_195_cif.got.tgz:389066.got - 2010.06.03 11:33:40.
