data_PCOD9034978
_publ_section_title
;
Structure prediction by ZEFSAII (Michael W. Deem and Ramdas Pophale) SiO2 
 PCOD9034978
Probable space group: P -1
;
_chemical_formula_sum "Si O2"
_cell_formula_units_Z 10
_cell_length_a 5.383207
_cell_length_b 9.513981
_cell_length_c 14.062762
_cell_angle_alpha 142.218776
_cell_angle_beta 100.779583
_cell_angle_gamma 90.532074
_cell_volume 418.434190
_symmetry_space_group_name_H-M "P -1"
_symmetry_group_IT_number 2
_symmetry_cell_setting 'triclinic'
loop_
_space_group_symop_operation_xyz
x,y,z
-x,-y,-z
loop_
_atom_site_type_symbol
_atom_site_label
_atom_site_fract_x
_atom_site_fract_y
_atom_site_fract_z
Si Si1 0.492522 0.620725 0.314902
Si Si2 0.721072 0.350650 0.943148
Si Si3 0.317016 0.014538 0.612733
Si Si4 0.002478 0.256251 0.097232
Si Si5 0.929980 0.594574 0.446645
O O1 0.337333 0.815764 0.431388
O O2 0.627159 0.581217 0.401353
O O3 0.287662 0.383373 0.141279
O O4 0.710369 0.757348 0.327850
O O5 0.789235 0.266891 0.007443
O O6 0.500000 0.500000 0.000000
O O7 0.000000 0.500000 0.000000
O O8 0.583577 0.120776 0.746965
O O9 0.094057 0.867333 0.587277
O O10 0.977033 0.418656 0.272732
O O11 0.000000 0.000000 0.000000
O O12 0.000000 0.500000 0.500000
#
# Coordination Sequence:
#
# PCOD9034978 Si02
#       5
#     2   2   2   2   2
#     4  10  22  45  69  98 138 185 247 292 368 435
#     4  12  27  47  76 112 149 194 251 310 377 443
#     4  10  23  42  71  98 136 186 245 300 356 440
#     4  11  27  45  70 107 149 188 242 314 376 440
#     4  11  26  43  69  99 143 197 243 297 370 446
#
# _framework density 23.898620999999999
#
# number of rings (size 3 to 8) (size 9 to 14) (size 15 to 20)
#    0.000    1.200    2.000    1.800    8.400    2.400 
#    0.000    0.000    0.000    0.000    0.000    0.000 
#    0.000    0.000    0.000    0.000    0.000    0.000 
#
# Total GULP energy -55856.991685 kJ/mol
# GULP energy per Si atom -5585.699169 kJ/mol
# Density = 2.384423 g / cm^3
# Si number density = 23.898621 Si / 1000 Ang^3
#
#
#
# Elastic Constant Matrix: (Units=GPa)
#
#
# Indices 1 2 3 4 5 6 
#
# 1 90.7694 47.8222 33.2179 9.3691 20.6196 -15.4724
# 2 47.8222 207.5574 72.9640 -15.0322 16.8961 -33.6703
# 3 33.2179 72.9640 134.6170 5.3180 23.0714 -8.5643
# 4 9.3691 -15.0322 5.3180 57.3792 -4.5543 4.6362
# 5 20.6196 16.8961 23.0714 -4.5543 40.5203 -6.8218
# 6 -15.4724 -33.6703 -8.5643 4.6362 -6.8218 30.6707
#
#
#
# Elastic Compliance Matrix: (Units=1/GPa)
#
#
# Indices 1 2 3 4 5 6 
#
# 1 0.014978 -0.002192 -0.001105 -0.003710 -0.005804 0.004111
# 2 -0.002192 0.007626 -0.003497 0.002275 0.001230 0.006219
# 3 -0.001105 -0.003497 0.010286 -0.001860 -0.004420 -0.002227
# 4 -0.003710 0.002275 -0.001860 0.019264 0.003835 -0.001953
# 5 -0.005804 0.001230 -0.004420 0.003835 0.030644 0.003424
# 6 0.004111 0.006219 -0.002227 -0.001953 0.003424 0.041941
#
#
# Mechanical properties :
#
#
# Convention : Reuss Voigt Hill
#
# Bulk Modulus (GPa) = 51.80971 82.32801 67.06886
# Shear Modulus (GPa) = 34.53940 44.31000 39.42470
#
# Velocity S-wave (km/s) = 3.80576 4.31058 4.06601
# Velocity P-wave (km/s) = 6.40608 7.70055 7.08294
#
# Compressibility (1/GPa) = 0.01930140
#
# Stress axis : x y z
#
# Youngs Moduli (GPa) = 66.76294 131.13044 97.21779
#
# Poissons Ratio (x) = 0.28743 0.10744
# Poissons Ratio (y) = 0.14634 0.34002
# Poissons Ratio (z) = 0.07379 0.45862
#
# Static dielectric constant tensor:
#      x y z
#    x 2.081770 0.072220 -0.040570 
#    y 0.072220 1.928250 -0.020280 
#    z -0.040570 -0.020280 1.926400 
# 
# From -- ./inp_files/15292.got.cif
#   From: 2010.05.17/outbox.cif.g08.bks.cpg/sg2_8_cif.got.tgz:15292.got - 2010.06.03 11:33:40.
