data_PCOD9034461
_publ_section_title
;
Structure prediction by ZEFSAII (Michael W. Deem and Ramdas Pophale) SiO2 
 PCOD9034461
Probable space group: P -1
;
_chemical_formula_sum "Si O2"
_cell_formula_units_Z 12
_cell_length_a 5.282424
_cell_length_b 11.800569
_cell_length_c 17.454669
_cell_angle_alpha 28.170117
_cell_angle_beta 117.417495
_cell_angle_gamma 106.821457
_cell_volume 437.975306
_symmetry_space_group_name_H-M "P -1"
_symmetry_group_IT_number 2
_symmetry_cell_setting 'triclinic'
loop_
_space_group_symop_operation_xyz
x,y,z
-x,-y,-z
loop_
_atom_site_type_symbol
_atom_site_label
_atom_site_fract_x
_atom_site_fract_y
_atom_site_fract_z
Si Si1 0.918987 0.443095 0.920700
Si Si2 0.187711 0.479318 0.614610
Si Si3 0.674505 0.017991 0.907516
Si Si4 0.044781 0.530045 0.729109
Si Si5 0.355753 0.739869 0.755844
Si Si6 0.352682 0.932284 0.304509
O O1 0.831609 0.479270 0.796575
O O2 0.200097 0.559749 0.887309
O O3 0.674865 0.607444 0.843126
O O4 0.042720 0.154968 0.131601
O O5 0.419878 0.206218 0.808391
O O6 0.983869 0.532221 0.629997
O O7 0.337971 0.700917 0.491519
O O8 0.000000 0.500000 0.500000
O O9 0.625016 0.120425 0.752027
O O10 0.680178 0.727604 0.073162
O O11 0.000000 0.000000 0.000000
O O12 0.156607 0.761664 0.636859
O O13 0.402139 0.953809 0.689966
#
# Coordination Sequence:
#
# PCOD9034461 Si02
#       6
#     2   2   2   2   2   2
#     4   9  22  41  73 106 141 189 246 288 371 447
#     4  12  27  44  68 110 151 192 243 308 371 424
#     4  11  25  46  72 100 143 205 248 291 358 452
#     4   9  24  43  75  98 145 191 248 295 360 453
#     4  10  22  44  75 109 136 194 247 298 372 436
#     4  11  24  42  73 106 149 180 245 315 363 427
#
# _framework density 27.398804999999999
#
# number of rings (size 3 to 8) (size 9 to 14) (size 15 to 20)
#    1.000    0.667    0.000    3.000    7.000    2.000 
#    0.000    0.833    0.000    0.000    0.000    0.000 
#    0.000    0.000    0.000    0.000    0.000    0.000 
#
# Total GULP energy -67154.699498 kJ/mol
# GULP energy per Si atom -5596.224958 kJ/mol
# Density = 2.733644 g / cm^3
# Si number density = 27.398805 Si / 1000 Ang^3
#
#
#
# Elastic Constant Matrix: (Units=GPa)
#
#
# Indices 1 2 3 4 5 6 
#
# 1 109.3504 44.0535 45.6682 -4.1623 11.0893 -25.6523
# 2 44.0535 203.4132 66.8366 21.6198 -0.2865 -14.2045
# 3 45.6682 66.8366 121.2709 3.7221 -0.5072 1.0879
# 4 -4.1623 21.6198 3.7221 69.2127 -0.0539 -6.6623
# 5 11.0893 -0.2865 -0.5072 -0.0539 42.7301 3.2227
# 6 -25.6523 -14.2045 1.0879 -6.6623 3.2227 55.6471
#
#
#
# Elastic Compliance Matrix: (Units=1/GPa)
#
#
# Indices 1 2 3 4 5 6 
#
# 1 0.013564 -0.001201 -0.004585 0.002062 -0.004072 0.006519
# 2 -0.001201 0.006436 -0.003046 -0.001830 0.000247 0.000915
# 3 -0.004585 -0.003046 0.011695 -0.000264 0.001552 -0.003241
# 4 0.002062 -0.001830 -0.000264 0.015386 -0.000710 0.002371
# 5 -0.004072 0.000247 0.001552 -0.000710 0.024732 -0.003361
# 6 0.006519 0.000915 -0.003241 0.002371 -0.003361 0.021751
#
#
# Mechanical properties :
#
#
# Convention : Reuss Voigt Hill
#
# Bulk Modulus (GPa) = 71.26709 83.01681 77.14195
# Shear Modulus (GPa) = 43.13923 52.01639 47.57781
#
# Velocity S-wave (km/s) = 3.97229 4.36189 4.17164
# Velocity P-wave (km/s) = 6.86340 7.46548 7.17076
#
# Compressibility (1/GPa) = 0.01403172
#
# Stress axis : x y z
#
# Youngs Moduli (GPa) = 73.72435 155.38252 85.50724
#
# Poissons Ratio (x) = 0.18657 0.39205
# Poissons Ratio (y) = 0.08852 0.26044
# Poissons Ratio (z) = 0.33802 0.47326
#
# Static dielectric constant tensor:
#      x y z
#    x 2.172670 0.135650 0.010840 
#    y 0.135650 2.239320 0.058830 
#    z 0.010840 0.058830 2.195870 
# 
# From -- ./inp_files/548997.got.cif
#   From: 2010.05.17/outbox.cif.g08.bks.cpg/sg2_275_cif.got.tgz:548997.got - 2010.06.03 11:33:40.
