data_PCOD9034118
_publ_section_title
;
Structure prediction by ZEFSAII (Michael W. Deem and Ramdas Pophale) SiO2 
 PCOD9034118
Probable space group: P -1
;
_chemical_formula_sum "Si O2"
_cell_formula_units_Z 14
_cell_length_a 13.044500
_cell_length_b 7.102928
_cell_length_c 19.050033
_cell_angle_alpha 110.744316
_cell_angle_beta 22.833907
_cell_angle_gamma 98.162418
_cell_volume 551.629226
_symmetry_space_group_name_H-M "P -1"
_symmetry_group_IT_number 2
_symmetry_cell_setting 'triclinic'
loop_
_space_group_symop_operation_xyz
x,y,z
-x,-y,-z
loop_
_atom_site_type_symbol
_atom_site_label
_atom_site_fract_x
_atom_site_fract_y
_atom_site_fract_z
Si Si1 0.636212 0.009615 0.319148
Si Si2 0.786814 0.276420 0.591916
Si Si3 0.224609 0.165884 0.093082
Si Si4 0.455056 0.027341 0.276942
Si Si5 0.468710 0.671722 0.457924
Si Si6 0.661235 0.689494 0.821231
Si Si7 0.330165 0.643493 0.831327
O O1 0.475885 0.879896 0.438372
O O2 0.603118 0.005040 0.256548
O O3 0.496365 0.265477 0.476096
O O4 0.997581 0.854908 0.089435
O O5 0.726506 0.443853 0.718211
O O6 0.476563 0.420926 0.760149
O O7 0.182799 0.973365 0.448780
O O8 0.076610 0.258826 0.366913
O O9 0.336967 0.289531 0.093594
O O10 0.861187 0.298297 0.339495
O O11 0.344306 0.141843 0.935319
O O12 0.356434 0.905390 0.008119
O O13 0.420868 0.273006 0.308898
O O14 0.698222 0.440875 0.239540
#
# Coordination Sequence:
#
# PCOD9034118 Si02
#       7
#     2   2   2   2   2   2   2
#     4  11  24  44  70 100 138 181 225 267 339 403
#     4  11  23  44  70  97 130 181 229 268 347 396
#     4  11  22  42  67 100 138 169 230 282 328 400
#     4  12  25  42  68 102 137 173 226 283 324 408
#     4  11  23  43  70  99 136 181 222 270 336 405
#     4  10  22  44  71  92 134 184 215 285 344 388
#     4  12  23  45  70  98 141 178 215 285 328 402
#
# _framework density 25.379366000000001
#
# number of rings (size 3 to 8) (size 9 to 14) (size 15 to 20)
#    0.000    0.857    5.714    0.857    0.000    1.714 
#    0.000    2.857    0.000    0.000    0.000    0.000 
#    0.000    0.000    0.000    0.000    0.000    0.000 
#
# Total GULP energy -78357.368218 kJ/mol
# GULP energy per Si atom -5596.954873 kJ/mol
# Density = 2.532160 g / cm^3
# Si number density = 25.379366 Si / 1000 Ang^3
#
#
#
# Elastic Constant Matrix: (Units=GPa)
#
#
# Indices 1 2 3 4 5 6 
#
# 1 182.5537 25.4221 37.9355 2.8747 37.2559 11.3220
# 2 25.4221 75.6050 13.6959 3.5255 2.3198 21.4159
# 3 37.9355 13.6959 73.8367 8.5264 12.0277 -0.0506
# 4 2.8747 3.5255 8.5264 25.9118 4.8272 7.7407
# 5 37.2559 2.3198 12.0277 4.8272 50.9051 10.7191
# 6 11.3220 21.4159 -0.0506 7.7407 10.7191 40.5039
#
#
#
# Elastic Compliance Matrix: (Units=1/GPa)
#
#
# Indices 1 2 3 4 5 6 
#
# 1 0.007245 -0.001833 -0.002765 0.001244 -0.004671 -0.000061
# 2 -0.001833 0.016888 -0.002832 0.001079 0.003129 -0.009455
# 3 -0.002765 -0.002832 0.016459 -0.005505 -0.002031 0.003880
# 4 0.001244 0.001079 -0.005505 0.043060 -0.001922 -0.008646
# 5 -0.004671 0.003129 -0.002031 -0.001922 0.024970 -0.006592
# 6 -0.000061 -0.009455 0.003880 -0.008646 -0.006592 0.033107
#
#
# Mechanical properties :
#
#
# Convention : Reuss Voigt Hill
#
# Bulk Modulus (GPa) = 38.86201 54.01138 46.43669
# Shear Modulus (GPa) = 30.27279 40.46028 35.36653
#
# Velocity S-wave (km/s) = 3.45746 3.99710 3.73703
# Velocity P-wave (km/s) = 5.59324 6.52918 6.07925
#
# Compressibility (1/GPa) = 0.02573207
#
# Stress axis : x y z
#
# Youngs Moduli (GPa) = 138.02470 59.21490 60.75868
#
# Poissons Ratio (x) = 0.10851 0.16802
# Poissons Ratio (y) = 0.25293 0.17206
# Poissons Ratio (z) = 0.38168 0.16768
#
# Static dielectric constant tensor:
#      x y z
#    x 2.035250 -0.017240 0.036300 
#    y -0.017240 1.991020 -0.021700 
#    z 0.036300 -0.021700 1.948650 
# 
# From -- ./inp_files/398388.got.cif
#   From: 2010.05.17/outbox.cif.g08.bks.cpg/sg2_200_cif.got.tgz:398388.got - 2010.06.03 11:33:40.
