data_PCOD9034420
_publ_section_title
;
Structure prediction by ZEFSAII (Michael W. Deem and Ramdas Pophale) SiO2 
 PCOD9034420
Probable space group: P -1
;
_chemical_formula_sum "Si O2"
_cell_formula_units_Z 16
_cell_length_a 17.664328
_cell_length_b 11.593980
_cell_length_c 8.060258
_cell_angle_alpha 52.874755
_cell_angle_beta 125.782270
_cell_angle_gamma 148.739940
_cell_volume 673.487705
_symmetry_space_group_name_H-M "P -1"
_symmetry_group_IT_number 2
_symmetry_cell_setting 'triclinic'
loop_
_space_group_symop_operation_xyz
x,y,z
-x,-y,-z
loop_
_atom_site_type_symbol
_atom_site_label
_atom_site_fract_x
_atom_site_fract_y
_atom_site_fract_z
Si Si1 0.028544 0.699915 0.986786
Si Si2 0.881561 0.424882 0.542658
Si Si3 0.600236 0.490083 0.068671
Si Si4 0.923793 0.946847 0.124204
Si Si5 0.656355 0.630535 0.638220
Si Si6 0.073391 0.894877 0.527953
Si Si7 0.683968 0.341473 0.835167
Si Si8 0.430187 0.864230 0.759804
O O1 0.087815 0.831788 0.774616
O O2 0.850799 0.480921 0.931458
O O3 0.069595 0.873716 0.018293
O O4 0.100287 0.644438 0.204524
O O5 0.714851 0.237763 0.422744
O O6 0.000000 0.500000 0.500000
O O7 0.950846 0.663857 0.465289
O O8 0.760815 0.695938 0.177039
O O9 0.538830 0.251779 0.193316
O O10 0.500000 0.500000 0.000000
O O11 0.645502 0.576562 0.862333
O O12 0.023150 0.000236 0.351525
O O13 0.000000 0.000000 0.000000
O O14 0.500000 0.500000 0.500000
O O15 0.688157 0.520947 0.672579
O O16 0.766160 0.897409 0.525531
O O17 0.575346 0.138308 0.736128
O O18 0.619946 0.232650 0.031666
#
# Coordination Sequence:
#
# PCOD9034420 Si02
#       8
#     2   2   2   2   2   2   2   2
#     4  12  26  44  73 111 147 194 249 313 374 445
#     4  12  25  45  76 110 147 199 255 306 378 449
#     4  11  25  45  75 115 146 190 252 310 373 449
#     4  12  22  47  78 104 142 194 255 307 366 442
#     4  11  26  43  73 108 146 195 246 304 381 448
#     4  12  26  46  73 105 150 194 251 313 371 446
#     4  10  22  44  74 109 149 192 248 307 383 443
#     4  10  22  46  74 110 152 197 241 315 379 448
#
# _framework density 23.756929
#
# number of rings (size 3 to 8) (size 9 to 14) (size 15 to 20)
#    0.000    0.750    5.000    2.250    3.500    1.000 
#    2.250    0.625    0.000    0.000    0.000    0.000 
#    0.000    0.000    0.000    0.000    0.000    0.000 
#
# Total GULP energy -89437.310741 kJ/mol
# GULP energy per Si atom -5589.831921 kJ/mol
# Density = 2.370286 g / cm^3
# Si number density = 23.756929 Si / 1000 Ang^3
#
#
#
# Elastic Constant Matrix: (Units=GPa)
#
#
# Indices 1 2 3 4 5 6 
#
# 1 108.0536 45.7632 26.0503 -1.8119 13.4415 -18.9900
# 2 45.7632 175.9176 41.7145 13.0635 19.5715 -10.9907
# 3 26.0503 41.7145 106.2251 2.1885 10.9173 10.0277
# 4 -1.8119 13.0635 2.1885 36.4712 7.3083 10.5278
# 5 13.4415 19.5715 10.9173 7.3083 36.8419 -2.8159
# 6 -18.9900 -10.9907 10.0277 10.5278 -2.8159 26.2178
#
#
#
# Elastic Compliance Matrix: (Units=1/GPa)
#
#
# Indices 1 2 3 4 5 6 
#
# 1 0.012678 -0.001631 -0.003199 -0.001105 -0.001830 0.009970
# 2 -0.001631 0.007439 -0.002687 -0.003486 -0.001548 0.004199
# 3 -0.003199 -0.002687 0.012365 0.003390 -0.002491 -0.009802
# 4 -0.001105 -0.003486 0.003390 0.035163 -0.007134 -0.018445
# 5 -0.001830 -0.001548 -0.002491 -0.007134 0.031184 0.005193
# 6 0.009970 0.004199 -0.009802 -0.018445 0.005193 0.058837
#
#
# Mechanical properties :
#
#
# Convention : Reuss Voigt Hill
#
# Bulk Modulus (GPa) = 57.31044 68.58357 62.94701
# Shear Modulus (GPa) = 28.00883 38.35073 33.17978
#
# Velocity S-wave (km/s) = 3.43735 4.02219 3.74121
# Velocity P-wave (km/s) = 6.31901 7.10649 6.72429
#
# Compressibility (1/GPa) = 0.01744883
#
# Stress axis : x y z
#
# Youngs Moduli (GPa) = 78.87744 134.42112 80.87296
#
# Poissons Ratio (x) = 0.21923 0.25871
# Poissons Ratio (y) = 0.12864 0.21729
# Poissons Ratio (z) = 0.25233 0.36117
#
# Static dielectric constant tensor:
#      x y z
#    x 1.453500 -0.515530 -0.704490 
#    y -0.515530 1.420510 -0.774130 
#    z -0.704490 -0.774130 0.827480 
# 
# From -- ./inp_files/332957.got.cif
#   From: 2010.05.17/outbox.cif.g08.bks.cpg/sg2_167_cif.got.tgz:332957.got - 2010.06.03 11:33:40.
