data_PCOD9034312
_publ_section_title
;
Structure prediction by ZEFSAII (Michael W. Deem and Ramdas Pophale) SiO2 
 PCOD9034312
Probable space group: P -1
;
_chemical_formula_sum "Si O2"
_cell_formula_units_Z 12
_cell_length_a 8.747877
_cell_length_b 12.901424
_cell_length_c 10.511622
_cell_angle_alpha 34.663158
_cell_angle_beta 103.390769
_cell_angle_gamma 121.309098
_cell_volume 527.590111
_symmetry_space_group_name_H-M "P -1"
_symmetry_group_IT_number 2
_symmetry_cell_setting 'triclinic'
loop_
_space_group_symop_operation_xyz
x,y,z
-x,-y,-z
loop_
_atom_site_type_symbol
_atom_site_label
_atom_site_fract_x
_atom_site_fract_y
_atom_site_fract_z
Si Si1 0.303069 0.943857 0.320553
Si Si2 0.702450 0.690810 0.509371
Si Si3 0.964400 0.564242 0.292285
Si Si4 0.737739 0.134211 0.156939
Si Si5 0.260925 0.252568 0.839245
Si Si6 0.956708 0.158788 0.401611
O O1 0.194953 0.675302 0.563214
O O2 0.228355 0.982985 0.396623
O O3 0.533485 0.077118 0.217916
O O4 0.234991 0.028779 0.107295
O O5 0.484976 0.461071 0.702180
O O6 0.766442 0.741060 0.323248
O O7 0.855345 0.682724 0.632389
O O8 0.699845 0.895912 0.353947
O O9 0.876906 0.704988 0.153073
O O10 0.000000 0.500000 0.500000
O O11 0.163656 0.710188 0.104495
O O12 0.894183 0.249001 0.185519
O O13 0.000000 0.000000 0.500000
#
# Coordination Sequence:
#
# PCOD9034312 Si02
#       6
#     2   2   2   2   2   2
#     4  12  26  45  72 106 138 183 233 288 347 410
#     4  10  22  44  73 100 141 187 228 285 349 405
#     4  12  27  45  73 106 140 185 233 285 350 411
#     4  11  25  47  69 104 144 181 235 288 339 416
#     4  11  24  44  70 105 141 179 232 289 345 407
#     4  10  23  46  71 100 139 188 233 278 349 417
#
# _framework density 22.744928999999999
#
# number of rings (size 3 to 8) (size 9 to 14) (size 15 to 20)
#    0.000    1.000    1.667    4.500    7.000    4.000 
#    3.000    2.500    0.000    0.000    0.000    0.000 
#    0.000    0.000    0.000    0.000    0.000    0.000 
#
# Total GULP energy -67213.899384 kJ/mol
# GULP energy per Si atom -5601.158282 kJ/mol
# Density = 2.269316 g / cm^3
# Si number density = 22.744929 Si / 1000 Ang^3
#
#
#
# Elastic Constant Matrix: (Units=GPa)
#
#
# Indices 1 2 3 4 5 6 
#
# 1 165.6281 55.4202 32.9600 -0.1903 -23.3976 -6.7681
# 2 55.4202 107.8826 29.4654 3.7916 -7.1320 6.1256
# 3 32.9600 29.4654 71.6996 1.8362 -18.9645 7.1050
# 4 -0.1903 3.7916 1.8362 41.4753 -5.6892 1.4442
# 5 -23.3976 -7.1320 -18.9645 -5.6892 43.7514 3.1370
# 6 -6.7681 6.1256 7.1050 1.4442 3.1370 38.3315
#
#
#
# Elastic Compliance Matrix: (Units=1/GPa)
#
#
# Indices 1 2 3 4 5 6 
#
# 1 0.008094 -0.003653 -0.001657 0.000780 0.002969 0.002048
# 2 -0.003653 0.012143 -0.003507 -0.001117 -0.001513 -0.001769
# 3 -0.001657 -0.003507 0.018306 0.000567 0.006816 -0.003704
# 4 0.000780 -0.001117 0.000567 0.024745 0.003772 -0.001030
# 5 0.002969 -0.001513 0.006816 0.003772 0.027852 -0.002919
# 6 0.002048 -0.001769 -0.003704 -0.001030 -0.002919 0.027697
#
#
# Mechanical properties :
#
#
# Convention : Reuss Voigt Hill
#
# Bulk Modulus (GPa) = 47.82736 64.54461 56.18599
# Shear Modulus (GPa) = 34.85781 39.86926 37.36353
#
# Velocity S-wave (km/s) = 3.91903 4.19129 4.05744
# Velocity P-wave (km/s) = 6.44606 7.20151 6.83423
#
# Compressibility (1/GPa) = 0.02090853
#
# Stress axis : x y z
#
# Youngs Moduli (GPa) = 123.55498 82.34930 54.62790
#
# Poissons Ratio (x) = 0.30078 0.09052
# Poissons Ratio (y) = 0.45129 0.19161
# Poissons Ratio (z) = 0.20474 0.28884
#
# Static dielectric constant tensor:
#      x y z
#    x 1.821760 -0.001770 0.025380 
#    y -0.001770 1.861210 -0.005490 
#    z 0.025380 -0.005490 1.821080 
# 
# From -- ./inp_files/183872.got.cif
#   From: 2010.05.17/outbox.cif.g08.bks.cpg/sg2_92_cif.got.tgz:183872.got - 2010.06.03 11:33:40.
