data_PCOD9034943
_publ_section_title
;
Structure prediction by ZEFSAII (Michael W. Deem and Ramdas Pophale) SiO2 
 PCOD9034943
Probable space group: P -1
;
_chemical_formula_sum "Si O2"
_cell_formula_units_Z 14
_cell_length_a 20.106887
_cell_length_b 16.835330
_cell_length_c 7.327069
_cell_angle_alpha 146.497319
_cell_angle_beta 45.999434
_cell_angle_gamma 153.799063
_cell_volume 589.706671
_symmetry_space_group_name_H-M "P -1"
_symmetry_group_IT_number 2
_symmetry_cell_setting 'triclinic'
loop_
_space_group_symop_operation_xyz
x,y,z
-x,-y,-z
loop_
_atom_site_type_symbol
_atom_site_label
_atom_site_fract_x
_atom_site_fract_y
_atom_site_fract_z
Si Si1 0.473253 0.119644 0.687152
Si Si2 0.269733 0.203409 0.749898
Si Si3 0.996470 0.780396 0.703942
Si Si4 0.496477 0.736986 0.487961
Si Si5 0.141044 0.700639 0.480776
Si Si6 0.204885 0.318011 0.791894
Si Si7 0.781405 0.507646 0.244059
O O1 0.470924 0.119238 0.469153
O O2 0.500000 0.000000 0.500000
O O3 0.301123 0.959207 0.757471
O O4 0.621263 0.400516 0.992539
O O5 0.352988 0.154151 0.513226
O O6 0.216134 0.177338 0.598032
O O7 0.390077 0.475922 0.106884
O O8 0.130440 0.037288 0.840693
O O9 0.868806 0.605406 0.455972
O O10 0.077519 0.732768 0.515014
O O11 0.909561 0.736258 0.961012
O O12 0.395735 0.685005 0.735443
O O13 0.000000 0.500000 0.500000
O O14 0.186949 0.601640 0.127726
O O15 0.838918 0.707351 0.382407
#
# Coordination Sequence:
#
# PCOD9034943 Si02
#       7
#     2   2   2   2   2   2   2
#     4  11  20  44  70  93 131 179 213 274 339 376
#     4  10  22  45  69  94 136 179 218 278 330 384
#     4  12  23  46  68  99 136 179 217 274 339 391
#     4  10  23  43  69  99 131 176 229 266 331 399
#     4  12  25  45  69  99 137 173 218 278 338 394
#     4  11  24  44  68  99 135 172 226 276 324 394
#     4  12  25  43  67 101 134 175 225 271 330 403
#
# _framework density 23.740617
#
# number of rings (size 3 to 8) (size 9 to 14) (size 15 to 20)
#    0.000    0.857    7.143    0.857    0.000    1.714 
#    2.571    0.000    0.000    0.000    0.000    0.000 
#    0.000    0.000    0.000    0.000    0.000    0.000 
#
# Total GULP energy -78330.415075 kJ/mol
# GULP energy per Si atom -5595.029648 kJ/mol
# Density = 2.368658 g / cm^3
# Si number density = 23.740617 Si / 1000 Ang^3
#
#
#
# Elastic Constant Matrix: (Units=GPa)
#
#
# Indices 1 2 3 4 5 6 
#
# 1 175.2626 69.8837 32.4739 -3.9022 -42.0609 -4.8599
# 2 69.8837 185.4182 37.3103 3.8241 -13.9625 6.9134
# 3 32.4739 37.3103 41.9793 -7.7112 -12.1780 0.2976
# 4 -3.9022 3.8241 -7.7112 36.3368 5.5231 -11.1368
# 5 -42.0609 -13.9625 -12.1780 5.5231 28.2597 10.4712
# 6 -4.8599 6.9134 0.2976 -11.1368 10.4712 50.4629
#
#
#
# Elastic Compliance Matrix: (Units=1/GPa)
#
#
# Indices 1 2 3 4 5 6 
#
# 1 0.010420 -0.002273 -0.002140 -0.001981 0.014647 -0.002149
# 2 -0.002273 0.007401 -0.005582 -0.002514 -0.001072 -0.001532
# 3 -0.002140 -0.005582 0.033722 0.006511 0.007204 0.000302
# 4 -0.001981 -0.002514 0.006511 0.033797 -0.011696 0.010001
# 5 0.014647 -0.001072 0.007204 -0.011696 0.067642 -0.015102
# 6 -0.002149 -0.001532 0.000302 0.010001 -0.015102 0.025159
#
#
# Mechanical properties :
#
#
# Convention : Reuss Voigt Hill
#
# Bulk Modulus (GPa) = 31.69262 75.77734 53.73498
# Shear Modulus (GPa) = 23.96375 40.54469 32.25422
#
# Velocity S-wave (km/s) = 3.18055 4.13706 3.68993
# Velocity P-wave (km/s) = 5.18328 7.40328 6.39042
#
# Compressibility (1/GPa) = 0.03155308
#
# Stress axis : x y z
#
# Youngs Moduli (GPa) = 95.97068 135.11234 29.65436
#
# Poissons Ratio (x) = 0.30706 0.06347
# Poissons Ratio (y) = 0.21810 0.16553
# Poissons Ratio (z) = 0.20541 0.75420
#
# Static dielectric constant tensor:
#      x y z
#    x 1.925550 0.021260 0.036590 
#    y 0.021260 1.886680 0.048140 
#    z 0.036590 0.048140 1.934950 
# 
# From -- ./inp_files/355060.got.cif
#   From: 2010.05.17/outbox.cif.g08.bks.cpg/sg2_178_cif.got.tgz:355060.got - 2010.06.03 11:33:40.
