data_PCOD9034778
_publ_section_title
;
Structure prediction by ZEFSAII (Michael W. Deem and Ramdas Pophale) SiO2 
 PCOD9034778
Probable space group: P -1
;
_chemical_formula_sum "Si O2"
_cell_formula_units_Z 16
_cell_length_a 5.064408
_cell_length_b 13.679226
_cell_length_c 21.100788
_cell_angle_alpha 32.547463
_cell_angle_beta 103.677707
_cell_angle_gamma 122.214635
_cell_volume 588.103436
_symmetry_space_group_name_H-M "P -1"
_symmetry_group_IT_number 2
_symmetry_cell_setting 'triclinic'
loop_
_space_group_symop_operation_xyz
x,y,z
-x,-y,-z
loop_
_atom_site_type_symbol
_atom_site_label
_atom_site_fract_x
_atom_site_fract_y
_atom_site_fract_z
Si Si1 0.452234 0.826013 0.441306
Si Si2 0.220395 0.800326 0.642296
Si Si3 0.417795 0.998560 0.898334
Si Si4 0.699080 0.576270 0.119360
Si Si5 0.097761 0.122102 0.658965
Si Si6 0.205546 0.627366 0.374073
Si Si7 0.486741 0.313774 0.836879
Si Si8 0.185256 0.397545 0.086332
O O1 0.667758 0.757413 0.456905
O O2 0.259850 0.914339 0.344040
O O3 0.086733 0.576484 0.579188
O O4 0.730876 0.031489 0.392108
O O5 0.333924 0.653573 0.756401
O O6 0.837115 0.589090 0.707970
O O7 0.500000 0.000000 0.500000
O O8 0.681743 0.131696 0.781296
O O9 0.430508 0.192617 0.833030
O O10 0.499969 0.857555 0.022579
O O11 0.007760 0.785601 0.978340
O O12 0.775589 0.672490 0.143497
O O13 0.338394 0.491189 0.114601
O O14 0.395894 0.281096 0.642679
O O15 0.031649 0.879786 0.780979
O O16 0.000000 0.500000 0.500000
O O17 0.500000 0.500000 0.000000
O O18 0.000000 0.500000 0.000000
#
# Coordination Sequence:
#
# PCOD9034778 Si02
#       8
#     2   2   2   2   2   2   2   2
#     4  11  23  45  66  97 138 184 229 298 354 437
#     4  11  24  43  70 100 141 187 243 300 369 430
#     4  10  22  45  68 102 141 185 241 304 365 439
#     4  11  24  43  70 104 144 189 245 303 366 443
#     4  11  23  43  66  95 139 179 236 289 362 424
#     4  10  23  43  70  99 139 187 241 299 367 440
#     4  10  23  43  71 100 142 186 242 301 365 439
#     4  12  26  41  70 106 142 193 240 294 367 437
#
# _framework density 27.206101
#
# number of rings (size 3 to 8) (size 9 to 14) (size 15 to 20)
#    0.000    1.250    1.250    3.750    5.250    0.500 
#    9.000    0.000    0.000    0.000    0.000    0.000 
#    0.000    0.000    0.000    0.000    0.000    0.000 
#
# Total GULP energy -89322.764670 kJ/mol
# GULP energy per Si atom -5582.672792 kJ/mol
# Density = 2.714418 g / cm^3
# Si number density = 27.206101 Si / 1000 Ang^3
#
#
#
# Elastic Constant Matrix: (Units=GPa)
#
#
# Indices 1 2 3 4 5 6 
#
# 1 84.6430 4.6700 30.1757 -1.2752 -14.6422 -5.7567
# 2 4.6700 109.1781 44.3228 -23.6173 -10.7210 -15.1594
# 3 30.1757 44.3228 195.4275 -25.8620 -30.6289 0.2169
# 4 -1.2752 -23.6173 -25.8620 48.4804 -6.2565 -3.0229
# 5 -14.6422 -10.7210 -30.6289 -6.2565 39.0781 -8.1124
# 6 -5.7567 -15.1594 0.2169 -3.0229 -8.1124 37.9649
#
#
#
# Elastic Compliance Matrix: (Units=1/GPa)
#
#
# Indices 1 2 3 4 5 6 
#
# 1 0.013422 0.001278 -0.001391 0.001147 0.005255 0.003768
# 2 0.001278 0.012546 -0.001348 0.006544 0.005339 0.006873
# 3 -0.001391 -0.001348 0.006963 0.003745 0.005299 0.000642
# 4 0.001147 0.006544 0.003745 0.027737 0.011127 0.007352
# 5 0.005255 0.005339 0.005299 0.011127 0.037404 0.011777
# 6 0.003768 0.006873 0.000642 0.007352 0.011777 0.032754
#
#
# Mechanical properties :
#
#
# Convention : Reuss Voigt Hill
#
# Bulk Modulus (GPa) = 33.32276 60.84283 47.08280
# Shear Modulus (GPa) = 34.78233 45.77670 40.27951
#
# Velocity S-wave (km/s) = 3.57946 4.10639 3.85194
# Velocity P-wave (km/s) = 5.41832 6.70041 6.09318
#
# Compressibility (1/GPa) = 0.03000952
#
# Stress axis : x y z
#
# Youngs Moduli (GPa) = 74.50247 79.70675 143.61873
#
# Poissons Ratio (x) = -0.10185 0.19980
# Poissons Ratio (y) = -0.09520 0.19353
# Poissons Ratio (z) = 0.10365 0.10741
#
# Static dielectric constant tensor:
#      x y z
#    x 2.196710 -0.050410 -0.070030 
#    y -0.050410 2.306950 0.103050 
#    z -0.070030 0.103050 2.147680 
# 
# From -- ./inp_files/118730.got.cif
#   From: 2010.05.17/outbox.cif.g08.bks.cpg/sg2_60_cif.got.tgz:118730.got - 2010.06.03 11:33:40.
