data_PCOD9034469
_publ_section_title
;
Structure prediction by ZEFSAII (Michael W. Deem and Ramdas Pophale) SiO2 
 PCOD9034469
Probable space group: P -1
;
_chemical_formula_sum "Si O2"
_cell_formula_units_Z 12
_cell_length_a 13.950623
_cell_length_b 9.177707
_cell_length_c 5.261340
_cell_angle_alpha 121.170532
_cell_angle_beta 64.679834
_cell_angle_gamma 129.224269
_cell_volume 441.360331
_symmetry_space_group_name_H-M "P -1"
_symmetry_group_IT_number 2
_symmetry_cell_setting 'triclinic'
loop_
_space_group_symop_operation_xyz
x,y,z
-x,-y,-z
loop_
_atom_site_type_symbol
_atom_site_label
_atom_site_fract_x
_atom_site_fract_y
_atom_site_fract_z
Si Si1 0.744063 0.205595 0.826459
Si Si2 0.138872 0.151845 0.728795
Si Si3 0.386861 0.377773 0.323940
Si Si4 0.989738 0.702858 0.361533
Si Si5 0.388408 0.034039 0.728210
Si Si6 0.749487 0.506485 0.739225
O O1 0.700461 0.050913 0.496940
O O2 0.711972 0.363929 0.894029
O O3 0.892531 0.320023 0.812597
O O4 0.675232 0.098962 0.066431
O O5 0.254818 0.218830 0.466636
O O6 0.059537 0.242302 0.784048
O O7 0.201730 0.269835 0.018649
O O8 0.050810 0.914971 0.635428
O O9 0.500000 0.500000 0.500000
O O10 0.642696 0.465681 0.629690
O O11 0.416969 0.250711 0.980412
O O12 0.869733 0.527664 0.485432
O O13 0.500000 0.000000 0.500000
#
# Coordination Sequence:
#
# PCOD9034469 Si02
#       6
#     2   2   2   2   2   2
#     4  12  28  50  81 119 166 210 265 338 415 477
#     4  10  22  44  76 115 156 206 274 327 396 484
#     4  11  27  51  81 115 159 216 278 336 399 484
#     4  10  22  44  75 117 160 211 262 330 402 485
#     4  12  30  55  81 113 164 221 272 334 406 480
#     4  11  26  44  78 120 160 208 270 333 403 488
#
# _framework density 27.188668
#
# number of rings (size 3 to 8) (size 9 to 14) (size 15 to 20)
#    0.000    1.000    1.667    2.500    9.333    2.667 
#    0.000    0.833    0.000    0.000    0.000    0.000 
#    0.000    0.000    0.000    0.000    0.000    0.000 
#
# Total GULP energy -67339.761938 kJ/mol
# GULP energy per Si atom -5611.646828 kJ/mol
# Density = 2.712679 g / cm^3
# Si number density = 27.188668 Si / 1000 Ang^3
#
#
#
# Elastic Constant Matrix: (Units=GPa)
#
#
# Indices 1 2 3 4 5 6 
#
# 1 217.7769 40.5269 71.9397 -19.2532 -0.2430 12.5939
# 2 40.5269 92.4962 52.4021 -2.6652 0.0906 -3.4740
# 3 71.9397 52.4021 176.3697 -11.0976 -1.2131 12.0423
# 4 -19.2532 -2.6652 -11.0976 72.5550 2.3771 9.7000
# 5 -0.2430 0.0906 -1.2131 2.3771 48.2400 2.2413
# 6 12.5939 -3.4740 12.0423 9.7000 2.2413 45.4265
#
#
#
# Elastic Compliance Matrix: (Units=1/GPa)
#
#
# Indices 1 2 3 4 5 6 
#
# 1 0.005637 -0.001556 -0.001644 0.001394 -0.000007 -0.001543
# 2 -0.001556 0.013635 -0.003648 -0.000814 -0.000207 0.002626
# 3 -0.001644 -0.003648 0.007619 0.000860 0.000243 -0.002039
# 4 0.001394 -0.000814 0.000860 0.014780 -0.000521 -0.003807
# 5 -0.000007 -0.000207 0.000243 -0.000521 0.020808 -0.000994
# 6 -0.001543 0.002626 -0.002039 -0.003807 -0.000994 0.024045
#
#
# Mechanical properties :
#
#
# Convention : Reuss Voigt Hill
#
# Bulk Modulus (GPa) = 75.78842 90.70894 83.24868
# Shear Modulus (GPa) = 47.79207 54.69590 51.24398
#
# Velocity S-wave (km/s) = 4.19715 4.49008 4.34609
# Velocity P-wave (km/s) = 7.17103 7.76636 7.47462
#
# Compressibility (1/GPa) = 0.01319463
#
# Stress axis : x y z
#
# Youngs Moduli (GPa) = 177.40061 73.33825 131.24422
#
# Poissons Ratio (x) = 0.11414 0.21574
# Poissons Ratio (y) = 0.27609 0.47883
# Poissons Ratio (z) = 0.29162 0.26757
#
# Static dielectric constant tensor:
#      x y z
#    x 2.089740 0.006280 -0.037080 
#    y 0.006280 2.149770 0.043970 
#    z -0.037080 0.043970 2.155320 
# 
# From -- ./inp_files/108309.got.cif
#   From: 2010.05.17/outbox.cif.g08.bks.cpg/sg2_55_cif.got.tgz:108309.got - 2010.06.03 11:33:40.
