data_PCOD9034680
_publ_section_title
;
Structure prediction by ZEFSAII (Michael W. Deem and Ramdas Pophale) SiO2 
 PCOD9034680
Probable space group: P -1
;
_chemical_formula_sum "Si O2"
_cell_formula_units_Z 12
_cell_length_a 9.076820
_cell_length_b 5.661374
_cell_length_c 12.219253
_cell_angle_alpha 78.924349
_cell_angle_beta 81.723901
_cell_angle_gamma 127.004139
_cell_volume 464.333434
_symmetry_space_group_name_H-M "P -1"
_symmetry_group_IT_number 2
_symmetry_cell_setting 'triclinic'
loop_
_space_group_symop_operation_xyz
x,y,z
-x,-y,-z
loop_
_atom_site_type_symbol
_atom_site_label
_atom_site_fract_x
_atom_site_fract_y
_atom_site_fract_z
Si Si1 0.438260 0.651300 0.111181
Si Si2 0.915178 0.140618 0.063414
Si Si3 0.093262 0.998440 0.678266
Si Si4 0.531731 0.833837 0.841084
Si Si5 0.874228 0.606280 0.519103
Si Si6 0.450774 0.017940 0.626500
O O1 0.361539 0.306570 0.182898
O O2 0.675366 0.897877 0.093310
O O3 0.357267 0.809788 0.160736
O O4 0.415885 0.653177 0.982024
O O5 0.971691 0.130497 0.182484
O O6 0.000000 0.500000 0.000000
O O7 0.000000 0.000000 0.000000
O O8 0.968765 0.824014 0.597873
O O9 0.143936 0.323484 0.612302
O O10 0.281923 0.031885 0.642607
O O11 0.420063 0.789142 0.746245
O O12 0.653918 0.354384 0.605769
O O13 0.000000 0.500000 0.500000
O O14 0.500000 0.000000 0.500000
#
# Coordination Sequence:
#
# PCOD9034680 Si02
#       6
#     2   2   2   2   2   2
#     4  10  22  45  67 100 142 188 245 301 368 429
#     4  12  28  45  76 107 149 202 249 311 386 448
#     4  11  27  50  73 108 156 195 255 320 375 458
#     4  10  23  42  70 101 141 186 244 306 356 448
#     4  11  26  48  75 110 150 197 255 314 381 452
#     4  12  25  44  80 108 148 201 250 303 390 449
#
# _framework density 25.843496999999999
#
# number of rings (size 3 to 8) (size 9 to 14) (size 15 to 20)
#    0.000    1.000    3.333    1.500    7.000    1.333 
#    0.000    0.000    0.000    0.000    0.000    0.000 
#    0.000    0.000    0.000    0.000    0.000    0.000 
#
# Total GULP energy -66977.042260 kJ/mol
# GULP energy per Si atom -5581.420188 kJ/mol
# Density = 2.578468 g / cm^3
# Si number density = 25.843497 Si / 1000 Ang^3
#
#
#
# Elastic Constant Matrix: (Units=GPa)
#
#
# Indices 1 2 3 4 5 6 
#
# 1 1315.0505-1381.5801 203.5058 77.0745 1097.9406 -263.2723
# 2 -1381.5801 1821.1320 -95.8655 -79.3657-1271.8054 278.4859
# 3 203.5058 -95.8655 250.9798 21.8469 171.4559 -45.8444
# 4 77.0745 -79.3657 21.8469 45.7550 61.6084 -11.0486
# 5 1097.9406-1271.8054 171.4559 61.6084 1004.8983 -223.3741
# 6 -263.2723 278.4859 -45.8444 -11.0486 -223.3741 120.5805
#
#
#
# Elastic Compliance Matrix: (Units=1/GPa)
#
#
# Indices 1 2 3 4 5 6 
#
# 1 0.009342 -0.000061 -0.000446 -0.002216 -0.009502 0.002561
# 2 -0.000061 0.006947 -0.003859 0.001291 0.009422 -0.000072
# 3 -0.000446 -0.003859 0.006763 -0.001879 -0.005334 0.000457
# 4 -0.002216 0.001291 -0.001879 0.024992 0.002474 -0.001661
# 5 -0.009502 0.009422 -0.005334 0.002474 0.024159 0.000446
# 6 0.002561 -0.000072 0.000457 -0.001661 0.000446 0.014900
#
#
# Mechanical properties :
#
#
# Convention : Reuss Voigt Hill
#
# Bulk Modulus (GPa) = 69.83102 93.25365 81.54233
# Shear Modulus (GPa) = 49.69794 544.98690 297.34242
#
# Velocity S-wave (km/s) = 4.39000 14.53745 10.73801
# Velocity P-wave (km/s) = 7.26468 17.83103 13.61472
#
# Compressibility (1/GPa) = 0.01432028
#
# Stress axis : x y z
#
# Youngs Moduli (GPa) = 107.04530 143.95047 147.86517
#
# Poissons Ratio (x) = 0.00874 0.06591
# Poissons Ratio (y) = 0.00650 0.57064
# Poissons Ratio (z) = 0.04771 0.55553
#
# Static dielectric constant tensor:
#      x y z
#    x 1.998460 -0.096320 0.011870 
#    y -0.096320 3.069760 -0.355380 
#    z 0.011870 -0.355380 2.139490 
# 
# From -- ./inp_files/372883.got.cif
#   From: 2010.05.17/outbox.cif.g08.bks.cpg/sg2_187_cif.got.tgz:372883.got - 2010.06.03 11:33:40.
