data_PCOD9034174
_publ_section_title
;
Structure prediction by ZEFSAII (Michael W. Deem and Ramdas Pophale) SiO2 
 PCOD9034174
Probable space group: P -1
;
_chemical_formula_sum "Si O2"
_cell_formula_units_Z 13
_cell_length_a 5.665419
_cell_length_b 14.240679
_cell_length_c 13.727457
_cell_angle_alpha 149.619416
_cell_angle_beta 102.615168
_cell_angle_gamma 70.828556
_cell_volume 524.150611
_symmetry_space_group_name_H-M "P -1"
_symmetry_group_IT_number 2
_symmetry_cell_setting 'triclinic'
loop_
_space_group_symop_operation_xyz
x,y,z
-x,-y,-z
loop_
_atom_site_type_symbol
_atom_site_label
_atom_site_fract_x
_atom_site_fract_y
_atom_site_fract_z
Si Si1 0.761343 0.858134 0.526837
Si Si2 0.956422 0.787873 0.804748
Si Si3 0.409382 0.619803 0.809059
Si Si4 0.508497 0.020283 0.180780
Si Si5 0.416861 0.621281 0.198508
Si Si6 0.797844 0.303538 0.453912
Si Si7 0.000000 0.000000 0.500000
O O1 0.575040 0.775256 0.371396
O O2 0.992539 0.693096 0.444864
O O3 0.611968 0.946359 0.691487
O O4 0.866678 0.996916 0.592456
O O5 0.108830 0.685204 0.820376
O O6 0.105097 0.672963 0.622679
O O7 0.667100 0.841507 0.793094
O O8 0.000000 0.000000 0.000000
O O9 0.499745 0.530542 0.841712
O O10 0.541694 0.453690 0.596515
O O11 0.516482 0.802398 0.963115
O O12 0.758447 0.089008 0.265516
O O13 0.131136 0.759860 0.303298
O O14 0.500000 0.500000 0.000000
#
# Coordination Sequence:
#
# PCOD9034174 Si02
#       7
#     2   2   2   2   2   2   1
#     4  11  23  47  67 100 142 181 233 300 357 418
#     4   9  22  41  67 105 143 183 232 286 351 422
#     4  11  22  45  66 106 137 183 240 285 352 424
#     4  10  22  44  71  99 146 186 229 291 353 421
#     4  12  27  48  72 105 140 189 243 298 364 427
#     4  11  22  45  69 102 141 188 229 286 355 425
#     4  12  24  46  72  96 138 182 234 300 358 410
#
# _framework density 24.802033000000002
#
# number of rings (size 3 to 8) (size 9 to 14) (size 15 to 20)
#    0.000    1.231    3.077    1.846    0.000    4.923 
#   16.615    0.000    0.000    0.000    0.000    0.000 
#    0.000    0.000    0.000    0.000    0.000    0.000 
#
# Total GULP energy -72468.085448 kJ/mol
# GULP energy per Si atom -5574.468111 kJ/mol
# Density = 2.474558 g / cm^3
# Si number density = 24.802033 Si / 1000 Ang^3
#
#
#
# Elastic Constant Matrix: (Units=GPa)
#
#
# Indices 1 2 3 4 5 6 
#
# 1 34.7491 19.8893 10.4355 -7.5549 -7.6070 25.4132
# 2 19.8893 138.7578 51.9372 10.4307 -17.3580 26.8303
# 3 10.4355 51.9372 106.9659 -9.5493 -8.8482 4.3477
# 4 -7.5549 10.4307 -9.5493 36.7128 5.2925 1.4616
# 5 -7.6070 -17.3580 -8.8482 5.2925 41.1717 -1.2529
# 6 25.4132 26.8303 4.3477 1.4616 -1.2529 39.0384
#
#
#
# Elastic Compliance Matrix: (Units=1/GPa)
#
#
# Indices 1 2 3 4 5 6 
#
# 1 0.065431 -0.000081 -0.002735 0.013245 0.008473 -0.042458
# 2 -0.000081 0.011452 -0.005379 -0.004984 0.004088 -0.006901
# 3 -0.002735 -0.005379 0.012392 0.004107 -0.000518 0.003927
# 4 0.013245 -0.004984 0.004107 0.033196 -0.003252 -0.007002
# 5 0.008473 0.004088 -0.000518 -0.003252 0.027663 -0.007258
# 6 -0.042458 -0.006901 0.003927 -0.007002 -0.007258 0.057590
#
#
# Mechanical properties :
#
#
# Convention : Reuss Voigt Hill
#
# Bulk Modulus (GPa) = 13.72037 49.44411 31.58224
# Shear Modulus (GPa) = 20.12812 36.59864 28.36338
#
# Velocity S-wave (km/s) = 2.85186 3.84556 3.38537
# Velocity P-wave (km/s) = 4.04823 6.30052 5.29550
#
# Compressibility (1/GPa) = 0.07288433
#
# Stress axis : x y z
#
# Youngs Moduli (GPa) = 15.28332 87.31874 80.70038
#
# Poissons Ratio (x) = 0.00709 0.22071
# Poissons Ratio (y) = 0.00124 0.43409
# Poissons Ratio (z) = 0.04180 0.46969
#
# Static dielectric constant tensor:
#      x y z
#    x 1.999510 -0.000400 0.001640 
#    y -0.000400 2.004390 0.020880 
#    z 0.001640 0.020880 1.943090 
# 
# From -- ./inp_files/36646.got.cif
#   From: 2010.05.17/outbox.cif.g08.bks.cpg/sg2_19_cif.got.tgz:36646.got - 2010.06.03 11:33:40.
