data_PCOD9034189
_publ_section_title
;
Structure prediction by ZEFSAII (Michael W. Deem and Ramdas Pophale) SiO2 
 PCOD9034189
Probable space group: P -1
;
_chemical_formula_sum "Si O2"
_cell_formula_units_Z 14
_cell_length_a 9.547282
_cell_length_b 9.299442
_cell_length_c 24.703691
_cell_angle_alpha 153.688882
_cell_angle_beta 38.573624
_cell_angle_gamma 133.052219
_cell_volume 604.859276
_symmetry_space_group_name_H-M "P -1"
_symmetry_group_IT_number 2
_symmetry_cell_setting 'triclinic'
loop_
_space_group_symop_operation_xyz
x,y,z
-x,-y,-z
loop_
_atom_site_type_symbol
_atom_site_label
_atom_site_fract_x
_atom_site_fract_y
_atom_site_fract_z
Si Si1 0.937960 0.184921 0.136162
Si Si2 0.688818 0.856301 0.737292
Si Si3 0.561537 0.913487 0.013501
Si Si4 0.457835 0.236355 0.847127
Si Si5 0.659813 0.792333 0.544072
Si Si6 0.710599 0.904350 0.442610
Si Si7 0.057175 0.447598 0.534392
O O1 0.824987 0.541822 0.278305
O O2 0.174642 0.195248 0.099055
O O3 0.758888 0.969520 0.147611
O O4 0.000000 0.000000 0.000000
O O5 0.726743 0.610434 0.590588
O O6 0.920782 0.785538 0.676322
O O7 0.612850 0.174915 0.833072
O O8 0.505538 0.825332 0.830085
O O9 0.418028 0.612928 0.973575
O O10 0.500000 0.000000 0.000000
O O11 0.589205 0.081475 0.703696
O O12 0.500000 0.500000 0.500000
O O13 0.648154 0.911354 0.527132
O O14 0.889105 0.626551 0.444493
O O15 0.500000 0.000000 0.500000
O O16 0.897158 0.166931 0.470039
#
# Coordination Sequence:
#
# PCOD9034189 Si02
#       7
#     2   2   2   2   2   2   2
#     4  12  26  46  75 106 145 191 240 291 364 433
#     4  10  22  44  72 101 137 188 241 292 357 430
#     4  12  29  45  71 106 147 189 242 294 365 434
#     4  11  24  48  72 100 143 191 237 304 354 424
#     4  11  24  44  70 101 142 176 239 297 353 421
#     4  12  27  45  74 109 141 187 242 299 359 432
#     4  10  24  42  75 101 139 188 242 296 359 416
#
# _framework density 23.145879999999998
#
# number of rings (size 3 to 8) (size 9 to 14) (size 15 to 20)
#    0.000    0.857    2.857    3.429   10.000    0.571 
#    0.000    0.000    0.000    0.000    0.000    0.000 
#    0.000    0.000    0.000    0.000    0.000    0.000 
#
# Total GULP energy -78185.164399 kJ/mol
# GULP energy per Si atom -5584.654600 kJ/mol
# Density = 2.309320 g / cm^3
# Si number density = 23.145880 Si / 1000 Ang^3
#
#
#
# Elastic Constant Matrix: (Units=GPa)
#
#
# Indices 1 2 3 4 5 6 
#
# 1 193.3172 61.3909 63.7369 -4.8884 -18.4163 -33.5988
# 2 61.3909 117.0368 35.0314 4.7699 -6.1184 -16.7114
# 3 63.7369 35.0314 113.3559 -12.8947 -8.8353 -18.0213
# 4 -4.8884 4.7699 -12.8947 33.2247 -3.8778 11.1299
# 5 -18.4163 -6.1184 -8.8353 -3.8778 40.9292 -6.9442
# 6 -33.5988 -16.7114 -18.0213 11.1299 -6.9442 52.9512
#
#
#
# Elastic Compliance Matrix: (Units=1/GPa)
#
#
# Indices 1 2 3 4 5 6 
#
# 1 0.007854 -0.002556 -0.002845 -0.000462 0.003125 0.003716
# 2 -0.002556 0.010887 -0.002011 -0.003330 0.000039 0.001835
# 3 -0.002845 -0.002011 0.011792 0.004336 0.001522 0.000862
# 4 -0.000462 -0.003330 0.004336 0.034766 0.002359 -0.006866
# 5 0.003125 0.000039 0.001522 0.002359 0.027347 0.005603
# 6 0.003716 0.001835 0.000862 -0.006866 0.005603 0.024293
#
#
# Mechanical properties :
#
#
# Convention : Reuss Voigt Hill
#
# Bulk Modulus (GPa) = 63.65809 82.66981 73.16395
# Shear Modulus (GPa) = 36.49670 42.99107 39.74389
#
# Velocity S-wave (km/s) = 3.97522 4.31443 4.14829
# Velocity P-wave (km/s) = 6.97370 7.78546 7.39074
#
# Compressibility (1/GPa) = 0.01570892
#
# Stress axis : x y z
#
# Youngs Moduli (GPa) = 127.32244 91.85563 84.80608
#
# Poissons Ratio (x) = 0.23475 0.24124
# Poissons Ratio (y) = 0.32539 0.17059
# Poissons Ratio (z) = 0.36218 0.18477
#
# Static dielectric constant tensor:
#      x y z
#    x 1.908260 0.032740 -0.007440 
#    y 0.032740 1.930350 0.003000 
#    z -0.007440 0.003000 1.980690 
# 
# From -- ./inp_files/244246.got.cif
#   From: 2010.05.17/outbox.cif.g08.bks.cpg/sg2_123_cif.got.tgz:244246.got - 2010.06.03 11:33:40.
