data_PCOD9034381
_publ_section_title
;
Structure prediction by ZEFSAII (Michael W. Deem and Ramdas Pophale) SiO2 
 PCOD9034381
Probable space group: P -1
;
_chemical_formula_sum "Si O2"
_cell_formula_units_Z 14
_cell_length_a 7.074948
_cell_length_b 10.320208
_cell_length_c 10.324803
_cell_angle_alpha 120.017052
_cell_angle_beta 86.363570
_cell_angle_gamma 56.641419
_cell_volume 481.802014
_symmetry_space_group_name_H-M "P -1"
_symmetry_group_IT_number 2
_symmetry_cell_setting 'triclinic'
loop_
_space_group_symop_operation_xyz
x,y,z
-x,-y,-z
loop_
_atom_site_type_symbol
_atom_site_label
_atom_site_fract_x
_atom_site_fract_y
_atom_site_fract_z
Si Si1 0.577834 0.744645 0.400901
Si Si2 0.008870 0.908410 0.102011
Si Si3 0.697407 0.782839 0.986549
Si Si4 0.244377 0.628637 0.659920
Si Si5 0.414785 0.452745 0.103580
Si Si6 0.721598 0.783237 0.694306
Si Si7 0.920008 0.840507 0.362000
O O1 0.683143 0.519949 0.294904
O O2 0.599359 0.778780 0.569912
O O3 0.759927 0.770020 0.337764
O O4 0.289907 0.932140 0.456734
O O5 0.127219 0.858573 0.792267
O O6 0.306321 0.755992 0.972393
O O7 0.867318 0.841822 0.007768
O O8 0.975604 0.878405 0.237696
O O9 0.434783 0.982122 0.157504
O O10 0.748713 0.603282 0.968902
O O11 0.687678 0.729381 0.811183
O O12 0.500000 0.500000 0.500000
O O13 0.020527 0.658817 0.607205
O O14 0.206382 0.648076 0.300028
O O15 0.500000 0.500000 0.000000
#
# Coordination Sequence:
#
# PCOD9034381 Si02
#       7
#     2   2   2   2   2   2   2
#     4  11  23  45  75 102 148 193 243 294 370 438
#     4  11  23  46  75 111 144 186 246 305 364 429
#     4  11  23  46  74 105 148 186 239 305 369 428
#     4  12  23  43  72 107 147 185 244 307 358 434
#     4  10  23  44  75 107 145 190 247 297 362 434
#     4  11  24  44  71 103 146 192 233 304 370 423
#     4  10  22  44  74 102 142 195 239 294 365 435
#
# _framework density 29.057577999999999
#
# number of rings (size 3 to 8) (size 9 to 14) (size 15 to 20)
#    0.000    1.143    4.286    1.286    0.000    2.857 
#    5.143    0.714    6.286    0.000    0.000    0.000 
#    0.000    0.000    0.000    0.000    0.000    0.000 
#
# Total GULP energy -78312.014715 kJ/mol
# GULP energy per Si atom -5593.715337 kJ/mol
# Density = 2.899144 g / cm^3
# Si number density = 29.057578 Si / 1000 Ang^3
#
#
#
# Elastic Constant Matrix: (Units=GPa)
#
#
# Indices 1 2 3 4 5 6 
#
# 1 158.2058 78.3182 62.0623 36.6498 -18.4210 15.1926
# 2 78.3182 169.2760 70.7460 49.9556 -5.3054 36.4527
# 3 62.0623 70.7460 132.8379 47.2854 -28.3040 -7.4636
# 4 36.6498 49.9556 47.2854 80.9128 -17.9560 -8.7804
# 5 -18.4210 -5.3054 -28.3040 -17.9560 55.2463 12.8775
# 6 15.1926 36.4527 -7.4636 -8.7804 12.8775 74.0480
#
#
#
# Elastic Compliance Matrix: (Units=1/GPa)
#
#
# Indices 1 2 3 4 5 6 
#
# 1 0.009016 -0.002702 -0.002170 -0.000914 0.001600 -0.001125
# 2 -0.002702 0.011226 -0.003845 -0.004498 -0.001960 -0.005552
# 3 -0.002170 -0.003845 0.012565 -0.002858 0.003809 0.002603
# 4 -0.000914 -0.004498 -0.002858 0.018264 0.002853 0.003783
# 5 0.001600 -0.001960 0.003809 0.002853 0.021895 -0.002449
# 6 -0.001125 -0.005552 0.002603 0.003783 -0.002449 0.017606
#
#
# Mechanical properties :
#
#
# Convention : Reuss Voigt Hill
#
# Bulk Modulus (GPa) = 65.05091 98.06361 81.55726
# Shear Modulus (GPa) = 44.19686 58.65431 51.42559
#
# Velocity S-wave (km/s) = 3.90424 4.49771 4.21144
# Velocity P-wave (km/s) = 6.53909 7.79704 7.19560
#
# Compressibility (1/GPa) = 0.01537257
#
# Stress axis : x y z
#
# Youngs Moduli (GPa) = 110.91380 89.07819 79.58783
#
# Poissons Ratio (x) = 0.24071 0.17270
# Poissons Ratio (y) = 0.29972 0.30601
# Poissons Ratio (z) = 0.24068 0.34250
#
# Static dielectric constant tensor:
#      x y z
#    x 2.330010 -0.019310 0.102400 
#    y -0.019310 2.368780 0.051620 
#    z 0.102400 0.051620 2.256810 
# 
# From -- ./inp_files/390682.got.cif
#   From: 2010.05.17/outbox.cif.g08.bks.cpg/sg2_196_cif.got.tgz:390682.got - 2010.06.03 11:33:40.
