data_PCOD9034343
_publ_section_title
;
Structure prediction by ZEFSAII (Michael W. Deem and Ramdas Pophale) SiO2 
 PCOD9034343
Probable space group: P -1
;
_chemical_formula_sum "Si O2"
_cell_formula_units_Z 14
_cell_length_a 18.295831
_cell_length_b 10.059797
_cell_length_c 6.496538
_cell_angle_alpha 127.594217
_cell_angle_beta 69.504143
_cell_angle_gamma 142.251621
_cell_volume 558.033414
_symmetry_space_group_name_H-M "P -1"
_symmetry_group_IT_number 2
_symmetry_cell_setting 'triclinic'
loop_
_space_group_symop_operation_xyz
x,y,z
-x,-y,-z
loop_
_atom_site_type_symbol
_atom_site_label
_atom_site_fract_x
_atom_site_fract_y
_atom_site_fract_z
Si Si1 0.523205 0.092278 0.328725
Si Si2 0.906023 0.709757 0.227586
Si Si3 0.115736 0.625835 0.373189
Si Si4 0.713067 0.907859 0.686990
Si Si5 0.248058 0.727745 0.735986
Si Si6 0.663186 0.499824 0.126042
Si Si7 0.595055 0.537975 0.816851
O O1 0.667805 0.294377 0.361401
O O2 0.562292 0.185136 0.966605
O O3 0.508861 0.268266 0.510716
O O4 0.500000 0.000000 0.500000
O O5 0.878062 0.537189 0.281711
O O6 0.791094 0.632492 0.195266
O O7 0.928208 0.616635 0.930922
O O8 0.000000 0.000000 0.500000
O O9 0.176373 0.853319 0.356542
O O10 0.221790 0.755692 0.561819
O O11 0.000000 0.500000 0.500000
O O12 0.638811 0.641405 0.384050
O O13 0.704711 0.796780 0.812412
O O14 0.684063 0.037755 0.944228
O O15 0.662200 0.542219 0.928417
O O16 0.500000 0.500000 0.000000
#
# Coordination Sequence:
#
# PCOD9034343 Si02
#       7
#     2   2   2   2   2   2   2
#     4  10  22  44  73 105 151 190 241 301 385 445
#     4  11  28  49  77 110 146 198 261 312 376 454
#     4  11  27  50  78 104 150 206 256 318 383 434
#     4  11  25  43  73 111 151 192 258 302 379 452
#     4  11  25  48  75 108 150 195 253 315 373 458
#     4  11  25  45  76 111 151 200 244 309 385 457
#     4  11  24  44  75 112 155 195 246 313 381 462
#
# _framework density 25.088103
#
# number of rings (size 3 to 8) (size 9 to 14) (size 15 to 20)
#    0.000    1.143    0.000    5.143    4.000    8.571 
#    5.143    1.429    0.000    0.857    0.000    0.000 
#    0.000    0.000    0.000    0.000    0.000    0.000 
#
# Total GULP energy -78023.236159 kJ/mol
# GULP energy per Si atom -5573.088297 kJ/mol
# Density = 2.503100 g / cm^3
# Si number density = 25.088103 Si / 1000 Ang^3
#
#
#
# Elastic Constant Matrix: (Units=GPa)
#
#
# Indices 1 2 3 4 5 6 
#
# 1 100.4543 66.3011 55.9206 -5.2032 0.7554 1.6554
# 2 66.3011 149.1709 80.9051 -11.3999 11.4934 -27.8038
# 3 55.9206 80.9051 218.4200 30.9513 -26.6042 2.1144
# 4 -5.2032 -11.3999 30.9513 57.7063 -11.8118 2.5702
# 5 0.7554 11.4934 -26.6042 -11.8118 43.1182 3.7687
# 6 1.6554 -27.8038 2.1144 2.5702 3.7687 29.3658
#
#
#
# Elastic Compliance Matrix: (Units=1/GPa)
#
#
# Indices 1 2 3 4 5 6 
#
# 1 0.016363 -0.008914 -0.000593 0.001055 0.002868 -0.009780
# 2 -0.008914 0.019027 -0.006665 0.003642 -0.009773 0.019933
# 3 -0.000593 -0.006665 0.008691 -0.004352 0.006601 -0.007369
# 4 0.001055 0.003642 -0.004352 0.020789 0.001877 0.001641
# 5 0.002868 -0.009773 0.006601 0.001877 0.031567 -0.014105
# 6 -0.009780 0.019933 -0.007369 0.001641 -0.014105 0.055674
#
#
# Mechanical properties :
#
#
# Convention : Reuss Voigt Hill
#
# Bulk Modulus (GPa) = 85.20299 97.14431 91.17365
# Shear Modulus (GPa) = 26.54390 43.69929 35.12160
#
# Velocity S-wave (km/s) = 3.25626 4.17806 3.74562
# Velocity P-wave (km/s) = 6.94067 7.87910 7.42472
#
# Compressibility (1/GPa) = 0.01173668
#
# Stress axis : x y z
#
# Youngs Moduli (GPa) = 61.11514 52.55633 115.06199
#
# Poissons Ratio (x) = 0.46850 0.06820
# Poissons Ratio (y) = 0.54480 0.76688
# Poissons Ratio (z) = 0.03623 0.35028
#
# Static dielectric constant tensor:
#      x y z
#    x 1.967850 -0.025880 0.019660 
#    y -0.025880 1.973610 0.068540 
#    z 0.019660 0.068540 2.032690 
# 
# From -- ./inp_files/47320.got.cif
#   From: 2010.05.17/outbox.cif.g08.bks.cpg/sg2_24_cif.got.tgz:47320.got - 2010.06.03 11:33:40.
