data_PCOD9034549
_publ_section_title
;
Structure prediction by ZEFSAII (Michael W. Deem and Ramdas Pophale) SiO2 
 PCOD9034549
Probable space group: P -1
;
_chemical_formula_sum "Si O2"
_cell_formula_units_Z 16
_cell_length_a 11.924509
_cell_length_b 9.112229
_cell_length_c 10.053819
_cell_angle_alpha 129.925531
_cell_angle_beta 67.903451
_cell_angle_gamma 92.635653
_cell_volume 746.294721
_symmetry_space_group_name_H-M "P -1"
_symmetry_group_IT_number 2
_symmetry_cell_setting 'triclinic'
loop_
_space_group_symop_operation_xyz
x,y,z
-x,-y,-z
loop_
_atom_site_type_symbol
_atom_site_label
_atom_site_fract_x
_atom_site_fract_y
_atom_site_fract_z
Si Si1 0.548076 0.756537 0.596151
Si Si2 0.570348 0.111651 0.639217
Si Si3 0.442490 0.229252 0.116906
Si Si4 0.931822 0.095327 0.951364
Si Si5 0.862049 0.513372 0.122896
Si Si6 0.391538 0.493753 0.847656
Si Si7 0.822299 0.940937 0.318045
Si Si8 0.718827 0.958848 0.079216
O O1 0.603593 0.667237 0.660315
O O2 0.585953 0.606094 0.369158
O O3 0.584628 0.961140 0.667168
O O4 0.396619 0.842989 0.728797
O O5 0.474853 0.327846 0.811436
O O6 0.500000 0.000000 0.500000
O O7 0.706721 0.115766 0.526992
O O8 0.549864 0.323108 0.072025
O O9 0.335044 0.216325 0.054827
O O10 0.500000 0.000000 0.000000
O O11 0.036558 0.039996 0.754622
O O12 0.884707 0.336307 0.117148
O O13 0.810554 0.011832 0.959301
O O14 0.000000 0.000000 0.000000
O O15 0.757701 0.463939 0.043368
O O16 0.816179 0.751434 0.300430
O O17 0.000000 0.500000 0.000000
O O18 0.782634 0.902406 0.161874
#
# Coordination Sequence:
#
# PCOD9034549 Si02
#       8
#     2   2   2   2   2   2   2   2
#     4  10  18  33  56  80 111 137 179 225 267 321
#     4  10  17  32  57  81 109 135 179 231 269 311
#     4  10  22  33  49  79 116 146 176 223 270 317
#     4   9  20  32  53  76 109 143 178 219 265 319
#     4  10  18  30  52  83 108 132 179 227 267 314
#     4  11  19  34  56  85 107 142 184 221 272 319
#     4  10  17  34  55  83 105 139 179 229 264 318
#     4  10  18  36  52  79 112 142 177 222 271 311
#
# _framework density 21.439252
#
# number of rings (size 3 to 8) (size 9 to 14) (size 15 to 20)
#    0.000    2.000    5.000    1.875    0.000    0.000 
#    0.000    6.875    0.000    1.500    3.250    0.000 
#    0.000    0.000    0.000    0.000    0.000    0.000 
#
# Total GULP energy -89088.842946 kJ/mol
# GULP energy per Si atom -5568.052684 kJ/mol
# Density = 2.139046 g / cm^3
# Si number density = 21.439252 Si / 1000 Ang^3
#
#
#
# Elastic Constant Matrix: (Units=GPa)
#
#
# Indices 1 2 3 4 5 6 
#
# 1 85.5774 41.4392 42.8135 -6.1758 -22.9856 27.8111
# 2 41.4392 124.7052 22.2380 6.2525 -14.2596 22.6355
# 3 42.8135 22.2380 43.0360 -7.2159 -10.6030 8.4578
# 4 -6.1758 6.2525 -7.2159 31.6178 5.5447 -6.7078
# 5 -22.9856 -14.2596 -10.6030 5.5447 36.5671 -6.8506
# 6 27.8111 22.6355 8.4578 -6.7078 -6.8506 48.4040
#
#
#
# Elastic Compliance Matrix: (Units=1/GPa)
#
#
# Indices 1 2 3 4 5 6 
#
# 1 0.032830 -0.002569 -0.027092 -0.003574 0.010073 -0.011997
# 2 -0.002569 0.010285 -0.002381 -0.004067 0.001715 -0.003238
# 3 -0.027092 -0.002381 0.050478 0.009080 -0.003072 0.008683
# 4 -0.003574 -0.004067 0.009080 0.036163 -0.005445 0.006610
# 5 0.010073 0.001715 -0.003072 -0.005445 0.033906 -0.002009
# 6 -0.011997 -0.003238 0.008683 0.006610 -0.002009 0.028181
#
#
# Mechanical properties :
#
#
# Convention : Reuss Voigt Hill
#
# Bulk Modulus (GPa) = 33.89014 51.81111 42.85063
# Shear Modulus (GPa) = 18.81353 33.10630 25.95991
#
# Velocity S-wave (km/s) = 2.96552 3.93388 3.48351
# Velocity P-wave (km/s) = 5.25049 6.69723 6.01749
#
# Compressibility (1/GPa) = 0.02950711
#
# Stress axis : x y z
#
# Youngs Moduli (GPa) = 30.45995 97.22683 19.81056
#
# Poissons Ratio (x) = 0.24982 0.53671
# Poissons Ratio (y) = 0.07827 0.04718
# Poissons Ratio (z) = 0.82523 0.23154
#
# Static dielectric constant tensor:
#      x y z
#    x 1.849020 -0.024560 -0.016880 
#    y -0.024560 1.850220 -0.041230 
#    z -0.016880 -0.041230 1.882460 
# 
# From -- ./inp_files/357605.got.cif
#   From: 2010.05.17/outbox.cif.g08.bks.cpg/sg2_179_cif.got.tgz:357605.got - 2010.06.03 11:33:40.
