data_PCOD9034568
_publ_section_title
;
Structure prediction by ZEFSAII (Michael W. Deem and Ramdas Pophale) SiO2 
 PCOD9034568
Probable space group: P -1
;
_chemical_formula_sum "Si O2"
_cell_formula_units_Z 15
_cell_length_a 10.896019
_cell_length_b 16.555291
_cell_length_c 18.504053
_cell_angle_alpha 21.763955
_cell_angle_beta 146.720098
_cell_angle_gamma 134.680913
_cell_volume 633.584962
_symmetry_space_group_name_H-M "P -1"
_symmetry_group_IT_number 2
_symmetry_cell_setting 'triclinic'
loop_
_space_group_symop_operation_xyz
x,y,z
-x,-y,-z
loop_
_atom_site_type_symbol
_atom_site_label
_atom_site_fract_x
_atom_site_fract_y
_atom_site_fract_z
Si Si1 0.289262 0.726432 0.679994
Si Si2 0.413937 0.024046 0.602340
Si Si3 0.000000 0.500000 0.000000
Si Si4 0.852383 0.395748 0.437642
Si Si5 0.644844 0.319521 0.017307
Si Si6 0.771494 0.970005 0.244596
Si Si7 0.272071 0.929316 0.029640
Si Si8 0.957839 0.827115 0.064028
O O1 0.268739 0.702389 0.604685
O O2 0.022657 0.757820 0.549443
O O3 0.333765 0.949803 0.548085
O O4 0.500000 0.500000 0.000000
O O5 0.238390 0.277544 0.327815
O O6 0.381765 0.844106 0.795817
O O7 0.696076 0.970013 0.783503
O O8 0.827019 0.445335 0.022381
O O9 0.087691 0.184606 0.751788
O O10 0.623741 0.519755 0.272106
O O11 0.938559 0.596185 0.281614
O O12 0.773286 0.168661 0.136260
O O13 0.747201 0.068355 0.068772
O O14 0.540764 0.903758 0.202176
O O15 0.166011 0.764300 0.158459
O O16 0.000000 0.000000 0.000000
#
# Coordination Sequence:
#
# PCOD9034568 Si02
#       8
#     2   2   1   2   2   2   2   2
#     4  11  20  44  69  95 129 185 222 261 344 392
#     4  11  24  43  68  97 140 173 224 284 329 399
#     4  12  24  38  62 106 134 166 224 270 348 388
#     4  10  23  42  72  94 130 184 219 276 336 388
#     4  11  22  42  62 100 135 177 218 273 336 399
#     4  10  23  41  66  95 138 175 214 276 340 390
#     4  10  22  45  64  96 138 168 224 277 325 405
#     4  11  23  42  68 103 126 173 233 268 328 403
#
# _framework density 23.674804999999999
#
# number of rings (size 3 to 8) (size 9 to 14) (size 15 to 20)
#    0.000    1.333    4.000    2.800    0.000    3.200 
#    4.800    8.000    0.000    0.000    0.000    0.000 
#    0.000    0.000    0.000    0.000    0.000    0.000 
#
# Total GULP energy -83627.193061 kJ/mol
# GULP energy per Si atom -5575.146204 kJ/mol
# Density = 2.362092 g / cm^3
# Si number density = 23.674805 Si / 1000 Ang^3
#
#
#
# Elastic Constant Matrix: (Units=GPa)
#
#
# Indices 1 2 3 4 5 6 
#
# 1 95.9842 19.1104 10.6364 7.5547 10.2709 18.8657
# 2 19.1104 74.2247 4.6141 27.8291 -0.2813 -2.2915
# 3 10.6364 4.6141 84.6708 18.1704 23.3850 10.0775
# 4 7.5547 27.8291 18.1704 33.0779 13.2312 9.6386
# 5 10.2709 -0.2813 23.3850 13.2312 37.5141 3.1079
# 6 18.8657 -2.2915 10.0775 9.6386 3.1079 40.9552
#
#
#
# Elastic Compliance Matrix: (Units=1/GPa)
#
#
# Indices 1 2 3 4 5 6 
#
# 1 0.013165 -0.006058 -0.000440 0.006526 -0.005060 -0.007447
# 2 -0.006058 0.025725 0.001428 -0.027857 0.009985 0.009677
# 3 -0.000440 0.001428 0.015248 -0.006226 -0.007056 -0.001468
# 4 0.006526 -0.027857 -0.006226 0.069179 -0.021046 -0.017717
# 5 -0.005060 0.009985 -0.007056 -0.021046 0.039392 0.006590
# 6 -0.007447 0.009677 -0.001468 -0.017717 0.006590 0.032419
#
#
# Mechanical properties :
#
#
# Convention : Reuss Voigt Hill
#
# Bulk Modulus (GPa) = 22.72900 35.95572 29.34236
# Shear Modulus (GPa) = 22.73408 37.01068 29.87238
#
# Velocity S-wave (km/s) = 3.10218 3.95814 3.55601
# Velocity P-wave (km/s) = 4.73842 6.00912 5.41120
#
# Compressibility (1/GPa) = 0.04399666
#
# Stress axis : x y z
#
# Youngs Moduli (GPa) = 75.96046 38.87320 65.58384
#
# Poissons Ratio (x) = 0.23549 0.02887
# Poissons Ratio (y) = 0.46016 -0.09364
# Poissons Ratio (z) = 0.03344 -0.05551
#
# Static dielectric constant tensor:
#      x y z
#    x 1.911840 -0.008570 -0.033670 
#    y -0.008570 1.755990 -0.021720 
#    z -0.033670 -0.021720 1.938480 
# 
# From -- ./inp_files/595967.got.cif
#   From: 2010.05.17/outbox.cif.g08.bks.cpg/sg2_298_cif.got.tgz:595967.got - 2010.06.03 11:33:40.
