data_PCOD9034764
_publ_section_title
;
Structure prediction by ZEFSAII (Michael W. Deem and Ramdas Pophale) SiO2 
 PCOD9034764
Probable space group: P -1
;
_chemical_formula_sum "Si O2"
_cell_formula_units_Z 14
_cell_length_a 8.136273
_cell_length_b 8.548682
_cell_length_c 8.901459
_cell_angle_alpha 69.703488
_cell_angle_beta 87.443799
_cell_angle_gamma 96.786871
_cell_volume 574.184220
_symmetry_space_group_name_H-M "P -1"
_symmetry_group_IT_number 2
_symmetry_cell_setting 'triclinic'
loop_
_space_group_symop_operation_xyz
x,y,z
-x,-y,-z
loop_
_atom_site_type_symbol
_atom_site_label
_atom_site_fract_x
_atom_site_fract_y
_atom_site_fract_z
Si Si1 0.257770 0.380955 0.015321
Si Si2 0.924262 0.148149 0.036988
Si Si3 0.556284 0.162885 0.044193
Si Si4 0.312554 0.392691 0.364469
Si Si5 0.850050 0.343356 0.559967
Si Si6 0.929991 0.911213 0.381618
Si Si7 0.352320 0.707727 0.707600
O O1 0.414524 0.286036 0.990520
O O2 0.255381 0.382249 0.195857
O O3 0.079022 0.293827 0.996080
O O4 0.288355 0.563118 0.878614
O O5 0.751030 0.204158 0.975386
O O6 0.882847 0.056673 0.229603
O O7 0.000000 0.000000 0.000000
O O8 0.562854 0.144044 0.233819
O O9 0.500000 0.000000 0.000000
O O10 0.286796 0.572983 0.371965
O O11 0.212014 0.240358 0.515359
O O12 0.500360 0.361212 0.364106
O O13 0.785474 0.286223 0.415499
O O14 0.000000 0.500000 0.500000
O O15 0.928053 0.183505 0.670373
O O16 0.000000 0.000000 0.500000
#
# Coordination Sequence:
#
# PCOD9034764 Si02
#       7
#     2   2   2   2   2   2   2
#     4  11  25  48  71 107 144 183 237 298 349 424
#     4  12  26  44  72 103 143 190 234 292 356 412
#     4  11  24  45  69 108 141 181 239 285 362 416
#     4  10  22  45  68 100 141 183 229 294 355 414
#     4  10  24  43  69 103 136 187 234 281 355 418
#     4  11  23  45  67  98 144 182 238 284 342 431
#     4  11  25  47  72 105 141 181 237 296 353 420
#
# _framework density 24.382418999999999
#
# number of rings (size 3 to 8) (size 9 to 14) (size 15 to 20)
#    0.000    1.143    2.857    3.000    6.000    2.857 
#    5.143    2.143    0.000    0.000    0.000    0.000 
#    0.000    0.000    0.000    0.000    0.000    0.000 
#
# Total GULP energy -78242.342058 kJ/mol
# GULP energy per Si atom -5588.738718 kJ/mol
# Density = 2.432692 g / cm^3
# Si number density = 24.382419 Si / 1000 Ang^3
#
#
#
# Elastic Constant Matrix: (Units=GPa)
#
#
# Indices 1 2 3 4 5 6 
#
# 1 157.4155 45.1904 24.0830 12.8984 -1.6367 1.4249
# 2 45.1904 109.3972 23.7798 26.9228 0.1285 -4.1623
# 3 24.0830 23.7798 71.8654 7.8751 -3.8798 10.3546
# 4 12.8984 26.9228 7.8751 45.1391 -1.6684 -8.9685
# 5 -1.6367 0.1285 -3.8798 -1.6684 36.9926 13.2657
# 6 1.4249 -4.1623 10.3546 -8.9685 13.2657 34.4645
#
#
#
# Elastic Compliance Matrix: (Units=1/GPa)
#
#
# Indices 1 2 3 4 5 6 
#
# 1 0.007376 -0.002659 -0.001485 -0.000328 0.000302 -0.000381
# 2 -0.002659 0.012355 -0.002817 -0.005887 -0.001218 0.001385
# 3 -0.001485 -0.002817 0.016916 -0.002197 0.004347 -0.007606
# 4 -0.000328 -0.005887 -0.002197 0.027634 -0.001791 0.007843
# 5 0.000302 -0.001218 0.004347 -0.001791 0.032620 -0.014487
# 6 -0.000381 0.001385 -0.007606 0.007843 -0.014487 0.039101
#
#
# Mechanical properties :
#
#
# Convention : Reuss Voigt Hill
#
# Bulk Modulus (GPa) = 44.00408 58.30939 51.15674
# Shear Modulus (GPa) = 31.74602 39.69423 35.72013
#
# Velocity S-wave (km/s) = 3.61224 4.03921 3.83168
# Velocity P-wave (km/s) = 5.95688 6.76166 6.37199
#
# Compressibility (1/GPa) = 0.02272516
#
# Stress axis : x y z
#
# Youngs Moduli (GPa) = 135.56645 80.94107 59.11507
#
# Poissons Ratio (x) = 0.21518 0.08779
# Poissons Ratio (y) = 0.36040 0.16655
# Poissons Ratio (z) = 0.20133 0.22805
#
# Static dielectric constant tensor:
#      x y z
#    x 2.225060 0.104730 -0.036620 
#    y 0.104730 2.000840 0.054770 
#    z -0.036620 0.054770 1.991140 
# 
# From -- ./inp_files/154076.got.cif
#   From: 2010.05.17/outbox.cif.g08.bks.cpg/sg2_78_cif.got.tgz:154076.got - 2010.06.03 11:33:40.
