data_PCOD9034872
_publ_section_title
;
Structure prediction by ZEFSAII (Michael W. Deem and Ramdas Pophale) SiO2 
 PCOD9034872
Probable space group: P -1
;
_chemical_formula_sum "Si O2"
_cell_formula_units_Z 14
_cell_length_a 9.265616
_cell_length_b 12.356211
_cell_length_c 12.465084
_cell_angle_alpha 147.007308
_cell_angle_beta 78.184533
_cell_angle_gamma 79.877596
_cell_volume 576.754364
_symmetry_space_group_name_H-M "P -1"
_symmetry_group_IT_number 2
_symmetry_cell_setting 'triclinic'
loop_
_space_group_symop_operation_xyz
x,y,z
-x,-y,-z
loop_
_atom_site_type_symbol
_atom_site_label
_atom_site_fract_x
_atom_site_fract_y
_atom_site_fract_z
Si Si1 0.593098 0.091192 0.309352
Si Si2 0.110807 0.111519 0.595983
Si Si3 0.724498 0.364501 0.608074
Si Si4 0.471559 0.790177 0.820107
Si Si5 0.002505 0.382124 0.071701
Si Si6 0.832625 0.132352 0.922631
Si Si7 0.449358 0.801080 0.155958
O O1 0.617924 0.246193 0.517813
O O2 0.525157 0.247353 0.338276
O O3 0.812782 0.805907 0.034070
O O4 0.466015 0.017047 0.302179
O O5 0.059463 0.242278 0.829384
O O6 0.342946 0.878556 0.349676
O O7 0.000000 0.000000 0.500000
O O8 0.056467 0.339656 0.711894
O O9 0.634614 0.561645 0.684840
O O10 0.950510 0.133426 0.357967
O O11 0.656849 0.525950 0.863378
O O12 0.500000 0.000000 0.000000
O O13 0.267418 0.886295 0.976731
O O14 0.845549 0.359925 0.119360
O O15 0.697551 0.184056 0.888109
#
# Coordination Sequence:
#
# PCOD9034872 Si02
#       7
#     2   2   2   2   2   2   2
#     4  11  24  45  66 103 140 178 227 288 333 403
#     4  11  24  45  75 101 135 180 226 289 348 408
#     4  10  24  42  65 100 141 178 234 273 335 407
#     4  11  22  43  67 104 139 184 232 271 340 405
#     4  10  25  44  71 106 134 175 239 276 348 409
#     4  10  22  45  69 100 140 179 229 281 331 408
#     4  11  24  41  71  98 138 181 222 282 346 400
#
# _framework density 24.273765999999998
#
# number of rings (size 3 to 8) (size 9 to 14) (size 15 to 20)
#    0.000    1.429    4.286    0.429    6.000    3.429 
#    2.571    5.000    0.000    0.000    0.000    0.000 
#    0.000    0.000    0.000    0.000    0.000    0.000 
#
# Total GULP energy -78279.701588 kJ/mol
# GULP energy per Si atom -5591.407256 kJ/mol
# Density = 2.421852 g / cm^3
# Si number density = 24.273766 Si / 1000 Ang^3
#
#
#
# Elastic Constant Matrix: (Units=GPa)
#
#
# Indices 1 2 3 4 5 6 
#
# 1 151.7590 39.7497 49.2551 7.2318 -7.9024 40.1170
# 2 39.7497 123.2332 37.7003 14.0942 -2.6783 31.8650
# 3 49.2551 37.7003 126.6442 0.4694 -3.9603 23.0528
# 4 7.2318 14.0942 0.4694 54.5308 7.0581 -2.0099
# 5 -7.9024 -2.6783 -3.9603 7.0581 45.1239 4.1384
# 6 40.1170 31.8650 23.0528 -2.0099 4.1384 46.0235
#
#
#
# Elastic Compliance Matrix: (Units=1/GPa)
#
#
# Indices 1 2 3 4 5 6 
#
# 1 0.009513 -0.000249 -0.002215 -0.001758 0.002402 -0.007303
# 2 -0.000249 0.010893 -0.001872 -0.003213 0.001553 -0.006667
# 3 -0.002215 -0.001872 0.009616 0.000584 0.000401 -0.001601
# 4 -0.001758 -0.003213 0.000584 0.020091 -0.004021 0.004703
# 5 0.002402 0.001553 0.000401 -0.004021 0.023860 -0.005690
# 6 -0.007303 -0.006667 -0.001601 0.004703 -0.005690 0.034228
#
#
# Mechanical properties :
#
#
# Convention : Reuss Voigt Hill
#
# Bulk Modulus (GPa) = 46.83674 72.78295 59.80985
# Shear Modulus (GPa) = 40.32614 47.46438 43.89526
#
# Velocity S-wave (km/s) = 4.08033 4.42676 4.25707
# Velocity P-wave (km/s) = 6.44484 7.49517 6.98976
#
# Compressibility (1/GPa) = 0.02135076
#
# Stress axis : x y z
#
# Youngs Moduli (GPa) = 105.12196 91.80388 103.98882
#
# Poissons Ratio (x) = 0.02289 0.23029
# Poissons Ratio (y) = 0.02621 0.19463
# Poissons Ratio (z) = 0.23280 0.17183
#
# Static dielectric constant tensor:
#      x y z
#    x 1.926880 -0.015160 -0.004620 
#    y -0.015160 1.955480 0.015400 
#    z -0.004620 0.015400 2.045190 
# 
# From -- ./inp_files/505779.got.cif
#   From: 2010.05.17/outbox.cif.g08.bks.cpg/sg2_253_cif.got.tgz:505779.got - 2010.06.03 11:33:40.
