data_PCOD9034029
_publ_section_title
;
Structure prediction by ZEFSAII (Michael W. Deem and Ramdas Pophale) SiO2 
 PCOD9034029
Probable space group: P -1
;
_chemical_formula_sum "Si O2"
_cell_formula_units_Z 16
_cell_length_a 22.591421
_cell_length_b 5.438722
_cell_length_c 11.336461
_cell_angle_alpha 61.931295
_cell_angle_beta 32.679941
_cell_angle_gamma 75.949942
_cell_volume 628.349596
_symmetry_space_group_name_H-M "P -1"
_symmetry_group_IT_number 2
_symmetry_cell_setting 'triclinic'
loop_
_space_group_symop_operation_xyz
x,y,z
-x,-y,-z
loop_
_atom_site_type_symbol
_atom_site_label
_atom_site_fract_x
_atom_site_fract_y
_atom_site_fract_z
Si Si1 0.812064 0.425533 0.403982
Si Si2 0.985264 0.645090 0.283833
Si Si3 0.804892 0.839936 0.639210
Si Si4 0.184972 0.435716 0.897609
Si Si5 0.397252 0.773503 0.877056
Si Si6 0.883349 0.065962 0.706398
Si Si7 0.414734 0.333537 0.577787
Si Si8 0.436941 0.739029 0.074750
O O1 0.911562 0.552638 0.306171
O O2 0.846109 0.538603 0.190950
O O3 0.691099 0.469860 0.626098
O O4 0.772005 0.072981 0.561323
O O5 0.936754 0.896273 0.358149
O O6 0.922605 0.410450 0.544046
O O7 0.111170 0.611124 0.054272
O O8 0.804563 0.924725 0.758192
O O9 0.711631 0.520500 0.858436
O O10 0.323452 0.508306 0.666225
O O11 0.153094 0.100670 0.073496
O O12 0.506108 0.695171 0.658125
O O13 0.366012 0.000161 0.789501
O O14 0.427144 0.892460 0.931664
O O15 0.000000 0.000000 0.500000
O O16 0.500000 0.500000 0.500000
O O17 0.500000 0.500000 0.000000
O O18 0.500000 0.000000 0.000000
#
# Coordination Sequence:
#
# PCOD9034029 Si02
#       8
#     2   2   2   2   2   2   2   2
#     4  11  25  43  69 104 144 189 242 307 379 441
#     4  10  22  44  71 100 136 190 243 295 382 439
#     4  11  22  44  72 101 141 193 247 301 374 462
#     4  11  23  42  68 101 142 184 239 313 367 457
#     4  11  25  46  74 106 141 199 247 315 381 453
#     4   9  21  40  68  99 135 186 241 303 364 442
#     4  11  26  46  73 107 148 188 247 317 387 443
#     4  12  27  46  77 110 148 203 258 313 379 467
#
# _framework density 25.463533999999999
#
# number of rings (size 3 to 8) (size 9 to 14) (size 15 to 20)
#    0.000    1.250    1.250    3.375    7.000    2.500 
#    0.000   11.250    0.000    0.000    0.000    0.000 
#    0.000    0.000    0.000    0.000    0.000    0.000 
#
# Total GULP energy -89394.262672 kJ/mol
# GULP energy per Si atom -5587.141417 kJ/mol
# Density = 2.540558 g / cm^3
# Si number density = 25.463534 Si / 1000 Ang^3
#
#
#
# Elastic Constant Matrix: (Units=GPa)
#
#
# Indices 1 2 3 4 5 6 
#
# 1 156.9343 39.9164 57.8439 0.0733 11.2651 2.0156
# 2 39.9164 83.4875 43.8587 28.9068 -8.5387 -13.6074
# 3 57.8439 43.8587 131.8415 27.8396 10.7766 -10.7550
# 4 0.0733 28.9068 27.8396 47.7378 -15.9308 -2.6384
# 5 11.2651 -8.5387 10.7766 -15.9308 55.6562 6.5908
# 6 2.0156 -13.6074 -10.7550 -2.6384 6.5908 43.8891
#
#
#
# Elastic Compliance Matrix: (Units=1/GPa)
#
#
# Indices 1 2 3 4 5 6 
#
# 1 0.008815 -0.004289 -0.003554 0.004461 -0.000204 -0.002307
# 2 -0.004289 0.019527 -0.002162 -0.010005 0.000827 0.004996
# 3 -0.003554 -0.002162 0.011867 -0.006857 -0.004183 0.002617
# 4 0.004461 -0.010005 -0.006857 0.033787 0.009072 -0.004318
# 5 -0.000204 0.000827 -0.004183 0.009072 0.021958 -0.003511
# 6 -0.002307 0.004996 0.002617 -0.004318 -0.003511 0.025348
#
#
# Mechanical properties :
#
#
# Convention : Reuss Voigt Hill
#
# Bulk Modulus (GPa) = 49.50659 72.83350 61.17005
# Shear Modulus (GPa) = 33.77358 44.83289 39.30324
#
# Velocity S-wave (km/s) = 3.64586 4.20059 3.93302
# Velocity P-wave (km/s) = 6.09979 7.22438 6.68577
#
# Compressibility (1/GPa) = 0.02019933
#
# Stress axis : x y z
#
# Youngs Moduli (GPa) = 113.44060 51.21149 84.26985
#
# Poissons Ratio (x) = 0.21963 0.29952
# Poissons Ratio (y) = 0.48652 0.18216
# Poissons Ratio (z) = 0.40319 0.11070
#
# Static dielectric constant tensor:
#      x y z
#    x 2.057980 -0.075450 -0.044730 
#    y -0.075450 2.309230 0.004900 
#    z -0.044730 0.004900 2.111260 
# 
# From -- ./inp_files/473362.got.cif
#   From: 2010.05.17/outbox.cif.g08.bks.cpg/sg2_237_cif.got.tgz:473362.got - 2010.06.03 11:33:40.
