data_PCOD9034985
_publ_section_title
;
Structure prediction by ZEFSAII (Michael W. Deem and Ramdas Pophale) SiO2 
 PCOD9034985
Probable space group: P -1
;
_chemical_formula_sum "Si O2"
_cell_formula_units_Z 16
_cell_length_a 8.963047
_cell_length_b 17.230771
_cell_length_c 15.494365
_cell_angle_alpha 137.519362
_cell_angle_beta 29.536925
_cell_angle_gamma 137.916537
_cell_volume 759.518808
_symmetry_space_group_name_H-M "P -1"
_symmetry_group_IT_number 2
_symmetry_cell_setting 'triclinic'
loop_
_space_group_symop_operation_xyz
x,y,z
-x,-y,-z
loop_
_atom_site_type_symbol
_atom_site_label
_atom_site_fract_x
_atom_site_fract_y
_atom_site_fract_z
Si Si1 0.128779 0.482641 0.173196
Si Si2 0.877485 0.826227 0.391164
Si Si3 0.758144 0.956030 0.720428
Si Si4 0.104158 0.425350 0.462407
Si Si5 0.039459 0.794087 0.935519
Si Si6 0.150864 0.448789 0.803344
Si Si7 0.160655 0.821775 0.701291
Si Si8 0.806900 0.980492 0.284035
O O1 0.047203 0.548375 0.351498
O O2 0.961756 0.338786 0.146153
O O3 0.019142 0.534414 0.185266
O O4 0.500000 0.500000 0.000000
O O5 0.909308 0.879673 0.515882
O O6 0.879644 0.690304 0.279364
O O7 0.531141 0.831050 0.537386
O O8 0.142948 0.913032 0.267641
O O9 0.385740 0.888831 0.855111
O O10 0.913206 0.969552 0.746926
O O11 0.480198 0.476423 0.325963
O O12 0.000000 0.500000 0.500000
O O13 0.988802 0.287318 0.378125
O O14 0.991494 0.794189 0.856572
O O15 0.794338 0.844836 0.153575
O O16 0.000000 0.500000 0.000000
O O17 0.137409 0.943075 0.769153
O O18 0.500000 0.000000 0.500000
#
# Coordination Sequence:
#
# PCOD9034985 Si02
#       8
#     2   2   2   2   2   2   2   2
#     4  12  29  48  73 103 143 189 238 300 351 423
#     4  10  22  45  69  98 144 174 230 280 350 413
#     4  10  23  44  70  98 132 186 223 290 339 406
#     4  12  23  47  73 103 143 186 234 288 357 419
#     4  11  26  48  67  99 143 179 236 284 352 414
#     4  12  28  44  73 108 141 188 234 288 363 424
#     4  11  24  44  73 101 143 183 226 290 348 419
#     4  12  26  41  71 104 134 182 235 285 348 406
#
# _framework density 21.06597
#
# number of rings (size 3 to 8) (size 9 to 14) (size 15 to 20)
#    0.000    0.750    3.750    2.625    7.000    1.000 
#    0.000    0.000    0.000    0.000    0.000    0.000 
#    0.000    0.000    0.000    0.000    0.000    0.000 
#
# Total GULP energy -89582.077943 kJ/mol
# GULP energy per Si atom -5598.879871 kJ/mol
# Density = 2.101802 g / cm^3
# Si number density = 21.065970 Si / 1000 Ang^3
#
#
#
# Elastic Constant Matrix: (Units=GPa)
#
#
# Indices 1 2 3 4 5 6 
#
# 1 130.8351 17.4960 45.0588 7.3562 11.2698 3.6924
# 2 17.4960 86.4211 19.4439 11.9341 3.6693 15.0422
# 3 45.0588 19.4439 111.8846 0.6823 17.0384 18.8624
# 4 7.3562 11.9341 0.6823 42.4226 5.8591 -2.2523
# 5 11.2698 3.6693 17.0384 5.8591 24.9164 -0.8613
# 6 3.6924 15.0422 18.8624 -2.2523 -0.8613 30.3846
#
#
#
# Elastic Compliance Matrix: (Units=1/GPa)
#
#
# Indices 1 2 3 4 5 6 
#
# 1 0.009134 -0.001136 -0.003543 -0.000951 -0.001264 0.001546
# 2 -0.001136 0.013650 -0.000762 -0.003935 -0.000272 -0.006445
# 3 -0.003543 -0.000762 0.012888 0.001291 -0.007655 -0.007314
# 4 -0.000951 -0.003935 0.001291 0.025789 -0.005833 0.003009
# 5 -0.001264 -0.000272 -0.007655 -0.005833 0.047558 0.005956
# 6 0.001546 -0.006445 -0.007314 0.003009 0.005956 0.040847
#
#
# Mechanical properties :
#
#
# Convention : Reuss Voigt Hill
#
# Bulk Modulus (GPa) = 40.34221 54.79315 47.56768
# Shear Modulus (GPa) = 29.58365 36.02085 32.80225
#
# Velocity S-wave (km/s) = 3.75151 4.13959 3.95032
# Velocity P-wave (km/s) = 6.16093 6.99393 6.59060
#
# Compressibility (1/GPa) = 0.02478793
#
# Stress axis : x y z
#
# Youngs Moduli (GPa) = 109.47883 73.26193 77.59033
#
# Poissons Ratio (x) = 0.08323 0.27494
# Poissons Ratio (y) = 0.12438 0.05916
# Poissons Ratio (z) = 0.38793 0.05586
#
# Static dielectric constant tensor:
#      x y z
#    x 1.722740 0.004800 0.001900 
#    y 0.004800 1.768930 0.002370 
#    z 0.001900 0.002370 1.761720 
# 
# From -- ./inp_files/245685.got.cif
#   From: 2010.05.17/outbox.cif.g08.bks.cpg/sg2_123_cif.got.tgz:245685.got - 2010.06.03 11:33:40.
