data_PCOD9034558
_publ_section_title
;
Structure prediction by ZEFSAII (Michael W. Deem and Ramdas Pophale) SiO2 
 PCOD9034558
Probable space group: P -1
;
_chemical_formula_sum "Si O2"
_cell_formula_units_Z 16
_cell_length_a 27.807840
_cell_length_b 5.998494
_cell_length_c 25.059206
_cell_angle_alpha 63.074635
_cell_angle_beta 10.129509
_cell_angle_gamma 63.339597
_cell_volume 655.345980
_symmetry_space_group_name_H-M "P -1"
_symmetry_group_IT_number 2
_symmetry_cell_setting 'triclinic'
loop_
_space_group_symop_operation_xyz
x,y,z
-x,-y,-z
loop_
_atom_site_type_symbol
_atom_site_label
_atom_site_fract_x
_atom_site_fract_y
_atom_site_fract_z
Si Si1 0.321629 0.323915 0.786056
Si Si2 0.094136 0.524333 0.303937
Si Si3 0.911549 0.925740 0.310103
Si Si4 0.395951 0.523949 0.318037
Si Si5 0.721402 0.154090 0.277700
Si Si6 0.933392 0.042209 0.399291
Si Si7 0.521141 0.305016 0.946842
Si Si8 0.432669 0.284874 0.788448
O O1 0.583781 0.232368 0.475996
O O2 0.215037 0.579070 0.847912
O O3 0.357831 0.388269 0.801816
O O4 0.128578 0.083174 0.024095
O O5 0.958522 0.797955 0.433839
O O6 0.843389 0.358865 0.574902
O O7 0.328257 0.578504 0.998438
O O8 0.274158 0.409281 0.167690
O O9 0.875215 0.633997 0.377869
O O10 0.943241 0.973735 0.332953
O O11 0.621007 0.042877 0.597187
O O12 0.400806 0.534563 0.375388
O O13 0.337295 0.787228 0.323435
O O14 0.500000 0.000000 0.500000
O O15 0.000000 0.000000 0.000000
O O16 0.206149 0.198453 0.087550
O O17 0.500000 0.500000 0.000000
O O18 0.500000 0.000000 0.000000
#
# Coordination Sequence:
#
# PCOD9034558 Si02
#       8
#     2   2   2   2   2   2   2   2
#     4  10  26  48  72 101 153 192 253 329 377 469
#     4  12  27  51  84 112 165 208 265 335 391 469
#     4  10  22  45  64 109 152 195 241 310 385 478
#     4  11  25  43  75 113 156 200 251 302 407 478
#     4  11  28  50  78 106 137 201 272 313 398 445
#     4  10  24  44  67 111 153 198 246 307 388 476
#     4  12  31  57  84 121 161 220 283 338 398 463
#     4  10  23  41  70 106 154 189 247 307 389 476
#
# _framework density 24.414584999999999
#
# number of rings (size 3 to 8) (size 9 to 14) (size 15 to 20)
#    0.000    1.250    1.250    1.500   10.500    5.000 
#    0.000    0.000    0.000    0.000    0.000    0.000 
#    0.000    0.000    0.000    0.000    0.000    0.000 
#
# Total GULP energy -89316.074787 kJ/mol
# GULP energy per Si atom -5582.254674 kJ/mol
# Density = 2.435902 g / cm^3
# Si number density = 24.414585 Si / 1000 Ang^3
#
#
#
# Elastic Constant Matrix: (Units=GPa)
#
#
# Indices 1 2 3 4 5 6 
#
# 1 80.1672 34.7597 48.0202 -6.9580 4.2756 -7.0269
# 2 34.7597 139.5662 69.5595 2.0411 5.7925 -19.6247
# 3 48.0202 69.5595 112.6961 6.5729 -13.2442 -23.6724
# 4 -6.9580 2.0411 6.5729 45.1334 -0.1494 -7.3266
# 5 4.2756 5.7925 -13.2442 -0.1494 30.1889 2.6038
# 6 -7.0269 -19.6247 -23.6724 -7.3266 2.6038 35.0925
#
#
#
# Elastic Compliance Matrix: (Units=1/GPa)
#
#
# Indices 1 2 3 4 5 6 
#
# 1 0.018541 -0.000018 -0.009126 0.003982 -0.006508 -0.001139
# 2 -0.000018 0.011266 -0.007219 0.000847 -0.005495 0.002012
# 3 -0.009126 -0.007219 0.019968 -0.002949 0.010890 0.006182
# 4 0.003982 0.000847 -0.002949 0.023874 -0.002285 0.004436
# 5 -0.006508 -0.005495 0.010890 -0.002285 0.039908 -0.000468
# 6 -0.001139 0.002012 0.006182 0.004436 -0.000468 0.034524
#
#
# Mechanical properties :
#
#
# Convention : Reuss Voigt Hill
#
# Bulk Modulus (GPa) = 58.65056 70.78983 64.72020
# Shear Modulus (GPa) = 26.81139 34.08895 30.45017
#
# Velocity S-wave (km/s) = 3.31746 3.74070 3.53542
# Velocity P-wave (km/s) = 6.22487 6.90760 6.57510
#
# Compressibility (1/GPa) = 0.01705014
#
# Stress axis : x y z
#
# Youngs Moduli (GPa) = 53.93520 88.76383 50.08049
#
# Poissons Ratio (x) = 0.00157 0.45702
# Poissons Ratio (y) = 0.00096 0.36152
# Poissons Ratio (z) = 0.49219 0.64076
#
# Static dielectric constant tensor:
#      x y z
#    x 1.935360 0.053430 -0.020550 
#    y 0.053430 2.026830 -0.046410 
#    z -0.020550 -0.046410 2.023090 
# 
# From -- ./inp_files/621434.got.cif
#   From: 2010.05.17/outbox.cif.g08.bks.cpg/sg2_311_cif.got.tgz:621434.got - 2010.06.03 11:33:40.
