data_PCOD9034664
_publ_section_title
;
Structure prediction by ZEFSAII (Michael W. Deem and Ramdas Pophale) SiO2 
 PCOD9034664
Probable space group: P -1
;
_chemical_formula_sum "Si O2"
_cell_formula_units_Z 16
_cell_length_a 18.341206
_cell_length_b 12.676336
_cell_length_c 7.557217
_cell_angle_alpha 32.280430
_cell_angle_beta 46.353586
_cell_angle_gamma 44.392505
_cell_volume 638.797271
_symmetry_space_group_name_H-M "P -1"
_symmetry_group_IT_number 2
_symmetry_cell_setting 'triclinic'
loop_
_space_group_symop_operation_xyz
x,y,z
-x,-y,-z
loop_
_atom_site_type_symbol
_atom_site_label
_atom_site_fract_x
_atom_site_fract_y
_atom_site_fract_z
Si Si1 0.974203 0.785764 0.870898
Si Si2 0.232074 0.449377 0.311168
Si Si3 0.808138 0.975300 0.604832
Si Si4 0.044752 0.790464 0.110376
Si Si5 0.606779 0.928399 0.532443
Si Si6 0.623013 0.266305 0.306925
Si Si7 0.574544 0.753633 0.189123
Si Si8 0.184623 0.413546 0.027801
O O1 0.968957 0.754934 0.135000
O O2 0.078070 0.600671 0.885334
O O3 0.864769 0.837240 0.872579
O O4 0.000000 0.000000 0.500000
O O5 0.114641 0.583673 0.393945
O O6 0.314099 0.571211 0.054438
O O7 0.204833 0.453087 0.141061
O O8 0.298445 0.203882 0.567204
O O9 0.864760 0.145059 0.238686
O O10 0.684822 0.112864 0.584065
O O11 0.837810 0.803941 0.641773
O O12 0.000000 0.000000 0.000000
O O13 0.500000 0.000000 0.500000
O O14 0.629296 0.113261 0.344642
O O15 0.586852 0.767760 0.938431
O O16 0.499415 0.364853 0.432908
O O17 0.700597 0.645558 0.184878
O O18 0.500000 0.000000 0.000000
#
# Coordination Sequence:
#
# PCOD9034664 Si02
#       8
#     2   2   2   2   2   2   2   2
#     4   9  19  33  52  81 109 142 183 223 272 327
#     4   9  19  35  58  79 111 152 183 224 283 332
#     4  10  17  33  59  79 112 141 177 229 278 326
#     4   9  19  36  56  78 110 145 186 226 271 330
#     4  10  20  35  54  78 112 147 187 226 272 333
#     4  10  19  36  60  82 112 150 184 228 281 324
#     4   9  17  34  57  82 111 138 186 226 270 328
#     4  10  17  32  57  83 106 147 179 219 283 327
#
# _framework density 25.047069
#
# number of rings (size 3 to 8) (size 9 to 14) (size 15 to 20)
#    0.000    2.500    3.750    1.125    0.000    2.500 
#    0.000   10.000    0.000    0.000    0.000    0.000 
#    0.000    0.000    0.000    0.000    0.000    0.000 
#
# Total GULP energy -89107.852145 kJ/mol
# GULP energy per Si atom -5569.240759 kJ/mol
# Density = 2.499006 g / cm^3
# Si number density = 25.047069 Si / 1000 Ang^3
#
#
#
# Elastic Constant Matrix: (Units=GPa)
#
#
# Indices 1 2 3 4 5 6 
#
# 1 153.4994 59.7812 29.5900 -4.4840 -7.4122 -8.9893
# 2 59.7812 129.1862 24.0537 -17.5144 4.2644 -23.3278
# 3 29.5900 24.0537 52.2233 -8.4730 -13.1597 -1.5996
# 4 -4.4840 -17.5144 -8.4730 27.6089 1.0031 -4.5986
# 5 -7.4122 4.2644 -13.1597 1.0031 30.9747 -17.7080
# 6 -8.9893 -23.3278 -1.5996 -4.5986 -17.7080 41.0651
#
#
#
# Elastic Compliance Matrix: (Units=1/GPa)
#
#
# Indices 1 2 3 4 5 6 
#
# 1 0.008561 -0.003685 -0.003151 -0.001963 0.001273 -0.000013
# 2 -0.003685 0.012094 -0.001929 0.007636 0.000396 0.007014
# 3 -0.003151 -0.001929 0.026702 0.006967 0.014135 0.006130
# 4 -0.001963 0.007636 0.006967 0.044659 0.006956 0.012180
# 5 0.001273 0.000396 0.014135 0.006956 0.052241 0.024361
# 6 -0.000013 0.007014 0.006130 0.012180 0.024361 0.040441
#
#
# Mechanical properties :
#
#
# Convention : Reuss Voigt Hill
#
# Bulk Modulus (GPa) = 33.52705 62.41762 47.97233
# Shear Modulus (GPa) = 23.56590 34.69535 29.13062
#
# Velocity S-wave (km/s) = 3.07068 3.72587 3.41403
# Velocity P-wave (km/s) = 5.09772 6.59422 5.89366
#
# Compressibility (1/GPa) = 0.02982666
#
# Stress axis : x y z
#
# Youngs Moduli (GPa) = 116.81186 82.68576 37.44992
#
# Poissons Ratio (x) = 0.30472 0.11801
# Poissons Ratio (y) = 0.43049 0.07223
# Poissons Ratio (z) = 0.36810 0.15948
#
# Static dielectric constant tensor:
#      x y z
#    x 2.084510 -0.108290 0.039130 
#    y -0.108290 2.157320 0.049100 
#    z 0.039130 0.049100 2.090310 
# 
# From -- ./inp_files/330590.got.cif
#   From: 2010.05.17/outbox.cif.g08.bks.cpg/sg2_166_cif.got.tgz:330590.got - 2010.06.03 11:33:40.
