data_PCOD9034227
_publ_section_title
;
Structure prediction by ZEFSAII (Michael W. Deem and Ramdas Pophale) SiO2 
 PCOD9034227
Probable space group: P -1
;
_chemical_formula_sum "Si O2"
_cell_formula_units_Z 14
_cell_length_a 12.060637
_cell_length_b 5.372134
_cell_length_c 22.913346
_cell_angle_alpha 83.758198
_cell_angle_beta 146.208567
_cell_angle_gamma 116.933957
_cell_volume 619.603239
_symmetry_space_group_name_H-M "P -1"
_symmetry_group_IT_number 2
_symmetry_cell_setting 'triclinic'
loop_
_space_group_symop_operation_xyz
x,y,z
-x,-y,-z
loop_
_atom_site_type_symbol
_atom_site_label
_atom_site_fract_x
_atom_site_fract_y
_atom_site_fract_z
Si Si1 0.386081 0.491382 0.223110
Si Si2 0.727444 0.281200 0.351844
Si Si3 0.334478 0.619123 0.418501
Si Si4 0.798406 0.233436 0.252579
Si Si5 0.737179 0.543370 0.959407
Si Si6 0.057141 0.436760 0.178428
Si Si7 0.452973 0.257277 0.033384
O O1 0.552624 0.374031 0.292755
O O2 0.223899 0.389201 0.094196
O O3 0.202445 0.356222 0.202531
O O4 0.574414 0.891095 0.301284
O O5 0.796305 0.356814 0.311722
O O6 0.000000 0.500000 0.500000
O O7 0.500000 0.500000 0.500000
O O8 0.232558 0.597556 0.308831
O O9 0.080647 0.361340 0.355674
O O10 0.500000 0.000000 0.500000
O O11 0.540410 0.841037 0.147820
O O12 0.732011 0.380269 0.170675
O O13 0.671397 0.738414 0.961274
O O14 0.976866 0.600756 0.095976
O O15 0.765867 0.107878 0.077953
O O16 0.500000 0.500000 0.000000
#
# Coordination Sequence:
#
# PCOD9034227 Si02
#       7
#     2   2   2   2   2   2   2
#     4  11  25  44  71 109 142 176 237 292 359 413
#     4  11  25  44  72  99 139 196 233 281 341 425
#     4  12  31  47  70 101 144 191 234 290 347 414
#     4  10  24  46  68 102 137 182 243 286 347 414
#     4  10  22  44  72 105 136 184 228 300 353 418
#     4  11  27  44  70 108 142 184 234 293 361 416
#     4  11  22  41  76  98 140 183 238 290 349 417
#
# _framework density 22.595103000000002
#
# number of rings (size 3 to 8) (size 9 to 14) (size 15 to 20)
#    0.000    1.143    1.429    2.571   12.000    2.857 
#    0.000    0.000    0.000    0.000    0.000    0.000 
#    0.000    0.000    0.000    0.000    0.000    0.000 
#
# Total GULP energy -78289.727311 kJ/mol
# GULP energy per Si atom -5592.123379 kJ/mol
# Density = 2.254368 g / cm^3
# Si number density = 22.595103 Si / 1000 Ang^3
#
#
#
# Elastic Constant Matrix: (Units=GPa)
#
#
# Indices 1 2 3 4 5 6 
#
# 1 138.9165 20.9238 72.9567 -2.1550 4.9942 -17.5884
# 2 20.9238 80.9539 62.2158 -1.8159 -3.2057 -20.2657
# 3 72.9567 62.2158 179.1128 -14.4399 -12.5266 -16.4360
# 4 -2.1550 -1.8159 -14.4399 28.0812 -9.9169 8.3778
# 5 4.9942 -3.2057 -12.5266 -9.9169 52.2632 -5.8758
# 6 -17.5884 -20.2657 -16.4360 8.3778 -5.8758 39.7355
#
#
#
# Elastic Compliance Matrix: (Units=1/GPa)
#
#
# Indices 1 2 3 4 5 6 
#
# 1 0.009937 0.001902 -0.004797 -0.003497 -0.002220 0.003793
# 2 0.001902 0.019434 -0.007186 -0.005156 -0.000705 0.008764
# 3 -0.004797 -0.007186 0.010602 0.006545 0.003547 -0.002259
# 4 -0.003497 -0.005156 0.006545 0.044366 0.008937 -0.009503
# 5 -0.002220 -0.000705 0.003547 0.008937 0.022017 0.001496
# 6 0.003793 0.008764 -0.002259 -0.009503 0.001496 0.032606
#
#
# Mechanical properties :
#
#
# Convention : Reuss Voigt Hill
#
# Bulk Modulus (GPa) = 50.47944 79.01952 64.74948
# Shear Modulus (GPa) = 30.16982 40.20845 35.18913
#
# Velocity S-wave (km/s) = 3.65805 4.22301 3.95064
# Velocity P-wave (km/s) = 6.34281 7.66983 7.03767
#
# Compressibility (1/GPa) = 0.01981004
#
# Stress axis : x y z
#
# Youngs Moduli (GPa) = 100.62901 51.45567 94.32444
#
# Poissons Ratio (x) = -0.09786 0.45252
# Poissons Ratio (y) = -0.19137 0.67781
# Poissons Ratio (z) = 0.48276 0.36976
#
# Static dielectric constant tensor:
#      x y z
#    x 1.801710 -0.017940 0.035800 
#    y -0.017940 1.893650 0.021700 
#    z 0.035800 0.021700 1.808480 
# 
# From -- ./inp_files/27908.got.cif
#   From: 2010.05.17/outbox.cif.g08.bks.cpg/sg2_14_cif.got.tgz:27908.got - 2010.06.03 11:33:40.
