data_PCOD9034961
_publ_section_title
;
Structure prediction by ZEFSAII (Michael W. Deem and Ramdas Pophale) SiO2 
 PCOD9034961
Probable space group: P -1
;
_chemical_formula_sum "Si O2"
_cell_formula_units_Z 14
_cell_length_a 8.668936
_cell_length_b 17.648835
_cell_length_c 6.447249
_cell_angle_alpha 54.796831
_cell_angle_beta 75.547963
_cell_angle_gamma 51.788047
_cell_volume 624.440632
_symmetry_space_group_name_H-M "P -1"
_symmetry_group_IT_number 2
_symmetry_cell_setting 'triclinic'
loop_
_space_group_symop_operation_xyz
x,y,z
-x,-y,-z
loop_
_atom_site_type_symbol
_atom_site_label
_atom_site_fract_x
_atom_site_fract_y
_atom_site_fract_z
Si Si1 0.760777 0.348963 0.800565
Si Si2 0.018344 0.829265 0.294321
Si Si3 0.030011 0.667429 0.847153
Si Si4 0.331065 0.465511 0.808044
Si Si5 0.601580 0.768059 0.907308
Si Si6 0.311050 0.106046 0.013481
Si Si7 0.821198 0.007354 0.435334
O O1 0.810200 0.235708 0.837730
O O2 0.553875 0.411379 0.893288
O O3 0.727511 0.441180 0.497891
O O4 0.927875 0.325185 0.940130
O O5 0.097668 0.735903 0.596548
O O6 0.911877 0.948196 0.271030
O O7 0.851715 0.836446 0.202778
O O8 0.798307 0.733735 0.771967
O O9 0.166514 0.536158 0.928589
O O10 0.352275 0.355653 0.885123
O O11 0.619859 0.821676 0.025078
O O12 0.389371 0.866155 0.720912
O O13 0.236423 0.062526 0.292800
O O14 0.500000 0.000000 0.000000
O O15 0.000000 0.000000 0.500000
#
# Coordination Sequence:
#
# PCOD9034961 Si02
#       7
#     2   2   2   2   2   2   2
#     4  10  22  45  69  96 140 179 226 286 344 410
#     4  11  22  42  74  94 135 180 228 275 351 400
#     4  11  22  44  70  96 137 182 227 285 340 410
#     4  10  25  42  65 104 135 176 232 282 345 407
#     4  12  24  43  70 100 137 179 230 281 345 410
#     4  12  24  46  70  99 140 182 231 284 341 413
#     4  12  28  46  70 105 142 181 230 288 350 413
#
# _framework density 22.420065000000001
#
# number of rings (size 3 to 8) (size 9 to 14) (size 15 to 20)
#    0.000    0.857    4.286    2.143    4.000    2.286 
#    5.143    0.000    0.000    0.000    0.000    0.000 
#    0.000    0.000    0.000    0.000    0.000    0.000 
#
# Total GULP energy -78087.062664 kJ/mol
# GULP energy per Si atom -5577.647333 kJ/mol
# Density = 2.236904 g / cm^3
# Si number density = 22.420065 Si / 1000 Ang^3
#
#
#
# Elastic Constant Matrix: (Units=GPa)
#
#
# Indices 1 2 3 4 5 6 
#
# 1 93.3224 58.5538 24.7810 5.2230 19.5937 -3.7861
# 2 58.5538 208.5499 30.1351 9.3983 9.7228 -3.8140
# 3 24.7810 30.1351 52.6183 2.5748 14.1698 -5.9114
# 4 5.2230 9.3983 2.5748 27.4513 -0.7098 3.6380
# 5 19.5937 9.7228 14.1698 -0.7098 33.4392 -5.8262
# 6 -3.7861 -3.8140 -5.9114 3.6380 -5.8262 39.3878
#
#
#
# Elastic Compliance Matrix: (Units=1/GPa)
#
#
# Indices 1 2 3 4 5 6 
#
# 1 0.015209 -0.003408 -0.003394 -0.001551 -0.006551 -0.000203
# 2 -0.003408 0.006060 -0.002084 -0.001232 0.001132 0.000228
# 3 -0.003394 -0.002084 0.024058 -0.001368 -0.007257 0.002135
# 4 -0.001551 -0.001232 -0.001368 0.037811 0.002010 -0.003669
# 5 -0.006551 0.001132 -0.007257 0.002010 0.037178 0.003704
# 6 -0.000203 0.000228 0.002135 -0.003669 0.003704 0.026598
#
#
# Mechanical properties :
#
#
# Convention : Reuss Voigt Hill
#
# Bulk Modulus (GPa) = 36.29191 64.60337 50.44764
# Shear Modulus (GPa) = 28.75674 36.12371 32.44022
#
# Velocity S-wave (km/s) = 3.58527 4.01836 3.80798
# Velocity P-wave (km/s) = 5.77592 7.09980 6.47180
#
# Compressibility (1/GPa) = 0.02755435
#
# Stress axis : x y z
#
# Youngs Moduli (GPa) = 65.74979 165.01554 41.56626
#
# Poissons Ratio (x) = 0.56241 0.14106
# Poissons Ratio (y) = 0.22409 0.08664
# Poissons Ratio (z) = 0.22313 0.34397
#
# Static dielectric constant tensor:
#      x y z
#    x 1.886070 -0.076340 -0.031900 
#    y -0.076340 1.955620 -0.014230 
#    z -0.031900 -0.014230 1.811980 
# 
# From -- ./inp_files/39792.got.cif
#   From: 2010.05.17/outbox.cif.g08.bks.cpg/sg2_20_cif.got.tgz:39792.got - 2010.06.03 11:33:40.
