data_PCOD9034986
_publ_section_title
;
Structure prediction by ZEFSAII (Michael W. Deem and Ramdas Pophale) SiO2 
 PCOD9034986
Probable space group: P -1
;
_chemical_formula_sum "Si O2"
_cell_formula_units_Z 14
_cell_length_a 5.360276
_cell_length_b 5.010820
_cell_length_c 26.479306
_cell_angle_alpha 63.704887
_cell_angle_beta 65.767018
_cell_angle_gamma 94.495162
_cell_volume 551.202534
_symmetry_space_group_name_H-M "P -1"
_symmetry_group_IT_number 2
_symmetry_cell_setting 'triclinic'
loop_
_space_group_symop_operation_xyz
x,y,z
-x,-y,-z
loop_
_atom_site_type_symbol
_atom_site_label
_atom_site_fract_x
_atom_site_fract_y
_atom_site_fract_z
Si Si1 0.599983 0.531071 0.728208
Si Si2 0.482762 0.604350 0.846342
Si Si3 0.918551 0.046572 0.585775
Si Si4 0.752869 0.283426 0.479976
Si Si5 0.695243 0.133299 0.910002
Si Si6 0.932155 0.581709 0.942643
Si Si7 0.008438 0.799901 0.225104
O O1 0.478037 0.572083 0.789867
O O2 0.335312 0.305917 0.736708
O O3 0.857450 0.388144 0.730528
O O4 0.727163 0.863031 0.662446
O O5 0.435875 0.266277 0.905193
O O6 0.245520 0.747595 0.876498
O O7 0.799175 0.840043 0.813525
O O8 0.188735 0.341662 0.558228
O O9 0.764606 0.204617 0.544643
O O10 0.987973 0.779695 0.568289
O O11 0.500000 0.000000 0.500000
O O12 0.804353 0.285533 0.941801
O O13 0.898299 0.264816 0.833547
O O14 0.717176 0.786929 0.940457
O O15 0.000000 0.500000 0.000000
#
# Coordination Sequence:
#
# PCOD9034986 Si02
#       7
#     2   2   2   2   2   2   2
#     4  11  26  43  74 111 144 194 249 311 375 444
#     4  11  26  46  75 103 152 194 250 312 386 449
#     4  10  24  42  67 107 137 187 248 298 360 445
#     4  10  22  45  69  98 146 192 236 299 365 432
#     4  11  24  47  70 102 144 190 245 304 379 443
#     4  12  26  46  74 108 147 196 252 309 377 456
#     4  11  24  47  73 105 147 193 243 308 377 446
#
# _framework density 25.399011999999999
#
# number of rings (size 3 to 8) (size 9 to 14) (size 15 to 20)
#    0.000    1.143    2.857    1.714    6.000    1.143 
#    0.000    0.000    0.000    0.000    0.000    0.000 
#    0.000    0.000    0.000    0.000    0.000    0.000 
#
# Total GULP energy -78287.789697 kJ/mol
# GULP energy per Si atom -5591.984978 kJ/mol
# Density = 2.534120 g / cm^3
# Si number density = 25.399012 Si / 1000 Ang^3
#
#
#
# Elastic Constant Matrix: (Units=GPa)
#
#
# Indices 1 2 3 4 5 6 
#
# 1 113.9147 49.4846 59.1194 -6.8194 9.2183 14.7227
# 2 49.4846 164.6704 37.7444 -20.5489 9.5427 4.3513
# 3 59.1194 37.7444 108.6502 -26.0208 13.7674 8.7036
# 4 -6.8194 -20.5489 -26.0208 30.1172 3.9368 2.2493
# 5 9.2183 9.5427 13.7674 3.9368 13.2512 -6.0656
# 6 14.7227 4.3513 8.7036 2.2493 -6.0656 44.1251
#
#
#
# Elastic Compliance Matrix: (Units=1/GPa)
#
#
# Indices 1 2 3 4 5 6 
#
# 1 0.014139 -0.003172 -0.007997 -0.005886 0.001440 -0.002329
# 2 -0.003172 0.008103 0.002088 0.007920 -0.008970 -0.001789
# 3 -0.007997 0.002088 0.023064 0.024088 -0.030496 -0.007507
# 4 -0.005886 0.007920 0.024088 0.066041 -0.052749 -0.014186
# 5 0.001440 -0.008970 -0.030496 -0.052749 0.141341 0.028537
# 6 -0.002329 -0.001789 -0.007507 -0.014186 0.028537 0.029743
#
#
# Mechanical properties :
#
#
# Convention : Reuss Voigt Hill
#
# Bulk Modulus (GPa) = 36.84069 75.54800 56.19434
# Shear Modulus (GPa) = 16.14771 33.55784 24.85277
#
# Velocity S-wave (km/s) = 2.52417 3.63881 3.13148
# Velocity P-wave (km/s) = 4.79911 6.88939 5.93697
#
# Compressibility (1/GPa) = 0.02714390
#
# Stress axis : x y z
#
# Youngs Moduli (GPa) = 70.72665 123.41265 43.35712
#
# Poissons Ratio (x) = 0.39150 0.34672
# Poissons Ratio (y) = 0.22437 -0.09053
# Poissons Ratio (z) = 0.56559 -0.25769
#
# Static dielectric constant tensor:
#      x y z
#    x 2.126450 -0.016950 -0.034590 
#    y -0.016950 2.020630 -0.065180 
#    z -0.034590 -0.065180 2.015130 
# 
# From -- ./inp_files/603099.got.cif
#   From: 2010.05.17/outbox.cif.g08.bks.cpg/sg2_302_cif.got.tgz:603099.got - 2010.06.03 11:33:40.
