data_PCOD9034071
_publ_section_title
;
Structure prediction by ZEFSAII (Michael W. Deem and Ramdas Pophale) SiO2 
 PCOD9034071
Probable space group: P -1
;
_chemical_formula_sum "Si O2"
_cell_formula_units_Z 15
_cell_length_a 8.389500
_cell_length_b 11.574989
_cell_length_c 11.334423
_cell_angle_alpha 87.914199
_cell_angle_beta 94.229981
_cell_angle_gamma 38.240600
_cell_volume 671.439152
_symmetry_space_group_name_H-M "P -1"
_symmetry_group_IT_number 2
_symmetry_cell_setting 'triclinic'
loop_
_space_group_symop_operation_xyz
x,y,z
-x,-y,-z
loop_
_atom_site_type_symbol
_atom_site_label
_atom_site_fract_x
_atom_site_fract_y
_atom_site_fract_z
Si Si1 0.942062 0.773319 0.585878
Si Si2 0.646405 0.961063 0.181676
Si Si3 0.107654 0.309550 0.002373
Si Si4 0.500000 0.500000 0.500000
Si Si5 0.756520 0.383820 0.149164
Si Si6 0.426397 0.716457 0.276943
Si Si7 0.902216 0.058063 0.127741
Si Si8 0.608665 0.825663 0.407313
O O1 0.823255 0.724712 0.522865
O O2 0.195470 0.667879 0.531169
O O3 0.041800 0.708554 0.728077
O O4 0.683882 0.002150 0.560847
O O5 0.360121 0.142605 0.104080
O O6 0.787588 0.002114 0.166034
O O7 0.631832 0.919047 0.313380
O O8 0.799887 0.778341 0.119037
O O9 0.886190 0.351601 0.037432
O O10 0.000000 0.500000 0.000000
O O11 0.399710 0.634886 0.377640
O O12 0.518370 0.599626 0.167758
O O13 0.709976 0.274219 0.137732
O O14 0.624028 0.698928 0.339536
O O15 0.160762 0.932506 0.223069
O O16 0.000000 0.000000 0.000000
#
# Coordination Sequence:
#
# PCOD9034071 Si02
#       8
#     2   2   2   1   2   2   2   2
#     4  10  22  44  71 103 132 180 230 287 346 417
#     4  11  24  42  66 100 133 180 231 278 347 411
#     4  11  23  40  67  96 132 177 230 284 336 413
#     4  10  24  44  66 108 140 174 232 286 354 418
#     4  11  23  45  67 103 135 180 231 280 355 410
#     4  11  25  45  71 100 142 181 231 293 347 421
#     4  12  25  44  69  99 146 185 228 290 346 417
#     4  11  22  45  75 100 137 186 233 288 352 413
#
# _framework density 22.340073
#
# number of rings (size 3 to 8) (size 9 to 14) (size 15 to 20)
#    0.000    1.067    4.000    1.600    3.733    4.267 
#    9.600    4.000    0.000    0.000    0.000    0.000 
#    0.000    0.000    0.000    0.000    0.000    0.000 
#
# Total GULP energy -83579.215493 kJ/mol
# GULP energy per Si atom -5571.947700 kJ/mol
# Density = 2.228923 g / cm^3
# Si number density = 22.340073 Si / 1000 Ang^3
#
#
#
# Elastic Constant Matrix: (Units=GPa)
#
#
# Indices 1 2 3 4 5 6 
#
# 1 61.7964 42.1414 30.7128 17.7986 3.4587 -1.4439
# 2 42.1414 121.4350 20.2665 23.8899 -5.7312 6.5935
# 3 30.7128 20.2665 89.2725 9.0295 -2.6331 -13.7464
# 4 17.7986 23.8899 9.0295 30.1117 -4.5777 5.9987
# 5 3.4587 -5.7312 -2.6331 -4.5777 31.5078 13.2723
# 6 -1.4439 6.5935 -13.7464 5.9987 13.2723 35.9372
#
#
#
# Elastic Compliance Matrix: (Units=1/GPa)
#
#
# Indices 1 2 3 4 5 6 
#
# 1 0.028102 -0.007141 -0.006363 -0.011387 -0.008731 0.005131
# 2 -0.007141 0.011877 -0.000240 -0.003906 0.003742 -0.003288
# 3 -0.006363 -0.000240 0.014510 -0.001721 -0.000891 0.005955
# 4 -0.011387 -0.003906 -0.001721 0.048161 0.012964 -0.013226
# 5 -0.008731 0.003742 -0.000891 0.012964 0.043436 -0.019584
# 6 0.005131 -0.003288 0.005955 -0.013226 -0.019584 0.040354
#
#
# Mechanical properties :
#
#
# Convention : Reuss Voigt Hill
#
# Bulk Modulus (GPa) = 37.03578 50.97171 44.00375
# Shear Modulus (GPa) = 22.42874 31.47022 26.94948
#
# Velocity S-wave (km/s) = 3.17198 3.75732 3.47699
# Velocity P-wave (km/s) = 5.47992 6.45671 5.98826
#
# Compressibility (1/GPa) = 0.02700091
#
# Stress axis : x y z
#
# Youngs Moduli (GPa) = 35.58414 84.19950 68.91773
#
# Poissons Ratio (x) = 0.60126 0.43851
# Poissons Ratio (y) = 0.25410 0.01656
# Poissons Ratio (z) = 0.22642 0.02023
#
# Static dielectric constant tensor:
#      x y z
#    x 1.846140 -0.003830 0.020220 
#    y -0.003830 1.854560 0.024300 
#    z 0.020220 0.024300 1.828010 
# 
# From -- ./inp_files/390000.got.cif
#   From: 2010.05.17/outbox.cif.g08.bks.cpg/sg2_195_cif.got.tgz:390000.got - 2010.06.03 11:33:40.
