data_PCOD9034750
_publ_section_title
;
Structure prediction by ZEFSAII (Michael W. Deem and Ramdas Pophale) SiO2 
 PCOD9034750
Probable space group: P -1
;
_chemical_formula_sum "Si O2"
_cell_formula_units_Z 14
_cell_length_a 14.995955
_cell_length_b 19.918394
_cell_length_c 5.370946
_cell_angle_alpha 63.224585
_cell_angle_beta 72.351463
_cell_angle_gamma 22.990426
_cell_volume 530.021628
_symmetry_space_group_name_H-M "P -1"
_symmetry_group_IT_number 2
_symmetry_cell_setting 'triclinic'
loop_
_space_group_symop_operation_xyz
x,y,z
-x,-y,-z
loop_
_atom_site_type_symbol
_atom_site_label
_atom_site_fract_x
_atom_site_fract_y
_atom_site_fract_z
Si Si1 0.619802 0.970692 0.754725
Si Si2 0.405821 0.453892 0.568084
Si Si3 0.201624 0.735598 0.637630
Si Si4 0.320305 0.317555 0.467093
Si Si5 0.293760 0.889738 0.808839
Si Si6 0.157211 0.332507 0.977818
Si Si7 0.046496 0.183196 0.904054
O O1 0.754536 0.810698 0.739263
O O2 0.808012 0.883092 0.891047
O O3 0.325247 0.269994 0.803722
O O4 0.500000 0.000000 0.000000
O O5 0.310073 0.586560 0.628745
O O6 0.586987 0.360316 0.378191
O O7 0.559132 0.276481 0.868100
O O8 0.159029 0.611589 0.382328
O O9 0.102963 0.774363 0.912205
O O10 0.963668 0.945854 0.354749
O O11 0.423871 0.169559 0.466016
O O12 0.521290 0.229113 0.375608
O O13 0.048192 0.540938 0.264295
O O14 0.212690 0.022311 0.821195
O O15 0.000000 0.500000 0.000000
#
# Coordination Sequence:
#
# PCOD9034750 Si02
#       7
#     2   2   2   2   2   2   2
#     4  10  23  45  65  91 134 173 218 280 324 388
#     4  10  24  43  69  99 134 180 219 281 335 397
#     4  10  22  45  67  98 138 172 229 276 334 396
#     4  10  23  43  61  98 132 169 219 275 324 402
#     4  11  24  40  68 101 138 175 220 272 341 400
#     4  10  24  44  67  95 126 174 228 273 334 388
#     4  11  24  42  67 100 133 179 229 272 332 399
#
# _framework density 26.414016
#
# number of rings (size 3 to 8) (size 9 to 14) (size 15 to 20)
#    0.000    1.714    1.429    0.857    6.000    3.429 
#   10.286    0.000    0.000    0.000    0.000    0.000 
#    0.000    0.000    0.000    0.000    0.000    0.000 
#
# Total GULP energy -78279.212732 kJ/mol
# GULP energy per Si atom -5591.372338 kJ/mol
# Density = 2.635390 g / cm^3
# Si number density = 26.414016 Si / 1000 Ang^3
#
#
#
# Elastic Constant Matrix: (Units=GPa)
#
#
# Indices 1 2 3 4 5 6 
#
# 1 64.1209 30.2705 12.8827 -8.0791 6.3046 -20.5040
# 2 30.2705 143.7072 48.8708 0.1851 -9.8833 -31.1253
# 3 12.8827 48.8708 98.1997 -34.8843 -5.1161 -15.2826
# 4 -8.0791 0.1851 -34.8843 75.2233 -9.1790 -3.7677
# 5 6.3046 -9.8833 -5.1161 -9.1790 32.6739 -2.5516
# 6 -20.5040 -31.1253 -15.2826 -3.7677 -2.5516 38.4298
#
#
#
# Elastic Compliance Matrix: (Units=1/GPa)
#
#
# Indices 1 2 3 4 5 6 
#
# 1 0.020265 -0.002886 0.000950 0.002681 -0.003186 0.008904
# 2 -0.002886 0.010404 -0.004497 -0.001812 0.002890 0.005113
# 3 0.000950 -0.004497 0.016078 0.008227 0.003621 0.004305
# 4 0.002681 -0.001812 0.008227 0.018382 0.005810 0.005422
# 5 -0.003186 0.002890 0.003621 0.005810 0.034680 0.004953
# 6 0.008904 0.005113 0.004305 0.005422 0.004953 0.037486
#
#
# Mechanical properties :
#
#
# Convention : Reuss Voigt Hill
#
# Bulk Modulus (GPa) = 29.51406 54.45287 41.98346
# Shear Modulus (GPa) = 30.96845 43.53231 37.25038
#
# Velocity S-wave (km/s) = 3.42778 4.06405 3.75940
# Velocity P-wave (km/s) = 5.18306 6.53314 5.89687
#
# Compressibility (1/GPa) = 0.03388216
#
# Stress axis : x y z
#
# Youngs Moduli (GPa) = 49.34504 96.11583 62.19815
#
# Poissons Ratio (x) = 0.27736 -0.05908
# Poissons Ratio (y) = 0.14239 0.27968
# Poissons Ratio (z) = -0.04687 0.43220
#
# Static dielectric constant tensor:
#      x y z
#    x 2.150040 0.152110 0.059510 
#    y 0.152110 2.458500 -0.024880 
#    z 0.059510 -0.024880 2.118890 
# 
# From -- ./inp_files/112749.got.cif
#   From: 2010.05.17/outbox.cif.g08.bks.cpg/sg2_57_cif.got.tgz:112749.got - 2010.06.03 11:33:40.
