data_PCOD9034596
_publ_section_title
;
Structure prediction by ZEFSAII (Michael W. Deem and Ramdas Pophale) SiO2 
 PCOD9034596
Probable space group: P -1
;
_chemical_formula_sum "Si O2"
_cell_formula_units_Z 16
_cell_length_a 11.464013
_cell_length_b 7.797554
_cell_length_c 8.935156
_cell_angle_alpha 128.291186
_cell_angle_beta 92.644227
_cell_angle_gamma 89.531135
_cell_volume 626.016953
_symmetry_space_group_name_H-M "P -1"
_symmetry_group_IT_number 2
_symmetry_cell_setting 'triclinic'
loop_
_space_group_symop_operation_xyz
x,y,z
-x,-y,-z
loop_
_atom_site_type_symbol
_atom_site_label
_atom_site_fract_x
_atom_site_fract_y
_atom_site_fract_z
Si Si1 0.952909 0.340150 0.617730
Si Si2 0.069051 0.822004 0.809360
Si Si3 0.360441 0.498497 0.472554
Si Si4 0.756494 0.632191 0.861523
Si Si5 0.478379 0.189729 0.979954
Si Si6 0.278510 0.632535 0.862411
Si Si7 0.165013 0.210868 0.750730
Si Si8 0.619742 0.045565 0.438354
O O1 0.013481 0.575825 0.704944
O O2 0.039698 0.219410 0.669878
O O3 0.927776 0.196963 0.385822
O O4 0.840816 0.426570 0.747159
O O5 0.194608 0.814246 0.893630
O O6 0.000000 0.000000 0.000000
O O7 0.500000 0.500000 0.500000
O O8 0.272576 0.320933 0.291816
O O9 0.317246 0.520114 0.649807
O O10 0.350289 0.710997 0.482313
O O11 0.617662 0.630281 0.893482
O O12 0.820218 0.801593 0.073763
O O13 0.419513 0.068826 0.776770
O O14 0.604795 0.287288 0.006711
O O15 0.500000 0.000000 0.000000
O O16 0.213403 0.459761 0.868046
O O17 0.256666 0.067910 0.583685
O O18 0.500000 0.000000 0.500000
#
# Coordination Sequence:
#
# PCOD9034596 Si02
#       8
#     2   2   2   2   2   2   2   2
#     4  10  22  45  65  94 136 179 223 275 338 392
#     4  10  23  40  67  99 130 177 230 280 324 399
#     4  12  22  41  66  97 128 170 218 270 331 395
#     4  11  23  40  69  91 134 172 218 272 341 397
#     4  11  23  39  63  98 125 172 218 271 333 399
#     4  11  22  41  65  92 132 167 222 269 335 391
#     4  10  25  43  65  94 133 178 214 274 339 397
#     4  11  25  40  61  96 134 169 217 270 334 397
#
# _framework density 25.558412000000001
#
# number of rings (size 3 to 8) (size 9 to 14) (size 15 to 20)
#    0.000    1.250    3.750    1.125    3.500    2.000 
#    2.250    0.625    0.000    0.000    0.000    0.000 
#    0.000    0.000    0.000    0.000    0.000    0.000 
#
# Total GULP energy -89206.003896 kJ/mol
# GULP energy per Si atom -5575.375244 kJ/mol
# Density = 2.550024 g / cm^3
# Si number density = 25.558412 Si / 1000 Ang^3
#
#
#
# Elastic Constant Matrix: (Units=GPa)
#
#
# Indices 1 2 3 4 5 6 
#
# 1 158.5939 28.2974 48.1903 10.5021 -10.0679 -58.2790
# 2 28.2974 83.4413 16.6496 3.7425 -17.0077 -25.3411
# 3 48.1903 16.6496 137.5778 24.8557 -5.4551 -20.8375
# 4 10.5021 3.7425 24.8557 17.3410 10.7121 -5.5372
# 5 -10.0679 -17.0077 -5.4551 10.7121 48.6020 4.5327
# 6 -58.2790 -25.3411 -20.8375 -5.5372 4.5327 52.7035
#
#
#
# Elastic Compliance Matrix: (Units=1/GPa)
#
#
# Indices 1 2 3 4 5 6 
#
# 1 0.011281 0.000468 -0.001938 -0.001354 0.001494 0.011662
# 2 0.000468 0.015355 0.000261 -0.005519 0.006072 0.006902
# 3 -0.001938 0.000261 0.011450 -0.018335 0.005002 0.000153
# 4 -0.001354 -0.005519 -0.018335 0.103345 -0.027215 0.001798
# 5 0.001494 0.006072 0.005002 -0.027215 0.029462 0.001156
# 6 0.011662 0.006902 0.000153 0.001798 0.001156 0.035339
#
#
# Mechanical properties :
#
#
# Convention : Reuss Voigt Hill
#
# Bulk Modulus (GPa) = 28.03611 62.87640 45.45626
# Shear Modulus (GPa) = 22.67184 42.82768 32.74976
#
# Velocity S-wave (km/s) = 2.98159 4.09795 3.58351
# Velocity P-wave (km/s) = 4.77979 6.85896 5.91150
#
# Compressibility (1/GPa) = 0.03566829
#
# Stress axis : x y z
#
# Youngs Moduli (GPa) = 88.64580 65.12565 87.33691
#
# Poissons Ratio (x) = -0.03049 0.16924
# Poissons Ratio (y) = -0.04150 -0.02279
# Poissons Ratio (z) = 0.17177 -0.01699
#
# Static dielectric constant tensor:
#      x y z
#    x 2.041200 0.067740 -0.168030 
#    y 0.067740 2.061140 0.008650 
#    z -0.168030 0.008650 2.222350 
# 
# From -- ./inp_files/245942.got.cif
#   From: 2010.05.17/outbox.cif.g08.bks.cpg/sg2_123_cif.got.tgz:245942.got - 2010.06.03 11:33:40.
