data_PCOD9034346
_publ_section_title
;
Structure prediction by ZEFSAII (Michael W. Deem and Ramdas Pophale) SiO2 
 PCOD9034346
Probable space group: P -1
;
_chemical_formula_sum "Si O2"
_cell_formula_units_Z 16
_cell_length_a 19.590558
_cell_length_b 10.795195
_cell_length_c 17.056964
_cell_angle_alpha 29.898019
_cell_angle_beta 22.348200
_cell_angle_gamma 41.139949
_cell_volume 660.738559
_symmetry_space_group_name_H-M "P -1"
_symmetry_group_IT_number 2
_symmetry_cell_setting 'triclinic'
loop_
_space_group_symop_operation_xyz
x,y,z
-x,-y,-z
loop_
_atom_site_type_symbol
_atom_site_label
_atom_site_fract_x
_atom_site_fract_y
_atom_site_fract_z
Si Si1 0.354812 0.216689 0.621231
Si Si2 0.491206 0.253678 0.921665
Si Si3 0.728118 0.096176 0.353402
Si Si4 0.918782 0.529912 0.154779
Si Si5 0.005051 0.221256 0.756926
Si Si6 0.092600 0.998388 0.485269
Si Si7 0.918412 0.217133 0.675904
Si Si8 0.522064 0.236759 0.082145
O O1 0.402919 0.468306 0.376616
O O2 0.551429 0.152315 0.466108
O O3 0.242365 0.319021 0.754984
O O4 0.193276 0.963973 0.905932
O O5 0.544203 0.235805 0.965959
O O6 0.500000 0.000000 0.000000
O O7 0.271980 0.235365 0.168699
O O8 0.642065 0.992493 0.586176
O O9 0.823508 0.878571 0.337338
O O10 0.908418 0.327340 0.051622
O O11 0.841374 0.254052 0.427187
O O12 0.000000 0.500000 0.000000
O O13 0.029170 0.213285 0.640299
O O14 0.020333 0.521068 0.584027
O O15 0.000000 0.000000 0.500000
O O16 0.943935 0.003252 0.707454
O O17 0.712739 0.196149 0.934797
O O18 0.500000 0.500000 0.000000
#
# Coordination Sequence:
#
# PCOD9034346 Si02
#       8
#     2   2   2   2   2   2   2   2
#     4  11  24  45  70 105 145 189 236 303 372 427
#     4  12  26  48  71 106 150 191 243 305 366 441
#     4  11  23  42  71 106 138 186 243 301 358 433
#     4  11  24  43  65 100 144 182 239 299 357 430
#     4  10  22  44  73 106 143 178 244 303 356 428
#     4  12  25  45  70 101 144 192 238 296 370 434
#     4  11  23  43  75 104 139 191 243 301 363 426
#     4  12  25  46  76 107 143 196 252 296 361 448
#
# _framework density 24.215325
#
# number of rings (size 3 to 8) (size 9 to 14) (size 15 to 20)
#    0.000    0.750    3.750    4.500    1.750    0.500 
#    0.000    4.375    0.000    0.000    0.000    0.000 
#    0.000    0.000    0.000    0.000    0.000    0.000 
#
# Total GULP energy -89427.124825 kJ/mol
# GULP energy per Si atom -5589.195302 kJ/mol
# Density = 2.416021 g / cm^3
# Si number density = 24.215325 Si / 1000 Ang^3
#
#
#
# Elastic Constant Matrix: (Units=GPa)
#
#
# Indices 1 2 3 4 5 6 
#
# 1 90.0167 37.6261 9.1648 6.9652 6.4251 -14.1234
# 2 37.6261 128.8528 32.3903 17.5710 -6.5329 -26.5048
# 3 9.1648 32.3903 144.7485 -7.4130 1.5860 -15.8670
# 4 6.9652 17.5710 -7.4130 45.7151 -13.5974 -7.8902
# 5 6.4251 -6.5329 1.5860 -13.5974 32.6471 2.4328
# 6 -14.1234 -26.5048 -15.8670 -7.8902 2.4328 31.5542
#
#
#
# Elastic Compliance Matrix: (Units=1/GPa)
#
#
# Indices 1 2 3 4 5 6 
#
# 1 0.013389 -0.003308 0.000228 -0.001391 -0.004133 0.003300
# 2 -0.003308 0.010796 -0.001689 -0.002458 0.001421 0.006014
# 3 0.000228 -0.001689 0.007745 0.002423 0.000013 0.003183
# 4 -0.001391 -0.002458 0.002423 0.027405 0.010739 0.004555
# 5 -0.004133 0.001421 0.000013 0.010739 0.036257 -0.000760
# 6 0.003300 0.006014 0.003183 0.004555 -0.000760 0.041018
#
#
# Mechanical properties :
#
#
# Convention : Reuss Voigt Hill
#
# Bulk Modulus (GPa) = 44.65771 57.99782 51.32776
# Shear Modulus (GPa) = 32.54981 40.94574 36.74777
#
# Velocity S-wave (km/s) = 3.67029 4.11652 3.89979
# Velocity P-wave (km/s) = 6.03683 6.82621 6.44362
#
# Compressibility (1/GPa) = 0.02239255
#
# Stress axis : x y z
#
# Youngs Moduli (GPa) = 74.68824 92.63008 129.11835
#
# Poissons Ratio (x) = 0.30644 -0.02947
# Poissons Ratio (y) = 0.24708 0.21802
# Poissons Ratio (z) = -0.01705 0.15641
#
# Static dielectric constant tensor:
#      x y z
#    x 2.111540 -0.178660 -0.042810 
#    y -0.178660 1.938520 -0.048100 
#    z -0.042810 -0.048100 1.923180 
# 
# From -- ./inp_files/577909.got.cif
#   From: 2010.05.17/outbox.cif.g08.bks.cpg/sg2_289_cif.got.tgz:577909.got - 2010.06.03 11:33:40.
