data_PCOD9034457
_publ_section_title
;
Structure prediction by ZEFSAII (Michael W. Deem and Ramdas Pophale) SiO2 
 PCOD9034457
Probable space group: P -1
;
_chemical_formula_sum "Si O2"
_cell_formula_units_Z 16
_cell_length_a 14.735909
_cell_length_b 5.417500
_cell_length_c 14.611857
_cell_angle_alpha 102.249707
_cell_angle_beta 39.718324
_cell_angle_gamma 82.218022
_cell_volume 639.754767
_symmetry_space_group_name_H-M "P -1"
_symmetry_group_IT_number 2
_symmetry_cell_setting 'triclinic'
loop_
_space_group_symop_operation_xyz
x,y,z
-x,-y,-z
loop_
_atom_site_type_symbol
_atom_site_label
_atom_site_fract_x
_atom_site_fract_y
_atom_site_fract_z
Si Si1 0.899726 0.324847 0.563645
Si Si2 0.344897 0.815593 0.943554
Si Si3 0.379907 0.217053 0.377756
Si Si4 0.121742 0.055005 0.588355
Si Si5 0.585642 0.797033 0.331665
Si Si6 0.822115 0.210223 0.116963
Si Si7 0.239747 0.464808 0.131329
Si Si8 0.298305 0.728588 0.590678
O O1 0.871726 0.238237 0.477551
O O2 0.754370 0.483533 0.760487
O O3 0.000000 0.500000 0.500000
O O4 0.000000 0.000000 0.500000
O O5 0.531938 0.699093 0.761670
O O6 0.230755 0.850513 0.945692
O O7 0.287169 0.135280 0.052070
O O8 0.328213 0.598553 0.010686
O O9 0.283602 0.451415 0.550176
O O10 0.259185 0.098630 0.432845
O O11 0.534439 0.967430 0.291201
O O12 0.172852 0.994329 0.649595
O O13 0.949161 0.328942 0.731346
O O14 0.768582 0.551412 0.179394
O O15 0.474992 0.639125 0.407295
O O16 0.500000 0.000000 0.500000
O O17 0.718560 0.202800 0.284597
O O18 0.000000 0.000000 0.000000
#
# Coordination Sequence:
#
# PCOD9034457 Si02
#       8
#     2   2   2   2   2   2   2   2
#     4  10  22  44  75 108 140 182 235 296 368 437
#     4  12  26  46  67 103 149 191 232 296 372 430
#     4  11  24  42  69  94 142 191 246 288 358 432
#     4  10  25  42  74 105 131 183 247 300 350 441
#     4  11  21  41  65  91 132 196 249 295 352 428
#     4  12  25  40  68 102 142 189 246 301 365 422
#     4  11  25  46  73 103 146 184 232 304 374 426
#     4  11  23  41  65  96 137 186 244 298 352 424
#
# _framework density 25.009582999999999
#
# number of rings (size 3 to 8) (size 9 to 14) (size 15 to 20)
#    0.000    1.000    2.500    4.125    8.750    0.000 
#    0.000    5.000    0.000    0.000    0.000    0.000 
#    0.000    0.000    0.000    0.000    0.000    0.000 
#
# Total GULP energy -89409.139222 kJ/mol
# GULP energy per Si atom -5588.071201 kJ/mol
# Density = 2.495266 g / cm^3
# Si number density = 25.009583 Si / 1000 Ang^3
#
#
#
# Elastic Constant Matrix: (Units=GPa)
#
#
# Indices 1 2 3 4 5 6 
#
# 1 45.7104 17.4392 -3.4304 -3.8140 9.7117 0.0634
# 2 17.4392 126.2555 34.3140 -4.0062 8.1550 20.1236
# 3 -3.4304 34.3140 70.8783 -0.7080 6.3293 10.7395
# 4 -3.8140 -4.0062 -0.7080 62.4769 -2.2297 4.0222
# 5 9.7117 8.1550 6.3293 -2.2297 49.8152 9.8235
# 6 0.0634 20.1236 10.7395 4.0222 9.8235 49.1370
#
#
#
# Elastic Compliance Matrix: (Units=1/GPa)
#
#
# Indices 1 2 3 4 5 6 
#
# 1 0.024916 -0.004336 0.003468 0.000985 -0.004916 0.001888
# 2 -0.004336 0.010327 -0.004739 0.000573 0.000438 -0.003322
# 3 0.003468 -0.004739 0.016946 0.000128 -0.001767 -0.001425
# 4 0.000985 0.000573 0.000128 0.016244 0.000769 -0.001748
# 5 -0.004916 0.000438 -0.001767 0.000769 0.022060 -0.004260
# 6 0.001888 -0.003322 -0.001425 -0.001748 -0.004260 0.023016
#
#
# Mechanical properties :
#
#
# Convention : Reuss Voigt Hill
#
# Bulk Modulus (GPa) = 24.40619 37.72107 31.06363
# Shear Modulus (GPa) = 36.13214 45.25391 40.69302
#
# Velocity S-wave (km/s) = 3.80509 4.25839 4.03811
# Velocity P-wave (km/s) = 5.39304 6.26849 5.84717
#
# Compressibility (1/GPa) = 0.04097322
#
# Stress axis : x y z
#
# Youngs Moduli (GPa) = 40.13556 96.83452 59.01146
#
# Poissons Ratio (x) = 0.41988 -0.20465
# Poissons Ratio (y) = 0.17403 0.27968
# Poissons Ratio (z) = -0.13919 0.45893
#
# Static dielectric constant tensor:
#      x y z
#    x 2.107730 0.048460 0.016330 
#    y 0.048460 2.181080 0.000150 
#    z 0.016330 0.000150 1.980160 
# 
# From -- ./inp_files/525923.got.cif
#   From: 2010.05.17/outbox.cif.g08.bks.cpg/sg2_263_cif.got.tgz:525923.got - 2010.06.03 11:33:40.
