data_PCOD9034164
_publ_section_title
;
Structure prediction by ZEFSAII (Michael W. Deem and Ramdas Pophale) SiO2 
 PCOD9034164
Probable space group: P -1
;
_chemical_formula_sum "Si O2"
_cell_formula_units_Z 15
_cell_length_a 15.236614
_cell_length_b 15.749118
_cell_length_c 8.439941
_cell_angle_alpha 115.188099
_cell_angle_beta 82.042470
_cell_angle_gamma 152.105819
_cell_volume 709.502239
_symmetry_space_group_name_H-M "P -1"
_symmetry_group_IT_number 2
_symmetry_cell_setting 'triclinic'
loop_
_space_group_symop_operation_xyz
x,y,z
-x,-y,-z
loop_
_atom_site_type_symbol
_atom_site_label
_atom_site_fract_x
_atom_site_fract_y
_atom_site_fract_z
Si Si1 0.000000 0.000000 0.000000
Si Si2 0.144813 0.930490 0.854080
Si Si3 0.519782 0.358745 0.869912
Si Si4 0.295243 0.587287 0.409260
Si Si5 0.203898 0.646690 0.920684
Si Si6 0.615754 0.967466 0.879583
Si Si7 0.184908 0.194213 0.743057
Si Si8 0.755112 0.285606 0.676242
O O1 0.077503 0.080891 0.854867
O O2 0.107233 0.998468 0.980712
O O3 0.902259 0.656271 0.637305
O O4 0.340399 0.124039 0.827918
O O5 0.219821 0.934635 0.978861
O O6 0.655178 0.427984 0.767716
O O7 0.377003 0.300451 0.767749
O O8 0.688165 0.581881 0.117500
O O9 0.527190 0.827441 0.636657
O O10 0.215510 0.611786 0.390293
O O11 0.387571 0.766398 0.876474
O O12 0.949973 0.396381 0.716060
O O13 0.213449 0.635871 0.096669
O O14 0.277974 0.828336 0.027296
O O15 0.000000 0.000000 0.500000
O O16 0.500000 0.000000 0.500000
#
# Coordination Sequence:
#
# PCOD9034164 Si02
#       8
#     1   2   2   2   2   2   2   2
#     4  10  22  44  72  98 142 178 232 288 352 410
#     4  11  24  45  65  99 140 176 226 295 332 414
#     4  10  24  43  64  98 136 169 235 276 338 417
#     4  12  24  41  67 101 133 179 227 281 341 417
#     4  10  23  42  64  97 135 172 228 281 337 421
#     4  11  24  41  65  99 132 178 229 278 348 405
#     4  10  22  44  71  99 132 184 225 290 351 409
#     4  11  22  42  67  95 134 180 219 282 348 400
#
# _framework density 21.141583000000001
#
# number of rings (size 3 to 8) (size 9 to 14) (size 15 to 20)
#    0.000    1.333    4.000    0.800    1.867    4.800 
#    0.000    2.667    0.000    0.000    0.000    0.000 
#    0.000    0.000    0.000    0.000    0.000    0.000 
#
# Total GULP energy -83576.552059 kJ/mol
# GULP energy per Si atom -5571.770137 kJ/mol
# Density = 2.109346 g / cm^3
# Si number density = 21.141583 Si / 1000 Ang^3
#
#
#
# Elastic Constant Matrix: (Units=GPa)
#
#
# Indices 1 2 3 4 5 6 
#
# 1 48.1869 5.9878 14.4377 6.4726 -1.0339 3.4019
# 2 5.9878 79.1114 10.3858 11.4559 -6.1988 2.2731
# 3 14.4377 10.3858 78.4334 28.9380 8.3182 0.7912
# 4 6.4726 11.4559 28.9380 26.7265 4.7465 4.7503
# 5 -1.0339 -6.1988 8.3182 4.7465 17.1328 0.9350
# 6 3.4019 2.2731 0.7912 4.7503 0.9350 28.0667
#
#
#
# Elastic Compliance Matrix: (Units=1/GPa)
#
#
# Indices 1 2 3 4 5 6 
#
# 1 0.022423 -0.000689 -0.004031 -0.000939 0.003458 -0.002505
# 2 -0.000689 0.014300 0.000238 -0.007470 0.007089 -0.000053
# 3 -0.004031 0.000238 0.022570 -0.023405 -0.004847 0.003956
# 4 -0.000939 -0.007470 -0.023405 0.069789 -0.010179 -0.010094
# 5 0.003458 0.007089 -0.004847 -0.010179 0.066388 -0.001345
# 6 -0.002505 -0.000053 0.003956 -0.010094 -0.001345 0.037579
#
#
# Mechanical properties :
#
#
# Convention : Reuss Voigt Hill
#
# Bulk Modulus (GPa) = 19.86959 29.70605 24.78782
# Shear Modulus (GPa) = 19.32069 26.04655 22.68362
#
# Velocity S-wave (km/s) = 3.02631 3.51380 3.27913
# Velocity P-wave (km/s) = 4.65082 5.52665 5.10755
#
# Compressibility (1/GPa) = 0.05032818
#
# Stress axis : x y z
#
# Youngs Moduli (GPa) = 44.59679 69.93015 44.30700
#
# Poissons Ratio (x) = 0.04818 0.17861
# Poissons Ratio (y) = 0.03073 -0.01054
# Poissons Ratio (z) = 0.17978 -0.01664
#
# Static dielectric constant tensor:
#      x y z
#    x 1.726700 -0.009310 -0.008940 
#    y -0.009310 1.782190 0.030460 
#    z -0.008940 0.030460 1.762520 
# 
# From -- ./inp_files/45894.got.cif
#   From: 2010.05.17/outbox.cif.g08.bks.cpg/sg2_23_cif.got.tgz:45894.got - 2010.06.03 11:33:40.
