data_PCOD9034404
_publ_section_title
;
Structure prediction by ZEFSAII (Michael W. Deem and Ramdas Pophale) SiO2 
 PCOD9034404
Probable space group: P -1
;
_chemical_formula_sum "Si O2"
_cell_formula_units_Z 13
_cell_length_a 10.614547
_cell_length_b 8.230817
_cell_length_c 8.587846
_cell_angle_alpha 47.235005
_cell_angle_beta 104.338908
_cell_angle_gamma 105.182572
_cell_volume 529.006878
_symmetry_space_group_name_H-M "P -1"
_symmetry_group_IT_number 2
_symmetry_cell_setting 'triclinic'
loop_
_space_group_symop_operation_xyz
x,y,z
-x,-y,-z
loop_
_atom_site_type_symbol
_atom_site_label
_atom_site_fract_x
_atom_site_fract_y
_atom_site_fract_z
Si Si1 0.366582 0.964781 0.079796
Si Si2 0.494107 0.754338 0.791091
Si Si3 0.000000 0.500000 0.000000
Si Si4 0.209780 0.486386 0.362201
Si Si5 0.310827 0.075881 0.507527
Si Si6 0.134074 0.254088 0.787065
Si Si7 0.923262 0.905096 0.806233
O O1 0.315134 0.704804 0.243696
O O2 0.408983 0.085024 0.175481
O O3 0.500000 0.000000 0.000000
O O4 0.246818 0.093734 0.906473
O O5 0.554823 0.798649 0.610184
O O6 0.353209 0.837504 0.720863
O O7 0.500000 0.500000 0.000000
O O8 0.895523 0.494641 0.819445
O O9 0.019412 0.774838 0.820070
O O10 0.268201 0.256008 0.495563
O O11 0.160027 0.458680 0.543538
O O12 0.195239 0.041074 0.368906
O O13 0.125907 0.283605 0.953049
O O14 0.998102 0.114807 0.779830
#
# Coordination Sequence:
#
# PCOD9034404 Si02
#       7
#     2   2   1   2   2   2   2
#     4  12  25  46  71 106 153 189 246 302 359 445
#     4  11  24  45  69 102 141 197 243 297 365 430
#     4  10  22  44  74 106 150 186 244 300 358 446
#     4  11  25  46  73 110 143 199 237 299 373 425
#     4  10  23  44  69 103 145 186 244 303 351 445
#     4  11  24  45  71 106 146 195 237 304 361 435
#     4  10  22  48  69 106 148 184 252 296 363 429
#
# _framework density 24.574352000000001
#
# number of rings (size 3 to 8) (size 9 to 14) (size 15 to 20)
#    0.000    1.231    3.077    1.846    0.000    8.000 
#    8.308    0.000    0.000    0.000    0.000    0.000 
#    0.000    0.000    0.000    0.000    0.000    0.000 
#
# Total GULP energy -72429.309387 kJ/mol
# GULP energy per Si atom -5571.485337 kJ/mol
# Density = 2.451842 g / cm^3
# Si number density = 24.574352 Si / 1000 Ang^3
#
#
#
# Elastic Constant Matrix: (Units=GPa)
#
#
# Indices 1 2 3 4 5 6 
#
# 1 83.6049 9.1817 44.6540 -9.0299 24.2540 -2.5420
# 2 9.1817 85.2451 47.4760 4.2252 17.7025 23.6912
# 3 44.6540 47.4760 132.9270 -8.9187 24.0334 18.4306
# 4 -9.0299 4.2252 -8.9187 28.0342 -7.4474 8.9275
# 5 24.2540 17.7025 24.0334 -7.4474 54.9086 -10.4715
# 6 -2.5420 23.6912 18.4306 8.9275 -10.4715 29.3590
#
#
#
# Elastic Compliance Matrix: (Units=1/GPa)
#
#
# Indices 1 2 3 4 5 6 
#
# 1 0.016222 0.001913 -0.005203 0.001667 -0.005128 0.000792
# 2 0.001913 0.020261 -0.004027 -0.000798 -0.008885 -0.016582
# 3 -0.005203 -0.004027 0.012527 0.004564 -0.002680 -0.007409
# 4 0.001667 -0.000798 0.004564 0.042642 0.000470 -0.014875
# 5 -0.005128 -0.008885 -0.002680 0.000470 0.028064 0.018275
# 6 0.000792 -0.016582 -0.007409 -0.014875 0.018275 0.063203
#
#
# Mechanical properties :
#
#
# Convention : Reuss Voigt Hill
#
# Bulk Modulus (GPa) = 29.09102 56.04449 42.56775
# Shear Modulus (GPa) = 23.92219 35.82473 29.87346
#
# Velocity S-wave (km/s) = 3.12342 3.82227 3.49038
# Velocity P-wave (km/s) = 4.98712 6.50655 5.79683
#
# Compressibility (1/GPa) = 0.03437487
#
# Stress axis : x y z
#
# Youngs Moduli (GPa) = 61.64557 49.35663 79.82631
#
# Poissons Ratio (x) = -0.09441 0.41537
# Poissons Ratio (y) = -0.11792 0.32145
# Poissons Ratio (z) = 0.32077 0.19875
#
# Static dielectric constant tensor:
#      x y z
#    x 2.248070 0.034740 -0.303900 
#    y 0.034740 2.188050 -0.191320 
#    z -0.303900 -0.191320 2.412680 
# 
# From -- ./inp_files/25769.got.cif
#   From: 2010.05.17/outbox.cif.g08.bks.cpg/sg2_13_cif.got.tgz:25769.got - 2010.06.03 11:33:40.
