data_PCOD9034770
_publ_section_title
;
Structure prediction by ZEFSAII (Michael W. Deem and Ramdas Pophale) SiO2 
 PCOD9034770
Probable space group: P -1
;
_chemical_formula_sum "Si O2"
_cell_formula_units_Z 12
_cell_length_a 5.193806
_cell_length_b 14.699336
_cell_length_c 8.573325
_cell_angle_alpha 63.632054
_cell_angle_beta 59.242549
_cell_angle_gamma 81.013677
_cell_volume 501.805641
_symmetry_space_group_name_H-M "P -1"
_symmetry_group_IT_number 2
_symmetry_cell_setting 'triclinic'
loop_
_space_group_symop_operation_xyz
x,y,z
-x,-y,-z
loop_
_atom_site_type_symbol
_atom_site_label
_atom_site_fract_x
_atom_site_fract_y
_atom_site_fract_z
Si Si1 0.651535 0.749246 0.073467
Si Si2 0.165289 0.072729 0.624006
Si Si3 0.543111 0.962114 0.839069
Si Si4 0.354694 0.386414 0.114479
Si Si5 0.296694 0.799514 0.749199
Si Si6 0.160687 0.740769 0.484769
O O1 0.502572 0.839217 0.958700
O O2 0.670651 0.652137 0.027791
O O3 0.994974 0.796543 0.945458
O O4 0.459101 0.726148 0.305971
O O5 0.443458 0.106871 0.395399
O O6 0.028976 0.181119 0.612777
O O7 0.307260 0.022407 0.767816
O O8 0.898235 0.000353 0.684630
O O9 0.500000 0.000000 0.000000
O O10 0.564582 0.306328 0.183848
O O11 0.042459 0.361570 0.324342
O O12 0.500000 0.500000 0.000000
O O13 0.213997 0.796348 0.592818
#
# Coordination Sequence:
#
# PCOD9034770 Si02
#       6
#     2   2   2   2   2   2
#     4  11  25  41  69 104 132 187 236 279 347 415
#     4  11  22  42  65  98 149 189 224 281 337 401
#     4  12  24  38  69 103 145 190 233 277 337 411
#     4  10  25  47  69  97 137 178 231 299 357 413
#     4  10  23  45  68  99 139 180 234 289 343 415
#     4  10  22  45  68 101 140 182 229 291 339 419
#
# _framework density 23.913641999999999
#
# number of rings (size 3 to 8) (size 9 to 14) (size 15 to 20)
#    0.000    1.333    3.333    0.500    2.333    7.333 
#    0.000    1.667    0.000    0.000    0.000    0.000 
#    0.000    0.000    0.000    0.000    0.000    0.000 
#
# Total GULP energy -67105.552442 kJ/mol
# GULP energy per Si atom -5592.129370 kJ/mol
# Density = 2.385921 g / cm^3
# Si number density = 23.913642 Si / 1000 Ang^3
#
#
#
# Elastic Constant Matrix: (Units=GPa)
#
#
# Indices 1 2 3 4 5 6 
#
# 1 133.6355 19.2242 52.2057 -7.0090 -19.7296 5.6389
# 2 19.2242 116.1957 52.8375 -29.7918 -23.8141 22.1254
# 3 52.2057 52.8375 206.3567 12.7207 -52.7950 7.1615
# 4 -7.0090 -29.7918 12.7207 45.6364 -0.5505 -11.7581
# 5 -19.7296 -23.8141 -52.7950 -0.5505 45.3089 -9.3333
# 6 5.6389 22.1254 7.1615 -11.7581 -9.3333 28.2592
#
#
#
# Elastic Compliance Matrix: (Units=1/GPa)
#
#
# Indices 1 2 3 4 5 6 
#
# 1 0.008553 0.000369 -0.001967 0.002101 0.001635 -0.000083
# 2 0.000369 0.013860 -0.003338 0.008603 0.002491 -0.005678
# 3 -0.001967 -0.003338 0.008278 -0.004307 0.007296 0.001526
# 4 0.002101 0.008603 -0.004307 0.031048 0.002368 0.007637
# 5 0.001635 0.002491 0.007296 0.002368 0.034310 0.008191
# 6 -0.000083 -0.005678 0.001526 0.007637 0.008191 0.045345
#
#
# Mechanical properties :
#
#
# Convention : Reuss Voigt Hill
#
# Bulk Modulus (GPa) = 48.03302 78.30254 63.16778
# Shear Modulus (GPa) = 31.60449 45.96895 38.78672
#
# Velocity S-wave (km/s) = 3.63934 4.38915 4.03171
# Velocity P-wave (km/s) = 6.14730 7.64860 6.93868
#
# Compressibility (1/GPa) = 0.02081901
#
# Stress axis : x y z
#
# Youngs Moduli (GPa) = 116.91302 72.14836 120.80924
#
# Poissons Ratio (x) = -0.02660 0.23758
# Poissons Ratio (y) = -0.04311 0.40329
# Poissons Ratio (z) = 0.22992 0.24085
#
# Static dielectric constant tensor:
#      x y z
#    x 2.096800 0.069130 0.005740 
#    y 0.069130 1.929750 0.075040 
#    z 0.005740 0.075040 1.996250 
# 
# From -- ./inp_files/134009.got.cif
#   From: 2010.05.17/outbox.cif.g08.bks.cpg/sg2_68_cif.got.tgz:134009.got - 2010.06.03 11:33:40.
