data_PCOD9034497
_publ_section_title
;
Structure prediction by ZEFSAII (Michael W. Deem and Ramdas Pophale) SiO2 
 PCOD9034497
Probable space group: P -1
;
_chemical_formula_sum "Si O2"
_cell_formula_units_Z 13
_cell_length_a 7.007030
_cell_length_b 9.284835
_cell_length_c 9.893251
_cell_angle_alpha 40.537599
_cell_angle_beta 83.604737
_cell_angle_gamma 81.184924
_cell_volume 413.381583
_symmetry_space_group_name_H-M "P -1"
_symmetry_group_IT_number 2
_symmetry_cell_setting 'triclinic'
loop_
_space_group_symop_operation_xyz
x,y,z
-x,-y,-z
loop_
_atom_site_type_symbol
_atom_site_label
_atom_site_fract_x
_atom_site_fract_y
_atom_site_fract_z
Si Si1 0.310293 0.883201 0.067771
Si Si2 0.069261 0.329176 0.497223
Si Si3 0.627480 0.819446 0.597193
Si Si4 0.628769 0.312384 0.097025
Si Si5 0.193842 0.332088 0.844902
Si Si6 0.053919 0.143323 0.240380
Si Si7 0.500000 0.500000 0.500000
O O1 0.332301 0.697078 0.314407
O O2 0.327172 0.790515 0.982720
O O3 0.500000 0.000000 0.000000
O O4 0.161932 0.109474 0.922371
O O5 0.991702 0.490896 0.266481
O O6 0.000000 0.500000 0.500000
O O7 0.300707 0.285723 0.482867
O O8 0.987825 0.091729 0.656062
O O9 0.822688 0.879401 0.616521
O O10 0.555417 0.078432 0.350519
O O11 0.564152 0.581827 0.851378
O O12 0.848362 0.295404 0.154591
O O13 0.360865 0.450874 0.676880
O O14 0.210283 0.242486 0.058420
#
# Coordination Sequence:
#
# PCOD9034497 Si02
#       7
#     2   2   2   2   2   2   1
#     4  10  23  48  76 122 170 223 286 360 426 522
#     4  12  28  53  86 129 172 228 291 368 449 530
#     4  12  28  56  86 121 174 238 299 361 447 534
#     4  12  28  51  83 124 172 232 297 363 445 530
#     4  11  25  45  79 122 171 220 288 358 437 513
#     4  12  28  55  85 124 181 232 297 373 440 532
#     4  10  22  44  76 118 170 224 280 352 440 516
#
# _framework density 31.447942999999999
#
# number of rings (size 3 to 8) (size 9 to 14) (size 15 to 20)
#    0.000    0.615    1.538    5.077    0.000   12.308 
#    5.538    0.000    0.000    0.000    0.000    0.000 
#    0.000    0.000    0.000    0.000    0.000    0.000 
#
# Total GULP energy -72590.558324 kJ/mol
# GULP energy per Si atom -5583.889102 kJ/mol
# Density = 3.137637 g / cm^3
# Si number density = 31.447943 Si / 1000 Ang^3
#
#
#
# Elastic Constant Matrix: (Units=GPa)
#
#
# Indices 1 2 3 4 5 6 
#
# 1 162.3144 55.2183 40.2379 -16.1978 -11.8169 -29.4730
# 2 55.2183 251.6006 97.7288 -38.0564 15.3661 -41.0940
# 3 40.2379 97.7288 267.1060 -13.4491 -6.6042 -33.3047
# 4 -16.1978 -38.0564 -13.4491 79.3612 -17.6368 14.7046
# 5 -11.8169 15.3661 -6.6042 -17.6368 85.8751 -8.4628
# 6 -29.4730 -41.0940 -33.3047 14.7046 -8.4628 71.6812
#
#
#
# Elastic Compliance Matrix: (Units=1/GPa)
#
#
# Indices 1 2 3 4 5 6 
#
# 1 0.007201 -0.001054 -0.000344 0.000840 0.001543 0.002207
# 2 -0.001054 0.005343 -0.001546 0.001646 -0.000735 0.001487
# 3 -0.000344 -0.001546 0.004518 -0.000115 0.000669 0.001174
# 4 0.000840 0.001646 -0.000115 0.014387 0.002628 -0.001405
# 5 0.001543 -0.000735 0.000669 0.002628 0.012727 0.001487
# 6 0.002207 0.001487 0.001174 -0.001405 0.001487 0.016720
#
#
# Mechanical properties :
#
#
# Convention : Reuss Voigt Hill
#
# Bulk Modulus (GPa) = 89.47562 118.59900 104.03731
# Shear Modulus (GPa) = 70.91342 79.90591 75.40966
#
# Velocity S-wave (km/s) = 4.75378 5.04620 4.90217
# Velocity P-wave (km/s) = 7.65800 8.47035 8.07440
#
# Compressibility (1/GPa) = 0.01117623
#
# Stress axis : x y z
#
# Youngs Moduli (GPa) = 138.86001 187.15599 221.31394
#
# Poissons Ratio (x) = 0.19720 0.07606
# Poissons Ratio (y) = 0.14631 0.34217
# Poissons Ratio (z) = 0.04772 0.28936
#
# Static dielectric constant tensor:
#      x y z
#    x 2.621170 -0.054660 0.017330 
#    y -0.054660 2.277150 -0.064130 
#    z 0.017330 -0.064130 2.580590 
# 
# From -- ./inp_files/241784.got.cif
#   From: 2010.05.17/outbox.cif.g08.bks.cpg/sg2_121_cif.got.tgz:241784.got - 2010.06.03 11:33:40.
