data_PCOD9034485
_publ_section_title
;
Structure prediction by ZEFSAII (Michael W. Deem and Ramdas Pophale) SiO2 
 PCOD9034485
Probable space group: P -1
;
_chemical_formula_sum "Si O2"
_cell_formula_units_Z 13
_cell_length_a 8.979880
_cell_length_b 11.393614
_cell_length_c 7.392358
_cell_angle_alpha 53.939691
_cell_angle_beta 66.695954
_cell_angle_gamma 100.779772
_cell_volume 463.102713
_symmetry_space_group_name_H-M "P -1"
_symmetry_group_IT_number 2
_symmetry_cell_setting 'triclinic'
loop_
_space_group_symop_operation_xyz
x,y,z
-x,-y,-z
loop_
_atom_site_type_symbol
_atom_site_label
_atom_site_fract_x
_atom_site_fract_y
_atom_site_fract_z
Si Si1 0.308946 0.693215 0.722276
Si Si2 0.145136 0.880044 0.517983
Si Si3 0.335378 0.657232 0.157093
Si Si4 0.861180 0.724456 0.303974
Si Si5 0.500000 0.000000 0.000000
Si Si6 0.281537 0.341103 0.976335
Si Si7 0.730564 0.949954 0.306997
O O1 0.138885 0.702335 0.711112
O O2 0.312307 0.527125 0.826745
O O3 0.516139 0.874433 0.390577
O O4 0.307204 0.707310 0.925859
O O5 0.251080 0.989701 0.550601
O O6 0.293805 0.979443 0.194658
O O7 0.919212 0.811820 0.690485
O O8 0.165446 0.454213 0.463550
O O9 0.527625 0.650432 0.067755
O O10 0.367037 0.797610 0.160291
O O11 0.760621 0.694365 0.184195
O O12 0.759232 0.791880 0.419020
O O13 0.086004 0.883916 0.028743
#
# Coordination Sequence:
#
# PCOD9034485 Si02
#       7
#     2   2   2   2   1   2   2
#     4  12  24  46  77 105 151 197 238 306 368 432
#     4  11  26  49  70 107 151 199 241 303 369 433
#     4  12  26  45  77 112 147 190 253 303 366 435
#     4  10  23  45  75 113 145 192 245 303 359 446
#     4  12  28  48  74 110 146 194 252 308 360 438
#     4  11  25  47  76 107 148 195 245 299 368 437
#     4  10  22  44  76 106 149 194 238 299 373 431
#
# _framework density 28.071529000000002
#
# number of rings (size 3 to 8) (size 9 to 14) (size 15 to 20)
#    0.000    0.923    3.077    2.769    2.154    1.846 
#    2.769    3.846    0.000    0.000    0.000    0.000 
#    0.000    0.000    0.000    0.000    0.000    0.000 
#
# Total GULP energy -72885.895267 kJ/mol
# GULP energy per Si atom -5606.607328 kJ/mol
# Density = 2.800764 g / cm^3
# Si number density = 28.071529 Si / 1000 Ang^3
#
#
#
# Elastic Constant Matrix: (Units=GPa)
#
#
# Indices 1 2 3 4 5 6 
#
# 1 87.4350 9.9875 13.1362 10.0764 9.2758 4.4994
# 2 9.9875 201.3155 42.5388 -8.9266 1.2121 -8.8230
# 3 13.1362 42.5388 136.2498 -20.8357 -16.8399 0.2512
# 4 10.0764 -8.9266 -20.8357 69.9976 -7.3592 9.6747
# 5 9.2758 1.2121 -16.8399 -7.3592 34.4248 -3.0895
# 6 4.4994 -8.8230 0.2512 9.6747 -3.0895 43.3939
#
#
#
# Elastic Compliance Matrix: (Units=1/GPa)
#
#
# Indices 1 2 3 4 5 6 
#
# 1 0.012759 -0.000308 -0.002230 -0.002940 -0.005244 -0.001091
# 2 -0.000308 0.005409 -0.001777 -0.000038 -0.000887 0.001087
# 3 -0.002230 -0.001777 0.009400 0.003599 0.005980 -0.000561
# 4 -0.002940 -0.000038 0.003599 0.016816 0.005875 -0.003055
# 5 -0.005244 -0.000887 0.005980 0.005875 0.034809 0.001497
# 6 -0.001091 0.001087 -0.000561 -0.003055 0.001497 0.024170
#
#
# Mechanical properties :
#
#
# Convention : Reuss Voigt Hill
#
# Bulk Modulus (GPa) = 52.80303 61.81394 57.30848
# Shear Modulus (GPa) = 42.26414 53.51910 47.89162
#
# Velocity S-wave (km/s) = 3.88440 4.37112 4.13492
# Velocity P-wave (km/s) = 6.24252 6.89518 6.57695
#
# Compressibility (1/GPa) = 0.01893831
#
# Stress axis : x y z
#
# Youngs Moduli (GPa) = 78.37871 184.86542 106.38779
#
# Poissons Ratio (x) = 0.05702 0.23720
# Poissons Ratio (y) = 0.02418 0.18901
# Poissons Ratio (z) = 0.17475 0.32843
#
# Static dielectric constant tensor:
#      x y z
#    x 1.905960 -0.130230 -0.232190 
#    y -0.130230 2.031930 -0.132430 
#    z -0.232190 -0.132430 1.940900 
# 
# From -- ./inp_files/173991.got.cif
#   From: 2010.05.17/outbox.cif.g08.bks.cpg/sg2_87_cif.got.tgz:173991.got - 2010.06.03 11:33:40.
