data_PCOD9034883
_publ_section_title
;
Structure prediction by ZEFSAII (Michael W. Deem and Ramdas Pophale) SiO2 
 PCOD9034883
Probable space group: P -1
;
_chemical_formula_sum "Si O2"
_cell_formula_units_Z 13
_cell_length_a 11.833046
_cell_length_b 13.874404
_cell_length_c 8.640076
_cell_angle_alpha 121.906638
_cell_angle_beta 141.544345
_cell_angle_gamma 39.382061
_cell_volume 549.043743
_symmetry_space_group_name_H-M "P -1"
_symmetry_group_IT_number 2
_symmetry_cell_setting 'triclinic'
loop_
_space_group_symop_operation_xyz
x,y,z
-x,-y,-z
loop_
_atom_site_type_symbol
_atom_site_label
_atom_site_fract_x
_atom_site_fract_y
_atom_site_fract_z
Si Si1 0.524890 0.831167 0.248940
Si Si2 0.500000 0.500000 0.500000
Si Si3 0.926222 0.568502 0.240919
Si Si4 0.926770 0.691662 0.023245
Si Si5 0.580578 0.059316 0.442128
Si Si6 0.345518 0.570744 0.736471
Si Si7 0.063279 0.930882 0.681542
O O1 0.702329 0.671953 0.208457
O O2 0.479894 0.837257 0.387292
O O3 0.652685 0.901114 0.434151
O O4 0.253586 0.936720 0.970749
O O5 0.508291 0.480553 0.680740
O O6 0.811231 0.361500 0.705699
O O7 0.016967 0.406615 0.152916
O O8 0.143708 0.556771 0.520258
O O9 0.856297 0.646722 0.061535
O O10 0.666207 0.859444 0.851954
O O11 0.797698 0.027823 0.557465
O O12 0.203833 0.750637 0.706231
O O13 0.500000 0.500000 0.000000
O O14 0.000000 0.000000 0.500000
#
# Coordination Sequence:
#
# PCOD9034883 Si02
#       7
#     2   1   2   2   2   2   2
#     4  11  25  45  73 104 148 192 251 316 376 455
#     4  10  24  44  70 110 148 192 258 312 382 452
#     4  10  22  45  69 101 142 190 248 310 375 440
#     4  10  23  42  71  99 141 192 247 312 376 451
#     4  11  26  46  71 108 146 195 250 315 381 454
#     4  11  26  46  76 110 153 199 259 319 379 464
#     4  12  27  47  75 109 150 201 251 311 385 461
#
# _framework density 23.677530999999998
#
# number of rings (size 3 to 8) (size 9 to 14) (size 15 to 20)
#    0.000    1.231    1.538    2.308    8.615    4.308 
#    0.000    0.000    0.000    0.000    0.000    0.000 
#    0.000    0.000    0.000    0.000    0.000    0.000 
#
# Total GULP energy -72385.141822 kJ/mol
# GULP energy per Si atom -5568.087832 kJ/mol
# Density = 2.362364 g / cm^3
# Si number density = 23.677531 Si / 1000 Ang^3
#
#
#
# Elastic Constant Matrix: (Units=GPa)
#
#
# Indices 1 2 3 4 5 6 
#
# 1 180.2230 53.4767 58.3488 -15.4412 -2.5115 -37.6617
# 2 53.4767 66.1714 34.4243 -9.3751 -4.9662 -13.0915
# 3 58.3488 34.4243 144.0436 -2.0094 -5.1900 2.4671
# 4 -15.4412 -9.3751 -2.0094 25.0190 4.6209 -2.1809
# 5 -2.5115 -4.9662 -5.1900 4.6209 42.9529 -5.6976
# 6 -37.6617 -13.0915 2.4671 -2.1809 -5.6976 28.9180
#
#
#
# Elastic Compliance Matrix: (Units=1/GPa)
#
#
# Indices 1 2 3 4 5 6 
#
# 1 0.011375 -0.003307 -0.003936 0.006530 0.001008 0.014344
# 2 -0.003307 0.022256 -0.003935 0.006193 0.002167 0.006999
# 3 -0.003936 -0.003935 0.009555 -0.003803 -0.000189 -0.008046
# 4 0.006530 0.006193 -0.003803 0.047769 -0.002546 0.014733
# 5 0.001008 0.002167 -0.000189 -0.002546 0.024770 0.006997
# 6 0.014344 0.006999 -0.008046 0.014733 0.006997 0.059607
#
#
# Mechanical properties :
#
#
# Convention : Reuss Voigt Hill
#
# Bulk Modulus (GPa) = 48.00398 75.88195 61.94296
# Shear Modulus (GPa) = 24.43416 35.65720 30.04568
#
# Velocity S-wave (km/s) = 3.21589 3.88487 3.56610
# Velocity P-wave (km/s) = 5.84015 7.22777 6.57069
#
# Compressibility (1/GPa) = 0.02083161
#
# Stress axis : x y z
#
# Youngs Moduli (GPa) = 87.91040 44.93115 104.65702
#
# Poissons Ratio (x) = 0.14857 0.41192
# Poissons Ratio (y) = 0.29069 0.41181
# Poissons Ratio (z) = 0.34601 0.17680
#
# Static dielectric constant tensor:
#      x y z
#    x 1.848450 0.032420 0.005800 
#    y 0.032420 2.009600 0.020770 
#    z 0.005800 0.020770 1.887310 
# 
# From -- ./inp_files/268702.got.cif
#   From: 2010.05.17/outbox.cif.g08.bks.cpg/sg2_135_cif.got.tgz:268702.got - 2010.06.03 11:33:40.
