data_PCOD9034588
_publ_section_title
;
Structure prediction by ZEFSAII (Michael W. Deem and Ramdas Pophale) SiO2 
 PCOD9034588
Probable space group: P -1
;
_chemical_formula_sum "Si O2"
_cell_formula_units_Z 16
_cell_length_a 18.565759
_cell_length_b 9.329469
_cell_length_c 13.634736
_cell_angle_alpha 41.750730
_cell_angle_beta 35.111871
_cell_angle_gamma 36.552636
_cell_volume 781.259663
_symmetry_space_group_name_H-M "P -1"
_symmetry_group_IT_number 2
_symmetry_cell_setting 'triclinic'
loop_
_space_group_symop_operation_xyz
x,y,z
-x,-y,-z
loop_
_atom_site_type_symbol
_atom_site_label
_atom_site_fract_x
_atom_site_fract_y
_atom_site_fract_z
Si Si1 0.947436 0.442963 0.189952
Si Si2 0.991161 0.825202 0.183738
Si Si3 0.967498 0.089623 0.682275
Si Si4 0.278581 0.182253 0.602313
Si Si5 0.518093 0.302743 0.279146
Si Si6 0.361268 0.778859 0.013518
Si Si7 0.115964 0.295850 0.276411
Si Si8 0.417038 0.874331 0.108548
O O1 0.064325 0.362982 0.187666
O O2 0.807411 0.674239 0.276071
O O3 0.938074 0.195807 0.312036
O O4 0.000000 0.500000 0.000000
O O5 0.845677 0.812132 0.330688
O O6 0.996343 0.911193 0.243218
O O7 0.122512 0.537843 0.179643
O O8 0.000000 0.000000 0.000000
O O9 0.005399 0.262505 0.485918
O O10 0.797489 0.181028 0.812477
O O11 0.367103 0.321247 0.406080
O O12 0.405308 0.894640 0.618562
O O13 0.631057 0.160493 0.138311
O O14 0.489662 0.577210 0.192836
O O15 0.500000 0.500000 0.000000
O O16 0.395148 0.912926 0.995440
O O17 0.259720 0.030725 0.252046
O O18 0.500000 0.000000 0.000000
#
# Coordination Sequence:
#
# PCOD9034588 Si02
#       8
#     2   2   2   2   2   2   2   2
#     4  11  22  40  67  96 132 172 224 269 340 394
#     4  11  25  41  66  98 138 173 223 276 341 398
#     4  12  23  42  67 101 133 174 228 285 332 393
#     4  10  23  41  69  94 131 180 217 275 324 414
#     4  10  22  45  65  93 132 175 226 262 339 399
#     4  10  23  37  66  88 131 173 216 267 333 401
#     4  11  25  41  67  98 131 172 228 282 334 398
#     4  11  25  41  65  94 130 174 217 282 327 393
#
# _framework density 20.479748000000001
#
# number of rings (size 3 to 8) (size 9 to 14) (size 15 to 20)
#    0.000    1.250    1.250    4.500   12.250    1.000 
#    0.000    0.000    0.000    3.750    0.000    0.000 
#    0.000    0.000    0.000    0.000    0.000    0.000 
#
# Total GULP energy -89212.115794 kJ/mol
# GULP energy per Si atom -5575.757237 kJ/mol
# Density = 2.043314 g / cm^3
# Si number density = 20.479748 Si / 1000 Ang^3
#
#
#
# Elastic Constant Matrix: (Units=GPa)
#
#
# Indices 1 2 3 4 5 6 
#
# 1 74.5408 31.6987 22.6614 0.2579 -21.3908 6.7360
# 2 31.6987 127.9104 30.7899 -7.6395 -19.6118 0.3180
# 3 22.6614 30.7899 99.0722 4.2851 -9.8679 -7.6484
# 4 0.2579 -7.6395 4.2851 35.5676 3.8463 3.2223
# 5 -21.3908 -19.6118 -9.8679 3.8463 23.1609 -10.2053
# 6 6.7360 0.3180 -7.6484 3.2223 -10.2053 30.8984
#
#
#
# Elastic Compliance Matrix: (Units=1/GPa)
#
#
# Indices 1 2 3 4 5 6 
#
# 1 0.019445 -0.001979 -0.002073 -0.002132 0.016112 0.000812
# 2 -0.001979 0.009801 -0.001911 0.001525 0.006169 0.001736
# 3 -0.002073 -0.001911 0.012124 -0.002804 0.004398 0.005218
# 4 -0.002132 0.001525 -0.002804 0.030470 -0.009878 -0.006685
# 5 0.016112 0.006169 0.004398 -0.009878 0.077419 0.024113
# 6 0.000812 0.001736 0.005218 -0.006685 0.024113 0.042122
#
#
# Mechanical properties :
#
#
# Convention : Reuss Voigt Hill
#
# Bulk Modulus (GPa) = 33.96269 52.42483 43.19376
# Shear Modulus (GPa) = 23.46080 32.35026 27.90553
#
# Velocity S-wave (km/s) = 3.38829 3.97876 3.69533
# Velocity P-wave (km/s) = 5.65039 6.83822 6.27249
#
# Compressibility (1/GPa) = 0.02944408
#
# Stress axis : x y z
#
# Youngs Moduli (GPa) = 51.42785 102.03054 82.48256
#
# Poissons Ratio (x) = 0.20190 0.17099
# Poissons Ratio (y) = 0.10177 0.15761
# Poissons Ratio (z) = 0.10661 0.19496
#
# Static dielectric constant tensor:
#      x y z
#    x 1.762830 -0.018120 0.019400 
#    y -0.018120 1.778630 -0.013800 
#    z 0.019400 -0.013800 1.787460 
# 
# From -- ./inp_files/283042.got.cif
#   From: 2010.05.17/outbox.cif.g08.bks.cpg/sg2_142_cif.got.tgz:283042.got - 2010.06.03 11:33:40.
