data_PCOD9034192
_publ_section_title
;
Structure prediction by ZEFSAII (Michael W. Deem and Ramdas Pophale) SiO2 
 PCOD9034192
Probable space group: P -1
;
_chemical_formula_sum "Si O2"
_cell_formula_units_Z 14
_cell_length_a 10.819209
_cell_length_b 10.793494
_cell_length_c 6.545950
_cell_angle_alpha 115.391899
_cell_angle_beta 83.210721
_cell_angle_gamma 126.349813
_cell_volume 546.401333
_symmetry_space_group_name_H-M "P -1"
_symmetry_group_IT_number 2
_symmetry_cell_setting 'triclinic'
loop_
_space_group_symop_operation_xyz
x,y,z
-x,-y,-z
loop_
_atom_site_type_symbol
_atom_site_label
_atom_site_fract_x
_atom_site_fract_y
_atom_site_fract_z
Si Si1 0.300221 0.715134 0.688937
Si Si2 0.407813 0.560202 0.227696
Si Si3 0.203034 0.058832 0.322286
Si Si4 0.324633 0.917446 0.521782
Si Si5 0.535755 0.708862 0.897413
Si Si6 0.005936 0.574192 0.267633
Si Si7 0.131951 0.257932 0.779216
O O1 0.360394 0.637933 0.461624
O O2 0.331521 0.895968 0.752872
O O3 0.397971 0.719713 0.864341
O O4 0.117627 0.585713 0.683440
O O5 0.480293 0.468873 0.244075
O O6 0.526947 0.709598 0.147223
O O7 0.256954 0.406702 0.016798
O O8 0.312557 0.157726 0.175286
O O9 0.193429 0.180940 0.563936
O O10 0.271220 0.988853 0.411467
O O11 0.024454 0.900170 0.187622
O O12 0.186991 0.712950 0.377564
O O13 0.500000 0.000000 0.500000
O O14 0.930373 0.672149 0.319515
O O15 0.000000 0.500000 0.000000
#
# Coordination Sequence:
#
# PCOD9034192 Si02
#       7
#     2   2   2   2   2   2   2
#     4  12  24  46  71 101 144 181 231 294 346 414
#     4  11  25  41  72 109 131 183 238 284 352 416
#     4  10  23  45  70 102 145 187 227 292 347 410
#     4  11  24  43  71 103 141 188 233 280 351 421
#     4  11  24  40  70 102 141 179 226 295 341 410
#     4  11  24  47  75 103 138 185 235 291 354 417
#     4  10  22  44  72 101 140 179 239 283 345 425
#
# _framework density 25.622191999999998
#
# number of rings (size 3 to 8) (size 9 to 14) (size 15 to 20)
#    0.000    1.143    2.857    2.571    4.000    0.571 
#    0.000    8.571    0.000    0.000    0.000    0.000 
#    0.000    0.000    0.000    0.000    0.000    0.000 
#
# Total GULP energy -78146.344980 kJ/mol
# GULP energy per Si atom -5581.881784 kJ/mol
# Density = 2.556387 g / cm^3
# Si number density = 25.622192 Si / 1000 Ang^3
#
#
#
# Elastic Constant Matrix: (Units=GPa)
#
#
# Indices 1 2 3 4 5 6 
#
# 1 86.0027 33.4479 13.8619 -6.4094 1.8650 11.1148
# 2 33.4479 167.8831 47.2377 -48.1292 -7.4380 37.0249
# 3 13.8619 47.2377 87.9676 -9.9457 -10.7751 15.2627
# 4 -6.4094 -48.1292 -9.9457 45.1371 10.8072 9.2130
# 5 1.8650 -7.4380 -10.7751 10.8072 43.6173 -2.9359
# 6 11.1148 37.0249 15.2627 9.2130 -2.9359 58.8101
#
#
#
# Elastic Compliance Matrix: (Units=1/GPa)
#
#
# Indices 1 2 3 4 5 6 
#
# 1 0.012747 -0.002328 -0.000817 -0.000448 -0.001081 -0.000715
# 2 -0.002328 0.014883 -0.004186 0.017655 -0.003497 -0.010784
# 3 -0.000817 -0.004186 0.013951 -0.002231 0.003299 -0.000316
# 4 -0.000448 0.017655 -0.002231 0.046620 -0.010302 -0.018269
# 5 -0.001081 -0.003497 0.003299 -0.010302 0.026045 0.004464
# 6 -0.000715 -0.010784 -0.000316 -0.018269 0.004464 0.027095
#
#
# Mechanical properties :
#
#
# Convention : Reuss Voigt Hill
#
# Bulk Modulus (GPa) = 37.15060 58.99427 48.07244
# Shear Modulus (GPa) = 30.30705 45.99999 38.15352
#
# Velocity S-wave (km/s) = 3.44298 4.24172 3.86305
# Velocity P-wave (km/s) = 5.50784 6.86034 6.22095
#
# Compressibility (1/GPa) = 0.02691747
#
# Stress axis : x y z
#
# Youngs Moduli (GPa) = 78.44814 67.19100 71.67733
#
# Poissons Ratio (x) = 0.15644 0.05859
# Poissons Ratio (y) = 0.18265 0.30007
# Poissons Ratio (z) = 0.06413 0.28129
#
# Static dielectric constant tensor:
#      x y z
#    x 1.832440 0.030560 -0.012420 
#    y 0.030560 2.078320 0.027880 
#    z -0.012420 0.027880 2.085600 
# 
# From -- ./inp_files/64666.got.cif
#   From: 2010.05.17/outbox.cif.g08.bks.cpg/sg2_33_cif.got.tgz:64666.got - 2010.06.03 11:33:40.
