data_PCOD9034166
_publ_section_title
;
Structure prediction by ZEFSAII (Michael W. Deem and Ramdas Pophale) SiO2 
 PCOD9034166
Probable space group: P -1
;
_chemical_formula_sum "Si O2"
_cell_formula_units_Z 13
_cell_length_a 13.926859
_cell_length_b 8.292456
_cell_length_c 7.253554
_cell_angle_alpha 106.913501
_cell_angle_beta 106.753019
_cell_angle_gamma 37.254158
_cell_volume 482.838006
_symmetry_space_group_name_H-M "P -1"
_symmetry_group_IT_number 2
_symmetry_cell_setting 'triclinic'
loop_
_space_group_symop_operation_xyz
x,y,z
-x,-y,-z
loop_
_atom_site_type_symbol
_atom_site_label
_atom_site_fract_x
_atom_site_fract_y
_atom_site_fract_z
Si Si1 0.258604 0.384644 0.093578
Si Si2 0.563647 0.834095 0.261815
Si Si3 0.317189 0.683706 0.791294
Si Si4 0.000000 0.000000 0.500000
Si Si5 0.746663 0.907054 0.494482
Si Si6 0.641741 0.379576 0.779947
Si Si7 0.981752 0.395863 0.697739
O O1 0.279387 0.552253 0.228868
O O2 0.086231 0.549180 0.117701
O O3 0.390717 0.095454 0.167385
O O4 0.311019 0.331010 0.895041
O O5 0.587801 0.617237 0.282347
O O6 0.615495 0.932317 0.433194
O O7 0.450467 0.643190 0.781766
O O8 0.147559 0.881737 0.669428
O O9 0.298301 0.734612 0.017321
O O10 0.055443 0.729076 0.476095
O O11 0.877115 0.678629 0.640260
O O12 0.837594 0.793603 0.310819
O O13 0.689277 0.166256 0.603679
#
# Coordination Sequence:
#
# PCOD9034166 Si02
#       7
#     2   2   2   1   2   2   2
#     4  10  23  43  70 102 134 181 233 283 342 406
#     4  10  22  44  71  99 136 180 231 285 338 413
#     4  10  23  45  71 104 142 182 231 283 349 405
#     4  12  24  44  68 104 136 190 226 288 336 424
#     4  11  24  44  69  98 139 182 229 283 349 405
#     4  10  23  44  73 104 138 182 232 289 338 414
#     4  11  25  43  64 100 140 178 228 286 345 405
#
# _framework density 26.924140999999999
#
# number of rings (size 3 to 8) (size 9 to 14) (size 15 to 20)
#    0.000    1.538    1.538    1.846    4.308    3.692 
#    5.538    2.308    0.000    0.000    0.000    0.000 
#    0.000    0.000    0.000    0.000    0.000    0.000 
#
# Total GULP energy -72644.295135 kJ/mol
# GULP energy per Si atom -5588.022703 kJ/mol
# Density = 2.686286 g / cm^3
# Si number density = 26.924141 Si / 1000 Ang^3
#
#
#
# Elastic Constant Matrix: (Units=GPa)
#
#
# Indices 1 2 3 4 5 6 
#
# 1 165.3746 21.7283 17.0412 3.4553 0.5607 -21.6190
# 2 21.7283 79.0355 21.2352 0.3641 -1.4552 1.4628
# 3 17.0412 21.2352 90.4325 -8.1405 5.7306 -21.0419
# 4 3.4553 0.3641 -8.1405 45.7673 -8.1395 8.2857
# 5 0.5607 -1.4552 5.7306 -8.1395 47.5897 10.4247
# 6 -21.6190 1.4628 -21.0419 8.2857 10.4247 51.2126
#
#
#
# Elastic Compliance Matrix: (Units=1/GPa)
#
#
# Indices 1 2 3 4 5 6 
#
# 1 0.006770 -0.001906 -0.000111 -0.001302 -0.001069 0.003295
# 2 -0.001906 0.014289 -0.003814 0.000215 0.001645 -0.003149
# 3 -0.000111 -0.003814 0.013667 0.000829 -0.002966 0.006147
# 4 -0.001302 0.000215 0.000829 0.023938 0.005141 -0.005135
# 5 -0.001069 0.001645 -0.002966 0.005141 0.023938 -0.007422
# 6 0.003295 -0.003149 0.006147 -0.005135 -0.007422 0.025875
#
#
# Mechanical properties :
#
#
# Convention : Reuss Voigt Hill
#
# Bulk Modulus (GPa) = 43.35624 50.53911 46.94768
# Shear Modulus (GPa) = 39.11533 47.23644 43.17588
#
# Velocity S-wave (km/s) = 3.81569 4.19313 4.00886
# Velocity P-wave (km/s) = 5.96245 6.50037 6.23721
#
# Compressibility (1/GPa) = 0.02306473
#
# Stress axis : x y z
#
# Youngs Moduli (GPa) = 147.70202 69.98452 73.16695
#
# Poissons Ratio (x) = 0.13340 0.00812
# Poissons Ratio (y) = 0.28155 0.27905
# Poissons Ratio (z) = 0.01639 0.26691
#
# Static dielectric constant tensor:
#      x y z
#    x 2.123030 -0.007800 -0.036060 
#    y -0.007800 2.161350 0.071460 
#    z -0.036060 0.071460 2.152620 
# 
# From -- ./inp_files/295827.got.cif
#   From: 2010.05.17/outbox.cif.g08.bks.cpg/sg2_148_cif.got.tgz:295827.got - 2010.06.03 11:33:40.
