data_PCOD9034649
_publ_section_title
;
Structure prediction by ZEFSAII (Michael W. Deem and Ramdas Pophale) SiO2 
 PCOD9034649
Probable space group: P -1
;
_chemical_formula_sum "Si O2"
_cell_formula_units_Z 16
_cell_length_a 15.741405
_cell_length_b 7.606466
_cell_length_c 18.254317
_cell_angle_alpha 34.912634
_cell_angle_beta 35.544811
_cell_angle_gamma 47.477715
_cell_volume 726.974035
_symmetry_space_group_name_H-M "P -1"
_symmetry_group_IT_number 2
_symmetry_cell_setting 'triclinic'
loop_
_space_group_symop_operation_xyz
x,y,z
-x,-y,-z
loop_
_atom_site_type_symbol
_atom_site_label
_atom_site_fract_x
_atom_site_fract_y
_atom_site_fract_z
Si Si1 0.248372 0.960916 0.348000
Si Si2 0.551613 0.144594 0.075803
Si Si3 0.801963 0.436187 0.730035
Si Si4 0.051072 0.670410 0.108068
Si Si5 0.225478 0.593975 0.639903
Si Si6 0.082313 0.438939 0.601463
Si Si7 0.643317 0.083465 0.198477
Si Si8 0.664773 0.832021 0.557381
O O1 0.252693 0.753890 0.488560
O O2 0.127598 0.796609 0.440421
O O3 0.413198 0.973855 0.197905
O O4 0.206517 0.299212 0.290807
O O5 0.584267 0.042626 0.170769
O O6 0.500000 0.500000 0.000000
O O7 0.697487 0.161661 0.919941
O O8 0.734699 0.607924 0.648126
O O9 0.972008 0.343173 0.647325
O O10 0.949965 0.429886 0.219239
O O11 0.996315 0.641755 0.239865
O O12 0.225696 0.674405 0.978423
O O13 0.000000 0.000000 0.000000
O O14 0.298212 0.817555 0.570037
O O15 0.294204 0.252369 0.708840
O O16 0.239612 0.264979 0.546153
O O17 0.508755 0.190833 0.307239
#
# Coordination Sequence:
#
# PCOD9034649 Si02
#       8
#     2   2   2   2   2   2   2   2
#     4   9  19  34  55  84 106 141 195 222 260 336
#     4  10  17  32  57  83 103 138 198 223 254 324
#     4  10  19  36  57  79 110 150 185 219 270 340
#     4   9  20  37  58  79 105 146 191 218 261 335
#     4   9  19  36  57  81 107 145 191 222 263 336
#     4  11  21  36  56  84 115 143 177 235 285 308
#     4  11  18  35  62  78 107 151 185 223 270 327
#     4  11  22  35  55  88 114 139 182 234 278 319
#
# _framework density 22.009038
#
# number of rings (size 3 to 8) (size 9 to 14) (size 15 to 20)
#    0.000    2.000    5.000    1.125    0.000    0.000 
#    0.000   10.000    0.000    0.000    0.000    0.000 
#    0.000    0.000    0.000    0.000    0.000    0.000 
#
# Total GULP energy -89227.282003 kJ/mol
# GULP energy per Si atom -5576.705125 kJ/mol
# Density = 2.195894 g / cm^3
# Si number density = 22.009038 Si / 1000 Ang^3
#
#
#
# Elastic Constant Matrix: (Units=GPa)
#
#
# Indices 1 2 3 4 5 6 
#
# 1 40.1139 6.8391 29.9352 5.7938 -12.0060 -19.0187
# 2 6.8391 61.0934 34.8543 21.3954 -5.9323 -10.5087
# 3 29.9352 34.8543 152.7207 23.8646 -39.8497 -13.6833
# 4 5.7938 21.3954 23.8646 32.1945 -20.4892 -3.5097
# 5 -12.0060 -5.9323 -39.8497 -20.4892 44.0078 -0.3044
# 6 -19.0187 -10.5087 -13.6833 -3.5097 -0.3044 22.3737
#
#
#
# Elastic Compliance Matrix: (Units=1/GPa)
#
#
# Indices 1 2 3 4 5 6 
#
# 1 0.051599 0.004026 -0.004392 0.004333 0.012964 0.043922
# 2 0.004026 0.026345 -0.005324 -0.018933 -0.008921 0.009449
# 3 -0.004392 -0.005324 0.010629 0.002040 0.008663 0.000704
# 4 0.004333 -0.018933 0.002040 0.060139 0.028518 0.005860
# 5 0.012964 -0.008921 0.008663 0.028518 0.046299 0.017232
# 6 0.043922 0.009449 0.000704 0.005860 0.017232 0.088054
#
#
# Mechanical properties :
#
#
# Convention : Reuss Voigt Hill
#
# Bulk Modulus (GPa) = 12.95475 44.13169 28.54322
# Shear Modulus (GPa) = 15.61645 31.86850 23.74248
#
# Velocity S-wave (km/s) = 2.66662 3.80935 3.28801
# Velocity P-wave (km/s) = 3.92174 6.28040 5.23562
#
# Compressibility (1/GPa) = 0.07719179
#
# Stress axis : x y z
#
# Youngs Moduli (GPa) = 19.38031 37.95815 94.08483
#
# Poissons Ratio (x) = -0.15282 0.41321
# Poissons Ratio (y) = -0.07802 0.50094
# Poissons Ratio (z) = 0.08512 0.20210
#
# Static dielectric constant tensor:
#      x y z
#    x 1.880790 -0.008920 -0.047410 
#    y -0.008920 1.861370 0.053930 
#    z -0.047410 0.053930 1.857620 
# 
# From -- ./inp_files/245066.got.cif
#   From: 2010.05.17/outbox.cif.g08.bks.cpg/sg2_123_cif.got.tgz:245066.got - 2010.06.03 11:33:40.
