data_PCOD9034751
_publ_section_title
;
Structure prediction by ZEFSAII (Michael W. Deem and Ramdas Pophale) SiO2 
 PCOD9034751
Probable space group: P -1
;
_chemical_formula_sum "Si O2"
_cell_formula_units_Z 16
_cell_length_a 22.702447
_cell_length_b 6.710763
_cell_length_c 6.872158
_cell_angle_alpha 76.746481
_cell_angle_beta 75.395429
_cell_angle_gamma 49.109467
_cell_volume 762.946913
_symmetry_space_group_name_H-M "P -1"
_symmetry_group_IT_number 2
_symmetry_cell_setting 'triclinic'
loop_
_space_group_symop_operation_xyz
x,y,z
-x,-y,-z
loop_
_atom_site_type_symbol
_atom_site_label
_atom_site_fract_x
_atom_site_fract_y
_atom_site_fract_z
Si Si1 0.391103 0.870178 0.893376
Si Si2 0.910707 0.646898 0.104004
Si Si3 0.321465 0.881119 0.548153
Si Si4 0.093798 0.776605 0.962784
Si Si5 0.826776 0.165157 0.811003
Si Si6 0.843857 0.990876 0.404339
Si Si7 0.568326 0.577066 0.735040
Si Si8 0.336968 0.262133 0.201012
O O1 0.337532 0.909453 0.751006
O O2 0.474428 0.764421 0.758888
O O3 0.406503 0.642314 0.071682
O O4 0.359643 0.118772 0.004005
O O5 0.886817 0.479968 0.085700
O O6 0.865386 0.147047 0.229810
O O7 0.902076 0.697998 0.329874
O O8 0.000000 0.500000 0.000000
O O9 0.242629 0.917109 0.578208
O O10 0.390045 0.595260 0.457084
O O11 0.317253 0.104321 0.382841
O O12 0.125869 0.744508 0.159662
O O13 0.000000 0.000000 0.000000
O O14 0.852360 0.033567 0.609604
O O15 0.737035 0.427928 0.824343
O O16 0.851190 0.929938 0.986022
O O17 0.597085 0.738637 0.747835
#
# Coordination Sequence:
#
# PCOD9034751 Si02
#       8
#     2   2   2   2   2   2   2   2
#     4  10  24  42  70  96 135 187 219 279 332 382
#     4  11  25  48  68  97 132 168 222 275 332 404
#     4  11  25  41  65 102 137 173 230 275 327 400
#     4  11  25  48  69  99 131 169 222 273 335 405
#     4  11  26  43  67  98 136 175 217 283 323 396
#     4  11  26  42  67 100 133 177 217 271 339 395
#     4  10  22  45  67  98 138 175 231 273 330 397
#     4  11  25  41  65 100 136 175 232 269 330 400
#
# _framework density 20.971315000000001
#
# number of rings (size 3 to 8) (size 9 to 14) (size 15 to 20)
#    0.000    1.250    3.750    0.750    8.750    3.500 
#    0.000    0.000    0.000    0.000    0.000    0.000 
#    0.000    0.000    0.000    0.000    0.000    0.000 
#
# Total GULP energy -89370.687852 kJ/mol
# GULP energy per Si atom -5585.667991 kJ/mol
# Density = 2.092358 g / cm^3
# Si number density = 20.971315 Si / 1000 Ang^3
#
#
#
# Elastic Constant Matrix: (Units=GPa)
#
#
# Indices 1 2 3 4 5 6 
#
# 1 96.2704 7.3291 18.2435 5.1881 -1.8167 31.9036
# 2 7.3291 76.9871 23.3426 22.3056 -6.4452 29.3769
# 3 18.2435 23.3426 74.1096 31.2298 7.8041 15.7023
# 4 5.1881 22.3056 31.2298 38.6717 4.1013 7.3271
# 5 -1.8167 -6.4452 7.8041 4.1013 33.2207 10.9377
# 6 31.9036 29.3769 15.7023 7.3271 10.9377 39.8595
#
#
#
# Elastic Compliance Matrix: (Units=1/GPa)
#
#
# Indices 1 2 3 4 5 6 
#
# 1 0.018303 0.009796 -0.002693 -0.002710 0.011604 -0.023494
# 2 0.009796 0.030403 -0.001393 -0.013606 0.019124 -0.032445
# 3 -0.002693 -0.001393 0.022004 -0.015956 -0.003052 -0.001715
# 4 -0.002710 -0.013606 -0.015956 0.045514 -0.008782 0.012526
# 5 0.011604 0.019124 -0.003052 -0.008782 0.047291 -0.033542
# 6 -0.023494 -0.032445 -0.001715 0.012526 -0.033542 0.075383
#
#
# Mechanical properties :
#
#
# Convention : Reuss Voigt Hill
#
# Bulk Modulus (GPa) = 12.17601 38.35528 25.26564
# Shear Modulus (GPa) = 19.61901 35.58050 27.59975
#
# Velocity S-wave (km/s) = 3.06194 4.12348 3.63171
# Velocity P-wave (km/s) = 4.28010 6.40312 5.44606
#
# Compressibility (1/GPa) = 0.08212872
#
# Stress axis : x y z
#
# Youngs Moduli (GPa) = 54.63607 32.89186 45.44613
#
# Poissons Ratio (x) = -0.32220 0.12239
# Poissons Ratio (y) = -0.53520 0.06332
# Poissons Ratio (z) = 0.14713 0.04583
#
# Static dielectric constant tensor:
#      x y z
#    x 1.760210 0.004780 0.006000 
#    y 0.004780 1.765880 0.027560 
#    z 0.006000 0.027560 1.781790 
# 
# From -- ./inp_files/121656.got.cif
#   From: 2010.05.17/outbox.cif.g08.bks.cpg/sg2_61_cif.got.tgz:121656.got - 2010.06.03 11:33:40.
