data_PCOD9034952
_publ_section_title
;
Structure prediction by ZEFSAII (Michael W. Deem and Ramdas Pophale) SiO2 
 PCOD9034952
Probable space group: P -1
;
_chemical_formula_sum "Si O2"
_cell_formula_units_Z 14
_cell_length_a 20.913948
_cell_length_b 9.429117
_cell_length_c 5.330342
_cell_angle_alpha 71.513383
_cell_angle_beta 87.380972
_cell_angle_gamma 141.217208
_cell_volume 543.269643
_symmetry_space_group_name_H-M "P -1"
_symmetry_group_IT_number 2
_symmetry_cell_setting 'triclinic'
loop_
_space_group_symop_operation_xyz
x,y,z
-x,-y,-z
loop_
_atom_site_type_symbol
_atom_site_label
_atom_site_fract_x
_atom_site_fract_y
_atom_site_fract_z
Si Si1 0.814320 0.862772 0.918224
Si Si2 0.848882 0.680393 0.654785
Si Si3 0.445479 0.737802 0.770743
Si Si4 0.566294 0.724672 0.563446
Si Si5 0.946212 0.707316 0.124043
Si Si6 0.378139 0.934302 0.024377
Si Si7 0.225074 0.884930 0.380003
O O1 0.858968 0.868944 0.650118
O O2 0.804893 0.022036 0.805379
O O3 0.687933 0.535307 0.158126
O O4 0.914513 0.032461 0.011002
O O5 0.904998 0.725962 0.363049
O O6 0.711800 0.376111 0.814646
O O7 0.897670 0.680263 0.886766
O O8 0.472369 0.605749 0.837773
O O9 0.500000 0.000000 0.500000
O O10 0.502541 0.863409 0.967589
O O11 0.500000 0.500000 0.500000
O O12 0.688671 0.900857 0.529562
O O13 0.595769 0.945026 0.317371
O O14 0.885264 0.426711 0.331709
O O15 0.304154 0.920775 0.188496
#
# Coordination Sequence:
#
# PCOD9034952 Si02
#       7
#     2   2   2   2   2   2   2
#     4  12  25  44  70 108 141 183 247 300 348 435
#     4  11  25  48  77 100 145 192 240 297 361 421
#     4  11  26  43  68 104 141 183 236 297 359 424
#     4  11  21  40  67  96 139 182 233 291 357 425
#     4  11  25  52  72 104 146 196 235 294 367 426
#     4  10  22  45  69  95 144 187 232 290 367 426
#     4  10  23  44  69 103 140 188 234 296 360 422
#
# _framework density 25.769895000000002
#
# number of rings (size 3 to 8) (size 9 to 14) (size 15 to 20)
#    0.000    1.143    1.429    3.857    4.000    5.714 
#   10.286    2.143    0.000    0.000    0.000    0.000 
#    0.000    0.000    0.000    0.000    0.000    0.000 
#
# Total GULP energy -78141.782742 kJ/mol
# GULP energy per Si atom -5581.555910 kJ/mol
# Density = 2.571124 g / cm^3
# Si number density = 25.769895 Si / 1000 Ang^3
#
#
#
# Elastic Constant Matrix: (Units=GPa)
#
#
# Indices 1 2 3 4 5 6 
#
# 1 132.0055 87.4141 4.6745 -16.5055 32.1460 1.0643
# 2 87.4141 194.9148 -5.8896 -30.1363 16.6616 3.3400
# 3 4.6745 -5.8896 131.8410 11.2473 -26.6680 58.1875
# 4 -16.5055 -30.1363 11.2473 61.8367 -12.2561 8.0528
# 5 32.1460 16.6616 -26.6680 -12.2561 58.9744 -30.3316
# 6 1.0643 3.3400 58.1875 8.0528 -30.3316 90.6859
#
#
#
# Elastic Compliance Matrix: (Units=1/GPa)
#
#
# Indices 1 2 3 4 5 6 
#
# 1 0.012695 -0.005139 -0.001490 -0.000027 -0.006804 -0.001277
# 2 -0.005139 0.007764 0.000804 0.002581 0.001218 -0.000563
# 3 -0.001490 0.000804 0.010926 -0.000753 0.002164 -0.006232
# 4 -0.000027 0.002581 -0.000753 0.018106 0.002513 -0.000379
# 5 -0.006804 0.001218 0.002164 0.002513 0.025377 0.006911
# 6 -0.001277 -0.000563 -0.006232 -0.000379 0.006911 0.017407
#
#
# Mechanical properties :
#
#
# Convention : Reuss Voigt Hill
#
# Bulk Modulus (GPa) = 50.67286 70.12882 60.40084
# Shear Modulus (GPa) = 45.24711 67.13689 56.19200
#
# Velocity S-wave (km/s) = 4.19479 5.10970 4.67468
# Velocity P-wave (km/s) = 6.57023 7.87938 7.25440
#
# Compressibility (1/GPa) = 0.01973443
#
# Stress axis : x y z
#
# Youngs Moduli (GPa) = 78.76953 128.79840 91.52413
#
# Poissons Ratio (x) = 0.66192 0.13638
# Poissons Ratio (y) = 0.40481 -0.07357
# Poissons Ratio (z) = 0.11737 -0.10353
#
# Static dielectric constant tensor:
#      x y z
#    x 1.590530 -0.031620 0.213960 
#    y -0.031620 2.002670 0.022560 
#    z 0.213960 0.022560 2.113290 
# 
# From -- ./inp_files/27785.got.cif
#   From: 2010.05.17/outbox.cif.g08.bks.cpg/sg2_14_cif.got.tgz:27785.got - 2010.06.03 11:33:40.
