data_PCOD9034893
_publ_section_title
;
Structure prediction by ZEFSAII (Michael W. Deem and Ramdas Pophale) SiO2 
 PCOD9034893
Probable space group: P -1
;
_chemical_formula_sum "Si O2"
_cell_formula_units_Z 16
_cell_length_a 11.943941
_cell_length_b 18.449348
_cell_length_c 8.884354
_cell_angle_alpha 64.613140
_cell_angle_beta 151.942820
_cell_angle_gamma 126.581792
_cell_volume 714.523752
_symmetry_space_group_name_H-M "P -1"
_symmetry_group_IT_number 2
_symmetry_cell_setting 'triclinic'
loop_
_space_group_symop_operation_xyz
x,y,z
-x,-y,-z
loop_
_atom_site_type_symbol
_atom_site_label
_atom_site_fract_x
_atom_site_fract_y
_atom_site_fract_z
Si Si1 0.090890 0.073210 0.674622
Si Si2 0.090986 0.349635 0.580576
Si Si3 0.783858 0.021825 0.644711
Si Si4 0.607222 0.608475 0.562935
Si Si5 0.583967 0.132676 0.446234
Si Si6 0.438103 0.282680 0.862378
Si Si7 0.173413 0.525609 0.340987
Si Si8 0.058952 0.657329 0.261056
O O1 0.211888 0.175468 0.659385
O O2 0.832247 0.036333 0.513352
O O3 0.339822 0.089418 0.069668
O O4 0.000000 0.000000 0.500000
O O5 0.124354 0.369366 0.780914
O O6 0.286574 0.309235 0.792719
O O7 0.175531 0.437443 0.492126
O O8 0.746933 0.294318 0.219791
O O9 0.819769 0.117579 0.666800
O O10 0.503365 0.932139 0.451131
O O11 0.000000 0.000000 0.000000
O O12 0.500000 0.500000 0.500000
O O13 0.538498 0.651373 0.304685
O O14 0.457367 0.608330 0.537836
O O15 0.923780 0.663494 0.938485
O O16 0.679617 0.239080 0.496804
O O17 0.092679 0.569694 0.342206
O O18 0.000000 0.500000 0.000000
#
# Coordination Sequence:
#
# PCOD9034893 Si02
#       8
#     2   2   2   2   2   2   2   2
#     4  11  25  44  70 105 142 187 237 299 366 435
#     4  12  26  47  74 106 147 190 250 306 363 433
#     4   9  21  43  72  96 143 177 234 295 359 430
#     4  12  25  46  69 100 144 190 245 300 368 434
#     4  10  22  45  69 102 137 184 240 295 360 433
#     4  12  26  48  75 104 152 194 244 306 368 439
#     4  12  24  45  69 100 145 192 240 302 368 437
#     4  12  26  42  73 104 140 192 244 305 363 437
#
# _framework density 22.392538999999999
#
# number of rings (size 3 to 8) (size 9 to 14) (size 15 to 20)
#    0.000    0.750    5.000    1.125    1.750    7.000 
#    0.000    0.000    0.000    0.000    0.000    0.000 
#    0.000    0.000    0.000    0.000    0.000    0.000 
#
# Total GULP energy -89115.629968 kJ/mol
# GULP energy per Si atom -5569.726873 kJ/mol
# Density = 2.234157 g / cm^3
# Si number density = 22.392539 Si / 1000 Ang^3
#
#
#
# Elastic Constant Matrix: (Units=GPa)
#
#
# Indices 1 2 3 4 5 6 
#
# 1 134.5280 36.0921 13.5858 19.6188 4.1034 -1.8783
# 2 36.0921 104.2872 18.9008 9.3316 -8.1306 -2.4236
# 3 13.5858 18.9008 72.6982 7.8590 -11.1263 -12.4714
# 4 19.6188 9.3316 7.8590 15.3994 -6.4521 -4.2233
# 5 4.1034 -8.1306 -11.1263 -6.4521 26.9363 -7.6521
# 6 -1.8783 -2.4236 -12.4714 -4.2233 -7.6521 41.8772
#
#
#
# Elastic Compliance Matrix: (Units=1/GPa)
#
#
# Indices 1 2 3 4 5 6 
#
# 1 0.010723 -0.002763 -0.001293 -0.015290 -0.007510 -0.002978
# 2 -0.002763 0.011195 -0.001757 -0.001007 0.002958 0.000440
# 3 -0.001293 -0.001757 0.016876 -0.000712 0.008257 0.006303
# 4 -0.015290 -0.001007 -0.000712 0.102245 0.030461 0.014921
# 5 -0.007510 0.002958 0.008257 0.030461 0.054207 0.015270
# 6 -0.002978 0.000440 0.006303 0.014921 0.015270 0.029943
#
#
# Mechanical properties :
#
#
# Convention : Reuss Voigt Hill
#
# Bulk Modulus (GPa) = 36.80964 49.85230 43.33097
# Shear Modulus (GPa) = 20.33595 33.03822 26.68709
#
# Velocity S-wave (km/s) = 3.01683 3.84528 3.45597
# Velocity P-wave (km/s) = 5.34875 6.48275 5.94286
#
# Compressibility (1/GPa) = 0.02716680
#
# Stress axis : x y z
#
# Youngs Moduli (GPa) = 93.26159 89.32909 59.25566
#
# Poissons Ratio (x) = 0.24683 0.07661
# Poissons Ratio (y) = 0.25770 0.10412
# Poissons Ratio (z) = 0.12057 0.15696
#
# Static dielectric constant tensor:
#      x y z
#    x 1.916930 -0.001230 0.151770 
#    y -0.001230 1.831060 -0.019920 
#    z 0.151770 -0.019920 2.032220 
# 
# From -- ./inp_files/277756.got.cif
#   From: 2010.05.17/outbox.cif.g08.bks.cpg/sg2_139_cif.got.tgz:277756.got - 2010.06.03 11:33:40.
