data_PCOD9034417
_publ_section_title
;
Structure prediction by ZEFSAII (Michael W. Deem and Ramdas Pophale) SiO2 
 PCOD9034417
Probable space group: P -1
;
_chemical_formula_sum "Si O2"
_cell_formula_units_Z 16
_cell_length_a 11.700310
_cell_length_b 15.134112
_cell_length_c 9.275114
_cell_angle_alpha 114.513711
_cell_angle_beta 131.362412
_cell_angle_gamma 105.611581
_cell_volume 679.499443
_symmetry_space_group_name_H-M "P -1"
_symmetry_group_IT_number 2
_symmetry_cell_setting 'triclinic'
loop_
_space_group_symop_operation_xyz
x,y,z
-x,-y,-z
loop_
_atom_site_type_symbol
_atom_site_label
_atom_site_fract_x
_atom_site_fract_y
_atom_site_fract_z
Si Si1 0.168231 0.891108 0.096282
Si Si2 0.941796 0.512417 0.114746
Si Si3 0.004899 0.773132 0.338034
Si Si4 0.267241 0.633576 0.730292
Si Si5 0.482860 0.041143 0.754788
Si Si6 0.360616 0.330849 0.812891
Si Si7 0.379655 0.208404 0.469456
Si Si8 0.278305 0.317803 0.239299
O O1 0.267279 0.890271 0.034720
O O2 0.325543 0.948963 0.413020
O O3 0.211575 0.027658 0.205287
O O4 0.889977 0.721868 0.799430
O O5 0.910945 0.613723 0.156282
O O6 0.174527 0.602483 0.470022
O O7 0.675064 0.332711 0.821118
O O8 0.000000 0.500000 0.000000
O O9 0.890610 0.769628 0.377385
O O10 0.892792 0.774501 0.107987
O O11 0.301157 0.916593 0.648448
O O12 0.000000 0.500000 0.500000
O O13 0.433717 0.807956 0.040897
O O14 0.438631 0.627249 0.895706
O O15 0.310746 0.241008 0.569367
O O16 0.500000 0.500000 0.000000
O O17 0.363141 0.259932 0.341492
O O18 0.500000 0.500000 0.500000
#
# Coordination Sequence:
#
# PCOD9034417 Si02
#       8
#     2   2   2   2   2   2   2   2
#     4  10  22  44  74 108 147 188 241 307 364 436
#     4  12  26  44  71 105 148 186 246 302 355 435
#     4  11  25  46  70 107 143 190 242 303 366 431
#     4  12  25  46  73 106 139 196 242 290 369 434
#     4  10  23  46  74 102 146 188 244 301 367 436
#     4  12  24  45  71 104 150 189 240 300 362 437
#     4  12  23  46  70 109 145 193 244 298 370 435
#     4  11  23  42  70 106 145 187 240 294 369 434
#
# _framework density 23.546745999999999
#
# number of rings (size 3 to 8) (size 9 to 14) (size 15 to 20)
#    0.000    0.750    5.000    1.125    1.750    7.000 
#    0.000    1.250    0.000    0.000    0.000    0.000 
#    0.000    0.000    0.000    0.000    0.000    0.000 
#
# Total GULP energy -89545.916355 kJ/mol
# GULP energy per Si atom -5596.619772 kJ/mol
# Density = 2.349315 g / cm^3
# Si number density = 23.546746 Si / 1000 Ang^3
#
#
#
# Elastic Constant Matrix: (Units=GPa)
#
#
# Indices 1 2 3 4 5 6 
#
# 1 178.5685 55.6950 35.2107 16.6194 8.8887 22.0640
# 2 55.6950 98.8890 20.7914 3.3231 9.7674 6.4772
# 3 35.2107 20.7914 59.5402 -1.2125 18.3488 10.1225
# 4 16.6194 3.3231 -1.2125 60.9724 9.8320 11.8879
# 5 8.8887 9.7674 18.3488 9.8320 28.0643 10.7107
# 6 22.0640 6.4772 10.1225 11.8879 10.7107 41.6918
#
#
#
# Elastic Compliance Matrix: (Units=1/GPa)
#
#
# Indices 1 2 3 4 5 6 
#
# 1 0.007905 -0.003685 -0.003897 -0.001969 0.003126 -0.002906
# 2 -0.003685 0.012709 -0.001543 0.000553 -0.002788 0.000909
# 3 -0.003897 -0.001543 0.024666 0.004320 -0.015513 -0.000933
# 4 -0.001969 0.000553 0.004320 0.018917 -0.007680 -0.003514
# 5 0.003126 -0.002788 -0.015513 -0.007680 0.051709 -0.008549
# 6 -0.002906 0.000909 -0.000933 -0.003514 -0.008549 0.028807
#
#
# Mechanical properties :
#
#
# Convention : Reuss Voigt Hill
#
# Bulk Modulus (GPa) = 36.99538 62.26577 49.63058
# Shear Modulus (GPa) = 29.07444 41.16576 35.12010
#
# Velocity S-wave (km/s) = 3.51772 4.18575 3.86619
# Velocity P-wave (km/s) = 5.67844 7.06127 6.40727
#
# Compressibility (1/GPa) = 0.02703040
#
# Stress axis : x y z
#
# Youngs Moduli (GPa) = 126.51007 78.68254 40.54121
#
# Poissons Ratio (x) = 0.28992 0.15799
# Poissons Ratio (y) = 0.46616 0.06256
# Poissons Ratio (z) = 0.49302 0.12141
#
# Static dielectric constant tensor:
#      x y z
#    x 1.892640 0.018970 0.087650 
#    y 0.018970 1.891330 -0.044970 
#    z 0.087650 -0.044970 1.978130 
# 
# From -- ./inp_files/273911.got.cif
#   From: 2010.05.17/outbox.cif.g08.bks.cpg/sg2_137_cif.got.tgz:273911.got - 2010.06.03 11:33:40.
