data_PCOD9034990
_publ_section_title
;
Structure prediction by ZEFSAII (Michael W. Deem and Ramdas Pophale) SiO2 
 PCOD9034990
Probable space group: P -1
;
_chemical_formula_sum "Si O2"
_cell_formula_units_Z 16
_cell_length_a 11.286464
_cell_length_b 14.411182
_cell_length_c 12.406484
_cell_angle_alpha 150.719193
_cell_angle_beta 98.070229
_cell_angle_gamma 61.768284
_cell_volume 674.069057
_symmetry_space_group_name_H-M "P -1"
_symmetry_group_IT_number 2
_symmetry_cell_setting 'triclinic'
loop_
_space_group_symop_operation_xyz
x,y,z
-x,-y,-z
loop_
_atom_site_type_symbol
_atom_site_label
_atom_site_fract_x
_atom_site_fract_y
_atom_site_fract_z
Si Si1 0.698867 0.717132 0.209849
Si Si2 0.745694 0.805970 0.883156
Si Si3 0.703613 0.755006 0.594591
Si Si4 0.818898 0.864008 0.539787
Si Si5 0.381096 0.955052 0.658614
Si Si6 0.431650 0.471476 0.106779
Si Si7 0.838647 0.340896 0.566908
Si Si8 0.998406 0.852282 0.945808
O O1 0.816453 0.681658 0.278030
O O2 0.500000 0.000000 0.500000
O O3 0.737912 0.782244 0.168490
O O4 0.682266 0.510765 0.979578
O O5 0.645820 0.884963 0.837785
O O6 0.801961 0.539532 0.670882
O O7 0.897091 0.774001 0.832230
O O8 0.670514 0.996178 0.172774
O O9 0.813732 0.791639 0.587943
O O10 0.555173 0.876805 0.614359
O O11 0.809643 0.439130 0.299679
O O12 0.995210 0.778879 0.464005
O O13 0.635257 0.186503 0.829930
O O14 0.407077 0.723912 0.370856
O O15 0.340780 0.492493 0.224677
O O16 0.906382 0.068036 0.249037
O O17 0.000000 0.000000 0.000000
#
# Coordination Sequence:
#
# PCOD9034990 Si02
#       8
#     2   2   2   2   2   2   2   2
#     4  10  22  45  69  99 138 180 229 285 342 403
#     4  12  24  43  68  98 140 179 226 285 341 410
#     4  12  23  43  69  98 138 181 228 278 346 413
#     4  11  24  45  72 101 136 187 228 278 351 405
#     4  12  24  44  70 102 135 181 231 284 344 404
#     4  11  24  45  70 100 141 175 229 292 336 403
#     4  12  23  45  69  99 142 179 227 283 347 407
#     4  12  24  42  66  98 137 181 228 280 344 406
#
# _framework density 23.736438
#
# number of rings (size 3 to 8) (size 9 to 14) (size 15 to 20)
#    0.000    0.500    7.500    2.250    0.000    2.500 
#    2.250    2.500    0.000    0.000    0.000    0.000 
#    0.000    0.000    0.000    0.000    0.000    0.000 
#
# Total GULP energy -89356.734042 kJ/mol
# GULP energy per Si atom -5584.795878 kJ/mol
# Density = 2.368241 g / cm^3
# Si number density = 23.736438 Si / 1000 Ang^3
#
#
#
# Elastic Constant Matrix: (Units=GPa)
#
#
# Indices 1 2 3 4 5 6 
#
# 1 99.9924 23.8637 26.8943 -3.5389 9.1077 -1.6019
# 2 23.8637 77.3349 18.7204 -22.3513 -2.3743 -2.7336
# 3 26.8943 18.7204 124.0928 -9.2529 27.3300 -8.5180
# 4 -3.5389 -22.3513 -9.2529 33.7436 -7.2978 6.1879
# 5 9.1077 -2.3743 27.3300 -7.2978 39.8155 -10.5094
# 6 -1.6019 -2.7336 -8.5180 6.1879 -10.5094 30.4284
#
#
#
# Elastic Compliance Matrix: (Units=1/GPa)
#
#
# Indices 1 2 3 4 5 6 
#
# 1 0.011480 -0.003884 -0.001595 -0.002207 -0.002310 -0.000540
# 2 -0.003884 0.018470 -0.002303 0.012417 0.005935 0.000335
# 3 -0.001595 -0.002303 0.010238 -0.000412 -0.006793 0.000313
# 4 -0.002207 0.012417 -0.000412 0.040015 0.007645 -0.004613
# 5 -0.002310 0.005935 -0.006793 0.007645 0.034394 0.008834
# 6 -0.000540 0.000335 0.000313 -0.004613 0.008834 0.036943
#
#
# Mechanical properties :
#
#
# Convention : Reuss Voigt Hill
#
# Bulk Modulus (GPa) = 40.60984 48.93076 44.77030
# Shear Modulus (GPa) = 28.52047 36.26029 32.39038
#
# Velocity S-wave (km/s) = 3.47010 3.91272 3.69804
# Velocity P-wave (km/s) = 5.76205 6.40870 6.09396
#
# Compressibility (1/GPa) = 0.02462457
#
# Stress axis : x y z
#
# Youngs Moduli (GPa) = 87.10489 54.14278 97.67106
#
# Poissons Ratio (x) = 0.21031 0.15579
# Poissons Ratio (y) = 0.33834 0.22491
# Poissons Ratio (z) = 0.13893 0.12467
#
# Static dielectric constant tensor:
#      x y z
#    x 1.936420 -0.006090 -0.075970 
#    y -0.006090 1.908660 -0.030330 
#    z -0.075970 -0.030330 1.967460 
# 
# From -- ./inp_files/337684.got.cif
#   From: 2010.05.17/outbox.cif.g08.bks.cpg/sg2_169_cif.got.tgz:337684.got - 2010.06.03 11:33:40.
