data_PCOD9034318
_publ_section_title
;
Structure prediction by ZEFSAII (Michael W. Deem and Ramdas Pophale) SiO2 
 PCOD9034318
Probable space group: P -1
;
_chemical_formula_sum "Si O2"
_cell_formula_units_Z 16
_cell_length_a 8.762650
_cell_length_b 18.114390
_cell_length_c 12.394584
_cell_angle_alpha 26.181236
_cell_angle_beta 116.081026
_cell_angle_gamma 128.123792
_cell_volume 644.722380
_symmetry_space_group_name_H-M "P -1"
_symmetry_group_IT_number 2
_symmetry_cell_setting 'triclinic'
loop_
_space_group_symop_operation_xyz
x,y,z
-x,-y,-z
loop_
_atom_site_type_symbol
_atom_site_label
_atom_site_fract_x
_atom_site_fract_y
_atom_site_fract_z
Si Si1 0.340011 0.783298 0.497879
Si Si2 0.980742 0.045764 0.310761
Si Si3 0.573331 0.619058 0.691830
Si Si4 0.480774 0.291795 0.765160
Si Si5 0.883999 0.099425 0.882986
Si Si6 0.244145 0.648293 0.880243
Si Si7 0.259438 0.782526 0.951220
Si Si8 0.745311 0.724891 0.086380
O O1 0.411159 0.630473 0.700445
O O2 0.168572 0.776206 0.377511
O O3 0.296181 0.777257 0.618798
O O4 0.549360 0.992684 0.258210
O O5 0.788847 0.839808 0.468283
O O6 0.938372 0.219655 0.081797
O O7 0.000000 0.000000 0.500000
O O8 0.180955 0.140153 0.175729
O O9 0.429739 0.508717 0.687111
O O10 0.645309 0.470780 0.936782
O O11 0.500000 0.500000 0.500000
O O12 0.357203 0.201541 0.959634
O O13 0.706236 0.348285 0.783796
O O14 0.336815 0.106145 0.883679
O O15 0.045172 0.232852 0.852154
O O16 0.000000 0.000000 0.000000
O O17 0.282254 0.746864 0.880480
O O18 0.000000 0.500000 0.000000
#
# Coordination Sequence:
#
# PCOD9034318 Si02
#       8
#     2   2   2   2   2   2   2   2
#     4  10  24  45  70  97 144 188 229 298 355 422
#     4  11  27  46  70 102 147 186 231 292 352 427
#     4  11  26  45  72 106 142 186 237 292 361 422
#     4  10  22  44  73 101 140 185 236 296 347 419
#     4   9  22  44  69 102 137 183 239 285 351 418
#     4  12  25  40  71 104 138 180 239 294 357 422
#     4  10  23  44  64 101 133 184 235 286 352 423
#     4  11  25  45  72 102 143 188 233 289 358 419
#
# _framework density 24.816880999999999
#
# number of rings (size 3 to 8) (size 9 to 14) (size 15 to 20)
#    0.000    1.500    1.250    1.500    8.750    8.500 
#    2.250    1.875    0.000    0.000    0.000    0.000 
#    0.000    0.000    0.000    0.000    0.000    0.000 
#
# Total GULP energy -89260.369504 kJ/mol
# GULP energy per Si atom -5578.773094 kJ/mol
# Density = 2.476040 g / cm^3
# Si number density = 24.816881 Si / 1000 Ang^3
#
#
#
# Elastic Constant Matrix: (Units=GPa)
#
#
# Indices 1 2 3 4 5 6 
#
# 1 74.9570 17.0138 28.4183 0.7733 20.7948 9.6830
# 2 17.0138 144.8693 25.4156 -6.4932 7.5014 22.2726
# 3 28.4183 25.4156 77.3967 3.0562 14.4198 15.8963
# 4 0.7733 -6.4932 3.0562 31.4182 12.5069 -0.8456
# 5 20.7948 7.5014 14.4198 12.5069 41.9603 -0.5463
# 6 9.6830 22.2726 15.8963 -0.8456 -0.5463 39.0370
#
#
#
# Elastic Compliance Matrix: (Units=1/GPa)
#
#
# Indices 1 2 3 4 5 6 
#
# 1 0.017644 -0.000361 -0.004483 0.003083 -0.008089 -0.002391
# 2 -0.000361 0.007976 -0.001523 0.002281 -0.001453 -0.003812
# 3 -0.004483 -0.001523 0.016669 -0.000731 -0.003080 -0.004866
# 4 0.003083 0.002281 -0.000731 0.037376 -0.012840 -0.001139
# 5 -0.008089 -0.001453 -0.003080 -0.012840 0.033041 0.004274
# 6 -0.002391 -0.003812 -0.004866 -0.001139 0.004274 0.030401
#
#
# Mechanical properties :
#
#
# Convention : Reuss Voigt Hill
#
# Bulk Modulus (GPa) = 33.83683 48.76873 41.30278
# Shear Modulus (GPa) = 30.17629 37.57480 33.87554
#
# Velocity S-wave (km/s) = 3.49084 3.89534 3.69863
# Velocity P-wave (km/s) = 5.46920 6.31868 5.90922
#
# Compressibility (1/GPa) = 0.02955360
#
# Stress axis : x y z
#
# Youngs Moduli (GPa) = 56.67714 125.37763 59.99252
#
# Poissons Ratio (x) = 0.04525 0.26898
# Poissons Ratio (y) = 0.02046 0.09137
# Poissons Ratio (z) = 0.25411 0.19095
#
# Static dielectric constant tensor:
#      x y z
#    x 1.965250 0.007970 -0.000070 
#    y 0.007970 2.114910 0.063710 
#    z -0.000070 0.063710 2.090050 
# 
# From -- ./inp_files/402695.got.cif
#   From: 2010.05.17/outbox.cif.g08.bks.cpg/sg2_202_cif.got.tgz:402695.got - 2010.06.03 11:33:40.
