data_PCOD9034058
_publ_section_title
;
Structure prediction by ZEFSAII (Michael W. Deem and Ramdas Pophale) SiO2 
 PCOD9034058
Probable space group: P -1
;
_chemical_formula_sum "Si O2"
_cell_formula_units_Z 13
_cell_length_a 5.351142
_cell_length_b 5.495797
_cell_length_c 19.662992
_cell_angle_alpha 90.532379
_cell_angle_beta 54.193420
_cell_angle_gamma 90.546558
_cell_volume 468.944565
_symmetry_space_group_name_H-M "P -1"
_symmetry_group_IT_number 2
_symmetry_cell_setting 'triclinic'
loop_
_space_group_symop_operation_xyz
x,y,z
-x,-y,-z
loop_
_atom_site_type_symbol
_atom_site_label
_atom_site_fract_x
_atom_site_fract_y
_atom_site_fract_z
Si Si1 0.441807 0.913720 0.620088
Si Si2 0.770733 0.696865 0.455620
Si Si3 0.635038 0.090784 0.220625
Si Si4 0.643763 0.033697 0.067843
Si Si5 0.143830 0.455992 0.290111
Si Si6 0.500000 0.500000 0.000000
Si Si7 0.143858 0.707536 0.145559
O O1 0.744886 0.800816 0.535970
O O2 0.509650 0.000855 0.685506
O O3 0.137787 0.739846 0.673946
O O4 0.333887 0.112966 0.584410
O O5 0.500000 0.500000 0.500000
O O6 0.067070 0.579905 0.374600
O O7 0.528949 0.005917 0.163239
O O8 0.491612 0.359959 0.242749
O O9 0.966496 0.962097 0.169721
O O10 0.492616 0.779924 0.061569
O O11 0.552862 0.294350 0.054989
O O12 0.000000 0.000000 0.000000
O O13 0.117348 0.604014 0.224555
O O14 0.890038 0.479919 0.911011
#
# Coordination Sequence:
#
# PCOD9034058 Si02
#       7
#     2   2   2   2   2   1   2
#     4  10  22  44  71 101 145 178 234 285 327 410
#     4   9  20  43  70 102 144 185 222 285 339 393
#     4  12  25  43  72 104 135 183 232 281 342 409
#     4  12  28  47  70 103 136 177 231 282 348 417
#     4  11  24  44  71 102 140 185 226 284 347 393
#     4  12  26  48  70  94 138 178 216 290 348 400
#     4  12  27  46  70 102 140 173 234 289 338 413
#
# _framework density 27.721831000000002
#
# number of rings (size 3 to 8) (size 9 to 14) (size 15 to 20)
#    0.000    0.923    4.615    1.385    0.000    3.692 
#    0.000    6.923    0.000    0.000    0.000    0.000 
#    0.000    0.000    0.000    0.000    0.000    0.000 
#
# Total GULP energy -72445.085486 kJ/mol
# GULP energy per Si atom -5572.698884 kJ/mol
# Density = 2.765873 g / cm^3
# Si number density = 27.721831 Si / 1000 Ang^3
#
#
#
# Elastic Constant Matrix: (Units=GPa)
#
#
# Indices 1 2 3 4 5 6 
#
# 1 88.5191 56.3394 66.6455 -15.4479 2.7394 -17.5377
# 2 56.3394 144.8906 79.9751 -20.5188 -20.4437 -26.6857
# 3 66.6455 79.9751 248.3618 23.4899 28.8045 -1.4849
# 4 -15.4479 -20.5188 23.4899 81.6054 -7.7245 -4.6341
# 5 2.7394 -20.4437 28.8045 -7.7245 48.8810 -8.2260
# 6 -17.5377 -26.6857 -1.4849 -4.6341 -8.2260 35.2615
#
#
#
# Elastic Compliance Matrix: (Units=1/GPa)
#
#
# Indices 1 2 3 4 5 6 
#
# 1 0.019467 -0.000288 -0.006320 0.006593 0.005463 0.011339
# 2 -0.000288 0.020615 -0.009757 0.010997 0.019673 0.021082
# 3 -0.006320 -0.009757 0.011290 -0.009077 -0.014266 -0.014573
# 4 0.006593 0.010997 -0.009077 0.021398 0.015948 0.017752
# 5 0.005463 0.019673 -0.014266 0.015948 0.044258 0.029426
# 6 0.011339 0.021082 -0.014573 0.017752 0.029426 0.058538
#
#
# Mechanical properties :
#
#
# Convention : Reuss Voigt Hill
#
# Bulk Modulus (GPa) = 53.64216 98.63239 76.13727
# Shear Modulus (GPa) = 23.30896 51.73701 37.52298
#
# Velocity S-wave (km/s) = 2.90283 4.32475 3.68306
# Velocity P-wave (km/s) = 5.53420 7.78424 6.75359
#
# Compressibility (1/GPa) = 0.01864205
#
# Stress axis : x y z
#
# Youngs Moduli (GPa) = 51.36929 48.50827 88.57295
#
# Poissons Ratio (x) = 0.01397 0.55982
# Poissons Ratio (y) = 0.01479 0.86417
# Poissons Ratio (z) = 0.32467 0.47328
#
# Static dielectric constant tensor:
#      x y z
#    x 2.321640 0.274410 0.088710 
#    y 0.274410 2.749620 0.393250 
#    z 0.088710 0.393250 2.331460 
# 
# From -- ./inp_files/6716.got.cif
#   From: 2010.05.17/outbox.cif.g08.bks.cpg/sg2_4_cif.got.tgz:6716.got - 2010.06.03 11:33:40.
