data_PCOD9034277
_publ_section_title
;
Structure prediction by ZEFSAII (Michael W. Deem and Ramdas Pophale) SiO2 
 PCOD9034277
Probable space group: P -1
;
_chemical_formula_sum "Si O2"
_cell_formula_units_Z 16
_cell_length_a 10.600386
_cell_length_b 10.690185
_cell_length_c 8.641799
_cell_angle_alpha 116.134733
_cell_angle_beta 82.883795
_cell_angle_gamma 57.922405
_cell_volume 657.391723
_symmetry_space_group_name_H-M "P -1"
_symmetry_group_IT_number 2
_symmetry_cell_setting 'triclinic'
loop_
_space_group_symop_operation_xyz
x,y,z
-x,-y,-z
loop_
_atom_site_type_symbol
_atom_site_label
_atom_site_fract_x
_atom_site_fract_y
_atom_site_fract_z
Si Si1 0.181537 0.845383 0.802925
Si Si2 0.559816 0.725075 0.291017
Si Si3 0.752759 0.013409 0.713852
Si Si4 0.055884 0.097886 0.681591
Si Si5 0.838938 0.676068 0.706669
Si Si6 0.771750 0.769652 0.098882
Si Si7 0.503391 0.175941 0.287216
Si Si8 0.290195 0.655861 0.969957
O O1 0.350672 0.818659 0.773916
O O2 0.237254 0.674447 0.806196
O O3 0.129529 0.914056 0.671103
O O4 0.000000 0.000000 0.000000
O O5 0.401460 0.911672 0.334979
O O6 0.723079 0.677665 0.165056
O O7 0.548021 0.758608 0.492191
O O8 0.560410 0.561483 0.156942
O O9 0.897087 0.944440 0.527956
O O10 0.803597 0.853765 0.734120
O O11 0.694615 0.190808 0.915039
O O12 0.149495 0.163897 0.777265
O O13 0.862791 0.265045 0.846719
O O14 0.668018 0.709535 0.722336
O O15 0.000000 0.500000 0.500000
O O16 0.879031 0.653656 0.869959
O O17 0.603017 0.957863 0.149755
#
# Coordination Sequence:
#
# PCOD9034277 Si02
#       8
#     2   2   2   2   2   2   2   2
#     4   9  20  43  69  98 135 186 239 281 351 424
#     4  12  25  42  73 107 142 190 238 287 357 430
#     4  12  23  48  69 100 147 184 241 290 357 428
#     4  10  22  44  72  96 138 194 233 291 360 412
#     4  12  29  45  74 111 139 185 244 305 360 421
#     4  11  23  45  73 100 141 186 238 297 358 418
#     4  11  22  47  73 105 141 191 236 299 359 419
#     4  11  26  41  67 104 144 192 231 290 350 429
#
# _framework density 24.338609999999999
#
# number of rings (size 3 to 8) (size 9 to 14) (size 15 to 20)
#    0.000    1.000    3.750    3.750    5.250    1.000 
#    0.000    0.000    0.000    0.000    0.000    0.000 
#    0.000    0.000    0.000    0.000    0.000    0.000 
#
# Total GULP energy -89339.930062 kJ/mol
# GULP energy per Si atom -5583.745629 kJ/mol
# Density = 2.428321 g / cm^3
# Si number density = 24.338610 Si / 1000 Ang^3
#
#
#
# Elastic Constant Matrix: (Units=GPa)
#
#
# Indices 1 2 3 4 5 6 
#
# 1 70.5021 22.2229 37.3718 -13.7054 -0.0684 -16.2109
# 2 22.2229 48.3065 45.5167 -5.6082 -8.5729 4.5539
# 3 37.3718 45.5167 158.3091 -32.1686 6.0289 14.4004
# 4 -13.7054 -5.6082 -32.1686 49.3293 2.0817 -5.9891
# 5 -0.0684 -8.5729 6.0289 2.0817 37.4140 -4.0029
# 6 -16.2109 4.5539 14.4004 -5.9891 -4.0029 21.3530
#
#
#
# Elastic Compliance Matrix: (Units=1/GPa)
#
#
# Indices 1 2 3 4 5 6 
#
# 1 0.027896 -0.009735 -0.005084 0.006772 0.001348 0.028835
# 2 -0.009735 0.034787 -0.008353 -0.005672 0.008636 -0.009148
# 3 -0.005084 -0.008353 0.011908 0.004427 -0.005140 -0.009832
# 4 0.006772 -0.005672 0.004427 0.025725 -0.002347 0.010141
# 5 0.001348 0.008636 -0.005140 -0.002347 0.030493 0.007706
# 6 0.028835 -0.009148 -0.009832 0.010141 0.007706 0.081594
#
#
# Mechanical properties :
#
#
# Convention : Reuss Voigt Hill
#
# Bulk Modulus (GPa) = 35.40386 54.14895 44.77640
# Shear Modulus (GPa) = 18.64539 33.08636 25.86587
#
# Velocity S-wave (km/s) = 2.77082 3.69103 3.26352
# Velocity P-wave (km/s) = 4.98142 6.36093 5.71297
#
# Compressibility (1/GPa) = 0.02824551
#
# Stress axis : x y z
#
# Youngs Moduli (GPa) = 35.84775 28.74657 83.97562
#
# Poissons Ratio (x) = 0.27985 0.42697
# Poissons Ratio (y) = 0.34898 0.70144
# Poissons Ratio (z) = 0.18227 0.24012
#
# Static dielectric constant tensor:
#      x y z
#    x 2.046340 -0.006390 0.021980 
#    y -0.006390 1.951830 -0.010110 
#    z 0.021980 -0.010110 1.917180 
# 
# From -- ./inp_files/259478.got.cif
#   From: 2010.05.17/outbox.cif.g08.bks.cpg/sg2_130_cif.got.tgz:259478.got - 2010.06.03 11:33:40.
