data_PCOD9034810
_publ_section_title
;
Structure prediction by ZEFSAII (Michael W. Deem and Ramdas Pophale) SiO2 
 PCOD9034810
Probable space group: P -1
;
_chemical_formula_sum "Si O2"
_cell_formula_units_Z 12
_cell_length_a 8.092349
_cell_length_b 17.948166
_cell_length_c 11.683555
_cell_angle_alpha 29.274781
_cell_angle_beta 136.122762
_cell_angle_gamma 146.315485
_cell_volume 460.149002
_symmetry_space_group_name_H-M "P -1"
_symmetry_group_IT_number 2
_symmetry_cell_setting 'triclinic'
loop_
_space_group_symop_operation_xyz
x,y,z
-x,-y,-z
loop_
_atom_site_type_symbol
_atom_site_label
_atom_site_fract_x
_atom_site_fract_y
_atom_site_fract_z
Si Si1 0.319882 0.295108 0.060227
Si Si2 0.675667 0.944098 0.236524
Si Si3 0.280019 0.611477 0.648061
Si Si4 0.310355 0.575456 0.276132
Si Si5 0.539146 0.898978 0.801166
Si Si6 0.001784 0.229597 0.450789
O O1 0.570492 0.362891 0.188768
O O2 0.366345 0.199523 0.107136
O O3 0.998513 0.138230 0.167308
O O4 0.327417 0.472675 0.788797
O O5 0.461576 0.814328 0.406723
O O6 0.768547 0.820055 0.387632
O O7 0.500000 0.000000 0.000000
O O8 0.930539 0.493647 0.652723
O O9 0.500000 0.500000 0.500000
O O10 0.139960 0.447798 0.248279
O O11 0.481990 0.794042 0.032794
O O12 0.764178 0.144252 0.342722
O O13 0.808927 0.118540 0.618300
#
# Coordination Sequence:
#
# PCOD9034810 Si02
#       6
#     2   2   2   2   2   2
#     4  10  23  44  70  93 126 170 215 264 308 388
#     4  11  26  43  67  94 132 170 210 266 322 376
#     4  11  25  42  66  98 127 168 216 261 318 380
#     4  12  27  40  66  99 133 164 209 272 321 376
#     4  10  22  45  68  92 125 174 217 256 317 378
#     4  10  23  44  68  90 126 175 215 258 314 386
#
# _framework density 26.078509
#
# number of rings (size 3 to 8) (size 9 to 14) (size 15 to 20)
#    0.000    1.333    1.667    2.000   11.667    2.667 
#    0.000    0.000    0.000    0.000    0.000    0.000 
#    0.000    0.000    0.000    0.000    0.000    0.000 
#
# Total GULP energy -67281.614163 kJ/mol
# GULP energy per Si atom -5606.801180 kJ/mol
# Density = 2.601915 g / cm^3
# Si number density = 26.078509 Si / 1000 Ang^3
#
#
#
# Elastic Constant Matrix: (Units=GPa)
#
#
# Indices 1 2 3 4 5 6 
#
# 1 95.4320 26.7655 29.6043 15.6751 2.7971 31.7034
# 2 26.7655 53.6927 39.2248 12.2593 -7.6477 33.9322
# 3 29.6043 39.2248 165.3661 -3.5449 -21.5809 37.8461
# 4 15.6751 12.2593 -3.5449 45.5068 8.4025 14.4983
# 5 2.7971 -7.6477 -21.5809 8.4025 46.8779 -8.9128
# 6 31.7034 33.9322 37.8461 14.4983 -8.9128 44.0855
#
#
#
# Elastic Compliance Matrix: (Units=1/GPa)
#
#
# Indices 1 2 3 4 5 6 
#
# 1 0.014270 -0.001023 -0.000626 -0.001276 -0.002805 -0.009084
# 2 -0.001023 0.037571 -0.003052 -0.002214 0.000479 -0.024737
# 3 -0.000626 -0.003052 0.008318 0.002895 0.001917 -0.004906
# 4 -0.001276 -0.002214 0.002895 0.027522 -0.005803 -0.010087
# 5 -0.002805 0.000479 0.001917 -0.005803 0.024818 0.006929
# 6 -0.009084 -0.024737 -0.004906 -0.010087 0.006929 0.057185
#
#
# Mechanical properties :
#
#
# Convention : Reuss Voigt Hill
#
# Bulk Modulus (GPa) = 19.70220 56.18667 37.94443
# Shear Modulus (GPa) = 25.50943 41.88710 33.69827
#
# Velocity S-wave (km/s) = 3.13098 4.01208 3.59860
# Velocity P-wave (km/s) = 4.54335 6.56158 5.64342
#
# Compressibility (1/GPa) = 0.05075576
#
# Stress axis : x y z
#
# Youngs Moduli (GPa) = 70.07953 26.61603 120.21644
#
# Poissons Ratio (x) = 0.02723 0.07530
# Poissons Ratio (y) = 0.07169 0.36694
# Poissons Ratio (z) = 0.04390 0.08124
#
# Static dielectric constant tensor:
#      x y z
#    x 2.074190 -0.044250 0.005890 
#    y -0.044250 2.085490 -0.025520 
#    z 0.005890 -0.025520 1.980870 
# 
# From -- ./inp_files/508400.got.cif
#   From: 2010.05.17/outbox.cif.g08.bks.cpg/sg2_255_cif.got.tgz:508400.got - 2010.06.03 11:33:40.
