data_PCOD9034464
_publ_section_title
;
Structure prediction by ZEFSAII (Michael W. Deem and Ramdas Pophale) SiO2 
 PCOD9034464
Probable space group: P -1
;
_chemical_formula_sum "Si O2"
_cell_formula_units_Z 16
_cell_length_a 10.010486
_cell_length_b 12.135319
_cell_length_c 16.114864
_cell_angle_alpha 33.164841
_cell_angle_beta 123.469913
_cell_angle_gamma 143.619987
_cell_volume 588.239041
_symmetry_space_group_name_H-M "P -1"
_symmetry_group_IT_number 2
_symmetry_cell_setting 'triclinic'
loop_
_space_group_symop_operation_xyz
x,y,z
-x,-y,-z
loop_
_atom_site_type_symbol
_atom_site_label
_atom_site_fract_x
_atom_site_fract_y
_atom_site_fract_z
Si Si1 0.641740 0.349671 0.270910
Si Si2 0.362488 0.220354 0.693014
Si Si3 0.610052 0.196699 0.685475
Si Si4 0.830673 0.141922 0.377091
Si Si5 0.913419 0.229186 0.587460
Si Si6 0.815217 0.785809 0.199773
Si Si7 0.384372 0.238739 0.997681
Si Si8 0.142575 0.266452 0.266518
O O1 0.802926 0.326376 0.300762
O O2 0.640627 0.984906 0.616255
O O3 0.719466 0.501038 0.294048
O O4 0.634525 0.562591 0.090090
O O5 0.500000 0.500000 0.500000
O O6 0.497940 0.139354 0.772862
O O7 0.135435 0.447264 0.460468
O O8 0.362154 0.294539 0.739884
O O9 0.412093 0.082239 0.622637
O O10 0.632539 0.979608 0.819652
O O11 0.060495 0.332905 0.272950
O O12 0.831487 0.935883 0.560212
O O13 0.000000 0.500000 0.500000
O O14 0.959557 0.078156 0.755584
O O15 0.089160 0.941920 0.742408
O O16 0.829251 0.959487 0.020833
O O17 0.627158 0.470039 0.878572
#
# Coordination Sequence:
#
# PCOD9034464 Si02
#       8
#     2   2   2   2   2   2   2   2
#     4  10  25  45  78 107 148 196 245 302 373 440
#     4  11  23  42  74 106 149 188 257 309 360 434
#     4  11  24  46  75 112 147 195 247 312 368 446
#     4  10  22  44  75 111 144 188 259 301 353 449
#     4  12  23  45  79 103 142 200 252 299 368 438
#     4  10  25  45  71 108 150 189 245 309 363 442
#     4  10  25  45  73 110 157 187 243 307 386 438
#     4  10  23  42  77 111 142 198 248 305 375 436
#
# _framework density 27.199826999999999
#
# number of rings (size 3 to 8) (size 9 to 14) (size 15 to 20)
#    0.750    0.750    2.500    1.500    3.500    6.000 
#    0.000    2.500   11.000    0.000    0.000    0.000 
#    0.000    0.000    0.000    0.000    0.000    0.000 
#
# Total GULP energy -89582.907765 kJ/mol
# GULP energy per Si atom -5598.931735 kJ/mol
# Density = 2.713792 g / cm^3
# Si number density = 27.199827 Si / 1000 Ang^3
#
#
#
# Elastic Constant Matrix: (Units=GPa)
#
#
# Indices 1 2 3 4 5 6 
#
# 1 246.5909 69.7218 43.7944 -19.0079 6.6083 -22.7252
# 2 69.7218 127.6109 20.1164 4.0013 2.0643 -4.9272
# 3 43.7944 20.1164 98.1381 -8.1843 13.0308 8.4016
# 4 -19.0079 4.0013 -8.1843 32.4300 5.2373 9.2859
# 5 6.6083 2.0643 13.0308 5.2373 46.7626 -8.0533
# 6 -22.7252 -4.9272 8.4016 9.2859 -8.0533 68.5600
#
#
#
# Elastic Compliance Matrix: (Units=1/GPa)
#
#
# Indices 1 2 3 4 5 6 
#
# 1 0.005495 -0.002753 -0.001753 0.002742 -0.000226 0.001440
# 2 -0.002753 0.009635 -0.001164 -0.003349 0.000743 0.000463
# 3 -0.001753 -0.001164 0.012346 0.003806 -0.004115 -0.003176
# 4 0.002742 -0.003349 0.003806 0.036404 -0.006320 -0.005471
# 5 -0.000226 0.000743 -0.004115 -0.006320 0.023953 0.004152
# 6 0.001440 0.000463 -0.003176 -0.005471 0.004152 0.016715
#
#
# Mechanical properties :
#
#
# Convention : Reuss Voigt Hill
#
# Bulk Modulus (GPa) = 61.96931 82.17834 72.07383
# Shear Modulus (GPa) = 41.23198 52.13099 46.68148
#
# Velocity S-wave (km/s) = 3.89767 4.38264 4.14725
# Velocity P-wave (km/s) = 6.56416 7.47586 7.03479
#
# Compressibility (1/GPa) = 0.01613702
#
# Stress axis : x y z
#
# Youngs Moduli (GPa) = 181.98262 103.79173 80.99713
#
# Poissons Ratio (x) = 0.28571 0.14195
# Poissons Ratio (y) = 0.50095 0.09429
# Poissons Ratio (z) = 0.31894 0.12082
#
# Static dielectric constant tensor:
#      x y z
#    x 2.266510 -0.053450 0.009000 
#    y -0.053450 2.159850 0.021390 
#    z 0.009000 0.021390 2.147570 
# 
# From -- ./inp_files/518587.got.cif
#   From: 2010.05.17/outbox.cif.g08.bks.cpg/sg2_260_cif.got.tgz:518587.got - 2010.06.03 11:33:40.
