data_PCOD9034095
_publ_section_title
;
Structure prediction by ZEFSAII (Michael W. Deem and Ramdas Pophale) SiO2 
 PCOD9034095
Probable space group: P -1
;
_chemical_formula_sum "Si O2"
_cell_formula_units_Z 16
_cell_length_a 10.248263
_cell_length_b 16.056603
_cell_length_c 5.302033
_cell_angle_alpha 66.828806
_cell_angle_beta 79.683269
_cell_angle_gamma 54.706094
_cell_volume 653.304482
_symmetry_space_group_name_H-M "P -1"
_symmetry_group_IT_number 2
_symmetry_cell_setting 'triclinic'
loop_
_space_group_symop_operation_xyz
x,y,z
-x,-y,-z
loop_
_atom_site_type_symbol
_atom_site_label
_atom_site_fract_x
_atom_site_fract_y
_atom_site_fract_z
Si Si1 0.350444 0.111657 0.540746
Si Si2 0.222258 0.086656 0.130884
Si Si3 0.126085 0.808337 0.093062
Si Si4 0.597525 0.733246 0.922518
Si Si5 0.392708 0.683069 0.781532
Si Si6 0.108247 0.468376 0.748551
Si Si7 0.683468 0.428616 0.419046
Si Si8 0.671338 0.142448 0.763523
O O1 0.320572 0.097611 0.857521
O O2 0.366020 0.213354 0.382531
O O3 0.500000 0.000000 0.500000
O O4 0.216178 0.135452 0.348674
O O5 0.049817 0.142771 0.995752
O O6 0.296575 0.957945 0.289748
O O7 0.211955 0.689057 0.335421
O O8 0.160455 0.880875 0.172180
O O9 0.234895 0.784844 0.839940
O O10 0.538141 0.656710 0.940740
O O11 0.754245 0.660623 0.122273
O O12 0.447680 0.835774 0.993997
O O13 0.347185 0.599684 0.817735
O O14 0.418171 0.736607 0.467590
O O15 0.207988 0.524249 0.647474
O O16 0.000000 0.500000 0.500000
O O17 0.000000 0.500000 0.000000
O O18 0.500000 0.500000 0.500000
#
# Coordination Sequence:
#
# PCOD9034095 Si02
#       8
#     2   2   2   2   2   2   2   2
#     4  12  27  46  72 105 148 200 247 296 364 457
#     4  12  27  43  73 106 149 195 241 305 375 442
#     4  10  25  42  70 108 141 185 243 314 372 429
#     4  11  26  46  74 105 147 198 252 304 372 448
#     4  10  23  44  79 105 141 195 251 310 362 453
#     4  12  32  50  76 114 153 195 246 323 388 440
#     4  11  26  50  79 106 147 199 263 303 379 461
#     4  10  22  44  71 105 145 189 249 303 363 445
#
# _framework density 24.490877999999999
#
# number of rings (size 3 to 8) (size 9 to 14) (size 15 to 20)
#    0.000    1.000    1.250    3.750   15.750    1.500 
#    0.000    0.000    0.000    0.000    0.000    0.000 
#    0.000    0.000    0.000    0.000    0.000    0.000 
#
# Total GULP energy -89436.214560 kJ/mol
# GULP energy per Si atom -5589.763410 kJ/mol
# Density = 2.443514 g / cm^3
# Si number density = 24.490878 Si / 1000 Ang^3
#
#
#
# Elastic Constant Matrix: (Units=GPa)
#
#
# Indices 1 2 3 4 5 6 
#
# 1 174.0432 45.2106 45.7353 -9.7624 20.8430 11.5271
# 2 45.2106 50.2795 9.5832 -12.3735 6.9418 12.4624
# 3 45.7353 9.5832 92.1516 -5.6588 6.8830 -0.0396
# 4 -9.7624 -12.3735 -5.6588 35.1426 -0.6429 8.8705
# 5 20.8430 6.9418 6.8830 -0.6429 52.2658 -6.7634
# 6 11.5271 12.4624 -0.0396 8.8705 -6.7634 46.4294
#
#
#
# Elastic Compliance Matrix: (Units=1/GPa)
#
#
# Indices 1 2 3 4 5 6 
#
# 1 0.008709 -0.006837 -0.003476 -0.000445 -0.002186 -0.000563
# 2 -0.006837 0.031376 0.001037 0.011621 -0.002642 -0.009329
# 3 -0.003476 0.001037 0.012578 0.001346 -0.000354 0.000286
# 4 -0.000445 0.011621 0.001346 0.035139 -0.002414 -0.010073
# 5 -0.002186 -0.002642 -0.000354 -0.002414 0.020990 0.004770
# 6 -0.000563 -0.009329 0.000286 -0.010073 0.004770 0.026801
#
#
# Mechanical properties :
#
#
# Convention : Reuss Voigt Hill
#
# Bulk Modulus (GPa) = 29.31508 57.50358 43.40933
# Shear Modulus (GPa) = 30.20890 41.16388 35.68639
#
# Velocity S-wave (km/s) = 3.51590 4.10418 3.82138
# Velocity P-wave (km/s) = 5.33646 6.78157 6.10195
#
# Compressibility (1/GPa) = 0.03411214
#
# Stress axis : x y z
#
# Youngs Moduli (GPa) = 114.82204 31.87193 79.50316
#
# Poissons Ratio (x) = 0.21790 0.27633
# Poissons Ratio (y) = 0.78502 -0.08246
# Poissons Ratio (z) = 0.39909 -0.03306
#
# Static dielectric constant tensor:
#      x y z
#    x 1.979740 0.023750 0.047110 
#    y 0.023750 1.944680 0.034560 
#    z 0.047110 0.034560 2.134620 
# 
# From -- ./inp_files/46655.got.cif
#   From: 2010.05.17/outbox.cif.g08.bks.cpg/sg2_24_cif.got.tgz:46655.got - 2010.06.03 11:33:40.
