data_PCOD9034341
_publ_section_title
;
Structure prediction by ZEFSAII (Michael W. Deem and Ramdas Pophale) SiO2 
 PCOD9034341
Probable space group: P -1
;
_chemical_formula_sum "Si O2"
_cell_formula_units_Z 16
_cell_length_a 9.595948
_cell_length_b 8.256658
_cell_length_c 13.265089
_cell_angle_alpha 59.154355
_cell_angle_beta 101.462289
_cell_angle_gamma 63.699008
_cell_volume 673.789329
_symmetry_space_group_name_H-M "P -1"
_symmetry_group_IT_number 2
_symmetry_cell_setting 'triclinic'
loop_
_space_group_symop_operation_xyz
x,y,z
-x,-y,-z
loop_
_atom_site_type_symbol
_atom_site_label
_atom_site_fract_x
_atom_site_fract_y
_atom_site_fract_z
Si Si1 0.276658 0.107882 0.560489
Si Si2 0.960650 0.899632 0.330978
Si Si3 0.387952 0.446774 0.236414
Si Si4 0.995152 0.749205 0.701003
Si Si5 0.149120 0.946052 0.957499
Si Si6 0.694291 0.811810 0.030657
Si Si7 0.199415 0.270076 0.146849
Si Si8 0.357500 0.459015 0.458400
O O1 0.183594 0.136400 0.644300
O O2 0.110276 0.253777 0.407906
O O3 0.395771 0.199543 0.549671
O O4 0.407570 0.818158 0.644055
O O5 0.167410 0.641632 0.434533
O O6 0.905183 0.034337 0.172064
O O7 0.963407 0.066013 0.358510
O O8 0.273245 0.384201 0.182662
O O9 0.319154 0.532982 0.312208
O O10 0.344490 0.673871 0.097124
O O11 0.849181 0.849803 0.741630
O O12 0.189815 0.479090 0.841908
O O13 0.170889 0.146246 0.917559
O O14 0.000000 0.000000 0.000000
O O15 0.676251 0.870387 0.889542
O O16 0.500000 0.000000 0.000000
O O17 0.000000 0.500000 0.000000
O O18 0.500000 0.500000 0.500000
#
# Coordination Sequence:
#
# PCOD9034341 Si02
#       8
#     2   2   2   2   2   2   2   2
#     4  12  28  49  73 111 157 197 244 316 385 447
#     4  12  27  47  78 108 153 198 244 319 381 442
#     4  12  26  46  78 106 151 197 257 308 369 459
#     4  11  23  49  75 105 155 201 249 291 393 454
#     4  12  24  48  73 107 145 198 254 302 374 449
#     4  11  26  44  77 112 148 189 252 325 367 435
#     4  10  22  44  73 105 144 199 244 304 373 442
#     4  12  27  50  77 112 146 202 259 304 370 458
#
# _framework density 23.746293999999999
#
# number of rings (size 3 to 8) (size 9 to 14) (size 15 to 20)
#    0.000    0.500    2.500    6.375    5.250    0.500 
#    0.000    0.000    0.000    0.000    0.000    0.000 
#    0.000    0.000    0.000    0.000    0.000    0.000 
#
# Total GULP energy -89548.893091 kJ/mol
# GULP energy per Si atom -5596.805818 kJ/mol
# Density = 2.369225 g / cm^3
# Si number density = 23.746294 Si / 1000 Ang^3
#
#
#
# Elastic Constant Matrix: (Units=GPa)
#
#
# Indices 1 2 3 4 5 6 
#
# 1 91.6820 34.8449 14.8016 20.6841 -2.7707 -15.4821
# 2 34.8449 98.7723 28.2727 9.5304 -1.9679 0.0406
# 3 14.8016 28.2727 88.2039 5.7906 -7.9624 -10.9778
# 4 20.6841 9.5304 5.7906 49.7543 0.3077 4.9339
# 5 -2.7707 -1.9679 -7.9624 0.3077 25.9309 2.1120
# 6 -15.4821 0.0406 -10.9778 4.9339 2.1120 46.8574
#
#
#
# Elastic Compliance Matrix: (Units=1/GPa)
#
#
# Indices 1 2 3 4 5 6 
#
# 1 0.014985 -0.004750 0.000171 -0.005898 0.000909 0.005575
# 2 -0.004750 0.012825 -0.003672 0.000191 -0.000465 -0.002440
# 3 0.000171 -0.003672 0.013281 -0.001247 0.003577 0.003141
# 4 -0.005898 0.000191 -0.001247 0.023125 -0.000896 -0.004636
# 5 0.000909 -0.000465 0.003577 -0.000896 0.039780 -0.000560
# 6 0.005575 -0.002440 0.003141 -0.004636 -0.000560 0.024435
#
#
# Mechanical properties :
#
#
# Convention : Reuss Voigt Hill
#
# Bulk Modulus (GPa) = 40.66911 48.27740 44.47325
# Shear Modulus (GPa) = 32.65230 37.89111 35.27171
#
# Velocity S-wave (km/s) = 3.71219 3.99891 3.85821
# Velocity P-wave (km/s) = 5.96133 6.45727 6.21425
#
# Compressibility (1/GPa) = 0.02458869
#
# Stress axis : x y z
#
# Youngs Moduli (GPa) = 66.73479 77.97570 75.29379
#
# Poissons Ratio (x) = 0.37042 -0.01289
# Poissons Ratio (y) = 0.31702 0.27646
# Poissons Ratio (z) = -0.01143 0.28631
#
# Static dielectric constant tensor:
#      x y z
#    x 1.909510 -0.029100 -0.009890 
#    y -0.029100 1.914350 -0.031000 
#    z -0.009890 -0.031000 2.004270 
# 
# From -- ./inp_files/494409.got.cif
#   From: 2010.05.17/outbox.cif.g08.bks.cpg/sg2_248_cif.got.tgz:494409.got - 2010.06.03 11:33:40.
