data_PCOD9034494
_publ_section_title
;
Structure prediction by ZEFSAII (Michael W. Deem and Ramdas Pophale) SiO2 
 PCOD9034494
Probable space group: P -1
;
_chemical_formula_sum "Si O2"
_cell_formula_units_Z 11
_cell_length_a 8.370097
_cell_length_b 14.702826
_cell_length_c 9.157434
_cell_angle_alpha 50.955297
_cell_angle_beta 32.937059
_cell_angle_gamma 51.154770
_cell_volume 462.751145
_symmetry_space_group_name_H-M "P -1"
_symmetry_group_IT_number 2
_symmetry_cell_setting 'triclinic'
loop_
_space_group_symop_operation_xyz
x,y,z
-x,-y,-z
loop_
_atom_site_type_symbol
_atom_site_label
_atom_site_fract_x
_atom_site_fract_y
_atom_site_fract_z
Si Si1 0.158933 0.499816 0.223075
Si Si2 0.500000 0.500000 0.500000
Si Si3 0.695511 0.051872 0.092630
Si Si4 0.879348 0.304129 0.183445
Si Si5 0.374255 0.307234 0.020284
Si Si6 0.890090 0.044208 0.379819
O O1 0.175618 0.384242 0.223552
O O2 0.000000 0.500000 0.500000
O O3 0.500000 0.500000 0.000000
O O4 0.035140 0.612786 0.095867
O O5 0.644257 0.392043 0.379330
O O6 0.497243 0.401090 0.732836
O O7 0.617243 0.196410 0.009516
O O8 0.388969 0.010101 0.405193
O O9 0.000000 0.000000 0.000000
O O10 0.808467 0.001456 0.898970
O O11 0.781495 0.189034 0.312815
O O12 0.163193 0.256941 0.120044
O O13 0.000000 0.000000 0.500000
#
# Coordination Sequence:
#
# PCOD9034494 Si02
#       6
#     2   1   2   2   2   2
#     4  11  28  47  72 113 153 201 246 315 389 449
#     4  10  22  44  76 112 144 198 258 314 384 446
#     4  12  29  52  76 114 158 204 253 322 394 453
#     4  11  26  46  79 111 152 201 259 319 378 469
#     4  11  26  48  78 108 155 204 260 316 384 467
#     4  12  26  51  80 113 148 203 264 314 379 465
#
# _framework density 23.770878
#
# number of rings (size 3 to 8) (size 9 to 14) (size 15 to 20)
#    0.000    0.727    1.818    4.364   15.273    0.000 
#    0.000    0.000    0.000    0.000    0.000    0.000 
#    0.000    0.000    0.000    0.000    0.000    0.000 
#
# Total GULP energy -61331.540485 kJ/mol
# GULP energy per Si atom -5575.594590 kJ/mol
# Density = 2.371677 g / cm^3
# Si number density = 23.770878 Si / 1000 Ang^3
#
#
#
# Elastic Constant Matrix: (Units=GPa)
#
#
# Indices 1 2 3 4 5 6 
#
# 1 101.4359 -0.8034 33.6355 -16.3156 6.7225 -9.7921
# 2 -0.8034 154.2525 77.8456 -52.7462 18.2921 9.3396
# 3 33.6355 77.8456 133.9405 40.9638 26.7972 -7.6672
# 4 -16.3156 -52.7462 40.9638 -10.8786 3.7901 28.6596
# 5 6.7225 18.2921 26.7972 3.7901 55.3055 14.0861
# 6 -9.7921 9.3396 -7.6672 28.6596 14.0861 21.4649
#
#
#
# Elastic Compliance Matrix: (Units=1/GPa)
#
#
# Indices 1 2 3 4 5 6 
#
# 1 0.011054 0.000080 -0.001372 -0.001440 -0.002698 0.008212
# 2 0.000080 0.004623 -0.000087 -0.005337 -0.002924 0.007038
# 3 -0.001372 -0.000087 0.005747 0.006620 -0.001398 -0.006457
# 4 -0.001440 -0.005337 0.006620 -0.004940 -0.004365 0.013490
# 5 -0.002698 -0.002924 -0.001398 -0.004365 0.022795 -0.009590
# 6 0.008212 0.007038 -0.006457 0.013490 -0.009590 0.033246
#
#
# Mechanical properties :
#
#
# Convention : Reuss Voigt Hill
#
# Bulk Modulus (GPa) = 53.57423 67.88716 60.73069
# Shear Modulus (GPa) = 61.34701 31.77511 46.56106
#
# Velocity S-wave (km/s) = 5.08563 3.66009 4.43057
# Velocity P-wave (km/s) = 7.55457 6.81782 7.19563
#
# Compressibility (1/GPa) = 0.01866569
#
# Stress axis : x y z
#
# Youngs Moduli (GPa) = 90.46603 216.32288 174.01848
#
# Poissons Ratio (x) = -0.01735 0.23877
# Poissons Ratio (y) = -0.00726 0.01511
# Poissons Ratio (z) = 0.12413 0.01878
#
# Static dielectric constant tensor:
#      x y z
#    x 2.064490 0.003560 -0.063460 
#    y 0.003560 1.852780 0.002650 
#    z -0.063460 0.002650 1.912220 
# 
# From -- ./inp_files/177098.got.cif
#   From: 2010.05.17/outbox.cif.g08.bks.cpg/sg2_89_cif.got.tgz:177098.got - 2010.06.03 11:33:40.
