data_PCOD9034544
_publ_section_title
;
Structure prediction by ZEFSAII (Michael W. Deem and Ramdas Pophale) SiO2 
 PCOD9034544
Probable space group: P -1
;
_chemical_formula_sum "Si O2"
_cell_formula_units_Z 14
_cell_length_a 6.452413
_cell_length_b 13.683453
_cell_length_c 10.456022
_cell_angle_alpha 127.470855
_cell_angle_beta 63.717668
_cell_angle_gamma 114.681092
_cell_volume 642.544705
_symmetry_space_group_name_H-M "P -1"
_symmetry_group_IT_number 2
_symmetry_cell_setting 'triclinic'
loop_
_space_group_symop_operation_xyz
x,y,z
-x,-y,-z
loop_
_atom_site_type_symbol
_atom_site_label
_atom_site_fract_x
_atom_site_fract_y
_atom_site_fract_z
Si Si1 0.155633 0.195654 0.186708
Si Si2 0.901294 0.069617 0.898604
Si Si3 0.340559 0.795320 0.612514
Si Si4 0.608131 0.944670 0.305859
Si Si5 0.898552 0.546455 0.935852
Si Si6 0.510236 0.311787 0.772450
Si Si7 0.349579 0.719362 0.839031
O O1 0.399210 0.294828 0.184941
O O2 0.945082 0.240368 0.354417
O O3 0.040109 0.142469 0.041773
O O4 0.210450 0.072315 0.143759
O O5 0.119209 0.058951 0.740359
O O6 0.722609 0.156568 0.980975
O O7 0.472012 0.743687 0.418868
O O8 0.389035 0.743084 0.695543
O O9 0.393245 0.949214 0.717104
O O10 0.475544 0.800100 0.219946
O O11 0.500000 0.000000 0.500000
O O12 0.725464 0.429328 0.824228
O O13 0.123249 0.610264 0.840807
O O14 0.731690 0.643145 0.095810
O O15 0.000000 0.500000 0.000000
#
# Coordination Sequence:
#
# PCOD9034544 Si02
#       7
#     2   2   2   2   2   2   2
#     4   9  19  32  57  90 123 147 189 247 300 360
#     4   9  17  33  55  87 117 159 189 233 308 355
#     4   9  21  39  65  95 117 155 198 248 319 355
#     4   9  17  35  63  89 118 153 191 242 306 364
#     4  11  26  41  61  88 117 170 212 240 295 352
#     4  10  22  45  63  82 128 162 200 253 292 361
#     4  11  21  37  60  91 122 152 207 251 293 356
#
# _framework density 21.788368999999999
#
# number of rings (size 3 to 8) (size 9 to 14) (size 15 to 20)
#    0.000    2.286    1.429    1.286    2.000    2.857 
#    0.000    1.429    0.000    7.714    0.000    0.000 
#    0.000    0.000    0.000    0.000    0.000    0.000 
#
# Total GULP energy -78135.002278 kJ/mol
# GULP energy per Si atom -5581.071591 kJ/mol
# Density = 2.173878 g / cm^3
# Si number density = 21.788369 Si / 1000 Ang^3
#
#
#
# Elastic Constant Matrix: (Units=GPa)
#
#
# Indices 1 2 3 4 5 6 
#
# 1 53.5439 45.7263 17.1392 -2.1426 3.1420 12.5635
# 2 45.7263 124.4496 43.6657 -10.2606 1.9815 18.0292
# 3 17.1392 43.6657 89.5978 -9.3748 -7.0328 4.5485
# 4 -2.1426 -10.2606 -9.3748 33.0211 -0.7162 -4.4155
# 5 3.1420 1.9815 -7.0328 -0.7162 17.5291 -9.3735
# 6 12.5635 18.0292 4.5485 -4.4155 -9.3735 40.3636
#
#
#
# Elastic Compliance Matrix: (Units=1/GPa)
#
#
# Indices 1 2 3 4 5 6 
#
# 1 0.029107 -0.009137 -0.001713 -0.002577 -0.008776 -0.007105
# 2 -0.009137 0.013818 -0.004914 0.001767 -0.003658 -0.003430
# 3 -0.001713 -0.004914 0.014729 0.003195 0.008747 0.003449
# 4 -0.002577 0.001767 0.003195 0.032273 0.005212 0.004394
# 5 -0.008776 -0.003658 0.008747 0.005212 0.074067 0.021151
# 6 -0.007105 -0.003430 0.003449 0.004394 0.021151 0.033522
#
#
# Mechanical properties :
#
#
# Convention : Reuss Voigt Hill
#
# Bulk Modulus (GPa) = 38.27670 53.40598 45.84134
# Shear Modulus (GPa) = 21.03022 28.92008 24.97515
#
# Velocity S-wave (km/s) = 3.11014 3.64719 3.38932
# Velocity P-wave (km/s) = 5.52295 6.50388 6.03338
#
# Compressibility (1/GPa) = 0.02612556
#
# Stress axis : x y z
#
# Youngs Moduli (GPa) = 34.35652 72.37033 67.89156
#
# Poissons Ratio (x) = 0.66125 0.11628
# Poissons Ratio (y) = 0.31392 0.33364
# Poissons Ratio (z) = 0.05884 0.35565
#
# Static dielectric constant tensor:
#      x y z
#    x 1.813210 0.000140 -0.014720 
#    y 0.000140 1.864230 -0.007310 
#    z -0.014720 -0.007310 1.795300 
# 
# From -- ./inp_files/367137.got.cif
#   From: 2010.05.17/outbox.cif.g08.bks.cpg/sg2_184_cif.got.tgz:367137.got - 2010.06.03 11:33:40.
