data_PCOD9034324
_publ_section_title
;
Structure prediction by ZEFSAII (Michael W. Deem and Ramdas Pophale) SiO2 
 PCOD9034324
Probable space group: P -1
;
_chemical_formula_sum "Si O2"
_cell_formula_units_Z 16
_cell_length_a 8.871459
_cell_length_b 20.138479
_cell_length_c 23.577924
_cell_angle_alpha 157.832306
_cell_angle_beta 31.230234
_cell_angle_gamma 149.494343
_cell_volume 770.007218
_symmetry_space_group_name_H-M "P -1"
_symmetry_group_IT_number 2
_symmetry_cell_setting 'triclinic'
loop_
_space_group_symop_operation_xyz
x,y,z
-x,-y,-z
loop_
_atom_site_type_symbol
_atom_site_label
_atom_site_fract_x
_atom_site_fract_y
_atom_site_fract_z
Si Si1 0.411264 0.316910 0.923167
Si Si2 0.646915 0.995218 0.118066
Si Si3 0.390272 0.659939 0.396076
Si Si4 0.722300 0.017837 0.889374
Si Si5 0.633727 0.392715 0.037472
Si Si6 0.190839 0.942450 0.443550
Si Si7 0.439213 0.282813 0.482100
Si Si8 0.300111 0.401062 0.432931
O O1 0.635274 0.196679 0.743134
O O2 0.054580 0.183973 0.921416
O O3 0.500000 0.500000 0.000000
O O4 0.469959 0.383580 0.022235
O O5 0.464234 0.967252 0.095260
O O6 0.615255 0.176177 0.302838
O O7 0.463064 0.820072 0.078675
O O8 0.000000 0.000000 0.000000
O O9 0.528192 0.508999 0.210288
O O10 0.445869 0.700565 0.477124
O O11 0.026781 0.574622 0.437272
O O12 0.551422 0.855619 0.464984
O O13 0.772102 0.819546 0.716200
O O14 0.500000 0.000000 0.000000
O O15 0.000000 0.500000 0.000000
O O16 0.929968 0.838657 0.491987
O O17 0.000000 0.000000 0.500000
O O18 0.520044 0.490134 0.594214
O O19 0.500000 0.500000 0.500000
#
# Coordination Sequence:
#
# PCOD9034324 Si02
#       8
#     2   2   2   2   2   2   2   2
#     4  12  27  49  74 109 149 190 241 303 366 423
#     4  12  26  47  72 104 141 188 239 293 364 439
#     4  11  24  44  72 103 138 186 237 294 352 423
#     4  12  29  46  72 104 145 190 236 303 365 424
#     4  12  25  45  74 106 144 185 239 292 356 437
#     4  10  22  44  73 102 139 186 237 290 355 430
#     4  11  24  44  74 101 137 188 237 291 358 431
#     4  12  26  46  66 102 144 181 243 287 355 423
#
# _framework density 20.779026999999999
#
# number of rings (size 3 to 8) (size 9 to 14) (size 15 to 20)
#    0.000    0.500    2.500    6.375    7.000    0.000 
#    0.000    1.875    0.000    0.000    0.000    0.000 
#    0.000    0.000    0.000    0.000    0.000    0.000 
#
# Total GULP energy -89499.966981 kJ/mol
# GULP energy per Si atom -5593.747936 kJ/mol
# Density = 2.073173 g / cm^3
# Si number density = 20.779027 Si / 1000 Ang^3
#
#
#
# Elastic Constant Matrix: (Units=GPa)
#
#
# Indices 1 2 3 4 5 6 
#
# 1 130.4464 70.5560 39.6575 -8.4921 3.1090 11.5879
# 2 70.5560 179.2767 23.5098 11.9893 -12.1581 12.7607
# 3 39.6575 23.5098 68.2853 -2.4366 6.7062 11.1467
# 4 -8.4921 11.9893 -2.4366 42.2480 -2.9031 -5.6144
# 5 3.1090 -12.1581 6.7062 -2.9031 28.0872 11.3455
# 6 11.5879 12.7607 11.1467 -5.6144 11.3455 29.8235
#
#
#
# Elastic Compliance Matrix: (Units=1/GPa)
#
#
# Indices 1 2 3 4 5 6 
#
# 1 0.011786 -0.004342 -0.005137 0.003246 -0.001825 0.000504
# 2 -0.004342 0.008251 -0.000252 -0.003446 0.005582 -0.004521
# 3 -0.005137 -0.000252 0.018590 -0.000591 -0.002409 -0.004039
# 4 0.003246 -0.003446 -0.000591 0.025948 -0.001390 0.005847
# 5 -0.001825 0.005582 -0.002409 -0.001390 0.046168 -0.018604
# 6 0.000504 -0.004521 -0.004039 0.005847 -0.018604 0.044957
#
#
# Mechanical properties :
#
#
# Convention : Reuss Voigt Hill
#
# Bulk Modulus (GPa) = 52.18137 71.71721 61.94929
# Shear Modulus (GPa) = 27.54063 36.31742 31.92903
#
# Velocity S-wave (km/s) = 3.64456 4.18520 3.92420
# Velocity P-wave (km/s) = 6.54809 7.61207 7.10004
#
# Compressibility (1/GPa) = 0.01916393
#
# Stress axis : x y z
#
# Youngs Moduli (GPa) = 84.84491 121.20335 53.79348
#
# Poissons Ratio (x) = 0.52622 0.27636
# Poissons Ratio (y) = 0.36837 0.01357
# Poissons Ratio (z) = 0.43588 0.03058
#
# Static dielectric constant tensor:
#      x y z
#    x 1.733390 -0.002550 -0.036340 
#    y -0.002550 1.734840 0.001500 
#    z -0.036340 0.001500 1.725370 
# 
# From -- ./inp_files/494997.got.cif
#   From: 2010.05.17/outbox.cif.g08.bks.cpg/sg2_248_cif.got.tgz:494997.got - 2010.06.03 11:33:40.
