data_PCOD9034256
_publ_section_title
;
Structure prediction by ZEFSAII (Michael W. Deem and Ramdas Pophale) SiO2 
 PCOD9034256
Probable space group: P -1
;
_chemical_formula_sum "Si O2"
_cell_formula_units_Z 13
_cell_length_a 7.870231
_cell_length_b 10.191214
_cell_length_c 9.229250
_cell_angle_alpha 111.809798
_cell_angle_beta 63.806544
_cell_angle_gamma 135.519117
_cell_volume 463.521089
_symmetry_space_group_name_H-M "P -1"
_symmetry_group_IT_number 2
_symmetry_cell_setting 'triclinic'
loop_
_space_group_symop_operation_xyz
x,y,z
-x,-y,-z
loop_
_atom_site_type_symbol
_atom_site_label
_atom_site_fract_x
_atom_site_fract_y
_atom_site_fract_z
Si Si1 0.399510 0.705125 0.040922
Si Si2 0.499963 0.627671 0.440508
Si Si3 0.074620 0.951854 0.282327
Si Si4 0.500000 0.000000 0.000000
Si Si5 0.802219 0.708252 0.790635
Si Si6 0.323904 0.876166 0.379831
Si Si7 0.049914 0.568435 0.710543
O O1 0.466933 0.878026 0.184498
O O2 0.125956 0.524069 0.117243
O O3 0.405466 0.787270 0.919819
O O4 0.619426 0.699664 0.966810
O O5 0.500000 0.500000 0.500000
O O6 0.777351 0.793069 0.347361
O O7 0.359913 0.498381 0.299944
O O8 0.327522 0.656950 0.597738
O O9 0.132292 0.139167 0.287123
O O10 0.189017 0.943712 0.384739
O O11 0.203320 0.911125 0.100611
O O12 0.039005 0.731904 0.754442
O O13 0.115445 0.647763 0.392782
O O14 0.500000 0.000000 0.500000
#
# Coordination Sequence:
#
# PCOD9034256 Si02
#       7
#     2   2   2   1   2   2   2
#     4   8  18  39  74 108 150 199 257 310 386 445
#     4  12  24  46  72 111 161 201 253 314 385 469
#     4  10  22  44  74 113 151 203 257 307 394 451
#     4   8  14  38  70 110 146 182 252 312 354 466
#     4  11  24  43  76 113 161 193 255 322 380 464
#     4   9  19  41  77 111 151 199 261 316 371 455
#     4  10  22  44  72 112 157 201 253 311 390 456
#
# _framework density 28.046191
#
# number of rings (size 3 to 8) (size 9 to 14) (size 15 to 20)
#    0.923    1.231    1.538    0.923    0.000    2.462 
#    2.769   12.308    0.000   22.154    0.000    1.077 
#    0.000    0.000    0.000    0.000    0.000    0.000 
#
# Total GULP energy -72395.731059 kJ/mol
# GULP energy per Si atom -5568.902389 kJ/mol
# Density = 2.798236 g / cm^3
# Si number density = 28.046191 Si / 1000 Ang^3
#
#
#
# Elastic Constant Matrix: (Units=GPa)
#
#
# Indices 1 2 3 4 5 6 
#
# 1 169.9586 97.1621 60.7301 -11.9817 -58.1766 -28.5010
# 2 97.1621 195.3872 49.5018 -25.2694 -34.6206 4.0669
# 3 60.7301 49.5018 138.1826 -22.9557 -54.7850 16.2887
# 4 -11.9817 -25.2694 -22.9557 41.7181 18.7271 -9.2469
# 5 -58.1766 -34.6206 -54.7850 18.7271 75.3295 2.2219
# 6 -28.5010 4.0669 16.2887 -9.2469 2.2219 66.0217
#
#
#
# Elastic Compliance Matrix: (Units=1/GPa)
#
#
# Indices 1 2 3 4 5 6 
#
# 1 0.012368 -0.004893 -0.002349 -0.002106 0.005950 0.005725
# 2 -0.004893 0.007900 -0.000362 0.003255 -0.001161 -0.002015
# 3 -0.002349 -0.000362 0.011568 0.001908 0.006070 -0.003783
# 4 -0.002106 0.003255 0.001908 0.029808 -0.006235 0.002804
# 5 0.005950 -0.001161 0.006070 -0.006235 0.023316 -0.000516
# 6 0.005725 -0.002015 -0.003783 0.002804 -0.000516 0.019085
#
#
# Mechanical properties :
#
#
# Convention : Reuss Voigt Hill
#
# Bulk Modulus (GPa) = 60.13171 102.03516 81.08344
# Shear Modulus (GPa) = 40.06521 56.35613 48.21067
#
# Velocity S-wave (km/s) = 3.78371 4.48750 4.15055
# Velocity P-wave (km/s) = 6.36988 7.95678 7.20714
#
# Compressibility (1/GPa) = 0.01663016
#
# Stress axis : x y z
#
# Youngs Moduli (GPa) = 80.85164 126.58232 86.44360
#
# Poissons Ratio (x) = 0.61933 0.20304
# Poissons Ratio (y) = 0.39558 0.03127
# Poissons Ratio (z) = 0.18991 0.04578
#
# Static dielectric constant tensor:
#      x y z
#    x 2.157540 0.382720 -0.165310 
#    y 0.382720 2.158700 0.192150 
#    z -0.165310 0.192150 1.985410 
# 
# From -- ./inp_files/388153.got.cif
#   From: 2010.05.17/outbox.cif.g08.bks.cpg/sg2_195_cif.got.tgz:388153.got - 2010.06.03 11:33:40.
