data_PCOD9034864
_publ_section_title
;
Structure prediction by ZEFSAII (Michael W. Deem and Ramdas Pophale) SiO2 
 PCOD9034864
Probable space group: P -1
;
_chemical_formula_sum "Si O2"
_cell_formula_units_Z 14
_cell_length_a 15.300153
_cell_length_b 13.500647
_cell_length_c 7.999107
_cell_angle_alpha 65.160442
_cell_angle_beta 49.920386
_cell_angle_gamma 28.073228
_cell_volume 542.368288
_symmetry_space_group_name_H-M "P -1"
_symmetry_group_IT_number 2
_symmetry_cell_setting 'triclinic'
loop_
_space_group_symop_operation_xyz
x,y,z
-x,-y,-z
loop_
_atom_site_type_symbol
_atom_site_label
_atom_site_fract_x
_atom_site_fract_y
_atom_site_fract_z
Si Si1 0.770430 0.882693 0.653962
Si Si2 0.266473 0.525790 0.163197
Si Si3 0.490562 0.538425 0.681428
Si Si4 0.231027 0.412326 0.957728
Si Si5 0.026924 0.764198 0.719181
Si Si6 0.759195 0.802955 0.397157
Si Si7 0.691774 0.109052 0.166439
O O1 0.485703 0.143474 0.799332
O O2 0.790663 0.762492 0.586715
O O3 0.834459 0.852413 0.790428
O O4 0.995191 0.767469 0.392920
O O5 0.430507 0.332579 0.240817
O O6 0.385159 0.533084 0.933231
O O7 0.261892 0.446947 0.070810
O O8 0.500000 0.500000 0.500000
O O9 0.324742 0.783669 0.750370
O O10 0.764515 0.335396 0.544581
O O11 0.182970 0.544027 0.784801
O O12 0.974433 0.567205 0.191696
O O13 0.880754 0.964239 0.885598
O O14 0.763655 0.930636 0.272590
O O15 0.500000 0.000000 0.500000
#
# Coordination Sequence:
#
# PCOD9034864 Si02
#       7
#     2   2   2   2   2   2   2
#     4  11  23  42  74  96 142 186 225 296 345 409
#     4  11  23  41  65 104 138 182 233 277 343 413
#     4  12  25  42  66 104 143 192 235 273 345 418
#     4  10  22  45  68  99 141 176 232 290 346 412
#     4  11  23  42  68  98 140 188 234 280 346 402
#     4  10  25  48  73 102 135 181 236 293 354 415
#     4  11  24  43  70  97 142 179 231 294 338 411
#
# _framework density 25.812719999999999
#
# number of rings (size 3 to 8) (size 9 to 14) (size 15 to 20)
#    0.000    1.143    4.286    1.286    0.000    2.857 
#    0.000    5.714    0.000    0.000    0.000    0.000 
#    0.000    0.000    0.000    0.000    0.000    0.000 
#
# Total GULP energy -78178.419616 kJ/mol
# GULP energy per Si atom -5584.172830 kJ/mol
# Density = 2.575397 g / cm^3
# Si number density = 25.812720 Si / 1000 Ang^3
#
#
#
# Elastic Constant Matrix: (Units=GPa)
#
#
# Indices 1 2 3 4 5 6 
#
# 1 89.1031 20.8832 30.3908 11.7060 12.4410 -14.2854
# 2 20.8832 111.7741 42.6828 20.8957 -0.8837 -12.2360
# 3 30.3908 42.6828 127.0375 50.1106 6.6341 7.6400
# 4 11.7060 20.8957 50.1106 45.1745 -4.1575 2.5316
# 5 12.4410 -0.8837 6.6341 -4.1575 42.2851 8.0901
# 6 -14.2854 -12.2360 7.6400 2.5316 8.0901 42.6089
#
#
#
# Elastic Compliance Matrix: (Units=1/GPa)
#
#
# Indices 1 2 3 4 5 6 
#
# 1 0.014167 -0.000753 -0.002871 -0.000936 -0.004983 0.006050
# 2 -0.000753 0.010954 -0.003059 -0.001667 0.000092 0.003523
# 3 -0.002871 -0.003059 0.016175 -0.015846 -0.002686 -0.003290
# 4 -0.000936 -0.001667 -0.015846 0.041485 0.007145 -0.001773
# 5 -0.004983 0.000092 -0.002686 0.007145 0.027545 -0.006817
# 6 0.006050 0.003523 -0.003290 -0.001773 -0.006817 0.028499
#
#
# Mechanical properties :
#
#
# Convention : Reuss Voigt Hill
#
# Bulk Modulus (GPa) = 35.80315 57.31426 46.55870
# Shear Modulus (GPa) = 30.95969 41.61089 36.28529
#
# Velocity S-wave (km/s) = 3.46699 4.01937 3.75335
# Velocity P-wave (km/s) = 5.47057 6.61759 6.07123
#
# Compressibility (1/GPa) = 0.02793051
#
# Stress axis : x y z
#
# Youngs Moduli (GPa) = 70.58537 91.29456 61.82358
#
# Poissons Ratio (x) = 0.06873 0.17746
# Poissons Ratio (y) = 0.05314 0.18914
# Poissons Ratio (z) = 0.20262 0.27930
#
# Static dielectric constant tensor:
#      x y z
#    x 2.121950 -0.053040 0.001030 
#    y -0.053040 2.058960 -0.073290 
#    z 0.001030 -0.073290 2.185780 
# 
# From -- ./inp_files/313070.got.cif
#   From: 2010.05.17/outbox.cif.g08.bks.cpg/sg2_157_cif.got.tgz:313070.got - 2010.06.03 11:33:40.
