data_PCOD9034819
_publ_section_title
;
Structure prediction by ZEFSAII (Michael W. Deem and Ramdas Pophale) SiO2 
 PCOD9034819
Probable space group: P -1
;
_chemical_formula_sum "Si O2"
_cell_formula_units_Z 12
_cell_length_a 21.925261
_cell_length_b 9.866595
_cell_length_c 8.945993
_cell_angle_alpha 40.848844
_cell_angle_beta 38.892452
_cell_angle_gamma 27.839531
_cell_volume 551.875725
_symmetry_space_group_name_H-M "P -1"
_symmetry_group_IT_number 2
_symmetry_cell_setting 'triclinic'
loop_
_space_group_symop_operation_xyz
x,y,z
-x,-y,-z
loop_
_atom_site_type_symbol
_atom_site_label
_atom_site_fract_x
_atom_site_fract_y
_atom_site_fract_z
Si Si1 0.346332 0.697359 0.556835
Si Si2 0.143174 0.362943 0.501100
Si Si3 0.572134 0.541818 0.708676
Si Si4 0.904204 0.591328 0.964745
Si Si5 0.136725 0.662576 0.982680
Si Si6 0.679553 0.793540 0.427796
O O1 0.500000 0.500000 0.500000
O O2 0.357049 0.706027 0.348984
O O3 0.230232 0.018783 0.591157
O O4 0.279490 0.571700 0.799957
O O5 0.144736 0.475545 0.248480
O O6 0.229356 0.344823 0.481427
O O7 0.985711 0.585272 0.681697
O O8 0.661665 0.582613 0.587403
O O9 0.463760 0.861930 0.561806
O O10 0.500000 0.500000 0.000000
O O11 0.894107 0.379504 0.087565
O O12 0.752261 0.827416 0.133537
O O13 0.000000 0.500000 0.000000
O O14 0.000000 0.000000 0.000000
#
# Coordination Sequence:
#
# PCOD9034819 Si02
#       6
#     2   2   2   2   2   2
#     4  12  26  45  68 103 139 177 228 279 340 410
#     4  11  25  43  72  98 139 175 228 281 342 398
#     4  11  25  41  68  94 137 181 226 269 341 408
#     4  10  22  45  68  95 133 173 221 287 334 393
#     4  12  26  45  71 102 135 180 232 280 341 404
#     4  10  23  45  62 100 137 176 222 282 333 403
#
# _framework density 21.744025000000001
#
# number of rings (size 3 to 8) (size 9 to 14) (size 15 to 20)
#    0.000    1.000    5.000    0.500    4.667    0.667 
#    0.000    1.667    0.000    0.000    0.000    0.000 
#    0.000    0.000    0.000    0.000    0.000    0.000 
#
# Total GULP energy -66827.045135 kJ/mol
# GULP energy per Si atom -5568.920428 kJ/mol
# Density = 2.169453 g / cm^3
# Si number density = 21.744025 Si / 1000 Ang^3
#
#
#
# Elastic Constant Matrix: (Units=GPa)
#
#
# Indices 1 2 3 4 5 6 
#
# 1 173.9409 35.2029 51.2214 5.8515 -22.3862 10.9881
# 2 35.2029 55.7931 3.1906 14.2865 -1.6592 5.7722
# 3 51.2214 3.1906 117.0981 25.1562 -8.7743 -2.3166
# 4 5.8515 14.2865 25.1562 29.7648 0.7065 5.4863
# 5 -22.3862 -1.6592 -8.7743 0.7065 32.7834 8.2195
# 6 10.9881 5.7722 -2.3166 5.4863 8.2195 27.7464
#
#
#
# Elastic Compliance Matrix: (Units=1/GPa)
#
#
# Indices 1 2 3 4 5 6 
#
# 1 0.009510 -0.006577 -0.005029 0.006483 0.006161 -0.005925
# 2 -0.006577 0.025625 0.005482 -0.015852 -0.001731 0.001379
# 3 -0.005029 0.005482 0.013686 -0.014104 -0.000420 0.004907
# 4 0.006483 -0.015852 -0.014104 0.053949 0.001592 -0.011586
# 5 0.006161 -0.001731 -0.000420 0.001592 0.037900 -0.013657
# 6 -0.005925 0.001379 0.004907 -0.011586 -0.013657 0.044847
#
#
# Mechanical properties :
#
#
# Convention : Reuss Voigt Hill
#
# Bulk Modulus (GPa) = 27.34316 58.45131 42.89723
# Shear Modulus (GPa) = 23.81458 35.20674 29.51066
#
# Velocity S-wave (km/s) = 3.31301 4.02823 3.68800
# Velocity P-wave (km/s) = 5.21891 6.96960 6.15680
#
# Compressibility (1/GPa) = 0.03657222
#
# Stress axis : x y z
#
# Youngs Moduli (GPa) = 105.15026 39.02494 73.06796
#
# Poissons Ratio (x) = 0.25666 0.36747
# Poissons Ratio (y) = 0.69156 -0.40054
# Poissons Ratio (z) = 0.52882 -0.21393
#
# Static dielectric constant tensor:
#      x y z
#    x 1.789490 0.049250 -0.064230 
#    y 0.049250 1.792820 0.095750 
#    z -0.064230 0.095750 1.749470 
# 
# From -- ./inp_files/26346.got.cif
#   From: 2010.05.17/outbox.cif.g08.bks.cpg/sg2_14_cif.got.tgz:26346.got - 2010.06.03 11:33:40.
