data_PCOD9034969
_publ_section_title
;
Structure prediction by ZEFSAII (Michael W. Deem and Ramdas Pophale) SiO2 
 PCOD9034969
Probable space group: P -1
;
_chemical_formula_sum "Si O2"
_cell_formula_units_Z 16
_cell_length_a 11.416367
_cell_length_b 8.450003
_cell_length_c 11.121210
_cell_angle_alpha 64.842411
_cell_angle_beta 52.425527
_cell_angle_gamma 65.077993
_cell_volume 749.718377
_symmetry_space_group_name_H-M "P -1"
_symmetry_group_IT_number 2
_symmetry_cell_setting 'triclinic'
loop_
_space_group_symop_operation_xyz
x,y,z
-x,-y,-z
loop_
_atom_site_type_symbol
_atom_site_label
_atom_site_fract_x
_atom_site_fract_y
_atom_site_fract_z
Si Si1 0.587306 0.111894 0.326512
Si Si2 0.171231 0.944754 0.169068
Si Si3 0.308849 0.285071 0.001007
Si Si4 0.456606 0.718552 0.949629
Si Si5 0.922537 0.908842 0.180477
Si Si6 0.808263 0.375768 0.593136
Si Si7 0.070574 0.504686 0.267645
Si Si8 0.472594 0.510156 0.655482
O O1 0.508211 0.194774 0.225364
O O2 0.610300 0.288106 0.323703
O O3 0.500000 0.000000 0.500000
O O4 0.746478 0.976960 0.249654
O O5 0.192442 0.831616 0.314682
O O6 0.996018 0.971613 0.234376
O O7 0.230907 0.124248 0.068233
O O8 0.278861 0.803398 0.056233
O O9 0.453285 0.216876 0.019065
O O10 0.190383 0.418421 0.118809
O O11 0.372983 0.381180 0.818524
O O12 0.500000 0.500000 0.000000
O O13 0.975431 0.695743 0.219598
O O14 0.000000 0.000000 0.000000
O O15 0.848369 0.464726 0.665797
O O16 0.640299 0.468534 0.624313
O O17 0.944575 0.392677 0.414173
O O18 0.500000 0.500000 0.500000
#
# Coordination Sequence:
#
# PCOD9034969 Si02
#       8
#     2   2   2   2   2   2   2   2
#     4  12  26  43  72 105 132 180 235 290 340 401
#     4  11  24  40  69 101 136 178 226 285 340 412
#     4  12  25  42  72 103 136 183 233 281 352 412
#     4  12  22  44  75  96 132 180 238 278 331 416
#     4  11  22  42  68  94 136 175 230 276 334 411
#     4  10  22  45  69  97 133 177 232 283 340 409
#     4  10  23  43  72  98 131 177 229 287 342 408
#     4  12  27  43  65  98 144 179 222 288 354 404
#
# _framework density 21.341346000000001
#
# number of rings (size 3 to 8) (size 9 to 14) (size 15 to 20)
#    0.000    0.750    3.750    4.125    1.750    4.500 
#    0.000    1.875    0.000    0.000    0.000    0.000 
#    0.000    0.000    0.000    0.000    0.000    0.000 
#
# Total GULP energy -89401.664432 kJ/mol
# GULP energy per Si atom -5587.604027 kJ/mol
# Density = 2.129277 g / cm^3
# Si number density = 21.341346 Si / 1000 Ang^3
#
#
#
# Elastic Constant Matrix: (Units=GPa)
#
#
# Indices 1 2 3 4 5 6 
#
# 1 37.4489 37.1878 34.0127 -11.5805 -0.1997 -19.0225
# 2 37.1878 85.1170 47.9128 -20.8938 5.6980 -8.5905
# 3 34.0127 47.9128 189.7101 -26.2775 -4.4983 -7.3627
# 4 -11.5805 -20.8938 -26.2775 36.8694 0.9779 -4.3260
# 5 -0.1997 5.6980 -4.4983 0.9779 37.9677 -3.9432
# 6 -19.0225 -8.5905 -7.3627 -4.3260 -3.9432 34.5106
#
#
#
# Elastic Compliance Matrix: (Units=1/GPa)
#
#
# Indices 1 2 3 4 5 6 
#
# 1 0.080393 -0.026342 -0.004465 0.011529 0.007613 0.039118
# 2 -0.026342 0.024372 -0.001390 0.003639 -0.004975 -0.008862
# 3 -0.004465 -0.001390 0.006749 0.002485 0.000821 -0.000962
# 4 0.011529 0.003639 0.002485 0.036019 0.000161 0.012324
# 5 0.007613 -0.004975 0.000821 0.000161 0.027876 0.006338
# 6 0.039118 -0.008862 -0.000962 0.012324 0.006338 0.050397
#
#
# Mechanical properties :
#
#
# Convention : Reuss Voigt Hill
#
# Bulk Modulus (GPa) = 21.22277 61.16695 41.19486
# Shear Modulus (GPa) = 16.34484 34.74707 25.54595
#
# Velocity S-wave (km/s) = 2.77045 4.03942 3.46355
# Velocity P-wave (km/s) = 4.49443 7.10488 5.94471
#
# Compressibility (1/GPa) = 0.04711921
#
# Stress axis : x y z
#
# Youngs Moduli (GPa) = 12.43894 41.03080 148.16469
#
# Poissons Ratio (x) = 1.08083 0.66155
# Poissons Ratio (y) = 0.32767 0.20601
# Poissons Ratio (z) = 0.05554 0.05705
#
# Static dielectric constant tensor:
#      x y z
#    x 2.103320 -0.092430 0.027370 
#    y -0.092430 1.811010 0.021660 
#    z 0.027370 0.021660 1.810120 
# 
# From -- ./inp_files/416443.got.cif
#   From: 2010.05.17/outbox.cif.g08.bks.cpg/sg2_209_cif.got.tgz:416443.got - 2010.06.03 11:33:40.
