data_PCOD9034672
_publ_section_title
;
Structure prediction by ZEFSAII (Michael W. Deem and Ramdas Pophale) SiO2 
 PCOD9034672
Probable space group: P -1
;
_chemical_formula_sum "Si O2"
_cell_formula_units_Z 16
_cell_length_a 11.284423
_cell_length_b 9.763958
_cell_length_c 18.823250
_cell_angle_alpha 144.349506
_cell_angle_beta 135.864042
_cell_angle_gamma 68.599535
_cell_volume 709.625230
_symmetry_space_group_name_H-M "P -1"
_symmetry_group_IT_number 2
_symmetry_cell_setting 'triclinic'
loop_
_space_group_symop_operation_xyz
x,y,z
-x,-y,-z
loop_
_atom_site_type_symbol
_atom_site_label
_atom_site_fract_x
_atom_site_fract_y
_atom_site_fract_z
Si Si1 0.173009 0.331289 0.466411
Si Si2 0.837167 0.794034 0.928814
Si Si3 0.210737 0.752280 0.099579
Si Si4 0.613549 0.778597 0.118850
Si Si5 0.782537 0.717250 0.024902
Si Si6 0.220144 0.721077 0.931482
Si Si7 0.497417 0.644536 0.487173
Si Si8 0.016680 0.344224 0.550133
O O1 0.356506 0.362030 0.512595
O O2 0.092298 0.504537 0.465022
O O3 0.179453 0.392549 0.579592
O O4 0.990853 0.009456 0.248775
O O5 0.724230 0.539356 0.718642
O O6 0.711595 0.719368 0.916238
O O7 0.046404 0.836732 0.061527
O O8 0.852972 0.064995 0.017965
O O9 0.422438 0.038698 0.325058
O O10 0.185030 0.534124 0.054678
O O11 0.188153 0.620623 0.956622
O O12 0.636662 0.697964 0.015530
O O13 0.835067 0.020709 0.342600
O O14 0.500000 0.500000 0.000000
O O15 0.461804 0.886956 0.095995
O O16 0.116710 0.487130 0.728078
O O17 0.500000 0.500000 0.500000
#
# Coordination Sequence:
#
# PCOD9034672 Si02
#       8
#     2   2   2   2   2   2   2   2
#     4  10  22  45  66  99 140 176 225 286 341 400
#     4  12  26  43  72 102 135 189 234 276 345 415
#     4  12  26  47  68 101 148 180 227 292 344 402
#     4  11  25  46  68 103 144 175 224 290 346 401
#     4  11  24  48  69  99 146 181 224 294 343 403
#     4  12  24  43  74 103 135 183 232 280 344 415
#     4  12  26  42  69 101 138 181 233 285 339 409
#     4  10  23  42  72  98 134 181 227 280 341 410
#
# _framework density 22.547113
#
# number of rings (size 3 to 8) (size 9 to 14) (size 15 to 20)
#    0.000    0.750    5.000    1.500    3.500    1.500 
#    0.000    0.000    0.000    0.000    0.000    0.000 
#    0.000    0.000    0.000    0.000    0.000    0.000 
#
# Total GULP energy -89464.034298 kJ/mol
# GULP energy per Si atom -5591.502144 kJ/mol
# Density = 2.249579 g / cm^3
# Si number density = 22.547113 Si / 1000 Ang^3
#
#
#
# Elastic Constant Matrix: (Units=GPa)
#
#
# Indices 1 2 3 4 5 6 
#
# 1 71.6423 -23.0225 5.3331 -2.6115 4.4153 14.6764
# 2 -23.0225 32.4092 23.3270 23.7016 2.9684 12.5919
# 3 5.3331 23.3270 123.6759 -0.7843 -15.4717 21.6338
# 4 -2.6115 23.7016 -0.7843 42.2434 8.7930 -6.5920
# 5 4.4153 2.9684 -15.4717 8.7930 33.8904 -7.3385
# 6 14.6764 12.5919 21.6338 -6.5920 -7.3385 42.7493
#
#
#
# Elastic Compliance Matrix: (Units=1/GPa)
#
#
# Indices 1 2 3 4 5 6 
#
# 1 -0.169550 -0.440372 0.064432 0.255775 0.068429 0.206502
# 2 -0.440372 -1.048665 0.153661 0.607215 0.171254 0.505342
# 3 0.064432 0.153661 -0.013237 -0.090230 -0.021435 -0.078276
# 4 0.255775 0.607215 -0.090230 -0.326028 -0.105785 -0.289439
# 5 0.068429 0.171254 -0.021435 -0.105785 0.006293 -0.078320
# 6 0.206502 0.505342 -0.078276 -0.289439 -0.078320 -0.214816
#
#
# Mechanical properties :
#
#
# Convention : Reuss Voigt Hill
#
# Bulk Modulus (GPa) = -0.59665 26.55586 12.97960
# Shear Modulus (GPa) = -2.65941 38.58261 17.96160
#
# Velocity S-wave (km/s) = -1.08722 4.14115 2.82552
# Velocity P-wave (km/s) = 1.35693 5.88804 4.05141
#
# Compressibility (1/GPa) = -1.67601121
#
# Stress axis : x y z
#
# Youngs Moduli (GPa) = -5.89796 -0.95359 -75.54732
#
# Poissons Ratio (x) = -0.41994 4.86766
# Poissons Ratio (y) = -2.59730 11.60866
# Poissons Ratio (z) = 0.38002 0.14653
#
# Static dielectric constant tensor:
#      x y z
#    x 1.923370 -0.009120 -0.000060 
#    y -0.009120 1.789980 0.002530 
#    z -0.000060 0.002530 1.815280 
# 
# From -- ./inp_files/308020.got.cif
#   From: 2010.05.17/outbox.cif.g08.bks.cpg/sg2_155_cif.got.tgz:308020.got - 2010.06.03 11:33:40.
