data_PCOD9034296
_publ_section_title
;
Structure prediction by ZEFSAII (Michael W. Deem and Ramdas Pophale) SiO2 
 PCOD9034296
Probable space group: P -1
;
_chemical_formula_sum "Si O2"
_cell_formula_units_Z 15
_cell_length_a 9.203763
_cell_length_b 23.216153
_cell_length_c 9.336583
_cell_angle_alpha 43.230875
_cell_angle_beta 98.533558
_cell_angle_gamma 134.833815
_cell_volume 638.646394
_symmetry_space_group_name_H-M "P -1"
_symmetry_group_IT_number 2
_symmetry_cell_setting 'triclinic'
loop_
_space_group_symop_operation_xyz
x,y,z
-x,-y,-z
loop_
_atom_site_type_symbol
_atom_site_label
_atom_site_fract_x
_atom_site_fract_y
_atom_site_fract_z
Si Si1 0.949551 0.036400 0.738860
Si Si2 0.374008 0.106014 0.572492
Si Si3 0.000000 0.500000 0.500000
Si Si4 0.085163 0.785688 0.212483
Si Si5 0.367758 0.750220 0.364240
Si Si6 0.371936 0.380883 0.324973
Si Si7 0.511910 0.107689 0.281633
Si Si8 0.794962 0.547918 0.349144
O O1 0.095002 0.031549 0.684490
O O2 0.228895 0.227004 0.510001
O O3 0.765046 0.004187 0.659950
O O4 0.701478 0.894641 0.085207
O O5 0.631173 0.263235 0.441640
O O6 0.484562 0.142818 0.362596
O O7 0.251331 0.954192 0.885453
O O8 0.114232 0.576841 0.545705
O O9 0.318467 0.598306 0.345300
O O10 0.312788 0.822045 0.197828
O O11 0.901431 0.708694 0.470088
O O12 0.845902 0.641281 0.310502
O O13 0.627148 0.492015 0.283837
O O14 0.500000 0.500000 0.000000
O O15 0.500000 0.000000 0.500000
O O16 0.843438 0.301578 0.904718
#
# Coordination Sequence:
#
# PCOD9034296 Si02
#       8
#     2   2   1   2   2   2   2   2
#     4  12  25  47  70 104 140 185 234 293 356 410
#     4  12  25  41  75 107 139 180 241 294 346 419
#     4  10  22  44  72  98 140 178 240 282 358 410
#     4  11  24  44  74 100 138 188 243 280 357 426
#     4  11  23  45  73 105 133 190 233 291 346 429
#     4  12  28  44  69 105 147 179 236 297 353 418
#     4  12  24  46  73  99 143 185 236 287 349 421
#     4  11  24  47  69 103 138 195 228 297 351 419
#
# _framework density 23.487176000000002
#
# number of rings (size 3 to 8) (size 9 to 14) (size 15 to 20)
#    0.000    0.533    5.333    3.200    5.600    0.000 
#    4.800    1.333    0.000    0.000    0.000    0.000 
#    0.000    0.000    0.000    0.000    0.000    0.000 
#
# Total GULP energy -83767.992865 kJ/mol
# GULP energy per Si atom -5584.532858 kJ/mol
# Density = 2.343372 g / cm^3
# Si number density = 23.487176 Si / 1000 Ang^3
#
#
#
# Elastic Constant Matrix: (Units=GPa)
#
#
# Indices 1 2 3 4 5 6 
#
# 1 124.5284 36.7330 18.8654 0.7295 0.3297 -5.7168
# 2 36.7330 160.6556 18.5082 17.6727 4.0789 -9.4528
# 3 18.8654 18.5082 67.5003 16.7975 -7.0177 -9.2692
# 4 0.7295 17.6727 16.7975 36.5172 -11.4738 -3.9580
# 5 0.3297 4.0789 -7.0177 -11.4738 32.6868 8.3549
# 6 -5.7168 -9.4528 -9.2692 -3.9580 8.3549 50.1364
#
#
#
# Elastic Compliance Matrix: (Units=1/GPa)
#
#
# Indices 1 2 3 4 5 6 
#
# 1 0.008981 -0.001986 -0.002392 0.001999 0.000263 0.000321
# 2 -0.001986 0.007320 -0.000587 -0.003956 -0.002711 0.001185
# 3 -0.002392 -0.000587 0.017871 -0.007407 0.000770 0.002208
# 4 0.001999 -0.003956 -0.007407 0.036290 0.011878 -0.001002
# 5 0.000263 -0.002711 0.000770 0.011878 0.036673 -0.005512
# 6 0.000321 0.001185 0.002208 -0.001002 -0.005512 0.021453
#
#
# Mechanical properties :
#
#
# Convention : Reuss Voigt Hill
#
# Bulk Modulus (GPa) = 41.24848 55.65528 48.45188
# Shear Modulus (GPa) = 34.10744 42.43991 38.27368
#
# Velocity S-wave (km/s) = 3.81487 4.25542 4.04116
# Velocity P-wave (km/s) = 6.08314 6.92043 6.51525
#
# Compressibility (1/GPa) = 0.02424332
#
# Stress axis : x y z
#
# Youngs Moduli (GPa) = 111.35066 136.61558 55.95808
#
# Poissons Ratio (x) = 0.27126 0.13382
# Poissons Ratio (y) = 0.22109 0.03283
# Poissons Ratio (z) = 0.26630 0.08016
#
# Static dielectric constant tensor:
#      x y z
#    x 1.740820 0.029930 -0.207340 
#    y 0.029930 1.900840 0.006170 
#    z -0.207340 0.006170 1.626930 
# 
# From -- ./inp_files/221858.got.cif
#   From: 2010.05.17/outbox.cif.g08.bks.cpg/sg2_111_cif.got.tgz:221858.got - 2010.06.03 11:33:40.
