data_PCOD9034265
_publ_section_title
;
Structure prediction by ZEFSAII (Michael W. Deem and Ramdas Pophale) SiO2 
 PCOD9034265
Probable space group: P -1
;
_chemical_formula_sum "Si O2"
_cell_formula_units_Z 14
_cell_length_a 7.368052
_cell_length_b 5.361756
_cell_length_c 18.772897
_cell_angle_alpha 48.257188
_cell_angle_beta 105.331150
_cell_angle_gamma 106.293862
_cell_volume 528.012276
_symmetry_space_group_name_H-M "P -1"
_symmetry_group_IT_number 2
_symmetry_cell_setting 'triclinic'
loop_
_space_group_symop_operation_xyz
x,y,z
-x,-y,-z
loop_
_atom_site_type_symbol
_atom_site_label
_atom_site_fract_x
_atom_site_fract_y
_atom_site_fract_z
Si Si1 0.076020 0.796959 0.734968
Si Si2 0.582144 0.164176 0.051028
Si Si3 0.000000 0.500000 0.000000
Si Si4 0.194772 0.118484 0.193972
Si Si5 0.128765 0.358269 0.392892
Si Si6 0.572597 0.475213 0.234168
Si Si7 0.739061 0.444261 0.398069
Si Si8 0.500000 0.500000 0.500000
O O1 0.222763 0.546901 0.775670
O O2 0.949310 0.684676 0.811569
O O3 0.931415 0.847530 0.646280
O O4 0.206998 0.155488 0.689203
O O5 0.534596 0.858562 0.160097
O O6 0.806682 0.249866 0.047758
O O7 0.500000 0.500000 0.000000
O O8 0.500000 0.000000 0.000000
O O9 0.134618 0.202792 0.093210
O O10 0.406354 0.268147 0.210624
O O11 0.156344 0.739062 0.289895
O O12 0.321137 0.340989 0.457672
O O13 0.939357 0.315021 0.430295
O O14 0.590912 0.312392 0.344730
O O15 0.653416 0.417314 0.471652
#
# Coordination Sequence:
#
# PCOD9034265 Si02
#       8
#     2   2   1   2   2   2   2   1
#     4  10  22  44  72  92 138 182 231 292 369 433
#     4  12  29  48  73 112 152 198 258 314 378 457
#     4  12  26  46  74 106 146 196 250 316 374 452
#     4  11  24  44  69 101 137 184 240 298 367 439
#     4  10  23  43  64 100 132 179 228 291 359 442
#     4  11  24  46  68  99 140 185 238 299 367 440
#     4  10  23  41  66  96 132 179 230 295 356 441
#     4  12  22  40  70  96 136 178 230 290 368 442
#
# _framework density 26.514534000000001
#
# number of rings (size 3 to 8) (size 9 to 14) (size 15 to 20)
#    0.000    1.143    1.429    4.714    4.000    4.571 
#    0.000   13.571    0.000    0.000    0.000    0.000 
#    0.000    0.000    0.000    0.000    0.000    0.000 
#
# Total GULP energy -78004.028919 kJ/mol
# GULP energy per Si atom -5571.716351 kJ/mol
# Density = 2.645419 g / cm^3
# Si number density = 26.514534 Si / 1000 Ang^3
#
#
#
# Elastic Constant Matrix: (Units=GPa)
#
#
# Indices 1 2 3 4 5 6 
#
# 1 142.6810 40.2924 35.3627 6.1257 26.8420 30.2586
# 2 40.2924 62.5601 31.6551 2.1290 25.7924 -5.1716
# 3 35.3627 31.6551 66.0638 -7.4707 31.6363 4.1833
# 4 6.1257 2.1290 -7.4707 46.2546 6.9726 14.1398
# 5 26.8420 25.7924 31.6363 6.9726 53.4436 9.8644
# 6 30.2586 -5.1716 4.1833 14.1398 9.8644 52.2712
#
#
#
# Elastic Compliance Matrix: (Units=1/GPa)
#
#
# Indices 1 2 3 4 5 6 
#
# 1 0.010806 -0.006501 -0.002297 0.000572 0.000273 -0.006921
# 2 -0.006501 0.027696 -0.007423 -0.003415 -0.006985 0.009340
# 3 -0.002297 -0.007423 0.026315 0.007010 -0.011528 -0.001232
# 4 0.000572 -0.003415 0.007010 0.025789 -0.004806 -0.007299
# 5 0.000273 -0.006985 -0.011528 -0.004806 0.030195 -0.004325
# 6 -0.006921 0.009340 -0.001232 -0.007299 -0.004325 0.026950
#
#
# Mechanical properties :
#
#
# Convention : Reuss Voigt Hill
#
# Bulk Modulus (GPa) = 30.88931 53.99171 42.44051
# Shear Modulus (GPa) = 26.18008 41.32687 33.75347
#
# Velocity S-wave (km/s) = 3.14568 3.95226 3.57181
# Velocity P-wave (km/s) = 4.98688 6.42140 5.74906
#
# Compressibility (1/GPa) = 0.03237366
#
# Stress axis : x y z
#
# Youngs Moduli (GPa) = 92.54427 36.10585 38.00183
#
# Poissons Ratio (x) = 0.23474 0.08727
# Poissons Ratio (y) = 0.60167 0.28210
# Poissons Ratio (z) = 0.21253 0.26803
#
# Static dielectric constant tensor:
#      x y z
#    x 1.967630 -0.029260 0.003040 
#    y -0.029260 2.080160 -0.036130 
#    z 0.003040 -0.036130 2.168830 
# 
# From -- ./inp_files/50957.got.cif
#   From: 2010.05.17/outbox.cif.g08.bks.cpg/sg2_26_cif.got.tgz:50957.got - 2010.06.03 11:33:40.
