data_PCOD9034499
_publ_section_title
;
Structure prediction by ZEFSAII (Michael W. Deem and Ramdas Pophale) SiO2 
 PCOD9034499
Probable space group: P -1
;
_chemical_formula_sum "Si O2"
_cell_formula_units_Z 14
_cell_length_a 11.804181
_cell_length_b 11.753545
_cell_length_c 7.225714
_cell_angle_alpha 111.755315
_cell_angle_beta 102.001153
_cell_angle_gamma 35.606798
_cell_volume 533.954277
_symmetry_space_group_name_H-M "P -1"
_symmetry_group_IT_number 2
_symmetry_cell_setting 'triclinic'
loop_
_space_group_symop_operation_xyz
x,y,z
-x,-y,-z
loop_
_atom_site_type_symbol
_atom_site_label
_atom_site_fract_x
_atom_site_fract_y
_atom_site_fract_z
Si Si1 0.350410 0.179439 0.710996
Si Si2 0.251241 0.533871 0.762006
Si Si3 0.067435 0.471396 0.296068
Si Si4 0.324550 0.018585 0.021845
Si Si5 0.668881 0.380158 0.828792
Si Si6 0.902687 0.981996 0.819862
Si Si7 0.432271 0.348433 0.361639
O O1 0.286303 0.365529 0.724712
O O2 0.480111 0.089499 0.882767
O O3 0.133468 0.306359 0.732336
O O4 0.500000 0.000000 0.500000
O O5 0.433690 0.400174 0.601484
O O6 0.075007 0.737297 0.698061
O O7 0.212544 0.624351 0.004622
O O8 0.243888 0.418398 0.321558
O O9 0.000000 0.500000 0.500000
O O10 0.157088 0.266417 0.125348
O O11 0.262202 0.959109 0.099938
O O12 0.386458 0.895001 0.781291
O O13 0.593032 0.519155 0.711179
O O14 0.809929 0.141215 0.720284
O O15 0.500000 0.500000 0.000000
O O16 0.000000 0.000000 0.000000
#
# Coordination Sequence:
#
# PCOD9034499 Si02
#       7
#     2   2   2   2   2   2   2
#     4  12  23  41  74 103 140 195 231 290 370 425
#     4  11  23  45  69 102 143 180 240 296 358 425
#     4  12  24  45  71 105 150 186 241 302 359 436
#     4  12  23  45  72 105 147 189 240 299 365 435
#     4  11  23  46  70 101 140 185 247 298 352 428
#     4  10  22  44  76  96 143 195 232 306 365 408
#     4  12  25  42  75 106 140 195 238 293 371 433
#
# _framework density 26.219474000000002
#
# number of rings (size 3 to 8) (size 9 to 14) (size 15 to 20)
#    0.000    0.571    7.143    0.429    0.000    1.714 
#    0.000    4.286    0.000    0.000    0.000    0.000 
#    0.000    0.000    0.000    0.000    0.000    0.000 
#
# Total GULP energy -78247.965549 kJ/mol
# GULP energy per Si atom -5589.140396 kJ/mol
# Density = 2.615980 g / cm^3
# Si number density = 26.219474 Si / 1000 Ang^3
#
#
#
# Elastic Constant Matrix: (Units=GPa)
#
#
# Indices 1 2 3 4 5 6 
#
# 1 94.4744 25.1177 -10.2997 4.5940 -7.6717 9.5852
# 2 25.1177 164.5459 41.6829 27.3745 9.3003 3.5927
# 3 -10.2997 41.6829 113.9888 10.3373 -13.1387 8.0004
# 4 4.5940 27.3745 10.3373 55.7043 5.2911 1.0580
# 5 -7.6717 9.3003 -13.1387 5.2911 21.7398 4.7731
# 6 9.5852 3.5927 8.0004 1.0580 4.7731 42.7197
#
#
#
# Elastic Compliance Matrix: (Units=1/GPa)
#
#
# Indices 1 2 3 4 5 6 
#
# 1 0.013167 -0.003275 0.003905 -0.001032 0.009638 -0.004461
# 2 -0.003275 0.008369 -0.004047 -0.002463 -0.006939 0.001625
# 3 0.003905 -0.004047 0.012428 -0.001695 0.011945 -0.004156
# 4 -0.001032 -0.002463 -0.001695 0.020059 -0.005407 0.000864
# 5 0.009638 -0.006939 0.011945 -0.005407 0.063263 -0.010751
# 6 -0.004461 0.001625 -0.004156 0.000864 -0.010751 0.026231
#
#
# Mechanical properties :
#
#
# Convention : Reuss Voigt Hill
#
# Bulk Modulus (GPa) = 36.85938 54.00120 45.43029
# Shear Modulus (GPa) = 31.36898 45.13330 38.25114
#
# Velocity S-wave (km/s) = 3.46265 4.15344 3.82368
# Velocity P-wave (km/s) = 5.48408 6.60620 6.07112
#
# Compressibility (1/GPa) = 0.02713013
#
# Stress axis : x y z
#
# Youngs Moduli (GPa) = 75.94923 119.49119 80.46608
#
# Poissons Ratio (x) = 0.39130 -0.31420
# Poissons Ratio (y) = 0.24871 0.32561
# Poissons Ratio (z) = -0.29657 0.48353
#
# Static dielectric constant tensor:
#      x y z
#    x 2.377140 -0.182950 0.169100 
#    y -0.182950 2.101600 -0.086770 
#    z 0.169100 -0.086770 2.121510 
# 
# From -- ./inp_files/259518.got.cif
#   From: 2010.05.17/outbox.cif.g08.bks.cpg/sg2_130_cif.got.tgz:259518.got - 2010.06.03 11:33:40.
