data_PCOD9034191
_publ_section_title
;
Structure prediction by ZEFSAII (Michael W. Deem and Ramdas Pophale) SiO2 
 PCOD9034191
Probable space group: P -1
;
_chemical_formula_sum "Si O2"
_cell_formula_units_Z 12
_cell_length_a 11.789447
_cell_length_b 7.662485
_cell_length_c 10.283994
_cell_angle_alpha 71.570195
_cell_angle_beta 111.356739
_cell_angle_gamma 54.038782
_cell_volume 498.014497
_symmetry_space_group_name_H-M "P -1"
_symmetry_group_IT_number 2
_symmetry_cell_setting 'triclinic'
loop_
_space_group_symop_operation_xyz
x,y,z
-x,-y,-z
loop_
_atom_site_type_symbol
_atom_site_label
_atom_site_fract_x
_atom_site_fract_y
_atom_site_fract_z
Si Si1 0.422929 0.295736 0.825064
Si Si2 0.547538 0.623099 0.903856
Si Si3 0.954362 0.245199 0.069718
Si Si4 0.747595 0.724824 0.452157
Si Si5 0.334861 0.574731 0.480824
Si Si6 0.104048 0.314773 0.887792
O O1 0.275659 0.322662 0.692764
O O2 0.359503 0.549792 0.654075
O O3 0.393295 0.325634 0.957524
O O4 0.659481 0.996482 0.963416
O O5 0.372389 0.940643 0.680098
O O6 0.500000 0.500000 0.000000
O O7 0.742695 0.392437 0.949273
O O8 0.938223 0.446851 0.106151
O O9 0.120278 0.908949 0.273924
O O10 0.024680 0.242877 0.962507
O O11 0.640643 0.672680 0.486023
O O12 0.963698 0.479491 0.663294
O O13 0.500000 0.500000 0.500000
#
# Coordination Sequence:
#
# PCOD9034191 Si02
#       6
#     2   2   2   2   2   2
#     4  10  24  49  67 101 147 181 230 293 345 417
#     4  12  28  47  69 103 147 187 234 290 350 421
#     4  11  24  46  69 109 142 181 236 297 342 415
#     4  10  25  45  71 101 136 193 230 280 357 416
#     4  10  22  44  72 101 139 181 228 291 352 406
#     4  11  24  45  78 100 141 185 237 291 353 412
#
# _framework density 24.095685
#
# number of rings (size 3 to 8) (size 9 to 14) (size 15 to 20)
#    1.000    0.333    3.333    0.500    7.000    4.000 
#    0.000    0.000    0.000    0.000    0.000    0.000 
#    0.000    0.000    0.000    0.000    0.000    0.000 
#
# Total GULP energy -66985.151738 kJ/mol
# GULP energy per Si atom -5582.095978 kJ/mol
# Density = 2.404084 g / cm^3
# Si number density = 24.095685 Si / 1000 Ang^3
#
#
#
# Elastic Constant Matrix: (Units=GPa)
#
#
# Indices 1 2 3 4 5 6 
#
# 1 191.8586 23.3205 56.8263 -23.3293 -18.5111 -3.4772
# 2 23.3205 51.3548 30.1693 -6.7490 0.4057 1.5093
# 3 56.8263 30.1693 194.6577 -16.8574 -10.4899 -2.3720
# 4 -23.3293 -6.7490 -16.8574 33.8492 13.7205 -5.4022
# 5 -18.5111 0.4057 -10.4899 13.7205 41.5637 -6.7649
# 6 -3.4772 1.5093 -2.3720 -5.4022 -6.7649 36.5766
#
#
#
# Elastic Compliance Matrix: (Units=1/GPa)
#
#
# Indices 1 2 3 4 5 6 
#
# 1 0.006343 -0.001850 -0.001201 0.002890 0.001808 0.001363
# 2 -0.001850 0.022421 -0.002874 0.002711 -0.002894 -0.001422
# 3 -0.001201 -0.002874 0.006107 0.001491 0.000664 0.000743
# 4 0.002890 0.002711 0.001491 0.037546 -0.010117 0.003934
# 5 0.001808 -0.002894 0.000664 -0.010117 0.029087 0.004220
# 6 0.001363 -0.001422 0.000743 0.003934 0.004220 0.028938
#
#
# Mechanical properties :
#
#
# Convention : Reuss Voigt Hill
#
# Bulk Modulus (GPa) = 43.43387 73.16705 58.30046
# Shear Modulus (GPa) = 33.34116 44.23488 38.78802
#
# Velocity S-wave (km/s) = 3.72385 4.28927 4.01652
# Velocity P-wave (km/s) = 6.04600 7.41361 6.76445
#
# Compressibility (1/GPa) = 0.02302351
#
# Stress axis : x y z
#
# Youngs Moduli (GPa) = 157.65017 44.60037 163.74555
#
# Poissons Ratio (x) = 0.08249 0.19663
# Poissons Ratio (y) = 0.29159 0.47054
# Poissons Ratio (z) = 0.18931 0.12816
#
# Static dielectric constant tensor:
#      x y z
#    x 1.992300 0.138960 -0.021510 
#    y 0.138960 2.098960 0.046490 
#    z -0.021510 0.046490 1.890590 
# 
# From -- ./inp_files/411934.got.cif
#   From: 2010.05.17/outbox.cif.g08.bks.cpg/sg2_206_cif.got.tgz:411934.got - 2010.06.03 11:33:40.
