data_PCOD9034065
_publ_section_title
;
Structure prediction by ZEFSAII (Michael W. Deem and Ramdas Pophale) SiO2 
 PCOD9034065
Probable space group: P -1
;
_chemical_formula_sum "Si O2"
_cell_formula_units_Z 16
_cell_length_a 10.009719
_cell_length_b 8.965135
_cell_length_c 26.193317
_cell_angle_alpha 51.901269
_cell_angle_beta 154.409614
_cell_angle_gamma 121.904363
_cell_volume 796.262224
_symmetry_space_group_name_H-M "P -1"
_symmetry_group_IT_number 2
_symmetry_cell_setting 'triclinic'
loop_
_space_group_symop_operation_xyz
x,y,z
-x,-y,-z
loop_
_atom_site_type_symbol
_atom_site_label
_atom_site_fract_x
_atom_site_fract_y
_atom_site_fract_z
Si Si1 0.188642 0.952353 0.867400
Si Si2 0.875125 0.980319 0.640932
Si Si3 0.768399 0.571354 0.539370
Si Si4 0.109619 0.342797 0.614407
Si Si5 0.099856 0.598878 0.744905
Si Si6 0.704054 0.489926 0.020376
Si Si7 0.818195 0.194892 0.875392
Si Si8 0.229359 0.787478 0.261512
O O1 0.202081 0.726530 0.915319
O O2 0.070784 0.011329 0.755342
O O3 0.914351 0.052284 0.784792
O O4 0.500000 0.000000 0.000000
O O5 0.976538 0.765611 0.704738
O O6 0.500000 0.000000 0.500000
O O7 0.978689 0.138708 0.604111
O O8 0.500000 0.500000 0.500000
O O9 0.583115 0.727200 0.408755
O O10 0.944831 0.421653 0.593621
O O11 0.999620 0.648240 0.642890
O O12 0.478759 0.282392 0.759116
O O13 0.000000 0.500000 0.500000
O O14 0.961646 0.400468 0.755723
O O15 0.465433 0.571304 0.878625
O O16 0.972315 0.628217 0.086710
O O17 0.500000 0.500000 0.000000
O O18 0.791123 0.150382 0.816113
O O19 0.000000 0.000000 0.000000
#
# Coordination Sequence:
#
# PCOD9034065 Si02
#       8
#     2   2   2   2   2   2   2   2
#     4  12  24  40  75 109 143 184 255 312 364 428
#     4  12  25  43  75 107 135 189 256 299 362 449
#     4  10  22  44  71 102 138 186 243 297 357 441
#     4  12  27  47  74 106 153 196 236 307 390 440
#     4  11  21  40  72 100 136 179 249 306 346 420
#     4  12  23  44  71 102 144 193 249 300 359 448
#     4  12  27  46  72 105 153 196 239 299 385 447
#     4  11  21  42  67 104 142 187 235 309 364 427
#
# _framework density 20.093883000000002
#
# number of rings (size 3 to 8) (size 9 to 14) (size 15 to 20)
#    0.000    0.500    5.000    4.500    3.500    0.000 
#    0.000    4.375    0.000    0.000    0.000    0.000 
#    0.000    0.000    0.000    0.000    0.000    0.000 
#
# Total GULP energy -89084.835797 kJ/mol
# GULP energy per Si atom -5567.802237 kJ/mol
# Density = 2.004815 g / cm^3
# Si number density = 20.093883 Si / 1000 Ang^3
#
#
#
# Elastic Constant Matrix: (Units=GPa)
#
#
# Indices 1 2 3 4 5 6 
#
# 1 83.6798 58.5987 32.9684 -18.2369 7.2764 -16.2964
# 2 58.5987 101.8805 71.9067 -16.2575 13.9137 -9.6207
# 3 32.9684 71.9067 140.7430 -19.1685 0.2191 2.6141
# 4 -18.2369 -16.2575 -19.1685 38.1940 -10.0483 13.4260
# 5 7.2764 13.9137 0.2191 -10.0483 50.0076 1.0080
# 6 -16.2964 -9.6207 2.6141 13.4260 1.0080 39.4239
#
#
#
# Elastic Compliance Matrix: (Units=1/GPa)
#
#
# Indices 1 2 3 4 5 6 
#
# 1 0.022154 -0.013324 0.002217 0.004968 0.001391 0.004032
# 2 -0.013324 0.025218 -0.010232 -0.003164 -0.005720 0.002549
# 3 0.002217 -0.010232 0.012648 0.005568 0.003677 -0.004409
# 4 0.004968 -0.003164 0.005568 0.036071 0.007614 -0.011567
# 5 0.001391 -0.005720 0.003677 0.007614 0.022985 -0.004245
# 6 0.004032 0.002549 -0.004409 -0.011567 -0.004245 0.031994
#
#
# Mechanical properties :
#
#
# Convention : Reuss Voigt Hill
#
# Bulk Modulus (GPa) = 57.66192 72.58341 65.12266
# Shear Modulus (GPa) = 25.05912 36.38038 30.71975
#
# Velocity S-wave (km/s) = 3.53526 4.25964 3.91424
# Velocity P-wave (km/s) = 6.73963 7.77131 7.27379
#
# Compressibility (1/GPa) = 0.01734247
#
# Stress axis : x y z
#
# Youngs Moduli (GPa) = 45.13870 39.65483 79.06388
#
# Poissons Ratio (x) = 0.52835 -0.17531
# Poissons Ratio (y) = 0.60141 0.80900
# Poissons Ratio (z) = -0.10009 0.40576
#
# Static dielectric constant tensor:
#      x y z
#    x 1.701990 0.004320 -0.039560 
#    y 0.004320 1.684950 0.007290 
#    z -0.039560 0.007290 1.817760 
# 
# From -- ./inp_files/606697.got.cif
#   From: 2010.05.17/outbox.cif.g08.bks.cpg/sg2_304_cif.got.tgz:606697.got - 2010.06.03 11:33:40.
