data_PCOD9034196
_publ_section_title
;
Structure prediction by ZEFSAII (Michael W. Deem and Ramdas Pophale) SiO2 
 PCOD9034196
Probable space group: P -1
;
_chemical_formula_sum "Si O2"
_cell_formula_units_Z 15
_cell_length_a 17.782872
_cell_length_b 5.429894
_cell_length_c 7.828848
_cell_angle_alpha 61.630726
_cell_angle_beta 118.340932
_cell_angle_gamma 88.319086
_cell_volume 552.813784
_symmetry_space_group_name_H-M "P -1"
_symmetry_group_IT_number 2
_symmetry_cell_setting 'triclinic'
loop_
_space_group_symop_operation_xyz
x,y,z
-x,-y,-z
loop_
_atom_site_type_symbol
_atom_site_label
_atom_site_fract_x
_atom_site_fract_y
_atom_site_fract_z
Si Si1 0.809884 0.629002 0.848534
Si Si2 0.933178 0.940660 0.708222
Si Si3 0.372423 0.545569 0.851206
Si Si4 0.810088 0.516570 0.248927
Si Si5 0.500000 0.500000 0.500000
Si Si6 0.460730 0.967888 0.784479
Si Si7 0.308428 0.718460 0.353194
Si Si8 0.931433 0.838027 0.337468
O O1 0.755811 0.455154 0.738057
O O2 0.893725 0.709090 0.829826
O O3 0.744915 0.951152 0.741626
O O4 0.845317 0.436185 0.120762
O O5 0.857571 0.268865 0.523128
O O6 0.030355 0.987168 0.822650
O O7 0.937713 0.882366 0.530292
O O8 0.291988 0.466919 0.872882
O O9 0.372483 0.880430 0.757745
O O10 0.358448 0.531898 0.636740
O O11 0.464956 0.335813 0.106078
O O12 0.832558 0.813788 0.211488
O O13 0.392224 0.725670 0.322382
O O14 0.538168 0.776166 0.422852
O O15 0.500000 0.000000 0.000000
O O16 0.000000 0.500000 0.500000
#
# Coordination Sequence:
#
# PCOD9034196 Si02
#       8
#     2   2   2   2   1   2   2   2
#     4  12  28  45  72 110 141 194 245 299 360 431
#     4  10  22  44  72 101 147 184 236 299 358 438
#     4  11  24  46  71 100 147 188 247 300 372 429
#     4  11  24  42  72  99 142 189 239 299 357 439
#     4  12  26  46  74  96 152 184 246 304 366 428
#     4  11  25  43  67 102 135 191 239 303 362 432
#     4  12  27  47  71 105 145 191 244 302 363 429
#     4   9  21  43  71 106 138 189 233 291 370 427
#
# _framework density 27.133911999999999
#
# number of rings (size 3 to 8) (size 9 to 14) (size 15 to 20)
#    0.000    1.067    2.667    2.400    5.600    3.733 
#    0.000    6.000    0.000    0.000    0.000    0.000 
#    0.000    0.000    0.000    0.000    0.000    0.000 
#
# Total GULP energy -83609.923097 kJ/mol
# GULP energy per Si atom -5573.994873 kJ/mol
# Density = 2.707215 g / cm^3
# Si number density = 27.133912 Si / 1000 Ang^3
#
#
#
# Elastic Constant Matrix: (Units=GPa)
#
#
# Indices 1 2 3 4 5 6 
#
# 1 164.3985 42.7731 -1.7100 -5.3554 2.6394 53.5493
# 2 42.7731 134.9800 16.6339 -5.0539 2.6181 43.5084
# 3 -1.7100 16.6339 67.3166 -13.0507 -6.9986 15.4473
# 4 -5.3554 -5.0539 -13.0507 54.8536 1.9927 7.4276
# 5 2.6394 2.6181 -6.9986 1.9927 35.2830 -7.3090
# 6 53.5493 43.5084 15.4473 7.4276 -7.3090 65.2109
#
#
#
# Elastic Compliance Matrix: (Units=1/GPa)
#
#
# Indices 1 2 3 4 5 6 
#
# 1 0.009023 -0.000358 0.002525 0.002645 -0.002015 -0.008295
# 2 -0.000358 0.009832 -0.000871 0.001628 -0.002315 -0.006504
# 3 0.002525 -0.000871 0.017714 0.005135 0.001843 -0.006066
# 4 0.002645 0.001628 0.005135 0.020889 -0.001945 -0.007072
# 5 -0.002015 -0.002315 0.001843 -0.001945 0.030466 0.006399
# 6 -0.008295 -0.006504 -0.006066 -0.007072 0.006399 0.029446
#
#
# Mechanical properties :
#
#
# Convention : Reuss Voigt Hill
#
# Bulk Modulus (GPa) = 25.53697 53.56544 39.55120
# Shear Modulus (GPa) = 39.11411 51.66938 45.39175
#
# Velocity S-wave (km/s) = 3.80086 4.36849 4.09452
# Velocity P-wave (km/s) = 5.35667 6.72525 6.07959
#
# Compressibility (1/GPa) = 0.03915892
#
# Stress axis : x y z
#
# Youngs Moduli (GPa) = 110.82984 101.71165 56.45334
#
# Poissons Ratio (x) = 0.03644 -0.14252
# Poissons Ratio (y) = 0.03971 0.04917
# Poissons Ratio (z) = -0.27980 0.08859
#
# Static dielectric constant tensor:
#      x y z
#    x 2.178340 -0.075320 0.091790 
#    y -0.075320 2.456210 0.015300 
#    z 0.091790 0.015300 2.213670 
# 
# From -- ./inp_files/322238.got.cif
#   From: 2010.05.17/outbox.cif.g08.bks.cpg/sg2_162_cif.got.tgz:322238.got - 2010.06.03 11:33:40.
