data_PCOD9034032
_publ_section_title
;
Structure prediction by ZEFSAII (Michael W. Deem and Ramdas Pophale) SiO2 
 PCOD9034032
Probable space group: P -1
;
_chemical_formula_sum "Si O2"
_cell_formula_units_Z 16
_cell_length_a 15.574644
_cell_length_b 12.777226
_cell_length_c 15.137766
_cell_angle_alpha 55.590184
_cell_angle_beta 153.401007
_cell_angle_gamma 141.918734
_cell_volume 719.335862
_symmetry_space_group_name_H-M "P -1"
_symmetry_group_IT_number 2
_symmetry_cell_setting 'triclinic'
loop_
_space_group_symop_operation_xyz
x,y,z
-x,-y,-z
loop_
_atom_site_type_symbol
_atom_site_label
_atom_site_fract_x
_atom_site_fract_y
_atom_site_fract_z
Si Si1 0.699735 0.589991 0.384736
Si Si2 0.228376 0.425112 0.334783
Si Si3 0.236762 0.978933 0.593123
Si Si4 0.803587 0.989214 0.133916
Si Si5 0.215646 0.668087 0.274039
Si Si6 0.358148 0.167141 0.257437
Si Si7 0.417398 0.724733 0.066091
Si Si8 0.589111 0.986986 0.774391
O O1 0.737289 0.580066 0.527063
O O2 0.504422 0.376790 0.269458
O O3 0.544117 0.647311 0.212545
O O4 0.007957 0.770161 0.532646
O O5 0.500000 0.500000 0.500000
O O6 0.234013 0.578199 0.253128
O O7 0.944484 0.200032 0.157616
O O8 0.461116 0.146940 0.794216
O O9 0.371680 0.967966 0.640582
O O10 0.046475 0.005086 0.372310
O O11 0.558544 0.864784 0.044477
O O12 0.677192 0.916559 0.954193
O O13 0.514812 0.806600 0.541247
O O14 0.166894 0.786694 0.141412
O O15 0.933449 0.472977 0.161122
O O16 0.490448 0.125913 0.334518
O O17 0.000000 0.000000 0.000000
#
# Coordination Sequence:
#
# PCOD9034032 Si02
#       8
#     2   2   2   2   2   2   2   2
#     4  10  22  44  71 100 138 193 227 283 355 417
#     4  11  22  37  68  99 142 179 234 282 347 416
#     4  11  23  45  73 106 151 178 227 291 360 424
#     4  11  24  42  71 108 146 188 222 287 354 424
#     4  11  27  44  70 103 138 185 240 294 352 419
#     4  11  27  50  73  93 138 194 244 290 353 412
#     4  11  22  46  71 106 146 183 226 285 368 425
#     4  12  28  43  72 105 140 187 244 292 338 410
#
# _framework density 22.242739
#
# number of rings (size 3 to 8) (size 9 to 14) (size 15 to 20)
#    0.000    1.000    2.500    3.375   10.500    2.500 
#    0.000    1.250    0.000    0.000    0.000    0.000 
#    0.000    0.000    0.000    0.000    0.000    0.000 
#
# Total GULP energy -89383.999076 kJ/mol
# GULP energy per Si atom -5586.499942 kJ/mol
# Density = 2.219211 g / cm^3
# Si number density = 22.242739 Si / 1000 Ang^3
#
#
#
# Elastic Constant Matrix: (Units=GPa)
#
#
# Indices 1 2 3 4 5 6 
#
# 1 107.4461 43.6821 25.3763 10.5343 9.3842 -3.5037
# 2 43.6821 113.4964 22.8127 9.4239 -1.3581 -8.1553
# 3 25.3763 22.8127 92.2473 0.8440 6.0882 13.4596
# 4 10.5343 9.4239 0.8440 35.0499 5.6429 -1.2715
# 5 9.3842 -1.3581 6.0882 5.6429 30.9297 -2.8417
# 6 -3.5037 -8.1553 13.4596 -1.2715 -2.8417 38.9668
#
#
#
# Elastic Compliance Matrix: (Units=1/GPa)
#
#
# Indices 1 2 3 4 5 6 
#
# 1 0.011907 -0.003963 -0.002189 -0.001962 -0.002932 0.000719
# 2 -0.003963 0.011211 -0.002272 -0.002113 0.002795 0.002909
# 3 -0.002189 -0.002272 0.012944 0.001198 -0.002689 -0.005300
# 4 -0.001962 -0.002113 0.001198 0.030504 -0.005337 -0.000426
# 5 -0.002932 0.002795 -0.002689 -0.005337 0.035181 0.003642
# 6 0.000719 0.002909 -0.005300 -0.000426 0.003642 0.028419
#
#
# Mechanical properties :
#
#
# Convention : Reuss Voigt Hill
#
# Bulk Modulus (GPa) = 52.04485 55.21465 53.62975
# Shear Modulus (GPa) = 32.59053 35.74384 34.16719
#
# Velocity S-wave (km/s) = 3.83197 4.01308 3.92357
# Velocity P-wave (km/s) = 6.55958 6.80813 6.68501
#
# Compressibility (1/GPa) = 0.01921420
#
# Stress axis : x y z
#
# Youngs Moduli (GPa) = 83.98341 89.19988 77.25413
#
# Poissons Ratio (x) = 0.35352 0.16910
# Poissons Ratio (y) = 0.33285 0.17551
# Poissons Ratio (z) = 0.18383 0.20265
#
# Static dielectric constant tensor:
#      x y z
#    x 1.808890 -0.009090 -0.008110 
#    y -0.009090 1.862270 -0.004470 
#    z -0.008110 -0.004470 1.804440 
# 
# From -- ./inp_files/532449.got.cif
#   From: 2010.05.17/outbox.cif.g08.bks.cpg/sg2_267_cif.got.tgz:532449.got - 2010.06.03 11:33:40.
