data_PCOD9034755
_publ_section_title
;
Structure prediction by ZEFSAII (Michael W. Deem and Ramdas Pophale) SiO2 
 PCOD9034755
Probable space group: P -1
;
_chemical_formula_sum "Si O2"
_cell_formula_units_Z 16
_cell_length_a 16.761964
_cell_length_b 8.937719
_cell_length_c 5.341150
_cell_angle_alpha 102.060730
_cell_angle_beta 112.400208
_cell_angle_gamma 68.368609
_cell_volume 685.513202
_symmetry_space_group_name_H-M "P -1"
_symmetry_group_IT_number 2
_symmetry_cell_setting 'triclinic'
loop_
_space_group_symop_operation_xyz
x,y,z
-x,-y,-z
loop_
_atom_site_type_symbol
_atom_site_label
_atom_site_fract_x
_atom_site_fract_y
_atom_site_fract_z
Si Si1 0.465453 0.673667 0.142103
Si Si2 0.847582 0.078282 0.706712
Si Si3 0.204749 0.449730 0.583390
Si Si4 0.944059 0.334105 0.837548
Si Si5 0.252038 0.769304 0.861943
Si Si6 0.384096 0.175325 0.820619
Si Si7 0.500722 0.136441 0.348275
Si Si8 0.057843 0.292606 0.445573
O O1 0.530261 0.763979 0.125973
O O2 0.480046 0.708326 0.463230
O O3 0.500000 0.500000 0.000000
O O4 0.358620 0.739674 0.995881
O O5 0.783069 0.154526 0.421702
O O6 0.921918 0.171334 0.823364
O O7 0.890423 0.890611 0.635187
O O8 0.798026 0.118770 0.928744
O O9 0.230037 0.598871 0.789427
O O10 0.295469 0.294980 0.632150
O O11 0.131529 0.383609 0.609516
O O12 0.151720 0.527055 0.291548
O O13 0.998792 0.300025 0.627418
O O14 0.999191 0.366263 0.151945
O O15 0.413036 0.983431 0.742783
O O16 0.397442 0.188841 0.137784
O O17 0.500000 0.000000 0.500000
#
# Coordination Sequence:
#
# PCOD9034755 Si02
#       8
#     2   2   2   2   2   2   2   2
#     4  11  23  42  67 101 142 190 235 280 357 413
#     4  11  25  46  74 105 139 187 237 295 351 434
#     4  11  25  44  68 105 140 181 241 289 359 420
#     4  11  24  48  71 104 143 180 234 299 363 430
#     4  11  26  45  69 107 149 183 237 294 347 421
#     4  10  22  45  67  99 138 188 233 291 349 417
#     4   9  22  42  67  96 137 182 231 292 345 416
#     4  12  25  45  76 103 138 187 235 295 366 424
#
# _framework density 23.340176
#
# number of rings (size 3 to 8) (size 9 to 14) (size 15 to 20)
#    0.000    1.250    1.250    3.750    3.500    5.500 
#   11.250    0.000    0.000    0.000    0.000    0.000 
#    0.000    0.000    0.000    0.000    0.000    0.000 
#
# Total GULP energy -89304.850110 kJ/mol
# GULP energy per Si atom -5581.553132 kJ/mol
# Density = 2.328705 g / cm^3
# Si number density = 23.340176 Si / 1000 Ang^3
#
#
#
# Elastic Constant Matrix: (Units=GPa)
#
#
# Indices 1 2 3 4 5 6 
#
# 1 94.1347 13.5013 29.8273 -1.0601 17.9378 -3.8417
# 2 13.5013 127.6114 19.3663 14.7871 13.9601 -18.6208
# 3 29.8273 19.3663 97.0430 7.8210 9.0093 -20.6304
# 4 -1.0601 14.7871 7.8210 37.6059 -3.8244 -0.7177
# 5 17.9378 13.9601 9.0093 -3.8244 22.1186 -2.2188
# 6 -3.8417 -18.6208 -20.6304 -0.7177 -2.2188 28.5158
#
#
#
# Elastic Compliance Matrix: (Units=1/GPa)
#
#
# Indices 1 2 3 4 5 6 
#
# 1 0.013542 -0.000086 -0.003604 0.000159 -0.009592 -0.001581
# 2 -0.000086 0.009916 0.000302 -0.004508 -0.006483 0.006064
# 3 -0.003604 0.000302 0.013852 -0.003176 -0.002510 0.009458
# 4 0.000159 -0.004508 -0.003176 0.029851 0.008791 -0.003784
# 5 -0.009592 -0.006483 -0.002510 0.008791 0.059373 -0.002501
# 6 -0.001581 0.006064 0.009458 -0.003784 -0.002501 0.045368
#
#
# Mechanical properties :
#
#
# Convention : Reuss Voigt Hill
#
# Bulk Modulus (GPa) = 32.74981 49.35319 41.05150
# Shear Modulus (GPa) = 26.47538 34.72103 30.59821
#
# Velocity S-wave (km/s) = 3.37163 3.86114 3.62466
# Velocity P-wave (km/s) = 5.40548 6.40850 5.92824
#
# Compressibility (1/GPa) = 0.03053453
#
# Stress axis : x y z
#
# Youngs Moduli (GPa) = 73.84305 100.84754 72.19303
#
# Poissons Ratio (x) = 0.00865 0.26017
# Poissons Ratio (y) = 0.00633 -0.02179
# Poissons Ratio (z) = 0.26611 -0.03044
#
# Static dielectric constant tensor:
#      x y z
#    x 1.965920 -0.030810 -0.221870 
#    y -0.030810 1.910030 0.083250 
#    z -0.221870 0.083250 2.418600 
# 
# From -- ./inp_files/107271.got.cif
#   From: 2010.05.17/outbox.cif.g08.bks.cpg/sg2_54_cif.got.tgz:107271.got - 2010.06.03 11:33:40.
