data_PCOD9034977
_publ_section_title
;
Structure prediction by ZEFSAII (Michael W. Deem and Ramdas Pophale) SiO2 
 PCOD9034977
Probable space group: P -1
;
_chemical_formula_sum "Si O2"
_cell_formula_units_Z 14
_cell_length_a 7.232010
_cell_length_b 16.869138
_cell_length_c 16.008913
_cell_angle_alpha 25.434057
_cell_angle_beta 127.596383
_cell_angle_gamma 129.379025
_cell_volume 644.279152
_symmetry_space_group_name_H-M "P -1"
_symmetry_group_IT_number 2
_symmetry_cell_setting 'triclinic'
loop_
_space_group_symop_operation_xyz
x,y,z
-x,-y,-z
loop_
_atom_site_type_symbol
_atom_site_label
_atom_site_fract_x
_atom_site_fract_y
_atom_site_fract_z
Si Si1 0.751183 0.560013 0.388792
Si Si2 0.260170 0.601283 0.936192
Si Si3 0.283132 0.026921 0.562350
Si Si4 0.608702 0.840043 0.351206
Si Si5 0.753536 0.919618 0.958151
Si Si6 0.365861 0.648586 0.726989
Si Si7 0.002749 0.804746 0.374605
O O1 0.807458 0.686707 0.367587
O O2 0.544314 0.368467 0.518093
O O3 0.000000 0.500000 0.500000
O O4 0.698650 0.695469 0.171490
O O5 0.252660 0.605289 0.828943
O O6 0.324767 0.817337 0.780152
O O7 0.473373 0.497938 0.112111
O O8 0.000000 0.500000 0.000000
O O9 0.439072 0.147401 0.417149
O O10 0.353928 0.146983 0.551891
O O11 0.000000 0.000000 0.500000
O O12 0.861116 0.881539 0.334873
O O13 0.454340 0.992719 0.143993
O O14 0.822202 0.020040 0.792261
O O15 0.000000 0.000000 0.000000
O O16 0.159165 0.669453 0.585576
#
# Coordination Sequence:
#
# PCOD9034977 Si02
#       7
#     2   2   2   2   2   2   2
#     4  11  22  46  72  97 142 182 228 286 341 407
#     4  11  25  46  74 101 138 182 235 288 349 414
#     4  12  24  46  72  99 143 181 231 292 343 414
#     4  12  25  45  68 103 141 183 228 284 347 406
#     4  10  22  45  69  98 137 180 230 281 341 404
#     4  11  24  48  71 103 140 180 232 287 353 409
#     4  11  24  45  70 103 138 185 228 283 345 413
#
# _framework density 21.729711999999999
#
# number of rings (size 3 to 8) (size 9 to 14) (size 15 to 20)
#    0.000    0.857    5.714    1.714    0.000    4.571 
#    2.571    0.000    0.000    0.000    0.000    0.000 
#    0.000    0.000    0.000    0.000    0.000    0.000 
#
# Total GULP energy -78277.214316 kJ/mol
# GULP energy per Si atom -5591.229594 kJ/mol
# Density = 2.168025 g / cm^3
# Si number density = 21.729712 Si / 1000 Ang^3
#
#
#
# Elastic Constant Matrix: (Units=GPa)
#
#
# Indices 1 2 3 4 5 6 
#
# 1 158.6109 35.5305 70.2731 3.1089 1.3117 -13.2006
# 2 35.5305 67.7297 33.7770 9.0559 -3.3644 4.6818
# 3 70.2731 33.7770 168.1831 1.5910 4.8286 -6.1241
# 4 3.1089 9.0559 1.5910 38.6148 3.5012 0.3996
# 5 1.3117 -3.3644 4.8286 3.5012 29.9596 1.8819
# 6 -13.2006 4.6818 -6.1241 0.3996 1.8819 31.7710
#
#
#
# Elastic Compliance Matrix: (Units=1/GPa)
#
#
# Indices 1 2 3 4 5 6 
#
# 1 0.008594 -0.003443 -0.002755 0.000244 -0.000572 0.003578
# 2 -0.003443 0.018962 -0.002607 -0.004330 0.003513 -0.004881
# 3 -0.002755 -0.002607 0.007688 0.000648 -0.001537 0.000804
# 4 0.000244 -0.004330 0.000648 0.027205 -0.003828 0.000749
# 5 -0.000572 0.003513 -0.001537 -0.003828 0.034685 -0.003058
# 6 0.003578 -0.004881 0.000804 0.000749 -0.003058 0.034008
#
#
# Mechanical properties :
#
#
# Convention : Reuss Voigt Hill
#
# Bulk Modulus (GPa) = 56.70995 74.85388 65.78191
# Shear Modulus (GPa) = 32.33500 37.06528 34.70014
#
# Velocity S-wave (km/s) = 3.86172 4.13454 4.00046
# Velocity P-wave (km/s) = 6.78516 7.57067 7.18865
#
# Compressibility (1/GPa) = 0.01763359
#
# Stress axis : x y z
#
# Youngs Moduli (GPa) = 116.35451 52.73755 130.07196
#
# Poissons Ratio (x) = 0.18157 0.35837
# Poissons Ratio (y) = 0.40060 0.33913
# Poissons Ratio (z) = 0.32058 0.13750
#
# Static dielectric constant tensor:
#      x y z
#    x 1.796090 -0.002110 -0.028570 
#    y -0.002110 1.825690 0.012370 
#    z -0.028570 0.012370 1.841430 
# 
# From -- ./inp_files/484171.got.cif
#   From: 2010.05.17/outbox.cif.g08.bks.cpg/sg2_243_cif.got.tgz:484171.got - 2010.06.03 11:33:40.
