data_PCOD9034251
_publ_section_title
;
Structure prediction by ZEFSAII (Michael W. Deem and Ramdas Pophale) SiO2 
 PCOD9034251
Probable space group: P -1
;
_chemical_formula_sum "Si O2"
_cell_formula_units_Z 14
_cell_length_a 5.953400
_cell_length_b 12.403170
_cell_length_c 7.064014
_cell_angle_alpha 75.291136
_cell_angle_beta 86.152759
_cell_angle_gamma 90.914030
_cell_volume 503.088872
_symmetry_space_group_name_H-M "P -1"
_symmetry_group_IT_number 2
_symmetry_cell_setting 'triclinic'
loop_
_space_group_symop_operation_xyz
x,y,z
-x,-y,-z
loop_
_atom_site_type_symbol
_atom_site_label
_atom_site_fract_x
_atom_site_fract_y
_atom_site_fract_z
Si Si1 0.128580 0.849125 0.443030
Si Si2 0.320151 0.690110 0.218563
Si Si3 0.795623 0.927846 0.132374
Si Si4 0.500000 0.000000 0.500000
Si Si5 0.000000 0.500000 0.500000
Si Si6 0.018044 0.359922 0.261532
Si Si7 0.525275 0.143528 0.146761
Si Si8 0.317858 0.454936 0.876940
O O1 0.306448 0.788462 0.325277
O O2 0.245670 0.964369 0.446143
O O3 0.057580 0.766099 0.650983
O O4 0.914196 0.858809 0.314686
O O5 0.118463 0.604526 0.320257
O O6 0.320566 0.754953 0.986777
O O7 0.546430 0.622574 0.232467
O O8 0.629197 0.016593 0.199890
O O9 0.668208 0.866840 0.995061
O O10 0.468187 0.135928 0.371273
O O11 0.845207 0.591248 0.589571
O O12 0.809931 0.446673 0.267438
O O13 0.136208 0.388481 0.046478
O O14 0.000000 0.000000 0.000000
O O15 0.500000 0.500000 0.000000
#
# Coordination Sequence:
#
# PCOD9034251 Si02
#       8
#     2   2   2   1   1   2   2   2
#     4  11  25  47  79 113 158 207 264 322 393 463
#     4  11  24  46  76 112 154 211 250 321 398 468
#     4  11  21  50  73 104 151 203 258 322 381 473
#     4  12  26  46  74 114 156 196 268 322 378 480
#     4  10  22  44  72 110 144 192 266 306 374 478
#     4  10  25  47  75 112 153 203 260 318 394 468
#     4  11  25  43  76 110 150 202 263 314 400 460
#     4  11  24  48  75 110 158 198 252 325 387 470
#
# _framework density 27.828085999999999
#
# number of rings (size 3 to 8) (size 9 to 14) (size 15 to 20)
#    0.000    1.143    4.286    0.857    2.000    6.286 
#    7.714    0.000    0.000    0.000    0.000    0.000 
#    0.000    0.000    0.000    0.000    0.000    0.000 
#
# Total GULP energy -78052.989142 kJ/mol
# GULP energy per Si atom -5575.213510 kJ/mol
# Density = 2.776475 g / cm^3
# Si number density = 27.828086 Si / 1000 Ang^3
#
#
#
# Elastic Constant Matrix: (Units=GPa)
#
#
# Indices 1 2 3 4 5 6 
#
# 1 113.0558 40.8697 68.6800 1.1322 19.3045 -12.3038
# 2 40.8697 88.7141 44.2440 -29.3841 2.3549 8.6926
# 3 68.6800 44.2440 193.8860 -47.5732 12.5458 10.9443
# 4 1.1322 -29.3841 -47.5732 69.7590 5.4577 -16.7335
# 5 19.3045 2.3549 12.5458 5.4577 51.2773 5.1950
# 6 -12.3038 8.6926 10.9443 -16.7335 5.1950 41.8696
#
#
#
# Elastic Compliance Matrix: (Units=1/GPa)
#
#
# Indices 1 2 3 4 5 6 
#
# 1 0.016111 -0.006862 -0.005430 -0.005033 -0.004507 0.006126
# 2 -0.006862 0.016705 0.000300 0.006493 0.001369 -0.003138
# 3 -0.005430 0.000300 0.008532 0.005702 -0.000507 -0.001547
# 4 -0.005033 0.006493 0.005702 0.022447 -0.002693 0.004988
# 5 -0.004507 0.001369 -0.000507 -0.002693 0.022082 -0.005292
# 6 0.006126 -0.003138 -0.001547 0.004988 -0.005292 0.029390
#
#
# Mechanical properties :
#
#
# Convention : Reuss Voigt Hill
#
# Bulk Modulus (GPa) = 57.58846 78.13816 67.86331
# Shear Modulus (GPa) = 34.47331 48.70531 41.58931
#
# Velocity S-wave (km/s) = 3.52347 4.18810 3.87008
# Velocity P-wave (km/s) = 6.10675 7.17822 6.66405
#
# Compressibility (1/GPa) = 0.01736459
#
# Stress axis : x y z
#
# Youngs Moduli (GPa) = 62.06866 59.86138 117.20754
#
# Poissons Ratio (x) = 0.41075 0.63648
# Poissons Ratio (y) = 0.42590 -0.03518
# Poissons Ratio (z) = 0.33706 -0.01797
#
# Static dielectric constant tensor:
#      x y z
#    x 2.145530 -0.072930 0.041890 
#    y -0.072930 2.009900 -0.204680 
#    z 0.041890 -0.204680 1.689060 
# 
# From -- ./inp_files/134061.got.cif
#   From: 2010.05.17/outbox.cif.g08.bks.cpg/sg2_68_cif.got.tgz:134061.got - 2010.06.03 11:33:40.
