data_PCOD9034490
_publ_section_title
;
Structure prediction by ZEFSAII (Michael W. Deem and Ramdas Pophale) SiO2 
 PCOD9034490
Probable space group: P -1
;
_chemical_formula_sum "Si O2"
_cell_formula_units_Z 14
_cell_length_a 23.136346
_cell_length_b 27.821937
_cell_length_c 5.371426
_cell_angle_alpha 106.415805
_cell_angle_beta 75.307992
_cell_angle_gamma 168.828399
_cell_volume 637.376749
_symmetry_space_group_name_H-M "P -1"
_symmetry_group_IT_number 2
_symmetry_cell_setting 'triclinic'
loop_
_space_group_symop_operation_xyz
x,y,z
-x,-y,-z
loop_
_atom_site_type_symbol
_atom_site_label
_atom_site_fract_x
_atom_site_fract_y
_atom_site_fract_z
Si Si1 0.157431 0.681959 0.655211
Si Si2 0.723892 0.713800 0.258467
Si Si3 0.267848 0.413213 0.232699
Si Si4 0.329369 0.567528 0.614339
Si Si5 0.869366 0.277490 0.761265
Si Si6 0.095720 0.956595 0.586755
Si Si7 0.348920 0.242031 0.087980
O O1 0.094134 0.665077 0.460522
O O2 0.000000 0.500000 0.500000
O O3 0.518935 0.973621 0.712402
O O4 0.061334 0.629264 0.942957
O O5 0.534297 0.606747 0.394451
O O6 0.836532 0.767633 0.421447
O O7 0.500000 0.500000 0.000000
O O8 0.024719 0.982702 0.193063
O O9 0.198583 0.414253 0.364369
O O10 0.397702 0.514587 0.959895
O O11 0.001041 0.158794 0.250439
O O12 0.083353 0.405291 0.719264
O O13 0.623456 0.835506 0.564564
O O14 0.468976 0.650336 0.806058
O O15 0.233501 0.120204 0.785953
#
# Coordination Sequence:
#
# PCOD9034490 Si02
#       7
#     2   2   2   2   2   2   2
#     4  10  22  44  76 109 137 180 225 273 332 405
#     4  11  22  38  60  83 118 164 221 285 334 381
#     4  11  23  38  61  84 118 161 223 263 331 400
#     4  10  25  41  60  91 131 170 202 268 337 391
#     4  10  23  44  71 105 148 174 226 279 329 411
#     4  10  23  41  57  87 119 164 222 273 326 389
#     4  10  23  39  59  86 121 163 217 269 336 383
#
# _framework density 21.965031
#
# number of rings (size 3 to 8) (size 9 to 14) (size 15 to 20)
#    0.000    1.714    1.429    1.286    6.000    6.286 
#    0.000    0.000    0.000    0.000    0.000    0.000 
#    0.000    0.000    0.000    0.000    0.000    0.000 
#
# Total GULP energy -78064.004560 kJ/mol
# GULP energy per Si atom -5576.000326 kJ/mol
# Density = 2.191504 g / cm^3
# Si number density = 21.965031 Si / 1000 Ang^3
#
#
#
# Elastic Constant Matrix: (Units=GPa)
#
#
# Indices 1 2 3 4 5 6 
#
# 1 117.9547 69.2848 37.2124 -23.1076 -10.2020 0.3433
# 2 69.2848 63.6098 24.3693 -18.7925 1.0033 5.3701
# 3 37.2124 24.3693 77.9077 -7.6612 -0.9650 3.8749
# 4 -23.1076 -18.7925 -7.6612 37.6979 -11.0720 -1.6461
# 5 -10.2020 1.0033 -0.9650 -11.0720 40.6236 -15.0250
# 6 0.3433 5.3701 3.8749 -1.6461 -15.0250 48.0360
#
#
#
# Elastic Compliance Matrix: (Units=1/GPa)
#
#
# Indices 1 2 3 4 5 6 
#
# 1 0.029402 -0.029201 -0.004483 0.006586 0.012598 0.007582
# 2 -0.029201 0.049727 -0.001010 0.003106 -0.010910 -0.008575
# 3 -0.004483 -0.001010 0.015289 -0.000654 -0.001501 -0.001580
# 4 0.006586 0.003106 -0.000654 0.036095 0.013265 0.005045
# 5 0.012598 -0.010910 -0.001501 0.013265 0.036480 0.013116
# 6 0.007582 -0.008575 -0.001580 0.005045 0.013116 0.026125
#
#
# Mechanical properties :
#
#
# Convention : Reuss Voigt Hill
#
# Bulk Modulus (GPa) = 39.95238 57.91170 48.93204
# Shear Modulus (GPa) = 18.46044 33.84521 26.15282
#
# Velocity S-wave (km/s) = 2.90219 3.92965 3.45433
# Velocity P-wave (km/s) = 5.42760 6.85654 6.18349
#
# Compressibility (1/GPa) = 0.02502980
#
# Stress axis : x y z
#
# Youngs Moduli (GPa) = 34.01148 20.10971 65.40737
#
# Poissons Ratio (x) = 0.58721 0.29324
# Poissons Ratio (y) = 0.99315 0.06607
# Poissons Ratio (z) = 0.15248 0.02031
#
# Static dielectric constant tensor:
#      x y z
#    x 1.780080 -0.049290 0.003780 
#    y -0.049290 1.845020 -0.005340 
#    z 0.003780 -0.005340 1.936150 
# 
# From -- ./inp_files/125330.got.cif
#   From: 2010.05.17/outbox.cif.g08.bks.cpg/sg2_63_cif.got.tgz:125330.got - 2010.06.03 11:33:40.
