data_PCOD9034011
_publ_section_title
;
Structure prediction by ZEFSAII (Michael W. Deem and Ramdas Pophale) SiO2 
 PCOD9034011
Probable space group: P -1
;
_chemical_formula_sum "Si O2"
_cell_formula_units_Z 16
_cell_length_a 8.974911
_cell_length_b 15.118175
_cell_length_c 5.548883
_cell_angle_alpha 80.849630
_cell_angle_beta 99.698868
_cell_angle_gamma 116.291371
_cell_volume 662.321715
_symmetry_space_group_name_H-M "P -1"
_symmetry_group_IT_number 2
_symmetry_cell_setting 'triclinic'
loop_
_space_group_symop_operation_xyz
x,y,z
-x,-y,-z
loop_
_atom_site_type_symbol
_atom_site_label
_atom_site_fract_x
_atom_site_fract_y
_atom_site_fract_z
Si Si1 0.047256 0.100547 0.700931
Si Si2 0.765151 0.011073 0.071475
Si Si3 0.558731 0.090349 0.285023
Si Si4 0.567893 0.609731 0.379958
Si Si5 0.064395 0.278110 0.337804
Si Si6 0.271871 0.269903 0.020572
Si Si7 0.075240 0.561119 0.743282
Si Si8 0.578763 0.290213 0.383724
O O1 0.133797 0.027071 0.694641
O O2 0.005153 0.169327 0.477311
O O3 0.206034 0.182248 0.852006
O O4 0.895697 0.052740 0.868501
O O5 0.702655 0.084424 0.157914
O O6 0.595116 0.931874 0.932736
O O7 0.612031 0.192885 0.402025
O O8 0.500000 0.000000 0.500000
O O9 0.500000 0.500000 0.500000
O O10 0.750728 0.661425 0.527798
O O11 0.610167 0.625237 0.105611
O O12 0.448568 0.663583 0.392326
O O13 0.969387 0.345081 0.319155
O O14 0.104296 0.271756 0.073049
O O15 0.391330 0.250670 0.245785
O O16 0.277378 0.616232 0.753664
O O17 0.000000 0.500000 0.500000
O O18 0.000000 0.500000 0.000000
#
# Coordination Sequence:
#
# PCOD9034011 Si02
#       8
#     2   2   2   2   2   2   2   2
#     4  10  22  44  70  99 139 189 245 309 364 443
#     4  10  24  43  70  99 146 188 250 307 369 449
#     4  11  26  43  68 106 146 190 245 298 383 451
#     4  10  23  42  72  98 139 182 248 301 370 442
#     4  10  25  42  70 102 139 184 244 302 372 446
#     4  10  23  42  71 101 137 182 248 291 377 435
#     4  12  31  51  76 113 153 197 252 315 391 466
#     4  11  26  44  72 103 144 198 237 314 373 453
#
# _framework density 24.157446
#
# number of rings (size 3 to 8) (size 9 to 14) (size 15 to 20)
#    0.000    1.500    1.250    0.750   17.500    1.000 
#    0.000    2.500    0.000    0.000    0.000    0.000 
#    0.000    0.000    0.000    0.000    0.000    0.000 
#
# Total GULP energy -89268.579591 kJ/mol
# GULP energy per Si atom -5579.286224 kJ/mol
# Density = 2.410246 g / cm^3
# Si number density = 24.157446 Si / 1000 Ang^3
#
#
#
# Elastic Constant Matrix: (Units=GPa)
#
#
# Indices 1 2 3 4 5 6 
#
# 1 137.4723 46.2653 38.8466 -12.9198 -6.0436 -11.4986
# 2 46.2653 122.2379 31.0179 -10.4309 -3.5195 -19.5731
# 3 38.8466 31.0179 65.9565 -11.8709 -12.5288 -16.6065
# 4 -12.9198 -10.4309 -11.8709 25.0679 8.7568 0.9065
# 5 -6.0436 -3.5195 -12.5288 8.7568 37.0738 7.1422
# 6 -11.4986 -19.5731 -16.6065 0.9065 7.1422 50.3646
#
#
#
# Elastic Compliance Matrix: (Units=1/GPa)
#
#
# Indices 1 2 3 4 5 6 
#
# 1 0.009415 -0.002353 -0.004199 0.002092 -0.000582 -0.000105
# 2 -0.002353 0.010332 -0.002637 0.002209 -0.001347 0.002760
# 3 -0.004199 -0.002637 0.021793 0.005398 0.004289 0.004497
# 4 0.002092 0.002209 0.005398 0.047661 -0.009579 0.003616
# 5 -0.000582 -0.001347 0.004289 -0.009579 0.031134 -0.003485
# 6 -0.000105 0.002760 0.004497 0.003616 -0.003485 0.022816
#
#
# Mechanical properties :
#
#
# Convention : Reuss Voigt Hill
#
# Bulk Modulus (GPa) = 43.17217 61.99183 52.58200
# Shear Modulus (GPa) = 29.54252 36.47038 33.00645
#
# Velocity S-wave (km/s) = 3.50081 3.88969 3.70037
# Velocity P-wave (km/s) = 5.85243 6.77423 6.33013
#
# Compressibility (1/GPa) = 0.02316307
#
# Stress axis : x y z
#
# Youngs Moduli (GPa) = 106.21532 96.78694 45.88648
#
# Poissons Ratio (x) = 0.22773 0.19267
# Poissons Ratio (y) = 0.24992 0.12098
# Poissons Ratio (z) = 0.44599 0.25518
#
# Static dielectric constant tensor:
#      x y z
#    x 1.972020 -0.018490 -0.041780 
#    y -0.018490 2.078720 0.074030 
#    z -0.041780 0.074030 2.141750 
# 
# From -- ./inp_files/38043.got.cif
#   From: 2010.05.17/outbox.cif.g08.bks.cpg/sg2_20_cif.got.tgz:38043.got - 2010.06.03 11:33:40.
