data_PCOD9034772
_publ_section_title
;
Structure prediction by ZEFSAII (Michael W. Deem and Ramdas Pophale) SiO2 
 PCOD9034772
Probable space group: P -1
;
_chemical_formula_sum "Si O2"
_cell_formula_units_Z 16
_cell_length_a 21.551537
_cell_length_b 6.362450
_cell_length_c 7.094815
_cell_angle_alpha 66.855887
_cell_angle_beta 51.856117
_cell_angle_gamma 85.299468
_cell_volume 685.914515
_symmetry_space_group_name_H-M "P -1"
_symmetry_group_IT_number 2
_symmetry_cell_setting 'triclinic'
loop_
_space_group_symop_operation_xyz
x,y,z
-x,-y,-z
loop_
_atom_site_type_symbol
_atom_site_label
_atom_site_fract_x
_atom_site_fract_y
_atom_site_fract_z
Si Si1 0.898128 0.597063 0.692100
Si Si2 0.664284 0.959758 0.219097
Si Si3 0.192607 0.013250 0.355526
Si Si4 0.773926 0.220604 0.255474
Si Si5 0.566079 0.708063 0.897652
Si Si6 0.032960 0.620456 0.700433
Si Si7 0.451637 0.970517 0.878033
Si Si8 0.336380 0.515742 0.425948
O O1 0.943480 0.563718 0.426250
O O2 0.962338 0.710534 0.691109
O O3 0.830943 0.741449 0.724204
O O4 0.853156 0.346200 0.948980
O O5 0.707716 0.100405 0.268839
O O6 0.642721 0.679534 0.402029
O O7 0.731726 0.004177 0.910929
O O8 0.589068 0.046835 0.241361
O O9 0.209783 0.963686 0.557326
O O10 0.113334 0.817141 0.516674
O O11 0.743981 0.419381 0.366450
O O12 0.649412 0.625281 0.741620
O O13 0.552911 0.781450 0.108258
O O14 0.500000 0.500000 0.000000
O O15 0.540076 0.919176 0.756032
O O16 0.000000 0.500000 0.000000
O O17 0.393361 0.770683 0.187080
#
# Coordination Sequence:
#
# PCOD9034772 Si02
#       8
#     2   2   2   2   2   2   2   2
#     4  11  25  45  69  99 134 178 228 279 342 403
#     4  12  26  41  69 101 135 185 227 276 343 407
#     4  12  25  44  68  99 136 182 224 283 340 400
#     4  12  25  43  65 102 139 176 235 279 336 410
#     4   9  21  44  73 100 137 179 225 284 338 398
#     4  11  24  46  71  99 135 175 228 285 337 405
#     4  10  22  45  68 101 142 174 228 288 332 403
#     4  11  23  41  68 101 134 181 226 274 340 402
#
# _framework density 23.326523999999999
#
# number of rings (size 3 to 8) (size 9 to 14) (size 15 to 20)
#    0.000    1.000    5.000    1.125    0.000    6.000 
#    0.000    6.250    0.000    0.000    0.000    0.000 
#    0.000    0.000    0.000    0.000    0.000    0.000 
#
# Total GULP energy -89283.879885 kJ/mol
# GULP energy per Si atom -5580.242493 kJ/mol
# Density = 2.327343 g / cm^3
# Si number density = 23.326524 Si / 1000 Ang^3
#
#
#
# Elastic Constant Matrix: (Units=GPa)
#
#
# Indices 1 2 3 4 5 6 
#
# 1 121.6314 25.6373 25.6306 3.7462 21.5979 8.5058
# 2 25.6373 69.1561 23.8001 4.1153 8.7650 5.0707
# 3 25.6306 23.8001 124.0558 -1.2131 6.0851 8.1075
# 4 3.7462 4.1153 -1.2131 42.9257 1.0943 -9.3183
# 5 21.5979 8.7650 6.0851 1.0943 42.4691 3.6225
# 6 8.5058 5.0707 8.1075 -9.3183 3.6225 39.7880
#
#
#
# Elastic Compliance Matrix: (Units=1/GPa)
#
#
# Indices 1 2 3 4 5 6 
#
# 1 0.009890 -0.002550 -0.001269 -0.000840 -0.004185 -0.001346
# 2 -0.002550 0.016677 -0.002523 -0.001691 -0.001628 -0.001314
# 3 -0.001269 -0.002523 0.008886 0.000359 -0.000020 -0.001132
# 4 -0.000840 -0.001691 0.000359 0.024897 -0.000445 0.006194
# 5 -0.004185 -0.001628 -0.000020 -0.000445 0.026143 -0.001378
# 6 -0.001346 -0.001314 -0.001132 0.006194 -0.001378 0.027395
#
#
# Mechanical properties :
#
#
# Convention : Reuss Voigt Hill
#
# Bulk Modulus (GPa) = 43.92336 51.66437 47.79386
# Shear Modulus (GPa) = 37.26830 41.02156 39.14493
#
# Velocity S-wave (km/s) = 4.00143 4.19809 4.10094
# Velocity P-wave (km/s) = 6.34187 6.75981 6.55417
#
# Compressibility (1/GPa) = 0.02276693
#
# Stress axis : x y z
#
# Youngs Moduli (GPa) = 101.11591 59.96185 112.54132
#
# Poissons Ratio (x) = 0.15293 0.14280
# Poissons Ratio (y) = 0.25789 0.28399
# Poissons Ratio (z) = 0.12831 0.15131
#
# Static dielectric constant tensor:
#      x y z
#    x 1.899170 -0.016010 -0.045630 
#    y -0.016010 1.905530 0.017330 
#    z -0.045630 0.017330 1.941260 
# 
# From -- ./inp_files/120407.got.cif
#   From: 2010.05.17/outbox.cif.g08.bks.cpg/sg2_61_cif.got.tgz:120407.got - 2010.06.03 11:33:40.
