data_PCOD9034359
_publ_section_title
;
Structure prediction by ZEFSAII (Michael W. Deem and Ramdas Pophale) SiO2 
 PCOD9034359
Probable space group: P -1
;
_chemical_formula_sum "Si O2"
_cell_formula_units_Z 10
_cell_length_a 9.207148
_cell_length_b 10.979011
_cell_length_c 5.056359
_cell_angle_alpha 97.324066
_cell_angle_beta 78.351092
_cell_angle_gamma 128.513559
_cell_volume 391.696106
_symmetry_space_group_name_H-M "P -1"
_symmetry_group_IT_number 2
_symmetry_cell_setting 'triclinic'
loop_
_space_group_symop_operation_xyz
x,y,z
-x,-y,-z
loop_
_atom_site_type_symbol
_atom_site_label
_atom_site_fract_x
_atom_site_fract_y
_atom_site_fract_z
Si Si1 0.834432 0.736279 0.421942
Si Si2 0.362750 0.530091 0.926210
Si Si3 0.365034 0.939145 0.786864
Si Si4 0.017570 0.642360 0.651764
Si Si5 0.720034 0.837859 0.990565
O O1 0.686682 0.547329 0.368412
O O2 0.795113 0.815939 0.686357
O O3 0.011405 0.747395 0.460718
O O4 0.836635 0.566673 0.883740
O O5 0.493530 0.712971 0.986866
O O6 0.500000 0.500000 0.000000
O O7 0.189456 0.198609 0.819287
O O8 0.209636 0.754679 0.769568
O O9 0.500000 0.000000 0.500000
O O10 0.500000 0.000000 0.000000
O O11 0.250497 0.007925 0.890516
O O12 0.000000 0.500000 0.500000
#
# Coordination Sequence:
#
# PCOD9034359 Si02
#       5
#     2   2   2   2   2
#     4  11  23  44  73 111 142 191 249 299 371 433
#     4  10  22  44  73 112 144 188 247 302 369 441
#     4  12  30  52  72 108 156 201 244 307 382 439
#     4  12  28  47  78 111 152 198 251 308 372 447
#     4  11  24  45  77 104 152 190 244 309 367 441
#
# _framework density 25.529992
#
# number of rings (size 3 to 8) (size 9 to 14) (size 15 to 20)
#    0.000    0.800    4.000    3.000    8.400    2.400 
#    0.000    0.000    0.000    0.000    0.000    0.000 
#    0.000    0.000    0.000    0.000    0.000    0.000 
#
# Total GULP energy -55927.113726 kJ/mol
# GULP energy per Si atom -5592.711373 kJ/mol
# Density = 2.547188 g / cm^3
# Si number density = 25.529992 Si / 1000 Ang^3
#
#
#
# Elastic Constant Matrix: (Units=GPa)
#
#
# Indices 1 2 3 4 5 6 
#
# 1 142.2378 47.1854 73.3518 3.9038 3.4153 8.3076
# 2 47.1854 81.6040 55.5356 39.5577 -10.3071 4.9415
# 3 73.3518 55.5356 224.2633 14.5378 -1.3819 -1.3318
# 4 3.9038 39.5577 14.5378 49.7704 -0.0951 1.4219
# 5 3.4153 -10.3071 -1.3819 -0.0951 58.3302 6.8928
# 6 8.3076 4.9415 -1.3318 1.4219 6.8928 56.0291
#
#
#
# Elastic Compliance Matrix: (Units=1/GPa)
#
#
# Indices 1 2 3 4 5 6 
#
# 1 0.010583 -0.007975 -0.001898 0.006082 -0.001967 -0.000823
# 2 -0.007975 0.031549 -0.003666 -0.023315 0.006136 -0.001850
# 3 -0.001898 -0.003666 0.005904 0.001315 -0.000486 0.000771
# 4 0.006082 -0.023315 0.001315 0.037731 -0.004475 0.000779
# 5 -0.001967 0.006136 -0.000486 -0.004475 0.018612 -0.002437
# 6 -0.000823 -0.001850 0.000771 0.000779 -0.002437 0.018432
#
#
# Mechanical properties :
#
#
# Convention : Reuss Voigt Hill
#
# Bulk Modulus (GPa) = 47.71301 88.91676 68.31488
# Shear Modulus (GPa) = 31.87245 50.96145 41.41695
#
# Velocity S-wave (km/s) = 3.53715 4.47267 4.03213
# Velocity P-wave (km/s) = 5.95075 7.84710 6.96378
#
# Compressibility (1/GPa) = 0.02095864
#
# Stress axis : x y z
#
# Youngs Moduli (GPa) = 94.48963 31.69635 169.37550
#
# Poissons Ratio (x) = 0.25277 0.32147
# Poissons Ratio (y) = 0.75354 0.62096
# Poissons Ratio (z) = 0.17934 0.11620
#
# Static dielectric constant tensor:
#      x y z
#    x 1.968930 0.020630 -0.001990 
#    y 0.020630 2.221510 -0.011940 
#    z -0.001990 -0.011940 2.006910 
# 
# From -- ./inp_files/22721.got.cif
#   From: 2010.05.17/outbox.cif.g08.bks.cpg/sg2_12_cif.got.tgz:22721.got - 2010.06.03 11:33:40.
