data_PCOD9034551
_publ_section_title
;
Structure prediction by ZEFSAII (Michael W. Deem and Ramdas Pophale) SiO2 
 PCOD9034551
Probable space group: P -1
;
_chemical_formula_sum "Si O2"
_cell_formula_units_Z 14
_cell_length_a 11.531011
_cell_length_b 11.788693
_cell_length_c 12.150983
_cell_angle_alpha 36.768443
_cell_angle_beta 143.636901
_cell_angle_gamma 129.225663
_cell_volume 585.830521
_symmetry_space_group_name_H-M "P -1"
_symmetry_group_IT_number 2
_symmetry_cell_setting 'triclinic'
loop_
_space_group_symop_operation_xyz
x,y,z
-x,-y,-z
loop_
_atom_site_type_symbol
_atom_site_label
_atom_site_fract_x
_atom_site_fract_y
_atom_site_fract_z
Si Si1 0.345249 0.836864 0.992325
Si Si2 0.835346 0.664581 0.006973
Si Si3 0.310879 0.961217 0.311078
Si Si4 0.509750 0.542575 0.188222
Si Si5 0.060798 0.280558 0.190467
Si Si6 0.469271 0.736093 0.403816
Si Si7 0.819110 0.411306 0.375542
O O1 0.406757 0.729821 0.009975
O O2 0.389983 0.726592 0.227007
O O3 0.108640 0.854771 0.790556
O O4 0.500000 0.000000 0.000000
O O5 0.633000 0.623917 0.822907
O O6 0.960845 0.727550 0.952016
O O7 0.818050 0.843531 0.935173
O O8 0.861610 0.459386 0.244328
O O9 0.374238 0.901014 0.282683
O O10 0.213900 0.792420 0.438399
O O11 0.500000 0.000000 0.500000
O O12 0.604976 0.449253 0.442934
O O13 0.639564 0.548263 0.175107
O O14 0.290103 0.247136 0.427634
O O15 0.000000 0.500000 0.000000
O O16 0.000000 0.500000 0.500000
#
# Coordination Sequence:
#
# PCOD9034551 Si02
#       7
#     2   2   2   2   2   2   2
#     4  12  27  42  68 103 138 177 230 288 340 413
#     4  11  23  44  76  95 139 183 231 288 337 424
#     4  11  22  45  70 100 136 186 228 275 356 410
#     4  10  22  45  63  96 132 183 220 273 353 398
#     4  11  23  45  71  99 130 190 231 267 357 413
#     4  10  23  44  72  94 139 182 225 282 342 413
#     4  11  26  40  68 110 136 175 230 290 348 408
#
# _framework density 23.897697000000001
#
# number of rings (size 3 to 8) (size 9 to 14) (size 15 to 20)
#    0.000    1.143    7.143    0.857    6.000    2.286 
#    0.000    0.000    0.000    0.000    0.000    0.000 
#    0.000    0.000    0.000    0.000    0.000    0.000 
#
# Total GULP energy -77944.318561 kJ/mol
# GULP energy per Si atom -5567.451326 kJ/mol
# Density = 2.384330 g / cm^3
# Si number density = 23.897697 Si / 1000 Ang^3
#
#
#
# Elastic Constant Matrix: (Units=GPa)
#
#
# Indices 1 2 3 4 5 6 
#
# 1 56.9995 43.2852 0.2591 -10.2537 18.9312 3.9787
# 2 43.2852 116.6685 9.8218 -12.5576 16.9795 8.4887
# 3 0.2591 9.8218 47.0636 4.3314 -10.3227 4.6663
# 4 -10.2537 -12.5576 4.3314 32.8465 1.4420 -0.1047
# 5 18.9312 16.9795 -10.3227 1.4420 32.3500 -3.8448
# 6 3.9787 8.4887 4.6663 -0.1047 -3.8448 55.9727
#
#
#
# Elastic Compliance Matrix: (Units=1/GPa)
#
#
# Indices 1 2 3 4 5 6 
#
# 1 0.029746 -0.007834 -0.002208 0.007214 -0.014527 -0.001727
# 2 -0.007834 0.012705 -0.003524 0.003026 -0.003499 -0.001311
# 3 -0.002208 -0.003524 0.025081 -0.005843 0.011330 -0.000632
# 4 0.007214 0.003026 -0.005843 0.035032 -0.009362 -0.001062
# 5 -0.014527 -0.003499 0.011330 -0.009362 0.045727 0.003742
# 6 -0.001727 -0.001311 -0.000632 -0.001062 0.003742 0.018495
#
#
# Mechanical properties :
#
#
# Convention : Reuss Voigt Hill
#
# Bulk Modulus (GPa) = 24.75254 36.38486 30.56870
# Shear Modulus (GPa) = 24.10976 35.39155 29.75065
#
# Velocity S-wave (km/s) = 3.17972 3.85250 3.53217
# Velocity P-wave (km/s) = 4.88478 5.92008 5.42717
#
# Compressibility (1/GPa) = 0.04039989
#
# Stress axis : x y z
#
# Youngs Moduli (GPa) = 33.61770 78.71069 39.87068
#
# Poissons Ratio (x) = 0.61661 0.08803
# Poissons Ratio (y) = 0.26336 0.14051
# Poissons Ratio (z) = 0.07423 0.27740
#
# Static dielectric constant tensor:
#      x y z
#    x 1.946730 0.009170 0.138120 
#    y 0.009170 1.872920 -0.058260 
#    z 0.138120 -0.058260 1.711520 
# 
# From -- ./inp_files/425196.got.cif
#   From: 2010.05.17/outbox.cif.g08.bks.cpg/sg2_213_cif.got.tgz:425196.got - 2010.06.03 11:33:40.
