data_PCOD9034450
_publ_section_title
;
Structure prediction by ZEFSAII (Michael W. Deem and Ramdas Pophale) SiO2 
 PCOD9034450
Probable space group: P -1
;
_chemical_formula_sum "Si O2"
_cell_formula_units_Z 16
_cell_length_a 15.027733
_cell_length_b 5.341423
_cell_length_c 8.220503
_cell_angle_alpha 89.899307
_cell_angle_beta 92.314077
_cell_angle_gamma 68.390840
_cell_volume 612.880790
_symmetry_space_group_name_H-M "P -1"
_symmetry_group_IT_number 2
_symmetry_cell_setting 'triclinic'
loop_
_space_group_symop_operation_xyz
x,y,z
-x,-y,-z
loop_
_atom_site_type_symbol
_atom_site_label
_atom_site_fract_x
_atom_site_fract_y
_atom_site_fract_z
Si Si1 0.787560 0.025394 0.019460
Si Si2 0.994838 0.652295 0.277523
Si Si3 0.574903 0.314648 0.135242
Si Si4 0.092814 0.624016 0.950691
Si Si5 0.725769 0.035946 0.681110
Si Si6 0.846555 0.606952 0.480011
Si Si7 0.444661 0.122848 0.332523
Si Si8 0.671488 0.455855 0.431054
O O1 0.849277 0.189546 0.094858
O O2 0.839042 0.698228 0.024787
O O3 0.768659 0.140565 0.832572
O O4 0.681127 0.129017 0.086546
O O5 0.891481 0.764419 0.361312
O O6 0.036316 0.733771 0.115882
O O7 0.064383 0.634858 0.434893
O O8 0.980532 0.385409 0.197277
O O9 0.519027 0.140579 0.208614
O O10 0.596294 0.489379 0.283190
O O11 0.500000 0.500000 0.000000
O O12 0.803343 0.746883 0.646800
O O13 0.625760 0.020464 0.729022
O O14 0.711699 0.152964 0.498109
O O15 0.759275 0.544601 0.395259
O O16 0.375802 0.408929 0.401031
O O17 0.500000 0.000000 0.500000
#
# Coordination Sequence:
#
# PCOD9034450 Si02
#       8
#     2   2   2   2   2   2   2   2
#     4  12  28  48  73 106 157 196 247 309 387 442
#     4  10  22  44  75 103 142 187 256 300 368 459
#     4  12  28  45  74 112 145 199 254 315 370 460
#     4  11  26  50  71 106 153 198 238 315 386 441
#     4  11  24  44  71  99 146 197 241 308 376 444
#     4  10  22  45  70 106 135 191 246 306 364 450
#     4  11  25  46  73 101 143 191 255 308 375 446
#     4  11  24  46  70 100 149 190 244 309 382 435
#
# _framework density 26.106221000000001
#
# number of rings (size 3 to 8) (size 9 to 14) (size 15 to 20)
#    0.000    1.000    2.500    2.625    7.000    3.500 
#    4.500    1.875    0.000    0.000    0.000    0.000 
#    0.000    0.000    0.000    0.000    0.000    0.000 
#
# Total GULP energy -89345.583609 kJ/mol
# GULP energy per Si atom -5584.098976 kJ/mol
# Density = 2.604680 g / cm^3
# Si number density = 26.106221 Si / 1000 Ang^3
#
#
#
# Elastic Constant Matrix: (Units=GPa)
#
#
# Indices 1 2 3 4 5 6 
#
# 1 162.4982 42.6790 23.8449 -7.1240 -33.7289 -0.6393
# 2 42.6790 77.1168 17.0028 -12.6003 -10.7010 -0.9099
# 3 23.8449 17.0028 109.0843 -13.2004 -3.3523 1.2819
# 4 -7.1240 -12.6003 -13.2004 33.9180 -0.6040 -3.5313
# 5 -33.7289 -10.7010 -3.3523 -0.6040 58.0607 4.1716
# 6 -0.6393 -0.9099 1.2819 -3.5313 4.1716 29.5358
#
#
#
# Elastic Compliance Matrix: (Units=1/GPa)
#
#
# Indices 1 2 3 4 5 6 
#
# 1 0.008112 -0.003715 -0.001075 -0.000072 0.003999 -0.000466
# 2 -0.003715 0.016184 -0.001104 0.004914 0.000744 0.000949
# 3 -0.001075 -0.001104 0.009959 0.003229 -0.000214 -0.000073
# 4 -0.000072 0.004914 0.003229 0.032965 0.001121 0.003793
# 5 0.003999 0.000744 -0.000214 0.001121 0.019866 -0.002553
# 6 -0.000466 0.000949 -0.000073 0.003793 -0.002553 0.034694
#
#
# Mechanical properties :
#
#
# Convention : Reuss Voigt Hill
#
# Bulk Modulus (GPa) = 44.50718 57.30584 50.90651
# Shear Modulus (GPa) = 35.44663 41.98108 38.71386
#
# Velocity S-wave (km/s) = 3.68881 4.01445 3.85507
# Velocity P-wave (km/s) = 5.93537 6.59442 6.27356
#
# Compressibility (1/GPa) = 0.02246828
#
# Stress axis : x y z
#
# Youngs Moduli (GPa) = 123.26929 61.78860 100.40969
#
# Poissons Ratio (x) = 0.22955 0.10789
# Poissons Ratio (y) = 0.45795 0.11086
# Poissons Ratio (z) = 0.13246 0.06822
#
# Static dielectric constant tensor:
#      x y z
#    x 2.067990 -0.217490 -0.024770 
#    y -0.217490 2.661090 0.007450 
#    z -0.024770 0.007450 2.077100 
# 
# From -- ./inp_files/288850.got.cif
#   From: 2010.05.17/outbox.cif.g08.bks.cpg/sg2_145_cif.got.tgz:288850.got - 2010.06.03 11:33:40.
