data_PCOD9034519
_publ_section_title
;
Structure prediction by ZEFSAII (Michael W. Deem and Ramdas Pophale) SiO2 
 PCOD9034519
Probable space group: P -1
;
_chemical_formula_sum "Si O2"
_cell_formula_units_Z 11
_cell_length_a 15.922702
_cell_length_b 8.965277
_cell_length_c 15.127457
_cell_angle_alpha 37.662520
_cell_angle_beta 25.986050
_cell_angle_gamma 24.268461
_cell_volume 384.214358
_symmetry_space_group_name_H-M "P -1"
_symmetry_group_IT_number 2
_symmetry_cell_setting 'triclinic'
loop_
_space_group_symop_operation_xyz
x,y,z
-x,-y,-z
loop_
_atom_site_type_symbol
_atom_site_label
_atom_site_fract_x
_atom_site_fract_y
_atom_site_fract_z
Si Si1 0.270005 0.108219 0.327192
Si Si2 0.881761 0.870353 0.971089
Si Si3 0.230581 0.018430 0.598176
Si Si4 0.000000 0.000000 0.500000
Si Si5 0.686612 0.168608 0.203308
Si Si6 0.695996 0.042465 0.879511
O O1 0.374487 0.955692 0.399318
O O2 0.055739 0.542432 0.331855
O O3 0.104482 0.037689 0.476843
O O4 0.521625 0.960367 0.093551
O O5 0.706970 0.123706 0.931295
O O6 0.129344 0.835097 0.768993
O O7 0.000000 0.500000 0.000000
O O8 0.711323 0.020686 0.153925
O O9 0.369217 0.907279 0.615495
O O10 0.981711 0.747367 0.690842
O O11 0.429188 0.613897 0.224161
O O12 0.000000 0.000000 0.000000
#
# Coordination Sequence:
#
# PCOD9034519 Si02
#       6
#     2   2   2   1   2   2
#     4  11  24  46  76 106 158 193 249 316 379 446
#     4  11  24  44  77 113 152 194 257 308 374 457
#     4  10  23  46  72 113 154 193 250 309 383 456
#     4  12  28  44  74 114 142 204 268 300 372 450
#     4  10  22  44  78 108 151 198 251 300 385 454
#     4  12  25  49  78 106 157 205 247 320 374 446
#
# _framework density 28.629852
#
# number of rings (size 3 to 8) (size 9 to 14) (size 15 to 20)
#    0.000    1.091    5.455    1.091    2.545    2.909 
#    3.273    3.636    0.000    0.000    0.000    0.000 
#    0.000    0.000    0.000    0.000    0.000    0.000 
#
# Total GULP energy -61490.356106 kJ/mol
# GULP energy per Si atom -5590.032373 kJ/mol
# Density = 2.856469 g / cm^3
# Si number density = 28.629852 Si / 1000 Ang^3
#
#
#
# Elastic Constant Matrix: (Units=GPa)
#
#
# Indices 1 2 3 4 5 6 
#
# 1 265.8486 56.5267 84.3133 -21.3715 43.1206 -3.9537
# 2 56.5267 120.1011 18.8648 -12.8332 23.9902 6.1884
# 3 84.3133 18.8648 191.1358 -17.6390 35.3034 -12.9807
# 4 -21.3715 -12.8332 -17.6390 34.8471 -15.0072 0.2138
# 5 43.1206 23.9902 35.3034 -15.0072 78.3079 -18.8318
# 6 -3.9537 6.1884 -12.9807 0.2138 -18.8318 55.5950
#
#
#
# Elastic Compliance Matrix: (Units=1/GPa)
#
#
# Indices 1 2 3 4 5 6 
#
# 1 0.004948 -0.001674 -0.001702 0.000985 -0.001331 -0.000314
# 2 -0.001674 0.009829 0.000224 0.001714 -0.002333 -0.001958
# 3 -0.001702 0.000224 0.006450 0.001643 -0.001523 0.000838
# 4 0.000985 0.001714 0.001643 0.032874 0.004926 0.001805
# 5 -0.001331 -0.002333 -0.001523 0.004926 0.017199 0.005616
# 6 -0.000314 -0.001958 0.000838 0.001805 0.005616 0.020274
#
#
# Mechanical properties :
#
#
# Convention : Reuss Voigt Hill
#
# Bulk Modulus (GPa) = 67.00569 99.61057 83.30813
# Shear Modulus (GPa) = 48.61379 61.57537 55.09458
#
# Velocity S-wave (km/s) = 4.12516 4.64264 4.39153
# Velocity P-wave (km/s) = 6.79295 7.97539 7.40780
#
# Compressibility (1/GPa) = 0.01492411
#
# Stress axis : x y z
#
# Youngs Moduli (GPa) = 202.11686 101.74019 155.03172
#
# Poissons Ratio (x) = 0.17032 0.26384
# Poissons Ratio (y) = 0.33835 -0.03480
# Poissons Ratio (z) = 0.34397 -0.02284
#
# Static dielectric constant tensor:
#      x y z
#    x 2.152520 -0.171630 -0.091000 
#    y -0.171630 2.039960 -0.233930 
#    z -0.091000 -0.233930 1.947730 
# 
# From -- ./inp_files/377524.got.cif
#   From: 2010.05.17/outbox.cif.g08.bks.cpg/sg2_189_cif.got.tgz:377524.got - 2010.06.03 11:33:40.
