data_PCOD9034854
_publ_section_title
;
Structure prediction by ZEFSAII (Michael W. Deem and Ramdas Pophale) SiO2 
 PCOD9034854
Probable space group: P -1
;
_chemical_formula_sum "Si O2"
_cell_formula_units_Z 15
_cell_length_a 9.340981
_cell_length_b 18.561692
_cell_length_c 5.278067
_cell_angle_alpha 64.077637
_cell_angle_beta 75.393610
_cell_angle_gamma 42.642494
_cell_volume 553.930997
_symmetry_space_group_name_H-M "P -1"
_symmetry_group_IT_number 2
_symmetry_cell_setting 'triclinic'
loop_
_space_group_symop_operation_xyz
x,y,z
-x,-y,-z
loop_
_atom_site_type_symbol
_atom_site_label
_atom_site_fract_x
_atom_site_fract_y
_atom_site_fract_z
Si Si1 0.235217 0.011387 0.823880
Si Si2 0.439396 0.616876 0.878936
Si Si3 0.469779 0.211124 0.259706
Si Si4 0.836293 0.106624 0.594355
Si Si5 0.500000 0.000000 0.500000
Si Si6 0.654867 0.602536 0.301396
Si Si7 0.973764 0.752679 0.823303
Si Si8 0.045425 0.343087 0.518382
O O1 0.419556 0.917415 0.665414
O O2 0.350669 0.048492 0.764922
O O3 0.247591 0.931244 0.125258
O O4 0.990100 0.103339 0.701374
O O5 0.546041 0.618606 0.585602
O O6 0.182941 0.724022 0.829332
O O7 0.500000 0.500000 0.000000
O O8 0.538056 0.602055 0.126036
O O9 0.648403 0.193690 0.345071
O O10 0.281577 0.273958 0.440263
O O11 0.380825 0.292020 0.931006
O O12 0.000000 0.000000 0.500000
O O13 0.255084 0.115787 0.292824
O O14 0.896025 0.479250 0.377935
O O15 0.021923 0.688657 0.635122
O O16 0.970201 0.692331 0.150211
#
# Coordination Sequence:
#
# PCOD9034854 Si02
#       8
#     2   2   2   2   1   2   2   2
#     4  10  22  45  68  98 144 184 248 299 359 430
#     4  12  24  48  73 107 144 193 238 302 356 440
#     4  11  25  41  68 102 142 186 240 296 361 441
#     4   9  21  43  68  93 139 190 235 305 351 427
#     4  12  26  46  72 110 140 202 238 310 368 434
#     4  12  26  43  78 105 144 190 243 291 373 429
#     4  12  27  45  75 101 152 184 244 292 373 426
#     4  12  24  49  69 106 142 193 228 312 353 436
#
# _framework density 27.079181999999999
#
# number of rings (size 3 to 8) (size 9 to 14) (size 15 to 20)
#    0.000    0.800    4.000    2.400    3.733    2.667 
#    4.800    2.667    0.000    0.000    0.000    0.000 
#    0.000    0.000    0.000    0.000    0.000    0.000 
#
# Total GULP energy -83821.345325 kJ/mol
# GULP energy per Si atom -5588.089688 kJ/mol
# Density = 2.701755 g / cm^3
# Si number density = 27.079182 Si / 1000 Ang^3
#
#
#
# Elastic Constant Matrix: (Units=GPa)
#
#
# Indices 1 2 3 4 5 6 
#
# 1 117.4332 27.7451 18.4371 13.4877 4.8884 -25.0988
# 2 27.7451 160.0668 68.2316 -22.9614 1.1464 -15.9962
# 3 18.4371 68.2316 130.9168 -11.9936 -4.9016 9.0399
# 4 13.4877 -22.9614 -11.9936 54.3532 -4.1398 -6.7066
# 5 4.8884 1.1464 -4.9016 -4.1398 43.5502 8.9637
# 6 -25.0988 -15.9962 9.0399 -6.7066 8.9637 56.2657
#
#
#
# Elastic Compliance Matrix: (Units=1/GPa)
#
#
# Indices 1 2 3 4 5 6 
#
# 1 0.010478 -0.001079 -0.001611 -0.003031 -0.002579 0.004676
# 2 -0.001079 0.009270 -0.004636 0.003512 -0.001027 0.003481
# 3 -0.001611 -0.004636 0.010697 0.000480 0.002392 -0.004079
# 4 -0.003031 0.003512 0.000480 0.021107 0.001943 0.001776
# 5 -0.002579 -0.001027 0.002392 0.001943 0.024877 -0.005559
# 6 0.004676 0.003481 -0.004079 0.001776 -0.005559 0.022601
#
#
# Mechanical properties :
#
#
# Convention : Reuss Voigt Hill
#
# Bulk Modulus (GPa) = 63.31782 70.80492 67.06137
# Shear Modulus (GPa) = 42.03628 50.43402 46.23515
#
# Velocity S-wave (km/s) = 3.94426 4.32031 4.13656
# Velocity P-wave (km/s) = 6.64651 7.14779 6.90170
#
# Compressibility (1/GPa) = 0.01579334
#
# Stress axis : x y z
#
# Youngs Moduli (GPa) = 95.43806 107.87705 93.48490
#
# Poissons Ratio (x) = 0.11637 0.15056
# Poissons Ratio (y) = 0.10295 0.43344
# Poissons Ratio (z) = 0.15370 0.50017
#
# Static dielectric constant tensor:
#      x y z
#    x 2.547080 0.186280 -0.199700 
#    y 0.186280 2.213230 -0.233960 
#    z -0.199700 -0.233960 2.300640 
# 
# From -- ./inp_files/84968.got.cif
#   From: 2010.05.17/outbox.cif.g08.bks.cpg/sg2_43_cif.got.tgz:84968.got - 2010.06.03 11:33:40.
