data_PCOD9034905
_publ_section_title
;
Structure prediction by ZEFSAII (Michael W. Deem and Ramdas Pophale) SiO2 
 PCOD9034905
Probable space group: P -1
;
_chemical_formula_sum "Si O2"
_cell_formula_units_Z 16
_cell_length_a 11.300018
_cell_length_b 5.922712
_cell_length_c 12.965217
_cell_angle_alpha 71.985668
_cell_angle_beta 110.472302
_cell_angle_gamma 120.030196
_cell_volume 694.088382
_symmetry_space_group_name_H-M "P -1"
_symmetry_group_IT_number 2
_symmetry_cell_setting 'triclinic'
loop_
_space_group_symop_operation_xyz
x,y,z
-x,-y,-z
loop_
_atom_site_type_symbol
_atom_site_label
_atom_site_fract_x
_atom_site_fract_y
_atom_site_fract_z
Si Si1 0.117220 0.048325 0.787716
Si Si2 0.321114 0.443330 0.457306
Si Si3 0.568130 0.817924 0.591792
Si Si4 0.149540 0.369327 0.952893
Si Si5 0.103563 0.456753 0.139990
Si Si6 0.379844 0.883709 0.240917
Si Si7 0.615576 0.085820 0.114579
Si Si8 0.934147 0.707719 0.464293
O O1 0.108845 0.140537 0.889219
O O2 0.262390 0.015967 0.832379
O O3 0.115665 0.243557 0.670622
O O4 0.970572 0.780261 0.766667
O O5 0.442802 0.532970 0.568226
O O6 0.305081 0.169628 0.442134
O O7 0.358986 0.644556 0.345314
O O8 0.193446 0.448324 0.476123
O O9 0.500000 0.000000 0.500000
O O10 0.608446 0.884198 0.711737
O O11 0.028582 0.469854 0.914488
O O12 0.290948 0.601324 0.917301
O O13 0.161200 0.331915 0.083490
O O14 0.235744 0.742329 0.154333
O O15 0.519447 0.990820 0.200241
O O16 0.500000 0.000000 0.000000
O O17 0.000000 0.500000 0.500000
O O18 0.000000 0.000000 0.500000
#
# Coordination Sequence:
#
# PCOD9034905 Si02
#       8
#     2   2   2   2   2   2   2   2
#     4  11  27  45  76 101 149 201 249 312 394 447
#     4  10  24  44  65 103 141 188 252 306 377 454
#     4   9  22  41  68  95 135 187 238 306 374 452
#     4  10  23  45  72  97 146 188 247 304 386 451
#     4  10  22  45  69 103 137 190 243 312 373 466
#     4  11  23  40  72  99 142 187 245 307 381 447
#     4  11  25  46  69 112 147 190 246 317 380 469
#     4  12  31  49  78 114 157 203 265 323 380 467
#
# _framework density 23.051818000000001
#
# number of rings (size 3 to 8) (size 9 to 14) (size 15 to 20)
#    0.000    1.500    1.250    1.125   15.750    1.500 
#    2.250    0.000    0.000    0.000    0.000    0.000 
#    0.000    0.000    0.000    0.000    0.000    0.000 
#
# Total GULP energy -89070.166904 kJ/mol
# GULP energy per Si atom -5566.885431 kJ/mol
# Density = 2.299935 g / cm^3
# Si number density = 23.051818 Si / 1000 Ang^3
#
#
#
# Elastic Constant Matrix: (Units=GPa)
#
#
# Indices 1 2 3 4 5 6 
#
# 1 164.0647 50.2035 53.0884 -3.3025 -35.6030 0.0731
# 2 50.2035 72.7750 21.7810 11.3686 -16.7471 8.5841
# 3 53.0884 21.7810 79.2679 5.4531 -23.3242 -5.2498
# 4 -3.3025 11.3686 5.4531 43.6813 -3.4302 -5.7318
# 5 -35.6030 -16.7471 -23.3242 -3.4302 42.4009 -3.4893
# 6 0.0731 8.5841 -5.2498 -5.7318 -3.4893 42.8178
#
#
#
# Elastic Compliance Matrix: (Units=1/GPa)
#
#
# Indices 1 2 3 4 5 6 
#
# 1 0.010101 -0.005370 -0.004104 0.003202 0.004473 0.001349
# 2 -0.005370 0.019680 -0.001211 -0.005861 0.001735 -0.004728
# 3 -0.004104 -0.001211 0.017718 -0.001384 0.005934 0.002720
# 4 0.003202 -0.005861 -0.001384 0.025598 0.002061 0.004594
# 5 0.004473 0.001735 0.005934 0.002061 0.031723 0.003233
# 6 0.001349 -0.004728 0.002720 0.004594 0.003233 0.025512
#
#
# Mechanical properties :
#
#
# Convention : Reuss Voigt Hill
#
# Bulk Modulus (GPa) = 38.27021 62.91705 50.59363
# Shear Modulus (GPa) = 31.16984 38.51564 34.84274
#
# Velocity S-wave (km/s) = 3.68117 4.09201 3.89201
# Velocity P-wave (km/s) = 5.89117 7.04834 6.49557
#
# Compressibility (1/GPa) = 0.02612998
#
# Stress axis : x y z
#
# Youngs Moduli (GPa) = 99.00214 50.81272 56.43879
#
# Poissons Ratio (x) = 0.27285 0.23163
# Poissons Ratio (y) = 0.53161 0.06834
# Poissons Ratio (z) = 0.40632 0.06153
#
# Static dielectric constant tensor:
#      x y z
#    x 1.953100 0.022850 0.085290 
#    y 0.022850 2.013900 0.071420 
#    z 0.085290 0.071420 2.036160 
# 
# From -- ./inp_files/410297.got.cif
#   From: 2010.05.17/outbox.cif.g08.bks.cpg/sg2_206_cif.got.tgz:410297.got - 2010.06.03 11:33:40.
