data_PCOD9034508
_publ_section_title
;
Structure prediction by ZEFSAII (Michael W. Deem and Ramdas Pophale) SiO2 
 PCOD9034508
Probable space group: P -1
;
_chemical_formula_sum "Si O2"
_cell_formula_units_Z 14
_cell_length_a 15.350005
_cell_length_b 5.565854
_cell_length_c 14.156595
_cell_angle_alpha 70.535018
_cell_angle_beta 149.491769
_cell_angle_gamma 112.498486
_cell_volume 567.259246
_symmetry_space_group_name_H-M "P -1"
_symmetry_group_IT_number 2
_symmetry_cell_setting 'triclinic'
loop_
_space_group_symop_operation_xyz
x,y,z
-x,-y,-z
loop_
_atom_site_type_symbol
_atom_site_label
_atom_site_fract_x
_atom_site_fract_y
_atom_site_fract_z
Si Si1 0.345718 0.769840 0.920360
Si Si2 0.723695 0.269384 0.343061
Si Si3 0.609852 0.731878 0.874621
Si Si4 0.213322 0.574284 0.179691
Si Si5 0.861984 0.152897 0.109083
Si Si6 0.478369 0.653447 0.565815
Si Si7 0.222969 0.295095 0.499315
O O1 0.262158 0.631820 0.764167
O O2 0.203938 0.856175 0.843883
O O3 0.417796 0.565197 0.079721
O O4 0.500000 0.000000 0.000000
O O5 0.517711 0.163290 0.186334
O O6 0.778041 0.495632 0.443452
O O7 0.799511 0.006124 0.452257
O O8 0.546803 0.805502 0.704707
O O9 0.812160 0.858955 0.062777
O O10 0.322416 0.733594 0.348085
O O11 0.344414 0.367479 0.321812
O O12 0.232325 0.700218 0.076276
O O13 0.000000 0.500000 0.000000
O O14 0.058998 0.295785 0.278626
O O15 0.384666 0.388211 0.567348
#
# Coordination Sequence:
#
# PCOD9034508 Si02
#       7
#     2   2   2   2   2   2   2
#     4  12  24  45  74 107 146 200 252 311 377 455
#     4  11  25  44  73 103 150 198 251 304 385 443
#     4  11  24  44  74 108 142 197 252 310 380 455
#     4  11  22  45  75 109 145 199 251 315 379 455
#     4  12  26  43  74 106 153 190 259 312 375 454
#     4  10  22  44  77 103 153 191 253 312 385 446
#     4  11  26  47  71 113 152 201 250 320 372 457
#
# _framework density 24.680076
#
# number of rings (size 3 to 8) (size 9 to 14) (size 15 to 20)
#    0.000    0.857    4.286    3.000    4.000    1.714 
#    0.000    2.143    0.000    0.000    0.000    0.000 
#    0.000    0.000    0.000    0.000    0.000    0.000 
#
# Total GULP energy -77981.887558 kJ/mol
# GULP energy per Si atom -5570.134826 kJ/mol
# Density = 2.462390 g / cm^3
# Si number density = 24.680076 Si / 1000 Ang^3
#
#
#
# Elastic Constant Matrix: (Units=GPa)
#
#
# Indices 1 2 3 4 5 6 
#
# 1 139.0355 34.8111 59.7892 9.6243 -23.0036 2.4300
# 2 34.8111 99.6435 50.3842 -0.3572 -9.0306 0.9223
# 3 59.7892 50.3842 155.3335 20.2486 -14.6210 -4.4187
# 4 9.6243 -0.3572 20.2486 33.0367 5.8459 -7.4502
# 5 -23.0036 -9.0306 -14.6210 5.8459 47.4858 2.1038
# 6 2.4300 0.9223 -4.4187 -7.4502 2.1038 31.3650
#
#
#
# Elastic Compliance Matrix: (Units=1/GPa)
#
#
# Indices 1 2 3 4 5 6 
#
# 1 0.009535 -0.001709 -0.002491 -0.002381 0.003903 -0.001867
# 2 -0.001709 0.012569 -0.003802 0.002941 0.000033 -0.000077
# 3 -0.002491 -0.003802 0.009491 -0.005365 0.001642 0.000257
# 4 -0.002381 0.002941 -0.005365 0.037539 -0.007255 0.008746
# 5 0.003903 0.000033 0.001642 -0.007255 0.024507 -0.003439
# 6 -0.001867 -0.000077 0.000257 0.008746 -0.003439 0.034374
#
#
# Mechanical properties :
#
#
# Convention : Reuss Voigt Hill
#
# Bulk Modulus (GPa) = 64.13678 75.99794 70.06736
# Shear Modulus (GPa) = 33.50872 38.97937 36.24405
#
# Velocity S-wave (km/s) = 3.68873 3.97846 3.83633
# Velocity P-wave (km/s) = 6.64725 7.20863 6.93362
#
# Compressibility (1/GPa) = 0.01559168
#
# Stress axis : x y z
#
# Youngs Moduli (GPa) = 104.88065 79.55873 105.36458
#
# Poissons Ratio (x) = 0.13596 0.26247
# Poissons Ratio (y) = 0.17924 0.40055
# Poissons Ratio (z) = 0.26126 0.30245
#
# Static dielectric constant tensor:
#      x y z
#    x 2.002550 -0.087160 -0.024150 
#    y -0.087160 2.106130 0.078530 
#    z -0.024150 0.078530 2.078200 
# 
# From -- ./inp_files/525652.got.cif
#   From: 2010.05.17/outbox.cif.g08.bks.cpg/sg2_263_cif.got.tgz:525652.got - 2010.06.03 11:33:40.
