data_PCOD9034633
_publ_section_title
;
Structure prediction by ZEFSAII (Michael W. Deem and Ramdas Pophale) SiO2 
 PCOD9034633
Probable space group: P -1
;
_chemical_formula_sum "Si O2"
_cell_formula_units_Z 14
_cell_length_a 8.330407
_cell_length_b 9.638267
_cell_length_c 10.964664
_cell_angle_alpha 139.984476
_cell_angle_beta 107.332500
_cell_angle_gamma 71.412779
_cell_volume 534.446761
_symmetry_space_group_name_H-M "P -1"
_symmetry_group_IT_number 2
_symmetry_cell_setting 'triclinic'
loop_
_space_group_symop_operation_xyz
x,y,z
-x,-y,-z
loop_
_atom_site_type_symbol
_atom_site_label
_atom_site_fract_x
_atom_site_fract_y
_atom_site_fract_z
Si Si1 0.819460 0.279615 0.935701
Si Si2 0.299541 0.446175 0.697908
Si Si3 0.246187 0.929216 0.004978
Si Si4 0.389427 0.106628 0.804831
Si Si5 0.835200 0.946014 0.505975
Si Si6 0.396126 0.653676 0.482792
Si Si7 0.822503 0.641960 0.887593
O O1 0.876583 0.082320 0.914806
O O2 0.785761 0.155669 0.722870
O O3 0.682365 0.453449 0.093185
O O4 0.986205 0.393286 0.048873
O O5 0.163441 0.276382 0.562752
O O6 0.465899 0.337120 0.589523
O O7 0.244941 0.686407 0.784491
O O8 0.422068 0.924861 0.119479
O O9 0.223231 0.142180 0.061373
O O10 0.330307 0.881912 0.684051
O O11 0.323538 0.091398 0.642212
O O12 0.291169 0.313924 0.988407
O O13 0.000000 0.000000 0.500000
O O14 0.500000 0.500000 0.500000
O O15 0.238295 0.552426 0.329025
#
# Coordination Sequence:
#
# PCOD9034633 Si02
#       7
#     2   2   2   2   2   2   2
#     4  10  25  45  70 101 143 183 228 290 348 407
#     4  10  26  46  68 102 140 187 233 287 348 411
#     4  10  22  45  66 104 136 178 231 282 355 411
#     4  12  25  43  72 101 139 189 230 289 342 413
#     4  12  27  48  69 103 144 184 244 284 339 422
#     4  12  25  44  74 107 140 180 235 286 353 424
#     4  12  22  45  72 104 145 179 224 297 355 409
#
# _framework density 26.195309999999999
#
# number of rings (size 3 to 8) (size 9 to 14) (size 15 to 20)
#    0.857    0.000    4.286    2.571    2.000    4.571 
#    0.000    1.429    0.000    0.000    0.000    0.000 
#    0.000    0.000    0.000    0.000    0.000    0.000 
#
# Total GULP energy -78050.592536 kJ/mol
# GULP energy per Si atom -5575.042324 kJ/mol
# Density = 2.613569 g / cm^3
# Si number density = 26.195310 Si / 1000 Ang^3
#
#
#
# Elastic Constant Matrix: (Units=GPa)
#
#
# Indices 1 2 3 4 5 6 
#
# 1 107.2634 21.2865 45.3977 -10.2596 15.8158 19.4114
# 2 21.2865 89.3724 17.8995 5.8696 10.8256 25.2472
# 3 45.3977 17.8995 141.9336 14.2316 23.4603 6.4725
# 4 -10.2596 5.8696 14.2316 46.3684 10.9693 8.2166
# 5 15.8158 10.8256 23.4603 10.9693 49.4434 0.6667
# 6 19.4114 25.2472 6.4725 8.2166 0.6667 34.0157
#
#
#
# Elastic Compliance Matrix: (Units=1/GPa)
#
#
# Indices 1 2 3 4 5 6 
#
# 1 0.013833 -0.000004 -0.004066 0.006764 -0.003879 -0.008675
# 2 -0.000004 0.014762 -0.000996 0.001051 -0.002844 -0.010963
# 3 -0.004066 -0.000996 0.009055 -0.003462 -0.002040 0.002212
# 4 0.006764 0.001051 -0.003462 0.027433 -0.006696 -0.010477
# 5 -0.003879 -0.002844 -0.002040 -0.006696 0.024463 0.005850
# 6 -0.008675 -0.010963 0.002212 -0.010477 0.005850 0.044481
#
#
# Mechanical properties :
#
#
# Convention : Reuss Voigt Hill
#
# Bulk Modulus (GPa) = 36.33865 56.41520 46.37693
# Shear Modulus (GPa) = 32.60923 42.89787 37.75355
#
# Velocity S-wave (km/s) = 3.53207 4.05114 3.80048
# Velocity P-wave (km/s) = 5.52597 6.59283 6.08283
#
# Compressibility (1/GPa) = 0.02751891
#
# Stress axis : x y z
#
# Youngs Moduli (GPa) = 72.29020 67.74170 110.43752
#
# Poissons Ratio (x) = 0.00029 0.44899
# Poissons Ratio (y) = 0.00031 0.10997
# Poissons Ratio (z) = 0.29390 0.06745
#
# Static dielectric constant tensor:
#      x y z
#    x 2.171490 0.028560 0.027660 
#    y 0.028560 2.384960 -0.050340 
#    z 0.027660 -0.050340 2.014900 
# 
# From -- ./inp_files/386353.got.cif
#   From: 2010.05.17/outbox.cif.g08.bks.cpg/sg2_194_cif.got.tgz:386353.got - 2010.06.03 11:33:40.
