data_PCOD9034487
_publ_section_title
;
Structure prediction by ZEFSAII (Michael W. Deem and Ramdas Pophale) SiO2 
 PCOD9034487
Probable space group: P -1
;
_chemical_formula_sum "Si O2"
_cell_formula_units_Z 16
_cell_length_a 13.521162
_cell_length_b 9.337967
_cell_length_c 23.846272
_cell_angle_alpha 84.300829
_cell_angle_beta 21.977569
_cell_angle_gamma 97.181834
_cell_volume 910.952145
_symmetry_space_group_name_H-M "P -1"
_symmetry_group_IT_number 2
_symmetry_cell_setting 'triclinic'
loop_
_space_group_symop_operation_xyz
x,y,z
-x,-y,-z
loop_
_atom_site_type_symbol
_atom_site_label
_atom_site_fract_x
_atom_site_fract_y
_atom_site_fract_z
Si Si1 0.321639 0.093193 0.251223
Si Si2 0.555533 0.863682 0.947848
Si Si3 0.022768 0.587438 0.570668
Si Si4 0.918234 0.692363 0.502403
Si Si5 0.316102 0.692646 0.840021
Si Si6 0.797427 0.513800 0.814022
Si Si7 0.223491 0.902351 0.603505
Si Si8 0.366232 0.965921 0.399518
O O1 0.221641 0.898784 0.329541
O O2 0.985677 0.079380 0.433236
O O3 0.428463 0.126849 0.128848
O O4 0.581063 0.244499 0.151841
O O5 0.900346 0.898079 0.783128
O O6 0.261442 0.668278 0.130754
O O7 0.500000 0.000000 0.000000
O O8 0.074430 0.434827 0.540616
O O9 0.890972 0.607562 0.580654
O O10 0.800596 0.536186 0.744409
O O11 0.337767 0.787286 0.408842
O O12 0.606553 0.692901 0.659816
O O13 0.345897 0.857924 0.788685
O O14 0.000000 0.500000 0.000000
O O15 0.106190 0.699502 0.666809
O O16 0.500000 0.500000 0.000000
O O17 0.500000 0.000000 0.500000
O O18 0.367875 0.991193 0.463859
#
# Coordination Sequence:
#
# PCOD9034487 Si02
#       8
#     2   2   2   2   2   2   2   2
#     4  10  18  35  56  73 106 142 182 211 257 324
#     4  10  20  35  56  82 107 140 183 223 267 320
#     4  10  17  32  57  79  98 134 181 217 253 309
#     4  10  19  32  57  77 101 133 180 217 260 313
#     4  11  21  34  50  79 108 137 177 220 270 311
#     4   9  19  33  53  79 110 137 179 216 264 318
#     4   9  19  35  55  77 106 142 179 218 267 318
#     4   9  17  35  55  73  99 142 179 212 250 330
#
# _framework density 17.564039000000001
#
# number of rings (size 3 to 8) (size 9 to 14) (size 15 to 20)
#    0.000    2.250    2.500    2.250    0.000    1.000 
#    2.250    3.750    0.000    0.000    0.000    0.000 
#    0.000    0.000    0.000    0.000    0.000    0.000 
#
# Total GULP energy -89071.482681 kJ/mol
# GULP energy per Si atom -5566.967668 kJ/mol
# Density = 1.752406 g / cm^3
# Si number density = 17.564039 Si / 1000 Ang^3
#
#
#
# Elastic Constant Matrix: (Units=GPa)
#
#
# Indices 1 2 3 4 5 6 
#
# 1 89.5074 41.4900 50.4677 -19.0937 4.8102 18.4490
# 2 41.4900 131.0501 36.7488 -21.0018 3.0837 9.4109
# 3 50.4677 36.7488 75.6722 -27.1339 9.5485 14.3317
# 4 -19.0937 -21.0018 -27.1339 28.0870 -0.3869 2.2552
# 5 4.8102 3.0837 9.5485 -0.3869 28.3031 -5.8125
# 6 18.4490 9.4109 14.3317 2.2552 -5.8125 26.5340
#
#
#
# Elastic Compliance Matrix: (Units=1/GPa)
#
#
# Indices 1 2 3 4 5 6 
#
# 1 0.020161 -0.002576 -0.008768 0.004016 -0.002012 -0.009150
# 2 -0.002576 0.009574 -0.000846 0.004717 -0.000600 -0.001680
# 3 -0.008768 -0.000846 0.034483 0.027942 -0.013265 -0.017509
# 4 0.004016 0.004717 0.027942 0.070969 -0.015610 -0.029009
# 5 -0.002012 -0.000600 -0.013265 -0.015610 0.044058 0.019754
# 6 -0.009150 -0.001680 -0.017509 -0.029009 0.019754 0.060896
#
#
# Mechanical properties :
#
#
# Convention : Reuss Voigt Hill
#
# Bulk Modulus (GPa) = 25.10216 61.51585 43.30901
# Shear Modulus (GPa) = 17.99859 27.75303 22.87581
#
# Velocity S-wave (km/s) = 3.20463 3.97937 3.61282
# Velocity P-wave (km/s) = 5.29299 7.49757 6.48958
#
# Compressibility (1/GPa) = 0.03983721
#
# Stress axis : x y z
#
# Youngs Moduli (GPa) = 49.60085 104.44687 29.00021
#
# Poissons Ratio (x) = 0.26908 0.25427
# Poissons Ratio (y) = 0.12778 0.02454
# Poissons Ratio (z) = 0.43489 0.08838
#
# Static dielectric constant tensor:
#      x y z
#    x 1.616600 -0.015680 0.029300 
#    y -0.015680 1.649890 -0.029450 
#    z 0.029300 -0.029450 1.600750 
# 
# From -- ./inp_files/189794.got.cif
#   From: 2010.05.17/outbox.cif.g08.bks.cpg/sg2_95_cif.got.tgz:189794.got - 2010.06.03 11:33:40.
