data_PCOD9034571
_publ_section_title
;
Structure prediction by ZEFSAII (Michael W. Deem and Ramdas Pophale) SiO2 
 PCOD9034571
Probable space group: P -1
;
_chemical_formula_sum "Si O2"
_cell_formula_units_Z 14
_cell_length_a 16.703007
_cell_length_b 12.939121
_cell_length_c 9.183517
_cell_angle_alpha 50.785982
_cell_angle_beta 118.205646
_cell_angle_gamma 152.847313
_cell_volume 678.717888
_symmetry_space_group_name_H-M "P -1"
_symmetry_group_IT_number 2
_symmetry_cell_setting 'triclinic'
loop_
_space_group_symop_operation_xyz
x,y,z
-x,-y,-z
loop_
_atom_site_type_symbol
_atom_site_label
_atom_site_fract_x
_atom_site_fract_y
_atom_site_fract_z
Si Si1 0.860848 0.711096 0.074953
Si Si2 0.119611 0.568846 0.216958
Si Si3 0.577559 0.556021 0.862212
Si Si4 0.645060 0.778352 0.298159
Si Si5 0.610145 0.227436 0.507764
Si Si6 0.999385 0.288851 0.070177
Si Si7 0.298622 0.015356 0.562165
O O1 0.756423 0.504909 0.300680
O O2 0.717530 0.616181 0.948024
O O3 0.930235 0.689801 0.035980
O O4 0.000000 0.000000 0.000000
O O5 0.275904 0.712054 0.329131
O O6 0.124887 0.501721 0.121977
O O7 0.113358 0.720755 0.059361
O O8 0.915893 0.285525 0.359755
O O9 0.419281 0.301250 0.850480
O O10 0.669141 0.800865 0.649205
O O11 0.500000 0.500000 0.000000
O O12 0.500000 0.500000 0.500000
O O13 0.648031 0.908429 0.290011
O O14 0.855356 0.003177 0.273384
O O15 0.446857 0.106188 0.542495
O O16 0.500000 0.000000 0.500000
#
# Coordination Sequence:
#
# PCOD9034571 Si02
#       7
#     2   2   2   2   2   2   2
#     4  12  26  41  66 105 136 179 226 282 353 407
#     4  10  24  47  69  97 138 182 228 289 335 409
#     4  11  21  39  64  94 136 170 217 278 332 404
#     4   9  21  39  65  91 124 169 216 276 332 392
#     4  12  27  43  69 102 137 186 230 278 346 411
#     4  10  23  45  69  97 133 178 228 284 345 401
#     4  10  22  45  64  97 134 176 227 274 342 400
#
# _framework density 20.627127999999999
#
# number of rings (size 3 to 8) (size 9 to 14) (size 15 to 20)
#    0.000    1.429    1.429    2.571    6.000    3.429 
#    0.000    5.714    0.000    0.000    0.000    0.000 
#    0.000    0.000    0.000    0.000    0.000    0.000 
#
# Total GULP energy -78024.264788 kJ/mol
# GULP energy per Si atom -5573.161771 kJ/mol
# Density = 2.058018 g / cm^3
# Si number density = 20.627128 Si / 1000 Ang^3
#
#
#
# Elastic Constant Matrix: (Units=GPa)
#
#
# Indices 1 2 3 4 5 6 
#
# 1 104.6935 4.1448 29.3955 19.1407 -12.4949 -9.0080
# 2 4.1448 83.9089 26.1191 14.9465 6.6171 -18.2576
# 3 29.3955 26.1191 83.3922 5.9121 2.0241 -10.1896
# 4 19.1407 14.9465 5.9121 43.3812 5.2720 -3.6650
# 5 -12.4949 6.6171 2.0241 5.2720 37.2848 7.7716
# 6 -9.0080 -18.2576 -10.1896 -3.6650 7.7716 23.8708
#
#
#
# Elastic Compliance Matrix: (Units=1/GPa)
#
#
# Indices 1 2 3 4 5 6 
#
# 1 0.012525 0.001877 -0.004464 -0.005962 0.004563 0.001855
# 2 0.001877 0.016956 -0.004007 -0.004554 -0.004149 0.012618
# 3 -0.004464 -0.004007 0.015088 0.001824 -0.002438 0.002765
# 4 -0.005962 -0.004554 0.001824 0.027754 -0.005438 0.001077
# 5 0.004563 -0.004149 -0.002438 -0.005438 0.032914 -0.014043
# 6 0.001855 0.012618 0.002765 0.001077 -0.014043 0.058161
#
#
# Mechanical properties :
#
#
# Convention : Reuss Voigt Hill
#
# Bulk Modulus (GPa) = 31.86693 43.47928 37.67311
# Shear Modulus (GPa) = 26.73102 35.06305 30.89703
#
# Velocity S-wave (km/s) = 3.60379 4.12740 3.87445
# Velocity P-wave (km/s) = 5.72704 6.62105 6.19021
#
# Compressibility (1/GPa) = 0.03138049
#
# Stress axis : x y z
#
# Youngs Moduli (GPa) = 79.83935 58.97510 66.27814
#
# Poissons Ratio (x) = -0.11069 0.29588
# Poissons Ratio (y) = -0.14985 0.26558
# Poissons Ratio (z) = 0.35643 0.23632
#
# Static dielectric constant tensor:
#      x y z
#    x 1.774670 -0.016280 -0.043020 
#    y -0.016280 1.822300 -0.076120 
#    z -0.043020 -0.076120 1.807950 
# 
# From -- ./inp_files/183849.got.cif
#   From: 2010.05.17/outbox.cif.g08.bks.cpg/sg2_92_cif.got.tgz:183849.got - 2010.06.03 11:33:40.
