data_PCOD9034907
_publ_section_title
;
Structure prediction by ZEFSAII (Michael W. Deem and Ramdas Pophale) SiO2 
 PCOD9034907
Probable space group: P -1
;
_chemical_formula_sum "Si O2"
_cell_formula_units_Z 14
_cell_length_a 8.554275
_cell_length_b 18.319355
_cell_length_c 10.285950
_cell_angle_alpha 137.662755
_cell_angle_beta 147.927371
_cell_angle_gamma 54.277853
_cell_volume 572.359564
_symmetry_space_group_name_H-M "P -1"
_symmetry_group_IT_number 2
_symmetry_cell_setting 'triclinic'
loop_
_space_group_symop_operation_xyz
x,y,z
-x,-y,-z
loop_
_atom_site_type_symbol
_atom_site_label
_atom_site_fract_x
_atom_site_fract_y
_atom_site_fract_z
Si Si1 0.683784 0.321142 0.214261
Si Si2 0.157789 0.172505 0.257902
Si Si3 0.718600 0.432170 0.142381
Si Si4 0.195153 0.605648 0.334361
Si Si5 0.193232 0.049525 0.367743
Si Si6 0.892363 0.807307 0.269963
Si Si7 0.820116 0.711315 0.829728
O O1 0.540395 0.380244 0.073288
O O2 0.828414 0.398093 0.530668
O O3 0.904745 0.249306 0.206625
O O4 0.450423 0.238321 0.014635
O O5 0.253674 0.152490 0.447116
O O6 0.302501 0.233949 0.314364
O O7 0.051797 0.048800 0.976875
O O8 0.000000 0.500000 0.500000
O O9 0.883478 0.346853 0.062953
O O10 0.500000 0.500000 0.000000
O O11 0.547352 0.623822 0.570936
O O12 0.073652 0.714826 0.337157
O O13 0.000000 0.500000 0.000000
O O14 0.087805 0.088739 0.485075
O O15 0.500000 0.000000 0.500000
O O16 0.922895 0.804467 0.132363
#
# Coordination Sequence:
#
# PCOD9034907 Si02
#       7
#     2   2   2   2   2   2   2
#     4  10  23  44  68 101 139 191 243 305 361 457
#     4  10  22  45  69 103 140 177 244 300 373 440
#     4  11  28  45  72 105 145 195 257 308 375 439
#     4  11  26  45  72 100 149 199 247 302 373 443
#     4  11  22  41  77 103 134 188 235 301 376 454
#     4  11  24  42  71 101 142 184 247 293 371 436
#     4  10  27  46  67 106 148 188 245 314 363 440
#
# _framework density 24.460148
#
# number of rings (size 3 to 8) (size 9 to 14) (size 15 to 20)
#    0.000    1.429    2.857    0.000    8.000    2.857 
#    0.000    5.714    0.000    0.000    0.000    0.000 
#    0.000    0.000    0.000    0.000    0.000    0.000 
#
# Total GULP energy -78173.720778 kJ/mol
# GULP energy per Si atom -5583.837198 kJ/mol
# Density = 2.440448 g / cm^3
# Si number density = 24.460148 Si / 1000 Ang^3
#
#
#
# Elastic Constant Matrix: (Units=GPa)
#
#
# Indices 1 2 3 4 5 6 
#
# 1 129.1290 40.3747 38.1932 7.7063 -25.5559 -9.8860
# 2 40.3747 99.5954 20.4782 -8.8367 -13.2717 8.6091
# 3 38.1932 20.4782 90.6042 13.9946 -28.5175 -9.0926
# 4 7.7063 -8.8367 13.9946 32.8937 -5.4969 -12.6528
# 5 -25.5559 -13.2717 -28.5175 -5.4969 32.3768 5.4979
# 6 -9.8860 8.6091 -9.0926 -12.6528 5.4979 37.4024
#
#
#
# Elastic Compliance Matrix: (Units=1/GPa)
#
#
# Indices 1 2 3 4 5 6 
#
# 1 0.010548 -0.003554 -0.001763 -0.001064 0.004776 0.002115
# 2 -0.003554 0.012756 -0.001641 0.004091 0.002218 -0.003217
# 3 -0.001763 -0.001641 0.016640 -0.004939 0.011657 0.000573
# 4 -0.001064 0.004091 -0.004939 0.037995 0.001196 0.010254
# 5 0.004776 0.002218 0.011657 0.001196 0.046519 -0.002848
# 6 0.002115 -0.003217 0.000573 0.010254 -0.002848 0.032062
#
#
# Mechanical properties :
#
#
# Convention : Reuss Voigt Hill
#
# Bulk Modulus (GPa) = 38.42216 57.49121 47.95669
# Shear Modulus (GPa) = 27.91540 35.22008 31.56774
#
# Velocity S-wave (km/s) = 3.38192 3.79871 3.59636
# Velocity P-wave (km/s) = 5.56705 6.54182 6.07402
#
# Compressibility (1/GPa) = 0.02602665
#
# Stress axis : x y z
#
# Youngs Moduli (GPa) = 94.80825 78.39712 60.09438
#
# Poissons Ratio (x) = 0.27864 0.10595
# Poissons Ratio (y) = 0.33697 0.09863
# Poissons Ratio (z) = 0.16716 0.12867
#
# Static dielectric constant tensor:
#      x y z
#    x 2.542050 -0.216230 -0.143820 
#    y -0.216230 2.129700 0.076000 
#    z -0.143820 0.076000 2.089770 
# 
# From -- ./inp_files/405630.got.cif
#   From: 2010.05.17/outbox.cif.g08.bks.cpg/sg2_203_cif.got.tgz:405630.got - 2010.06.03 11:33:40.
