data_PCOD9034262
_publ_section_title
;
Structure prediction by ZEFSAII (Michael W. Deem and Ramdas Pophale) SiO2 
 PCOD9034262
Probable space group: P -1
;
_chemical_formula_sum "Si O2"
_cell_formula_units_Z 15
_cell_length_a 7.792877
_cell_length_b 13.648175
_cell_length_c 8.074785
_cell_angle_alpha 100.790498
_cell_angle_beta 52.463479
_cell_angle_gamma 72.930611
_cell_volume 570.079464
_symmetry_space_group_name_H-M "P -1"
_symmetry_group_IT_number 2
_symmetry_cell_setting 'triclinic'
loop_
_space_group_symop_operation_xyz
x,y,z
-x,-y,-z
loop_
_atom_site_type_symbol
_atom_site_label
_atom_site_fract_x
_atom_site_fract_y
_atom_site_fract_z
Si Si1 0.500000 0.000000 0.000000
Si Si2 0.052428 0.101227 0.542035
Si Si3 0.419524 0.828866 0.768633
Si Si4 0.097041 0.365547 0.423925
Si Si5 0.670560 0.843285 0.327631
Si Si6 0.788969 0.334348 0.139183
Si Si7 0.519077 0.752128 0.137442
Si Si8 0.409850 0.589692 0.345928
O O1 0.377684 0.930509 0.950171
O O2 0.775956 0.905415 0.717403
O O3 0.757871 0.204978 0.758492
O O4 0.213060 0.096824 0.608239
O O5 0.000000 0.000000 0.500000
O O6 0.699520 0.710047 0.580971
O O7 0.434466 0.864754 0.584985
O O8 0.239897 0.778263 0.881892
O O9 0.000000 0.500000 0.500000
O O10 0.840092 0.367880 0.601525
O O11 0.264955 0.306958 0.143765
O O12 0.550651 0.860033 0.218189
O O13 0.923789 0.716603 0.102731
O O14 0.598296 0.449702 0.183007
O O15 0.709335 0.378303 0.389066
O O16 0.541022 0.660745 0.235549
#
# Coordination Sequence:
#
# PCOD9034262 Si02
#       8
#     1   2   2   2   2   2   2   2
#     4  10  22  44  72  92 132 176 224 290 344 408
#     4  11  25  47  72 102 136 181 233 295 357 406
#     4  11  23  44  68  98 134 182 232 287 354 406
#     4  12  25  42  66 102 143 183 228 290 348 416
#     4  11  24  43  71  99 138 185 229 290 342 416
#     4  11  22  40  64  98 139 182 227 281 337 409
#     4  12  26  45  70 105 141 181 239 285 342 429
#     4  11  24  39  65  99 139 185 229 279 343 409
#
# _framework density 26.312118999999999
#
# number of rings (size 3 to 8) (size 9 to 14) (size 15 to 20)
#    0.000    0.800    4.000    4.000    1.867    1.600 
#    0.000    2.667    0.000    0.000    0.000    0.000 
#    0.000    0.000    0.000    0.000    0.000    0.000 
#
# Total GULP energy -83528.559298 kJ/mol
# GULP energy per Si atom -5568.570620 kJ/mol
# Density = 2.625223 g / cm^3
# Si number density = 26.312119 Si / 1000 Ang^3
#
#
#
# Elastic Constant Matrix: (Units=GPa)
#
#
# Indices 1 2 3 4 5 6 
#
# 1 90.0471 5.8182 18.0220 -6.5067 -3.1727 32.5682
# 2 5.8182 75.5733 32.9862 3.7676 -2.9830 27.2451
# 3 18.0220 32.9862 150.1538 1.9377 -1.0132 13.0299
# 4 -6.5067 3.7676 1.9377 31.2911 13.6145 -2.2407
# 5 -3.1727 -2.9830 -1.0132 13.6145 47.6722 -1.4787
# 6 32.5682 27.2451 13.0299 -2.2407 -1.4787 46.4098
#
#
#
# Elastic Compliance Matrix: (Units=1/GPa)
#
#
# Indices 1 2 3 4 5 6 
#
# 1 0.016086 0.004181 -0.001729 0.001850 0.000359 -0.013157
# 2 0.004181 0.019566 -0.003576 -0.003049 0.001878 -0.013504
# 3 -0.001729 -0.003576 0.007554 -0.000286 -0.000060 0.001176
# 4 0.001850 -0.003049 -0.000286 0.037543 -0.010732 0.002043
# 5 0.000359 0.001878 -0.000060 -0.010732 0.024148 -0.001087
# 6 -0.013157 -0.013504 0.001176 0.002043 -0.001087 0.038441
#
#
# Mechanical properties :
#
#
# Convention : Reuss Voigt Hill
#
# Bulk Modulus (GPa) = 24.41503 47.71411 36.06457
# Shear Modulus (GPa) = 31.39931 42.33782 36.86856
#
# Velocity S-wave (km/s) = 3.45822 4.01566 3.74732
# Velocity P-wave (km/s) = 5.02443 6.29873 5.69732
#
# Compressibility (1/GPa) = 0.04095837
#
# Stress axis : x y z
#
# Youngs Moduli (GPa) = 62.16529 51.10995 132.37611
#
# Poissons Ratio (x) = -0.21371 0.22888
# Poissons Ratio (y) = -0.25994 0.47341
# Poissons Ratio (z) = 0.10749 0.18278
#
# Static dielectric constant tensor:
#      x y z
#    x 2.367050 -0.068490 0.057930 
#    y -0.068490 2.296080 -0.068290 
#    z 0.057930 -0.068290 2.158510 
# 
# From -- ./inp_files/202417.got.cif
#   From: 2010.05.17/outbox.cif.g08.bks.cpg/sg2_102_cif.got.tgz:202417.got - 2010.06.03 11:33:40.
