data_PCOD9034815
_publ_section_title
;
Structure prediction by ZEFSAII (Michael W. Deem and Ramdas Pophale) SiO2 
 PCOD9034815
Probable space group: P -1
;
_chemical_formula_sum "Si O2"
_cell_formula_units_Z 16
_cell_length_a 7.905380
_cell_length_b 14.388020
_cell_length_c 12.156308
_cell_angle_alpha 125.032795
_cell_angle_beta 51.742051
_cell_angle_gamma 86.864675
_cell_volume 684.657501
_symmetry_space_group_name_H-M "P -1"
_symmetry_group_IT_number 2
_symmetry_cell_setting 'triclinic'
loop_
_space_group_symop_operation_xyz
x,y,z
-x,-y,-z
loop_
_atom_site_type_symbol
_atom_site_label
_atom_site_fract_x
_atom_site_fract_y
_atom_site_fract_z
Si Si1 0.180278 0.564641 0.174019
Si Si2 0.430464 0.397398 0.314920
Si Si3 0.000245 0.018605 0.670155
Si Si4 0.083951 0.701552 0.087352
Si Si5 0.152657 0.357487 0.197255
Si Si6 0.783943 0.084840 0.046241
Si Si7 0.304147 0.109262 0.350355
Si Si8 0.574428 0.888836 0.252802
O O1 0.171120 0.448613 0.159199
O O2 0.076146 0.609735 0.121185
O O3 0.958959 0.718329 0.431565
O O4 0.500000 0.500000 0.000000
O O5 0.306815 0.350920 0.240871
O O6 0.611147 0.260975 0.233303
O O7 0.170199 0.547626 0.575539
O O8 0.644370 0.406098 0.170846
O O9 0.314722 0.908527 0.423610
O O10 0.825340 0.971671 0.665806
O O11 0.883018 0.182566 0.794118
O O12 0.954395 0.026340 0.824386
O O13 0.816072 0.806551 0.189616
O O14 0.288728 0.206188 0.978386
O O15 0.543320 0.070345 0.144708
O O16 0.000000 0.000000 0.000000
O O17 0.451116 0.051376 0.372468
#
# Coordination Sequence:
#
# PCOD9034815 Si02
#       8
#     2   2   2   2   2   2   2   2
#     4  12  24  42  69  99 134 179 228 277 341 398
#     4  10  22  45  68  93 135 183 219 277 339 409
#     4  11  24  41  68 101 136 172 228 277 335 401
#     4  11  24  42  69  98 139 176 228 280 346 395
#     4  11  24  44  69  95 137 177 229 275 340 408
#     4  11  24  43  69 103 137 177 222 281 341 398
#     4  12  24  43  71 102 132 179 232 277 331 406
#     4  12  25  43  70 103 134 180 222 287 344 398
#
# _framework density 23.369349
#
# number of rings (size 3 to 8) (size 9 to 14) (size 15 to 20)
#    0.000    0.750    3.750    4.875    1.750    1.000 
#    0.000    1.250    0.000    0.000    0.000    0.000 
#    0.000    0.000    0.000    0.000    0.000    0.000 
#
# Total GULP energy -89518.490230 kJ/mol
# GULP energy per Si atom -5594.905639 kJ/mol
# Density = 2.331616 g / cm^3
# Si number density = 23.369349 Si / 1000 Ang^3
#
#
#
# Elastic Constant Matrix: (Units=GPa)
#
#
# Indices 1 2 3 4 5 6 
#
# 1 38.3823 8.0083 37.2388 -2.3781 -14.2286 -3.3750
# 2 8.0083 95.3724 20.3677 -5.0969 -8.3384 -13.1744
# 3 37.2388 20.3677 169.3226 -15.8523 -17.1406 -1.9498
# 4 -2.3781 -5.0969 -15.8523 44.2379 1.1890 -10.1582
# 5 -14.2286 -8.3384 -17.1406 1.1890 30.0502 -1.5177
# 6 -3.3750 -13.1744 -1.9498 -10.1582 -1.5177 33.8556
#
#
#
# Elastic Compliance Matrix: (Units=1/GPa)
#
#
# Indices 1 2 3 4 5 6 
#
# 1 0.038538 0.000105 -0.006956 0.000161 0.014514 0.004181
# 2 0.000105 0.011779 -0.000869 0.002197 0.003005 0.005338
# 3 -0.006956 -0.000869 0.007849 0.002354 0.000858 0.000165
# 4 0.000161 0.002197 0.002354 0.025687 0.001455 0.008779
# 5 0.014514 0.003005 0.000858 0.001455 0.041667 0.004970
# 6 0.004181 0.005338 0.000165 0.008779 0.004970 0.034898
#
#
# Mechanical properties :
#
#
# Convention : Reuss Voigt Hill
#
# Bulk Modulus (GPa) = 23.40413 48.25632 35.83023
# Shear Modulus (GPa) = 26.30189 37.45957 31.88073
#
# Velocity S-wave (km/s) = 3.35847 4.00801 3.69753
# Velocity P-wave (km/s) = 5.00756 6.48946 5.79607
#
# Compressibility (1/GPa) = 0.04272749
#
# Stress axis : x y z
#
# Youngs Moduli (GPa) = 25.94811 84.89362 127.40101
#
# Poissons Ratio (x) = -0.00887 0.88617
# Poissons Ratio (y) = -0.00271 0.11066
# Poissons Ratio (z) = 0.18049 0.07374
#
# Static dielectric constant tensor:
#      x y z
#    x 1.971350 -0.027020 0.004620 
#    y -0.027020 1.882350 0.002120 
#    z 0.004620 0.002120 1.894730 
# 
# From -- ./inp_files/399256.got.cif
#   From: 2010.05.17/outbox.cif.g08.bks.cpg/sg2_200_cif.got.tgz:399256.got - 2010.06.03 11:33:40.
