data_PCOD9034161
_publ_section_title
;
Structure prediction by ZEFSAII (Michael W. Deem and Ramdas Pophale) SiO2 
 PCOD9034161
Probable space group: P -1
;
_chemical_formula_sum "Si O2"
_cell_formula_units_Z 14
_cell_length_a 7.369887
_cell_length_b 13.960981
_cell_length_c 13.768371
_cell_angle_alpha 141.048706
_cell_angle_beta 135.325727
_cell_angle_gamma 37.755330
_cell_volume 527.971790
_symmetry_space_group_name_H-M "P -1"
_symmetry_group_IT_number 2
_symmetry_cell_setting 'triclinic'
loop_
_space_group_symop_operation_xyz
x,y,z
-x,-y,-z
loop_
_atom_site_type_symbol
_atom_site_label
_atom_site_fract_x
_atom_site_fract_y
_atom_site_fract_z
Si Si1 0.813423 0.759024 0.028393
Si Si2 0.236807 0.907536 0.794862
Si Si3 0.603469 0.591872 0.036646
Si Si4 0.210972 0.537770 0.702514
Si Si5 0.432673 0.220986 0.392286
Si Si6 0.128682 0.641928 0.467751
Si Si7 0.233108 0.151119 0.693409
O O1 0.846061 0.790634 0.178535
O O2 0.030335 0.545864 0.930176
O O3 0.915374 0.877818 0.101126
O O4 0.478863 0.833056 0.916158
O O5 0.421053 0.839586 0.707117
O O6 0.057645 0.806448 0.641819
O O7 0.457669 0.571689 0.868161
O O8 0.500000 0.500000 0.000000
O O9 0.526195 0.789249 0.186248
O O10 0.355960 0.405230 0.561270
O O11 0.910167 0.730389 0.717013
O O12 0.069100 0.444980 0.644365
O O13 0.630793 0.060456 0.416899
O O14 0.500000 0.500000 0.500000
O O15 0.016906 0.742306 0.400157
#
# Coordination Sequence:
#
# PCOD9034161 Si02
#       7
#     2   2   2   2   2   2   2
#     4  10  24  43  70 104 134 183 230 280 339 402
#     4  10  22  44  71  98 141 179 230 282 335 403
#     4  12  24  43  66  97 142 179 222 289 337 409
#     4  11  25  43  68  99 140 181 223 284 352 396
#     4  10  24  45  67 104 135 178 233 278 342 405
#     4  12  24  43  71  98 135 182 225 282 337 409
#     4  11  26  44  73 103 134 181 237 274 338 411
#
# _framework density 26.516567999999999
#
# number of rings (size 3 to 8) (size 9 to 14) (size 15 to 20)
#    0.000    1.143    2.857    2.143    4.000    5.714 
#    0.000    0.000    0.000    0.000    0.000    0.000 
#    0.000    0.000    0.000    0.000    0.000    0.000 
#
# Total GULP energy -78270.752411 kJ/mol
# GULP energy per Si atom -5590.768029 kJ/mol
# Density = 2.645621 g / cm^3
# Si number density = 26.516568 Si / 1000 Ang^3
#
#
#
# Elastic Constant Matrix: (Units=GPa)
#
#
# Indices 1 2 3 4 5 6 
#
# 1 90.3743 34.5566 -9.2965 -13.8719 -4.1153 14.9995
# 2 34.5566 144.1324 31.2283 -22.1689 -2.3884 24.5005
# 3 -9.2965 31.2283 109.5577 -23.1091 5.0711 -0.7328
# 4 -13.8719 -22.1689 -23.1091 47.6329 9.3133 -5.7436
# 5 -4.1153 -2.3884 5.0711 9.3133 36.1222 0.5120
# 6 14.9995 24.5005 -0.7328 -5.7436 0.5120 34.9885
#
#
#
# Elastic Compliance Matrix: (Units=1/GPa)
#
#
# Indices 1 2 3 4 5 6 
#
# 1 0.013452 -0.002699 0.002626 0.003520 0.000124 -0.003246
# 2 -0.002699 0.009267 -0.002585 0.001590 0.000331 -0.005130
# 3 0.002626 -0.002585 0.011502 0.005974 -0.003054 0.001951
# 4 0.003520 0.001590 0.005974 0.027361 -0.007417 0.002103
# 5 0.000124 0.000331 -0.003054 -0.007417 0.030089 -0.002007
# 6 -0.003246 -0.005130 0.001951 0.002103 -0.002007 0.033980
#
#
# Mechanical properties :
#
#
# Convention : Reuss Voigt Hill
#
# Bulk Modulus (GPa) = 34.59644 50.78236 42.68940
# Shear Modulus (GPa) = 35.56128 42.92045 39.24087
#
# Velocity S-wave (km/s) = 3.66607 4.02758 3.85107
# Velocity P-wave (km/s) = 5.56736 6.38916 5.99236
#
# Compressibility (1/GPa) = 0.02890471
#
# Stress axis : x y z
#
# Youngs Moduli (GPa) = 74.33962 107.90657 86.94322
#
# Poissons Ratio (x) = 0.29123 -0.22829
# Poissons Ratio (y) = 0.20063 0.22474
# Poissons Ratio (z) = -0.19519 0.27892
#
# Static dielectric constant tensor:
#      x y z
#    x 2.210230 0.071380 0.047880 
#    y 0.071380 2.139010 -0.015520 
#    z 0.047880 -0.015520 2.107750 
# 
# From -- ./inp_files/505632.got.cif
#   From: 2010.05.17/outbox.cif.g08.bks.cpg/sg2_253_cif.got.tgz:505632.got - 2010.06.03 11:33:40.
