data_PCOD9034988
_publ_section_title
;
Structure prediction by ZEFSAII (Michael W. Deem and Ramdas Pophale) SiO2 
 PCOD9034988
Probable space group: P -1
;
_chemical_formula_sum "Si O2"
_cell_formula_units_Z 16
_cell_length_a 11.758784
_cell_length_b 17.787301
_cell_length_c 9.492137
_cell_angle_alpha 126.569529
_cell_angle_beta 127.682216
_cell_angle_gamma 29.124281
_cell_volume 754.818698
_symmetry_space_group_name_H-M "P -1"
_symmetry_group_IT_number 2
_symmetry_cell_setting 'triclinic'
loop_
_space_group_symop_operation_xyz
x,y,z
-x,-y,-z
loop_
_atom_site_type_symbol
_atom_site_label
_atom_site_fract_x
_atom_site_fract_y
_atom_site_fract_z
Si Si1 0.139401 0.025765 0.974301
Si Si2 0.383541 0.339612 0.057828
Si Si3 0.123027 0.234790 0.115253
Si Si4 0.110948 0.037503 0.298389
Si Si5 0.134190 0.557485 0.590054
Si Si6 0.092938 0.435514 0.207589
Si Si7 0.655200 0.385471 0.358602
Si Si8 0.592491 0.872379 0.530192
O O1 0.083838 0.145281 0.971341
O O2 0.094342 0.071142 0.156231
O O3 0.410592 0.845627 0.974396
O O4 0.974405 0.023459 0.811811
O O5 0.232762 0.421602 0.180190
O O6 0.518129 0.368014 0.166172
O O7 0.189013 0.414966 0.877001
O O8 0.157156 0.291707 0.082418
O O9 0.355507 0.118977 0.263539
O O10 0.906848 0.395164 0.224543
O O11 0.914582 0.209704 0.408105
O O12 0.382880 0.906413 0.406826
O O13 0.184610 0.428210 0.420214
O O14 0.296970 0.552134 0.638176
O O15 0.859067 0.710364 0.498616
O O16 0.500000 0.500000 0.500000
O O17 0.500000 0.000000 0.500000
#
# Coordination Sequence:
#
# PCOD9034988 Si02
#       8
#     2   2   2   2   2   2   2   2
#     4  10  19  35  58  83 116 151 193 240 282 345
#     4  10  24  36  61  84 112 165 194 229 295 350
#     4  10  22  36  60  87 117 150 194 250 288 326
#     4  10  18  33  58  88 115 145 198 237 283 341
#     4  10  20  35  60  85 116 148 192 239 290 334
#     4  11  22  41  54  85 124 152 196 239 288 351
#     4  11  19  36  60  87 114 148 198 240 283 349
#     4  10  17  32  57  92 104 144 196 230 286 333
#
# _framework density 21.197143000000001
#
# number of rings (size 3 to 8) (size 9 to 14) (size 15 to 20)
#    0.750    1.000    5.000    1.125    0.000    0.500 
#    0.000    1.875    0.000    1.500    0.000    0.000 
#    0.000    0.000    0.000    0.000    0.000    0.000 
#
# Total GULP energy -89138.264099 kJ/mol
# GULP energy per Si atom -5571.141506 kJ/mol
# Density = 2.114890 g / cm^3
# Si number density = 21.197143 Si / 1000 Ang^3
#
#
#
# Elastic Constant Matrix: (Units=GPa)
#
#
# Indices 1 2 3 4 5 6 
#
# 1 87.3384 23.7605 21.3472 -4.8445 37.4462 -7.5034
# 2 23.7605 34.0772 9.7656 4.8898 12.0457 -15.9024
# 3 21.3472 9.7656 42.9370 9.9382 18.9936 -5.8993
# 4 -4.8445 4.8898 9.9382 26.2601 1.5841 5.3050
# 5 37.4462 12.0457 18.9936 1.5841 34.9756 6.0779
# 6 -7.5034 -15.9024 -5.8993 5.3050 6.0779 31.3756
#
#
#
# Elastic Compliance Matrix: (Units=1/GPa)
#
#
# Indices 1 2 3 4 5 6 
#
# 1 0.025485 -0.005502 0.000332 0.005689 -0.027161 0.007668
# 2 -0.005502 0.063603 0.012958 -0.024721 -0.029446 0.043241
# 3 0.000332 0.012958 0.042101 -0.021299 -0.030915 0.024153
# 4 0.005689 -0.024721 -0.021299 0.056442 0.016276 -0.027870
# 5 -0.027161 -0.029446 -0.030915 0.016276 0.092176 -0.047840
# 6 0.007668 0.043241 0.024153 -0.027870 -0.047840 0.074143
#
#
# Mechanical properties :
#
#
# Convention : Reuss Voigt Hill
#
# Bulk Modulus (GPa) = 6.81353 30.45548 18.63450
# Shear Modulus (GPa) = 12.91006 25.82088 19.36547
#
# Velocity S-wave (km/s) = 2.47057 3.49396 3.02584
# Velocity P-wave (km/s) = 3.37040 5.53858 4.58451
#
# Compressibility (1/GPa) = 0.14676674
#
# Stress axis : x y z
#
# Youngs Moduli (GPa) = 39.23921 15.72259 23.75232
#
# Poissons Ratio (x) = 0.08650 -0.00790
# Poissons Ratio (y) = 0.21589 -0.30779
# Poissons Ratio (z) = -0.01305 -0.20374
#
# Static dielectric constant tensor:
#      x y z
#    x 1.865420 -0.035390 -0.042020 
#    y -0.035390 1.773780 0.049370 
#    z -0.042020 0.049370 1.839500 
# 
# From -- ./inp_files/435987.got.cif
#   From: 2010.05.17/outbox.cif.g08.bks.cpg/sg2_218_cif.got.tgz:435987.got - 2010.06.03 11:33:40.
