data_PCOD9034771
_publ_section_title
;
Structure prediction by ZEFSAII (Michael W. Deem and Ramdas Pophale) SiO2 
 PCOD9034771
Probable space group: P -1
;
_chemical_formula_sum "Si O2"
_cell_formula_units_Z 14
_cell_length_a 15.241689
_cell_length_b 9.161522
_cell_length_c 20.155237
_cell_angle_alpha 29.297207
_cell_angle_beta 28.252358
_cell_angle_gamma 48.277310
_cell_volume 584.363277
_symmetry_space_group_name_H-M "P -1"
_symmetry_group_IT_number 2
_symmetry_cell_setting 'triclinic'
loop_
_space_group_symop_operation_xyz
x,y,z
-x,-y,-z
loop_
_atom_site_type_symbol
_atom_site_label
_atom_site_fract_x
_atom_site_fract_y
_atom_site_fract_z
Si Si1 0.398306 0.200029 0.951314
Si Si2 0.887616 0.216783 0.959993
Si Si3 0.969501 0.824511 0.410507
Si Si4 0.577835 0.807049 0.429542
Si Si5 0.837549 0.017158 0.547611
Si Si6 0.277567 0.051091 0.582872
Si Si7 0.421562 0.049835 0.843169
O O1 0.543307 0.586381 0.698181
O O2 0.366667 0.074402 0.946417
O O3 0.500000 0.000000 0.000000
O O4 0.193376 0.112111 0.163972
O O5 0.677470 0.072609 0.200460
O O6 0.788682 0.149167 0.978987
O O7 0.050525 0.600057 0.703984
O O8 0.000000 0.000000 0.000000
O O9 0.000000 0.500000 0.500000
O O10 0.906848 0.967178 0.331213
O O11 0.824337 0.785197 0.585274
O O12 0.739487 0.938902 0.330965
O O13 0.526423 0.431954 0.594948
O O14 0.365867 0.797434 0.602345
O O15 0.607799 0.940543 0.756567
O O16 0.000000 0.000000 0.500000
#
# Coordination Sequence:
#
# PCOD9034771 Si02
#       7
#     2   2   2   2   2   2   2
#     4  11  23  43  69 103 139 186 236 291 357 423
#     4  12  26  43  74 102 147 188 236 289 363 424
#     4  12  26  43  73  99 141 188 236 289 355 422
#     4  10  22  45  68 101 140 183 232 298 347 423
#     4  12  29  48  73 109 144 190 244 296 361 432
#     4  10  23  42  68  98 141 178 236 289 351 418
#     4  11  26  45  73 104 146 185 240 300 358 424
#
# _framework density 23.957699000000002
#
# number of rings (size 3 to 8) (size 9 to 14) (size 15 to 20)
#    0.000    0.857    2.857    3.000    8.000    0.571 
#    0.000    2.857    0.000    0.000    0.000    0.000 
#    0.000    0.000    0.000    0.000    0.000    0.000 
#
# Total GULP energy -78313.040657 kJ/mol
# GULP energy per Si atom -5593.788618 kJ/mol
# Density = 2.390317 g / cm^3
# Si number density = 23.957699 Si / 1000 Ang^3
#
#
#
# Elastic Constant Matrix: (Units=GPa)
#
#
# Indices 1 2 3 4 5 6 
#
# 1 95.5062 24.0599 -16.7643 -3.8099 -7.4633 -24.1239
# 2 24.0599 116.3804 15.3495 -0.4483 -12.2946 -11.3212
# 3 -16.7643 15.3495 46.8384 -2.4285 6.4200 -1.1678
# 4 -3.8099 -0.4483 -2.4285 34.6007 -7.9550 1.1604
# 5 -7.4633 -12.2946 6.4200 -7.9550 37.3978 4.4338
# 6 -24.1239 -11.3212 -1.1678 1.1604 4.4338 36.9716
#
#
#
# Elastic Compliance Matrix: (Units=1/GPa)
#
#
# Indices 1 2 3 4 5 6 
#
# 1 0.014680 -0.003019 0.006534 0.001776 0.000151 0.008787
# 2 -0.003019 0.010307 -0.004926 0.000268 0.003619 0.000588
# 3 0.006534 -0.004926 0.026160 0.001193 -0.005044 0.004149
# 4 0.001776 0.000268 0.001193 0.030774 0.006844 -0.000508
# 5 0.000151 0.003619 -0.005044 0.006844 0.030618 -0.002839
# 6 0.008787 0.000588 0.004149 -0.000508 -0.002839 0.033449
#
#
# Mechanical properties :
#
#
# Convention : Reuss Voigt Hill
#
# Bulk Modulus (GPa) = 20.69317 33.77947 27.23632
# Shear Modulus (GPa) = 30.31821 37.53269 33.92545
#
# Velocity S-wave (km/s) = 3.56123 3.96235 3.76713
# Velocity P-wave (km/s) = 5.05628 5.92148 5.50590
#
# Compressibility (1/GPa) = 0.04832511
#
# Stress axis : x y z
#
# Youngs Moduli (GPa) = 68.11915 97.02283 38.22693
#
# Poissons Ratio (x) = 0.29292 -0.24978
# Poissons Ratio (y) = 0.20566 0.18830
# Poissons Ratio (z) = -0.44510 0.47791
#
# Static dielectric constant tensor:
#      x y z
#    x 1.899290 0.010240 -0.023380 
#    y 0.010240 1.908170 -0.009860 
#    z -0.023380 -0.009860 1.889040 
# 
# From -- ./inp_files/597295.got.cif
#   From: 2010.05.17/outbox.cif.g08.bks.cpg/sg2_299_cif.got.tgz:597295.got - 2010.06.03 11:33:40.
