data_PCOD9034060
_publ_section_title
;
Structure prediction by ZEFSAII (Michael W. Deem and Ramdas Pophale) SiO2 
 PCOD9034060
Probable space group: P -1
;
_chemical_formula_sum "Si O2"
_cell_formula_units_Z 15
_cell_length_a 10.602529
_cell_length_b 7.881698
_cell_length_c 9.177954
_cell_angle_alpha 60.026095
_cell_angle_beta 81.677933
_cell_angle_gamma 93.443012
_cell_volume 649.502962
_symmetry_space_group_name_H-M "P -1"
_symmetry_group_IT_number 2
_symmetry_cell_setting 'triclinic'
loop_
_space_group_symop_operation_xyz
x,y,z
-x,-y,-z
loop_
_atom_site_type_symbol
_atom_site_label
_atom_site_fract_x
_atom_site_fract_y
_atom_site_fract_z
Si Si1 0.648803 0.542993 0.503750
Si Si2 0.634755 0.916506 0.539292
Si Si3 0.132008 0.974778 0.917878
Si Si4 0.000000 0.500000 0.000000
Si Si5 0.752876 0.617610 0.155224
Si Si6 0.317385 0.781066 0.126449
Si Si7 0.422310 0.200379 0.083439
Si Si8 0.087368 0.878008 0.635942
O O1 0.500000 0.500000 0.500000
O O2 0.661468 0.763656 0.474449
O O3 0.726080 0.503219 0.360785
O O4 0.683433 0.399870 0.686693
O O5 0.613065 0.796223 0.744542
O O6 0.763538 0.081022 0.461810
O O7 0.500000 0.000000 0.500000
O O8 0.227701 0.162213 0.874263
O O9 0.106897 0.964831 0.757843
O O10 0.185831 0.785140 0.055677
O O11 0.000000 0.000000 0.000000
O O12 0.872341 0.587071 0.047458
O O13 0.982116 0.341713 0.214343
O O14 0.630190 0.623514 0.070387
O O15 0.357400 0.980875 0.130767
O O16 0.427972 0.785803 0.984655
O O17 0.000000 0.000000 0.500000
#
# Coordination Sequence:
#
# PCOD9034060 Si02
#       8
#     2   2   2   1   2   2   2   2
#     4  12  25  46  74 114 153 195 254 321 389 463
#     4  12  27  44  75 114 152 196 253 322 391 459
#     4  11  23  47  69 100 144 198 245 304 383 451
#     4  12  28  46  76 110 146 206 256 306 386 458
#     4  11  24  47  72 105 149 192 253 310 374 465
#     4  10  23  41  74 104 145 196 248 307 386 454
#     4  10  22  44  71 101 147 193 242 309 385 446
#     4  12  28  50  74 108 156 198 258 319 383 462
#
# _framework density 23.094584000000001
#
# number of rings (size 3 to 8) (size 9 to 14) (size 15 to 20)
#    0.000    0.800    4.000    2.400    7.467    2.667 
#    0.000    1.333    0.000    0.000    0.000    0.000 
#    0.000    0.000    0.000    0.000    0.000    0.000 
#
# Total GULP energy -83501.781335 kJ/mol
# GULP energy per Si atom -5566.785422 kJ/mol
# Density = 2.304202 g / cm^3
# Si number density = 23.094584 Si / 1000 Ang^3
#
#
#
# Elastic Constant Matrix: (Units=GPa)
#
#
# Indices 1 2 3 4 5 6 
#
# 1 128.4095 34.9948 83.6939 5.9401 15.2707 -21.1955
# 2 34.9948 61.0234 20.2097 -1.5854 4.6486 -18.0441
# 3 83.6939 20.2097 170.5557 8.6967 7.5119 -18.6077
# 4 5.9401 -1.5854 8.6967 44.0734 -11.6920 -5.8506
# 5 15.2707 4.6486 7.5119 -11.6920 43.9786 0.8102
# 6 -21.1955 -18.0441 -18.6077 -5.8506 0.8102 27.1040
#
#
#
# Elastic Compliance Matrix: (Units=1/GPa)
#
#
# Indices 1 2 3 4 5 6 
#
# 1 0.013851 -0.004770 -0.005595 -0.001464 -0.003805 0.003612
# 2 -0.004770 0.022650 0.000901 0.002855 -0.000365 0.012595
# 3 -0.005595 0.000901 0.008756 -0.000624 0.000147 0.002097
# 4 -0.001464 0.002855 -0.000624 0.025736 0.007051 0.005672
# 5 -0.003805 -0.000365 0.000147 0.007051 0.025991 -0.002372
# 6 0.003612 0.012595 0.002097 0.005672 -0.002372 0.050839
#
#
# Mechanical properties :
#
#
# Convention : Reuss Voigt Hill
#
# Bulk Modulus (GPa) = 37.98010 70.86505 54.42257
# Shear Modulus (GPa) = 28.48548 37.77055 33.12802
#
# Velocity S-wave (km/s) = 3.51583 4.04848 3.79152
# Velocity P-wave (km/s) = 5.74130 7.25293 6.54093
#
# Compressibility (1/GPa) = 0.02632958
#
# Stress axis : x y z
#
# Youngs Moduli (GPa) = 72.19759 44.14965 114.20598
#
# Poissons Ratio (x) = 0.21059 0.63901
# Poissons Ratio (y) = 0.34438 -0.10295
# Poissons Ratio (z) = 0.40396 -0.03980
#
# Static dielectric constant tensor:
#      x y z
#    x 1.895400 0.063650 -0.047650 
#    y 0.063650 1.939150 -0.125090 
#    z -0.047650 -0.125090 1.900140 
# 
# From -- ./inp_files/242043.got.cif
#   From: 2010.05.17/outbox.cif.g08.bks.cpg/sg2_122_cif.got.tgz:242043.got - 2010.06.03 11:33:40.
