data_PCOD9034073
_publ_section_title
;
Structure prediction by ZEFSAII (Michael W. Deem and Ramdas Pophale) SiO2 
 PCOD9034073
Probable space group: P -1
;
_chemical_formula_sum "Si O2"
_cell_formula_units_Z 16
_cell_length_a 23.853197
_cell_length_b 8.766906
_cell_length_c 11.171630
_cell_angle_alpha 61.057885
_cell_angle_beta 30.211763
_cell_angle_gamma 42.073019
_cell_volume 696.452380
_symmetry_space_group_name_H-M "P -1"
_symmetry_group_IT_number 2
_symmetry_cell_setting 'triclinic'
loop_
_space_group_symop_operation_xyz
x,y,z
-x,-y,-z
loop_
_atom_site_type_symbol
_atom_site_label
_atom_site_fract_x
_atom_site_fract_y
_atom_site_fract_z
Si Si1 0.253440 0.542910 0.412488
Si Si2 0.149258 0.576179 0.988066
Si Si3 0.823771 0.656126 0.210206
Si Si4 0.880129 0.928284 0.863586
Si Si5 0.845017 0.766579 0.751524
Si Si6 0.359519 0.533174 0.789025
Si Si7 0.233918 0.922841 0.435660
Si Si8 0.507307 0.794139 0.110890
O O1 0.285197 0.316592 0.500627
O O2 0.275915 0.679373 0.409173
O O3 0.062275 0.751569 0.645819
O O4 0.365116 0.439353 0.129873
O O5 0.219392 0.323753 0.022124
O O6 0.153634 0.519608 0.864140
O O7 0.263941 0.591451 0.823000
O O8 0.960643 0.836932 0.269647
O O9 0.785512 0.880140 0.127742
O O10 0.000000 0.500000 0.000000
O O11 0.894872 0.849831 0.728741
O O12 0.772249 0.220154 0.976334
O O13 0.000000 0.500000 0.500000
O O14 0.736697 0.984909 0.768638
O O15 0.500000 0.500000 0.500000
O O16 0.432842 0.299368 0.828433
O O17 0.337578 0.885509 0.366404
O O18 0.500000 0.000000 0.000000
#
# Coordination Sequence:
#
# PCOD9034073 Si02
#       8
#     2   2   2   2   2   2   2   2
#     4  11  24  42  71 100 143 182 237 287 364 413
#     4  10  22  44  72 101 134 187 235 289 349 430
#     4   9  22  41  70 103 137 181 237 291 352 417
#     4  10  22  44  71 103 138 191 235 296 347 435
#     4   9  20  38  70 100 137 175 241 285 350 418
#     4  12  28  47  72 106 146 186 241 296 358 421
#     4  11  23  42  68 101 138 180 234 290 349 428
#     4  12  30  44  69 106 149 185 227 300 362 418
#
# _framework density 22.973573999999999
#
# number of rings (size 3 to 8) (size 9 to 14) (size 15 to 20)
#    0.000    1.500    1.250    1.875   14.000    2.500 
#    0.000    1.250    0.000    0.000    0.000    0.000 
#    0.000    0.000    0.000    0.000    0.000    0.000 
#
# Total GULP energy -89397.946916 kJ/mol
# GULP energy per Si atom -5587.371682 kJ/mol
# Density = 2.292129 g / cm^3
# Si number density = 22.973574 Si / 1000 Ang^3
#
#
#
# Elastic Constant Matrix: (Units=GPa)
#
#
# Indices 1 2 3 4 5 6 
#
# 1 135.0973 15.2269 32.9892 6.8411 -14.9366 16.9186
# 2 15.2269 77.8393 10.6639 5.8039 -6.9596 -1.0607
# 3 32.9892 10.6639 68.2739 -9.1925 -22.5854 -1.2105
# 4 6.8411 5.8039 -9.1925 21.1610 -3.0037 4.6109
# 5 -14.9366 -6.9596 -22.5854 -3.0037 31.1849 -12.1373
# 6 16.9186 -1.0607 -1.2105 4.6109 -12.1373 35.1953
#
#
#
# Elastic Compliance Matrix: (Units=1/GPa)
#
#
# Indices 1 2 3 4 5 6 
#
# 1 0.009578 -0.000989 -0.005976 -0.004658 -0.002374 -0.005048
# 2 -0.000989 0.013776 -0.001635 -0.004356 0.001784 0.002020
# 3 -0.005976 -0.001635 0.027079 0.015189 0.021408 0.009147
# 4 -0.004658 -0.004356 0.015189 0.058539 0.013253 -0.000468
# 5 -0.002374 0.001784 0.021408 0.013253 0.055654 0.019388
# 6 -0.005048 0.002020 0.009147 -0.000468 0.019388 0.037962
#
#
# Mechanical properties :
#
#
# Convention : Reuss Voigt Hill
#
# Bulk Modulus (GPa) = 30.08910 44.33005 37.20957
# Shear Modulus (GPa) = 21.65767 32.33029 26.99398
#
# Velocity S-wave (km/s) = 3.07371 3.75544 3.43155
# Velocity P-wave (km/s) = 5.07174 6.17596 5.65089
#
# Compressibility (1/GPa) = 0.03323463
#
# Stress axis : x y z
#
# Youngs Moduli (GPa) = 104.40236 72.58942 36.92947
#
# Poissons Ratio (x) = 0.07177 0.22069
# Poissons Ratio (y) = 0.10323 0.06036
# Poissons Ratio (z) = 0.62390 0.11865
#
# Static dielectric constant tensor:
#      x y z
#    x 2.138000 -0.018530 0.285740 
#    y -0.018530 1.896180 -0.027080 
#    z 0.285740 -0.027080 2.081970 
# 
# From -- ./inp_files/474173.got.cif
#   From: 2010.05.17/outbox.cif.g08.bks.cpg/sg2_238_cif.got.tgz:474173.got - 2010.06.03 11:33:40.
