data_PCOD9034804
_publ_section_title
;
Structure prediction by ZEFSAII (Michael W. Deem and Ramdas Pophale) SiO2 
 PCOD9034804
Probable space group: P -1
;
_chemical_formula_sum "Si O2"
_cell_formula_units_Z 12
_cell_length_a 5.780325
_cell_length_b 11.595938
_cell_length_c 8.818554
_cell_angle_alpha 56.962570
_cell_angle_beta 71.727694
_cell_angle_gamma 79.874136
_cell_volume 470.527102
_symmetry_space_group_name_H-M "P -1"
_symmetry_group_IT_number 2
_symmetry_cell_setting 'triclinic'
loop_
_space_group_symop_operation_xyz
x,y,z
-x,-y,-z
loop_
_atom_site_type_symbol
_atom_site_label
_atom_site_fract_x
_atom_site_fract_y
_atom_site_fract_z
Si Si1 0.707580 0.511348 0.079509
Si Si2 0.797648 0.120637 0.444822
Si Si3 0.544897 0.632007 0.500928
Si Si4 0.681978 0.023640 0.232813
Si Si5 0.522080 0.238289 0.882635
Si Si6 0.992846 0.232522 0.635207
O O1 0.625754 0.395191 0.300079
O O2 0.646342 0.659240 0.061842
O O3 0.500000 0.500000 0.000000
O O4 0.000000 0.500000 0.000000
O O5 0.770087 0.139852 0.253940
O O6 0.883176 0.211534 0.505113
O O7 0.528427 0.068049 0.581262
O O8 0.000000 0.000000 0.500000
O O9 0.500000 0.500000 0.500000
O O10 0.558712 0.752064 0.282529
O O11 0.808033 0.650660 0.505413
O O12 0.553526 0.096138 0.065458
O O13 0.904832 0.919063 0.234685
O O14 0.803290 0.281568 0.766641
#
# Coordination Sequence:
#
# PCOD9034804 Si02
#       6
#     2   2   2   2   2   2
#     4  11  29  54  79 112 147 204 272 330 392 459
#     4   9  21  41  67 102 161 196 249 305 372 466
#     4  10  26  48  75 105 147 200 259 321 387 453
#     4  10  22  45  68 116 153 203 244 309 391 463
#     4  11  26  45  77 107 152 201 252 324 384 473
#     4  11  23  42  74 112 152 201 252 316 384 464
#
# _framework density 25.503314
#
# number of rings (size 3 to 8) (size 9 to 14) (size 15 to 20)
#    0.000    1.667    0.000    1.500    7.000   12.000 
#    3.000    0.000    0.000    0.000    0.000    0.000 
#    0.000    0.000    0.000    0.000    0.000    0.000 
#
# Total GULP energy -66900.868566 kJ/mol
# GULP energy per Si atom -5575.072381 kJ/mol
# Density = 2.544527 g / cm^3
# Si number density = 25.503314 Si / 1000 Ang^3
#
#
#
# Elastic Constant Matrix: (Units=GPa)
#
#
# Indices 1 2 3 4 5 6 
#
# 1 135.0494 68.3114 57.8848 22.6495 -2.7419 -2.7626
# 2 68.3114 113.4287 38.9695 29.3313 10.9829 -4.3775
# 3 57.8848 38.9695 122.5955 6.3047 23.8646 -2.1102
# 4 22.6495 29.3313 6.3047 38.7908 -12.5364 3.3718
# 5 -2.7419 10.9829 23.8646 -12.5364 66.5535 6.0935
# 6 -2.7626 -4.3775 -2.1102 3.3718 6.0935 65.6545
#
#
#
# Elastic Compliance Matrix: (Units=1/GPa)
#
#
# Indices 1 2 3 4 5 6 
#
# 1 0.012684 -0.006085 -0.004586 -0.001072 0.002991 -0.000242
# 2 -0.006085 0.015807 -0.000710 -0.009930 -0.004632 0.001715
# 3 -0.004586 -0.000710 0.011377 -0.000039 -0.004206 0.000518
# 4 -0.001072 -0.009930 -0.000039 0.037099 0.008912 -0.003441
# 5 0.002991 -0.004632 -0.004206 0.008912 0.019336 -0.002570
# 6 -0.000242 0.001715 0.000518 -0.003441 -0.002570 0.015767
#
#
# Mechanical properties :
#
#
# Convention : Reuss Voigt Hill
#
# Bulk Modulus (GPa) = 58.45428 77.93389 68.19408
# Shear Modulus (GPa) = 35.57854 47.92694 41.75274
#
# Velocity S-wave (km/s) = 3.73910 4.33973 4.05056
# Velocity P-wave (km/s) = 6.45067 7.46563 6.97663
#
# Compressibility (1/GPa) = 0.01710739
#
# Stress axis : x y z
#
# Youngs Moduli (GPa) = 78.84080 63.26260 87.89279
#
# Poissons Ratio (x) = 0.38496 0.40307
# Poissons Ratio (y) = 0.47975 0.06236
# Poissons Ratio (z) = 0.36156 0.04489
#
# Static dielectric constant tensor:
#      x y z
#    x 2.205770 -0.165410 0.072600 
#    y -0.165410 2.297900 -0.061440 
#    z 0.072600 -0.061440 1.969990 
# 
# From -- ./inp_files/131155.got.cif
#   From: 2010.05.17/outbox.cif.g08.bks.cpg/sg2_66_cif.got.tgz:131155.got - 2010.06.03 11:33:40.
