data_PCOD9034116
_publ_section_title
;
Structure prediction by ZEFSAII (Michael W. Deem and Ramdas Pophale) SiO2 
 PCOD9034116
Probable space group: P -1
;
_chemical_formula_sum "Si O2"
_cell_formula_units_Z 11
_cell_length_a 13.839090
_cell_length_b 8.147784
_cell_length_c 5.607398
_cell_angle_alpha 66.177344
_cell_angle_beta 101.444946
_cell_angle_gamma 133.850158
_cell_volume 413.934917
_symmetry_space_group_name_H-M "P -1"
_symmetry_group_IT_number 2
_symmetry_cell_setting 'triclinic'
loop_
_space_group_symop_operation_xyz
x,y,z
-x,-y,-z
loop_
_atom_site_type_symbol
_atom_site_label
_atom_site_fract_x
_atom_site_fract_y
_atom_site_fract_z
Si Si1 0.429481 0.222437 0.105727
Si Si2 0.849190 0.530995 0.037609
Si Si3 0.500000 0.000000 0.000000
Si Si4 0.347170 0.666472 0.543987
Si Si5 0.840025 0.834604 0.521651
Si Si6 0.853855 0.166190 0.993655
O O1 0.508574 0.214714 0.356163
O O2 0.500000 0.500000 0.000000
O O3 0.480138 0.192929 0.903769
O O4 0.268125 0.030021 0.129265
O O5 0.730430 0.331373 0.278603
O O6 0.863910 0.389720 0.932447
O O7 0.806836 0.674880 0.834796
O O8 0.001708 0.722373 0.102545
O O9 0.619525 0.175260 0.760882
O O10 0.246400 0.382447 0.589186
O O11 0.826143 0.021630 0.312701
O O12 0.000000 0.000000 0.500000
#
# Coordination Sequence:
#
# PCOD9034116 Si02
#       6
#     2   2   1   2   2   2
#     4  12  25  48  78 112 150 205 253 315 399 460
#     4  10  24  48  79 109 155 208 252 320 394 449
#     4  12  30  52  72 110 164 198 262 326 376 474
#     4  12  25  51  75 108 152 206 252 323 395 447
#     4  10  22  44  71 110 152 193 253 316 374 466
#     4  10  22  48  77 117 156 195 262 318 378 484
#
# _framework density 26.574225999999999
#
# number of rings (size 3 to 8) (size 9 to 14) (size 15 to 20)
#    0.000    1.091    1.818    3.818    0.000    3.636 
#   13.091   14.545    0.000    1.091    0.000    0.000 
#    0.000    0.000    0.000    0.000    0.000    0.000 
#
# Total GULP energy -61260.989642 kJ/mol
# GULP energy per Si atom -5569.180877 kJ/mol
# Density = 2.651374 g / cm^3
# Si number density = 26.574226 Si / 1000 Ang^3
#
#
#
# Elastic Constant Matrix: (Units=GPa)
#
#
# Indices 1 2 3 4 5 6 
#
# 1 102.6255 43.0805 58.3562 -3.5628 22.3801 27.0158
# 2 43.0805 139.0923 7.6783 -12.7107 13.7142 39.7899
# 3 58.3562 7.6783 107.8110 -24.6850 -14.0790 22.8815
# 4 -3.5628 -12.7107 -24.6850 35.1806 3.1526 12.6036
# 5 22.3801 13.7142 -14.0790 3.1526 38.2979 5.4839
# 6 27.0158 39.7899 22.8815 12.6036 5.4839 70.4474
#
#
#
# Elastic Compliance Matrix: (Units=1/GPa)
#
#
# Indices 1 2 3 4 5 6 
#
# 1 0.029253 -0.008859 -0.023154 -0.016668 -0.021920 0.005995
# 2 -0.008859 0.013078 0.009707 0.013815 0.004350 -0.009953
# 3 -0.023154 0.009707 0.033300 0.027594 0.022040 -0.014072
# 4 -0.016668 0.013815 0.027594 0.057682 0.013300 -0.021729
# 5 -0.021920 0.004350 0.022040 0.013300 0.045390 -0.007122
# 6 0.005995 -0.009953 -0.014072 -0.021729 -0.007122 0.026530
#
#
# Mechanical properties :
#
#
# Convention : Reuss Voigt Hill
#
# Bulk Modulus (GPa) = 32.23834 63.08433 47.66134
# Shear Modulus (GPa) = 19.21709 44.81276 32.01492
#
# Velocity S-wave (km/s) = 2.69206 4.11094 3.47470
# Velocity P-wave (km/s) = 4.67126 6.80614 5.83713
#
# Compressibility (1/GPa) = 0.03101897
#
# Stress axis : x y z
#
# Youngs Moduli (GPa) = 34.18456 76.46348 30.03007
#
# Poissons Ratio (x) = 0.67739 0.69533
# Poissons Ratio (y) = 0.30284 -0.29151
# Poissons Ratio (z) = 0.79152 -0.74226
#
# Static dielectric constant tensor:
#      x y z
#    x 2.249270 -0.196660 0.118730 
#    y -0.196660 2.225330 -0.271670 
#    z 0.118730 -0.271670 1.767570 
# 
# From -- ./inp_files/87096.got.cif
#   From: 2010.05.17/outbox.cif.g08.bks.cpg/sg2_44_cif.got.tgz:87096.got - 2010.06.03 11:33:40.
