data_PCOD9034205
_publ_section_title
;
Structure prediction by ZEFSAII (Michael W. Deem and Ramdas Pophale) SiO2 
 PCOD9034205
Probable space group: P -1
;
_chemical_formula_sum "Si O2"
_cell_formula_units_Z 10
_cell_length_a 9.520924
_cell_length_b 15.526333
_cell_length_c 5.815268
_cell_angle_alpha 59.610418
_cell_angle_beta 83.414836
_cell_angle_gamma 38.529391
_cell_volume 393.682989
_symmetry_space_group_name_H-M "P -1"
_symmetry_group_IT_number 2
_symmetry_cell_setting 'triclinic'
loop_
_space_group_symop_operation_xyz
x,y,z
-x,-y,-z
loop_
_atom_site_type_symbol
_atom_site_label
_atom_site_fract_x
_atom_site_fract_y
_atom_site_fract_z
Si Si1 0.023225 0.431009 0.841251
Si Si2 0.862238 0.265250 0.648201
Si Si3 0.601318 0.361161 0.975663
Si Si4 0.561888 0.059167 0.058814
Si Si5 0.444646 0.735611 0.512419
O O1 0.320586 0.211688 0.074439
O O2 0.000000 0.500000 0.500000
O O3 0.758099 0.523043 0.754909
O O4 0.000000 0.500000 0.000000
O O5 0.856248 0.247353 0.945984
O O6 0.651424 0.480032 0.359219
O O7 0.743232 0.232248 0.620699
O O8 0.135867 0.128415 0.663778
O O9 0.500000 0.500000 0.000000
O O10 0.639718 0.229676 0.253163
O O11 0.570234 0.151336 0.766325
O O12 0.500000 0.000000 0.000000
#
# Coordination Sequence:
#
# PCOD9034205 Si02
#       5
#     2   2   2   2   2
#     4  10  25  49  73 105 151 203 244 301 386 455
#     4  10  22  44  72 102 146 185 253 309 364 441
#     4   9  21  39  71 103 140 189 246 299 376 438
#     4  11  26  45  71 113 152 188 249 318 374 437
#     4  10  23  45  74  99 140 200 244 294 373 451
#
# _framework density 25.401145
#
# number of rings (size 3 to 8) (size 9 to 14) (size 15 to 20)
#    0.000    2.000    0.000    0.600   14.000    2.400 
#   14.400    5.000    0.000    0.000    0.000    0.000 
#    0.000    0.000    0.000    0.000    0.000    0.000 
#
# Total GULP energy -55774.825402 kJ/mol
# GULP energy per Si atom -5577.482540 kJ/mol
# Density = 2.534333 g / cm^3
# Si number density = 25.401145 Si / 1000 Ang^3
#
#
#
# Elastic Constant Matrix: (Units=GPa)
#
#
# Indices 1 2 3 4 5 6 
#
# 1 130.8893 30.3235 8.0409 0.8948 33.2647 6.4176
# 2 30.3235 163.7311 12.0906 -2.1462 39.0388 -18.8041
# 3 8.0409 12.0906 42.2129 11.9848 3.3014 3.2091
# 4 0.8948 -2.1462 11.9848 42.7796 -9.5740 9.5511
# 5 33.2647 39.0388 3.3014 -9.5740 44.7194 -9.5528
# 6 6.4176 -18.8041 3.2091 9.5511 -9.5528 36.3754
#
#
#
# Elastic Compliance Matrix: (Units=1/GPa)
#
#
# Indices 1 2 3 4 5 6 
#
# 1 0.010012 -0.000308 -0.000599 -0.001048 -0.008157 -0.003740
# 2 -0.000308 0.008140 -0.001659 -0.001228 -0.006363 0.003060
# 3 -0.000599 -0.001659 0.026740 -0.007658 -0.002071 -0.001644
# 4 -0.001048 -0.001228 -0.007658 0.028304 0.007349 -0.005276
# 5 -0.008157 -0.006363 -0.002071 0.007349 0.037019 0.006125
# 6 -0.003740 0.003060 -0.001644 -0.005276 0.006125 0.032871
#
#
# Mechanical properties :
#
#
# Convention : Reuss Voigt Hill
#
# Bulk Modulus (GPa) = 25.15179 48.63815 36.89497
# Shear Modulus (GPa) = 30.96517 43.86677 37.41597
#
# Velocity S-wave (km/s) = 3.49527 4.16018 3.84214
# Velocity P-wave (km/s) = 5.11982 6.50121 5.85142
#
# Compressibility (1/GPa) = 0.03975861
#
# Stress axis : x y z
#
# Youngs Moduli (GPa) = 99.88088 122.85515 37.39719
#
# Poissons Ratio (x) = 0.03788 0.02240
# Poissons Ratio (y) = 0.03080 0.06204
# Poissons Ratio (z) = 0.05984 0.20383
#
# Static dielectric constant tensor:
#      x y z
#    x 1.982300 0.026810 0.010880 
#    y 0.026810 2.074960 0.077480 
#    z 0.010880 0.077480 2.362010 
# 
# From -- ./inp_files/29414.got.cif
#   From: 2010.05.17/outbox.cif.g08.bks.cpg/sg2_15_cif.got.tgz:29414.got - 2010.06.03 11:33:40.
