data_PCOD9034320
_publ_section_title
;
Structure prediction by ZEFSAII (Michael W. Deem and Ramdas Pophale) SiO2 
 PCOD9034320
Probable space group: P -1
;
_chemical_formula_sum "Si O2"
_cell_formula_units_Z 14
_cell_length_a 8.778938
_cell_length_b 19.666381
_cell_length_c 16.390426
_cell_angle_alpha 158.277461
_cell_angle_beta 142.091647
_cell_angle_gamma 37.252350
_cell_volume 618.291363
_symmetry_space_group_name_H-M "P -1"
_symmetry_group_IT_number 2
_symmetry_cell_setting 'triclinic'
loop_
_space_group_symop_operation_xyz
x,y,z
-x,-y,-z
loop_
_atom_site_type_symbol
_atom_site_label
_atom_site_fract_x
_atom_site_fract_y
_atom_site_fract_z
Si Si1 0.606165 0.641392 0.339419
Si Si2 0.851772 0.830831 0.537530
Si Si3 0.417790 0.806925 0.757746
Si Si4 0.296556 0.461259 0.558103
Si Si5 0.474249 0.245432 0.835688
Si Si6 0.299054 0.867362 0.964825
Si Si7 0.723689 0.970428 0.364859
O O1 0.857524 0.690243 0.461573
O O2 0.567694 0.655800 0.436632
O O3 0.405671 0.824429 0.418658
O O4 0.568998 0.434371 0.076626
O O5 0.682888 0.770815 0.329823
O O6 0.139804 0.812512 0.609662
O O7 0.715943 0.057952 0.746632
O O8 0.620762 0.646372 0.612175
O O9 0.367170 0.802494 0.828230
O O10 0.500000 0.000000 0.000000
O O11 0.336878 0.669753 0.807839
O O12 0.000000 0.500000 0.500000
O O13 0.275483 0.214126 0.786254
O O14 0.521353 0.956363 0.192315
O O15 0.000000 0.000000 0.000000
O O16 0.000000 0.000000 0.500000
#
# Coordination Sequence:
#
# PCOD9034320 Si02
#       7
#     2   2   2   2   2   2   2
#     4  11  23  44  73 101 140 194 241 297 373 436
#     4  10  24  45  69 106 143 184 243 306 360 440
#     4  12  27  44  70 107 147 187 248 302 365 436
#     4  12  26  45  73 105 143 198 248 302 371 440
#     4  10  22  44  73 101 141 192 239 294 377 435
#     4  12  25  50  74 106 150 195 246 303 370 446
#     4  11  25  42  70 110 147 189 240 305 365 441
#
# _framework density 22.643045999999998
#
# number of rings (size 3 to 8) (size 9 to 14) (size 15 to 20)
#    0.000    0.857    1.429    6.000    6.000    1.714 
#    0.000    0.000    0.000    0.000    0.000    0.000 
#    0.000    0.000    0.000    0.000    0.000    0.000 
#
# Total GULP energy -78025.548194 kJ/mol
# GULP energy per Si atom -5573.253442 kJ/mol
# Density = 2.259151 g / cm^3
# Si number density = 22.643046 Si / 1000 Ang^3
#
#
#
# Elastic Constant Matrix: (Units=GPa)
#
#
# Indices 1 2 3 4 5 6 
#
# 1 138.9013 56.8635 72.2667 -11.7020 7.4644 -13.2869
# 2 56.8635 69.3232 60.0545 -5.8321 8.3387 -0.9159
# 3 72.2667 60.0545 197.5887 16.6691 28.8482 -6.8038
# 4 -11.7020 -5.8321 16.6691 36.8646 9.6988 8.4168
# 5 7.4644 8.3387 28.8482 9.6988 51.4717 -1.5682
# 6 -13.2869 -0.9159 -6.8038 8.4168 -1.5682 42.5308
#
#
#
# Elastic Compliance Matrix: (Units=1/GPa)
#
#
# Indices 1 2 3 4 5 6 
#
# 1 0.011983 -0.007618 -0.002267 0.002943 0.000293 0.002645
# 2 -0.007618 0.026008 -0.005537 0.005368 -0.001133 -0.003810
# 3 -0.002267 -0.005537 0.008414 -0.005072 -0.002491 0.001430
# 4 0.002943 0.005368 -0.005072 0.034070 -0.005078 -0.006706
# 5 0.000293 -0.001133 -0.002491 -0.005078 0.021967 0.001484
# 6 0.002645 -0.003810 0.001430 -0.006706 0.001484 0.025867
#
#
# Mechanical properties :
#
#
# Convention : Reuss Voigt Hill
#
# Bulk Modulus (GPa) = 64.26602 87.13140 75.69871
# Shear Modulus (GPa) = 30.42456 40.61533 35.51994
#
# Velocity S-wave (km/s) = 3.66957 4.23983 3.96497
# Velocity P-wave (km/s) = 6.81162 7.90773 7.38005
#
# Compressibility (1/GPa) = 0.01556032
#
# Stress axis : x y z
#
# Youngs Moduli (GPa) = 83.45413 38.44923 118.84874
#
# Poissons Ratio (x) = 0.29289 0.26946
# Poissons Ratio (y) = 0.63572 0.65812
# Poissons Ratio (z) = 0.18921 0.21291
#
# Static dielectric constant tensor:
#      x y z
#    x 2.061740 0.017280 -0.011730 
#    y 0.017280 1.934120 -0.036180 
#    z -0.011730 -0.036180 1.857400 
# 
# From -- ./inp_files/562837.got.cif
#   From: 2010.05.17/outbox.cif.g08.bks.cpg/sg2_282_cif.got.tgz:562837.got - 2010.06.03 11:33:40.
