data_PCOD9034175
_publ_section_title
;
Structure prediction by ZEFSAII (Michael W. Deem and Ramdas Pophale) SiO2 
 PCOD9034175
Probable space group: P -1
;
_chemical_formula_sum "Si O2"
_cell_formula_units_Z 16
_cell_length_a 15.574670
_cell_length_b 10.506208
_cell_length_c 18.109244
_cell_angle_alpha 43.909056
_cell_angle_beta 156.916109
_cell_angle_gamma 147.915211
_cell_volume 591.860071
_symmetry_space_group_name_H-M "P -1"
_symmetry_group_IT_number 2
_symmetry_cell_setting 'triclinic'
loop_
_space_group_symop_operation_xyz
x,y,z
-x,-y,-z
loop_
_atom_site_type_symbol
_atom_site_label
_atom_site_fract_x
_atom_site_fract_y
_atom_site_fract_z
Si Si1 0.263444 0.163478 0.078364
Si Si2 0.465150 0.604266 0.243390
Si Si3 0.843970 0.534206 0.197174
Si Si4 0.652770 0.358241 0.527909
Si Si5 0.177049 0.771130 0.873191
Si Si6 0.230387 0.856946 0.494021
Si Si7 0.673373 0.033289 0.314550
Si Si8 0.933033 0.162799 0.085607
O O1 0.334226 0.416714 0.010507
O O2 0.135371 0.023164 0.955160
O O3 0.538482 0.183889 0.304335
O O4 0.000000 0.000000 0.000000
O O5 0.575841 0.470473 0.358614
O O6 0.267318 0.418304 0.232242
O O7 0.707007 0.885303 0.347174
O O8 0.235672 0.592799 0.019183
O O9 0.164708 0.699318 0.342713
O O10 0.929723 0.638442 0.304287
O O11 0.719967 0.258144 0.219966
O O12 0.891742 0.598806 0.667850
O O13 0.400235 0.117414 0.477052
O O14 0.114858 0.872758 0.849626
O O15 0.500000 0.000000 0.000000
O O16 0.163805 0.876547 0.516953
O O17 0.319342 0.829992 0.137677
#
# Coordination Sequence:
#
# PCOD9034175 Si02
#       8
#     2   2   2   2   2   2   2   2
#     4  11  24  44  73  99 136 183 234 288 338 403
#     4  11  24  44  71  98 140 181 228 289 339 410
#     4  12  26  43  68 101 143 180 231 287 346 412
#     4  12  25  41  70 103 133 182 236 279 339 421
#     4  11  24  44  69 101 141 180 222 288 355 409
#     4  11  24  43  70  99 133 180 235 283 345 410
#     4  10  23  45  66 101 140 176 228 289 348 416
#     4  10  22  44  72 100 133 180 233 281 341 411
#
# _framework density 27.033415999999999
#
# number of rings (size 3 to 8) (size 9 to 14) (size 15 to 20)
#    0.000    1.000    1.250    6.750    1.750    7.000 
#    0.000    5.000    0.000    0.000    0.000    0.000 
#    0.000    0.000    0.000    0.000    0.000    0.000 
#
# Total GULP energy -89501.080146 kJ/mol
# GULP energy per Si atom -5593.817509 kJ/mol
# Density = 2.697189 g / cm^3
# Si number density = 27.033416 Si / 1000 Ang^3
#
#
#
# Elastic Constant Matrix: (Units=GPa)
#
#
# Indices 1 2 3 4 5 6 
#
# 1 84.1695 9.2641 4.1282 12.2540 -0.1815 -0.8716
# 2 9.2641 154.4589 47.9488 -29.1659 2.1006 4.4805
# 3 4.1282 47.9488 110.7977 -33.6565 -1.8050 8.1145
# 4 12.2540 -29.1659 -33.6565 60.5505 -3.9451 -1.8979
# 5 -0.1815 2.1006 -1.8050 -3.9451 36.2336 8.7515
# 6 -0.8716 4.4805 8.1145 -1.8979 8.7515 30.5378
#
#
#
# Elastic Compliance Matrix: (Units=1/GPa)
#
#
# Indices 1 2 3 4 5 6 
#
# 1 0.012616 -0.001111 -0.001197 -0.003764 -0.000525 0.000758
# 2 -0.001111 0.007827 -0.002555 0.002550 -0.000243 -0.000273
# 3 -0.001197 -0.002555 0.012217 0.005843 0.002150 -0.003159
# 4 -0.003764 0.002550 0.005843 0.021893 0.002869 -0.001496
# 5 -0.000525 -0.000243 0.002150 0.002869 0.030211 -0.009030
# 6 0.000758 -0.000273 -0.003159 -0.001496 -0.009030 0.036142
#
#
# Mechanical properties :
#
#
# Convention : Reuss Voigt Hill
#
# Bulk Modulus (GPa) = 43.60113 52.45648 48.02880
# Shear Modulus (GPa) = 36.15936 44.67002 40.41469
#
# Velocity S-wave (km/s) = 3.66126 4.06938 3.87070
# Velocity P-wave (km/s) = 5.83410 6.44409 6.14667
#
# Compressibility (1/GPa) = 0.02293519
#
# Stress axis : x y z
#
# Youngs Moduli (GPa) = 79.26162 127.76673 81.85234
#
# Poissons Ratio (x) = 0.14192 0.09796
# Poissons Ratio (y) = 0.08804 0.20914
# Poissons Ratio (z) = 0.09486 0.32645
#
# Static dielectric constant tensor:
#      x y z
#    x 2.195540 -0.032080 0.038460 
#    y -0.032080 2.175830 -0.057570 
#    z 0.038460 -0.057570 2.147420 
# 
# From -- ./inp_files/600067.got.cif
#   From: 2010.05.17/outbox.cif.g08.bks.cpg/sg2_301_cif.got.tgz:600067.got - 2010.06.03 11:33:40.
