data_PCOD9034279
_publ_section_title
;
Structure prediction by ZEFSAII (Michael W. Deem and Ramdas Pophale) SiO2 
 PCOD9034279
Probable space group: P -1
;
_chemical_formula_sum "Si O2"
_cell_formula_units_Z 15
_cell_length_a 14.155126
_cell_length_b 8.754889
_cell_length_c 11.403306
_cell_angle_alpha 79.126783
_cell_angle_beta 151.635046
_cell_angle_gamma 92.757909
_cell_volume 637.936386
_symmetry_space_group_name_H-M "P -1"
_symmetry_group_IT_number 2
_symmetry_cell_setting 'triclinic'
loop_
_space_group_symop_operation_xyz
x,y,z
-x,-y,-z
loop_
_atom_site_type_symbol
_atom_site_label
_atom_site_fract_x
_atom_site_fract_y
_atom_site_fract_z
Si Si1 0.678124 0.692150 0.128319
Si Si2 0.500000 0.000000 0.000000
Si Si3 0.155420 0.191215 0.936104
Si Si4 0.851148 0.404004 0.910218
Si Si5 0.140779 0.109715 0.186079
Si Si6 0.494711 0.470427 0.665202
Si Si7 0.478595 0.902604 0.259973
Si Si8 0.282291 0.619083 0.646903
O O1 0.739211 0.717220 0.058172
O O2 0.771750 0.515897 0.309050
O O3 0.430220 0.711112 0.861235
O O4 0.700023 0.841467 0.207698
O O5 0.498910 0.061763 0.855754
O O6 0.915311 0.257514 0.637628
O O7 0.186993 0.204898 0.107236
O O8 0.256961 0.004625 0.045567
O O9 0.727228 0.466958 0.883543
O O10 0.667926 0.412635 0.614870
O O11 0.000000 0.500000 0.000000
O O12 0.001847 0.229308 0.109638
O O13 0.356292 0.031996 0.493328
O O14 0.000000 0.000000 0.000000
O O15 0.481260 0.288007 0.652508
O O16 0.420463 0.521857 0.706959
#
# Coordination Sequence:
#
# PCOD9034279 Si02
#       8
#     2   1   2   2   2   2   2   2
#     4  10  24  44  72 103 144 186 232 298 344 426
#     4  10  22  44  72  96 142 188 230 290 352 416
#     4  11  25  42  72 103 142 186 235 290 359 420
#     4  11  24  42  68 103 138 185 231 287 358 422
#     4  12  26  44  71 105 143 186 241 300 356 427
#     4  11  23  42  71  98 144 181 236 290 352 426
#     4  11  24  46  69 104 146 189 238 297 359 419
#     4  11  23  44  72 106 140 182 241 287 358 411
#
# _framework density 23.513316
#
# number of rings (size 3 to 8) (size 9 to 14) (size 15 to 20)
#    0.000    1.067    4.000    1.600    5.600    0.000 
#    0.000    5.333    0.000    0.000    0.000    0.000 
#    0.000    0.000    0.000    0.000    0.000    0.000 
#
# Total GULP energy -83588.765109 kJ/mol
# GULP energy per Si atom -5572.584341 kJ/mol
# Density = 2.345980 g / cm^3
# Si number density = 23.513316 Si / 1000 Ang^3
#
#
#
# Elastic Constant Matrix: (Units=GPa)
#
#
# Indices 1 2 3 4 5 6 
#
# 1 156.4905 13.6311 39.1342 0.2352 6.1740 0.3771
# 2 13.6311 44.8390 8.4669 -2.6177 19.6385 4.5277
# 3 39.1342 8.4669 86.9562 -21.4535 7.2274 -1.5120
# 4 0.2352 -2.6177 -21.4535 24.3998 0.7411 5.2626
# 5 6.1740 19.6385 7.2274 0.7411 37.2671 -7.0544
# 6 0.3771 4.5277 -1.5120 5.2626 -7.0544 32.9709
#
#
#
# Elastic Compliance Matrix: (Units=1/GPa)
#
#
# Indices 1 2 3 4 5 6 
#
# 1 0.007649 -0.002326 -0.004378 -0.004414 0.001078 0.000966
# 2 -0.002326 0.032450 0.001025 0.007035 -0.018859 -0.009540
# 3 -0.004378 0.001025 0.017725 0.016462 -0.004107 -0.002784
# 4 -0.004414 0.007035 0.016462 0.059053 -0.009544 -0.011628
# 5 0.001078 -0.018859 -0.004107 -0.009544 0.039937 0.012457
# 6 0.000966 -0.009540 -0.002784 -0.011628 0.012457 0.036023
#
#
# Mechanical properties :
#
#
# Convention : Reuss Voigt Hill
#
# Bulk Modulus (GPa) = 21.52165 45.63888 33.58026
# Shear Modulus (GPa) = 22.76000 34.06445 28.41223
#
# Velocity S-wave (km/s) = 3.11458 3.81035 3.47990
# Velocity P-wave (km/s) = 4.70181 6.22979 5.51893
#
# Compressibility (1/GPa) = 0.04646485
#
# Stress axis : x y z
#
# Youngs Moduli (GPa) = 130.73050 30.81695 56.41829
#
# Poissons Ratio (x) = 0.07169 0.24699
# Poissons Ratio (y) = 0.30412 -0.05781
# Poissons Ratio (z) = 0.57231 -0.03158
#
# Static dielectric constant tensor:
#      x y z
#    x 1.886550 0.018280 0.027140 
#    y 0.018280 2.034710 0.007000 
#    z 0.027140 0.007000 1.821850 
# 
# From -- ./inp_files/447393.got.cif
#   From: 2010.05.17/outbox.cif.g08.bks.cpg/sg2_224_cif.got.tgz:447393.got - 2010.06.03 11:33:40.
