data_PCOD9034038
_publ_section_title
;
Structure prediction by ZEFSAII (Michael W. Deem and Ramdas Pophale) SiO2 
 PCOD9034038
Probable space group: P -1
;
_chemical_formula_sum "Si O2"
_cell_formula_units_Z 16
_cell_length_a 12.848734
_cell_length_b 13.855541
_cell_length_c 5.928932
_cell_angle_alpha 101.161455
_cell_angle_beta 55.985016
_cell_angle_gamma 127.795272
_cell_volume 673.161259
_symmetry_space_group_name_H-M "P -1"
_symmetry_group_IT_number 2
_symmetry_cell_setting 'triclinic'
loop_
_space_group_symop_operation_xyz
x,y,z
-x,-y,-z
loop_
_atom_site_type_symbol
_atom_site_label
_atom_site_fract_x
_atom_site_fract_y
_atom_site_fract_z
Si Si1 0.355117 0.112881 0.308802
Si Si2 0.326022 0.912845 0.567020
Si Si3 0.103220 0.990478 0.187247
Si Si4 0.530432 0.563626 0.244249
Si Si5 0.186300 0.193846 0.810466
Si Si6 0.231583 0.552219 0.569062
Si Si7 0.288790 0.714342 0.192559
Si Si8 0.912087 0.319535 0.966795
O O1 0.298797 0.193010 0.492640
O O2 0.302853 0.001880 0.496027
O O3 0.264809 0.041307 0.151114
O O4 0.546695 0.213172 0.111902
O O5 0.330806 0.820699 0.361269
O O6 0.189718 0.818191 0.867963
O O7 0.500000 0.000000 0.500000
O O8 0.972306 0.857755 0.161089
O O9 0.000000 0.000000 0.500000
O O10 0.147958 0.090339 0.988579
O O11 0.500000 0.500000 0.500000
O O12 0.717011 0.681098 0.102254
O O13 0.410309 0.599536 0.413620
O O14 0.500000 0.500000 0.000000
O O15 0.238251 0.588069 0.314618
O O16 0.162053 0.618580 0.794881
O O17 0.104020 0.412075 0.759889
O O18 0.141435 0.686871 0.224825
#
# Coordination Sequence:
#
# PCOD9034038 Si02
#       8
#     2   2   2   2   2   2   2   2
#     4  11  22  37  70 101 140 181 227 289 372 450
#     4  11  24  39  58 108 140 175 222 284 365 438
#     4   9  21  41  69  99 129 179 230 294 354 444
#     4  12  30  51  74 107 146 197 256 317 370 442
#     4  10  23  46  69  99 133 183 244 297 369 441
#     4  10  24  46  71 100 134 189 246 294 367 423
#     4  11  22  39  70  93 136 180 226 288 349 451
#     4  10  22  44  71 100 142 181 238 295 356 446
#
# _framework density 23.768452
#
# number of rings (size 3 to 8) (size 9 to 14) (size 15 to 20)
#    0.000    1.500    1.250    2.250   10.500    0.000 
#    9.000    0.000    0.000    0.000    0.000    0.000 
#    0.000    0.000    0.000    0.000    0.000    0.000 
#
# Total GULP energy -89202.849308 kJ/mol
# GULP energy per Si atom -5575.178082 kJ/mol
# Density = 2.371435 g / cm^3
# Si number density = 23.768452 Si / 1000 Ang^3
#
#
#
# Elastic Constant Matrix: (Units=GPa)
#
#
# Indices 1 2 3 4 5 6 
#
# 1 90.9777 17.1186 16.1430 2.4543 7.3209 12.3654
# 2 17.1186 95.4006 30.6831 -9.8684 11.3436 23.0719
# 3 16.1430 30.6831 64.0600 -10.0061 8.1532 -5.3712
# 4 2.4543 -9.8684 -10.0061 34.0205 1.6079 6.7657
# 5 7.3209 11.3436 8.1532 1.6079 37.9759 3.1799
# 6 12.3654 23.0719 -5.3712 6.7657 3.1799 36.5625
#
#
#
# Elastic Compliance Matrix: (Units=1/GPa)
#
#
# Indices 1 2 3 4 5 6 
#
# 1 0.012330 0.000017 -0.003481 -0.000974 -0.001225 -0.004406
# 2 0.000017 0.016959 -0.008060 0.005178 -0.002500 -0.012632
# 3 -0.003481 -0.008060 0.021847 0.002627 -0.002494 0.009203
# 4 -0.000974 0.005178 0.002627 0.033560 -0.002629 -0.008533
# 5 -0.001225 -0.002500 -0.002494 -0.002629 0.027989 -0.000322
# 6 -0.004406 -0.012632 0.009203 -0.008533 -0.000322 0.039771
#
#
# Mechanical properties :
#
#
# Convention : Reuss Voigt Hill
#
# Bulk Modulus (GPa) = 35.60034 42.03643 38.81838
# Shear Modulus (GPa) = 27.04666 34.14468 30.59567
#
# Velocity S-wave (km/s) = 3.37697 3.79430 3.59170
# Velocity P-wave (km/s) = 5.49688 6.07617 5.79377
#
# Compressibility (1/GPa) = 0.02808962
#
# Stress axis : x y z
#
# Youngs Moduli (GPa) = 81.10478 58.96565 45.77225
#
# Poissons Ratio (x) = -0.00103 0.15934
# Poissons Ratio (y) = -0.00142 0.36890
# Poissons Ratio (z) = 0.28234 0.47524
#
# Static dielectric constant tensor:
#      x y z
#    x 1.839140 -0.044140 0.006920 
#    y -0.044140 1.934870 0.034590 
#    z 0.006920 0.034590 2.020200 
# 
# From -- ./inp_files/77848.got.cif
#   From: 2010.05.17/outbox.cif.g08.bks.cpg/sg2_39_cif.got.tgz:77848.got - 2010.06.03 11:33:40.
