data_PCOD9034391
_publ_section_title
;
Structure prediction by ZEFSAII (Michael W. Deem and Ramdas Pophale) SiO2 
 PCOD9034391
Probable space group: P -1
;
_chemical_formula_sum "Si O2"
_cell_formula_units_Z 16
_cell_length_a 13.656829
_cell_length_b 7.634820
_cell_length_c 24.703219
_cell_angle_alpha 134.471966
_cell_angle_beta 22.591650
_cell_angle_gamma 121.936419
_cell_volume 637.551154
_symmetry_space_group_name_H-M "P -1"
_symmetry_group_IT_number 2
_symmetry_cell_setting 'triclinic'
loop_
_space_group_symop_operation_xyz
x,y,z
-x,-y,-z
loop_
_atom_site_type_symbol
_atom_site_label
_atom_site_fract_x
_atom_site_fract_y
_atom_site_fract_z
Si Si1 0.190918 0.902011 0.517747
Si Si2 0.280851 0.060133 0.905536
Si Si3 0.261524 0.293793 0.171094
Si Si4 0.617320 0.490670 0.567168
Si Si5 0.965967 0.216751 0.946791
Si Si6 0.491905 0.150817 0.479542
Si Si7 0.476327 0.414928 0.823025
Si Si8 0.532442 0.196314 0.909579
O O1 0.387642 0.658382 0.405476
O O2 0.305400 0.808366 0.378325
O O3 0.242569 0.153237 0.569587
O O4 0.856917 0.990008 0.712739
O O5 0.478028 0.807334 0.714611
O O6 0.239117 0.324919 0.948647
O O7 0.468649 0.098060 0.864976
O O8 0.074064 0.948247 0.016515
O O9 0.365543 0.503697 0.191949
O O10 0.948754 0.373243 0.365229
O O11 0.270237 0.245433 0.092435
O O12 0.500000 0.000000 0.000000
O O13 0.480393 0.424758 0.569843
O O14 0.687292 0.324146 0.074726
O O15 0.229423 0.017121 0.733721
O O16 0.000000 0.500000 0.000000
O O17 0.500000 0.000000 0.500000
O O18 0.500000 0.500000 0.000000
#
# Coordination Sequence:
#
# PCOD9034391 Si02
#       8
#     2   2   2   2   2   2   2   2
#     4  11  24  45  70 102 144 191 238 293 364 429
#     4  12  27  46  73 108 143 189 239 301 361 428
#     4  12  24  42  72 104 136 191 241 297 360 426
#     4  11  23  43  72 103 143 189 243 292 362 431
#     4  12  24  49  76 105 147 188 241 295 359 434
#     4  10  22  44  74 103 140 191 238 293 356 429
#     4  12  26  45  72 109 143 190 238 297 362 425
#     4  12  26  45  67 105 146 184 240 304 361 423
#
# _framework density 25.096025999999998
#
# number of rings (size 3 to 8) (size 9 to 14) (size 15 to 20)
#    0.000    0.500    5.000    3.750    3.500    2.500 
#    0.000    1.875    0.000    0.000    0.000    0.000 
#    0.000    0.000    0.000    0.000    0.000    0.000 
#
# Total GULP energy -89327.174384 kJ/mol
# GULP energy per Si atom -5582.948399 kJ/mol
# Density = 2.503891 g / cm^3
# Si number density = 25.096026 Si / 1000 Ang^3
#
#
#
# Elastic Constant Matrix: (Units=GPa)
#
#
# Indices 1 2 3 4 5 6 
#
# 1 98.4167 37.6482 41.7056 9.0763 16.9430 36.1999
# 2 37.6482 112.7272 22.7519 2.5839 26.0228 15.9374
# 3 41.7056 22.7519 97.4523 -14.1376 28.8633 -2.9282
# 4 9.0763 2.5839 -14.1376 40.9558 1.6978 11.5889
# 5 16.9430 26.0228 28.8633 1.6978 42.0737 7.8268
# 6 36.1999 15.9374 -2.9282 11.5889 7.8268 57.4843
#
#
#
# Elastic Compliance Matrix: (Units=1/GPa)
#
#
# Indices 1 2 3 4 5 6 
#
# 1 0.019585 -0.003657 -0.009413 -0.004273 0.003118 -0.011362
# 2 -0.003657 0.011336 0.000821 0.000660 -0.006110 -0.000099
# 3 -0.009413 0.000821 0.018571 0.006995 -0.010992 0.006732
# 4 -0.004273 0.000660 0.006995 0.028568 -0.004207 -0.002322
# 5 0.003118 -0.006110 -0.010992 -0.004207 0.034881 -0.004731
# 6 -0.011362 -0.000099 0.006732 -0.002322 -0.004731 0.026034
#
#
# Mechanical properties :
#
#
# Convention : Reuss Voigt Hill
#
# Bulk Modulus (GPa) = 40.00901 56.97861 48.49381
# Shear Modulus (GPa) = 29.10294 41.86879 35.48587
#
# Velocity S-wave (km/s) = 3.40908 4.08897 3.76440
# Velocity P-wave (km/s) = 5.61006 6.71166 6.18543
#
# Compressibility (1/GPa) = 0.02499437
#
# Stress axis : x y z
#
# Youngs Moduli (GPa) = 51.05954 88.21472 53.84837
#
# Poissons Ratio (x) = 0.32257 0.50686
# Poissons Ratio (y) = 0.18671 -0.04419
# Poissons Ratio (z) = 0.48061 -0.07240
#
# Static dielectric constant tensor:
#      x y z
#    x 2.021950 -0.129650 0.039450 
#    y -0.129650 2.342540 -0.077030 
#    z 0.039450 -0.077030 1.917520 
# 
# From -- ./inp_files/619284.got.cif
#   From: 2010.05.17/outbox.cif.g08.bks.cpg/sg2_310_cif.got.tgz:619284.got - 2010.06.03 11:33:40.
