data_PCOD9034635
_publ_section_title
;
Structure prediction by ZEFSAII (Michael W. Deem and Ramdas Pophale) SiO2 
 PCOD9034635
Probable space group: P -1
;
_chemical_formula_sum "Si O2"
_cell_formula_units_Z 12
_cell_length_a 12.955294
_cell_length_b 15.774328
_cell_length_c 6.357094
_cell_angle_alpha 96.962815
_cell_angle_beta 92.390619
_cell_angle_gamma 153.177076
_cell_volume 548.343184
_symmetry_space_group_name_H-M "P -1"
_symmetry_group_IT_number 2
_symmetry_cell_setting 'triclinic'
loop_
_space_group_symop_operation_xyz
x,y,z
-x,-y,-z
loop_
_atom_site_type_symbol
_atom_site_label
_atom_site_fract_x
_atom_site_fract_y
_atom_site_fract_z
Si Si1 0.917569 0.143036 0.606275
Si Si2 0.879373 0.343053 0.153375
Si Si3 0.087623 0.126258 0.356455
Si Si4 0.709157 0.864911 0.866690
Si Si5 0.573915 0.996924 0.309694
Si Si6 0.172984 0.510605 0.853968
O O1 0.105906 0.230617 0.505471
O O2 0.026934 0.315686 0.730995
O O3 0.833084 0.025849 0.766840
O O4 0.679735 0.987548 0.401501
O O5 0.911843 0.465442 0.261237
O O6 0.789218 0.207145 0.270613
O O7 0.652517 0.179001 0.919562
O O8 0.109332 0.482344 0.083808
O O9 0.298390 0.231204 0.288554
O O10 0.000000 0.000000 0.500000
O O11 0.881187 0.981271 0.117728
O O12 0.448826 0.701213 0.871072
O O13 0.500000 0.000000 0.500000
#
# Coordination Sequence:
#
# PCOD9034635 Si02
#       6
#     2   2   2   2   2   2
#     4  11  23  39  66  95 122 166 213 250 311 368
#     4  10  24  41  58  92 135 165 208 258 300 362
#     4   9  21  44  68  91 120 165 204 256 319 374
#     4  10  22  45  66  89 130 158 204 264 315 365
#     4  11  21  41  65  87 127 174 209 250 306 366
#     4  11  23  41  61  96 127 166 205 258 310 360
#
# _framework density 21.884105999999999
#
# number of rings (size 3 to 8) (size 9 to 14) (size 15 to 20)
#    0.000    1.667    1.667    2.000    4.667    1.333 
#   12.000    7.500    0.000    0.000    0.000    0.000 
#    0.000    0.000    0.000    0.000    0.000    0.000 
#
# Total GULP energy -67034.289104 kJ/mol
# GULP energy per Si atom -5586.190759 kJ/mol
# Density = 2.183430 g / cm^3
# Si number density = 21.884106 Si / 1000 Ang^3
#
#
#
# Elastic Constant Matrix: (Units=GPa)
#
#
# Indices 1 2 3 4 5 6 
#
# 1 152.3478 49.1553 56.1982 -13.1510 -30.8191 7.2421
# 2 49.1553 107.3896 46.5522 -20.0246 -14.1721 10.0607
# 3 56.1982 46.5522 88.9536 -20.1731 11.7806 -5.0530
# 4 -13.1510 -20.0246 -20.1731 33.7167 -8.6128 -9.6274
# 5 -30.8191 -14.1721 11.7806 -8.6128 44.7098 -13.1777
# 6 7.2421 10.0607 -5.0530 -9.6274 -13.1777 34.1306
#
#
#
# Elastic Compliance Matrix: (Units=1/GPa)
#
#
# Indices 1 2 3 4 5 6 
#
# 1 0.012290 0.000102 -0.008572 0.003198 0.011840 0.001566
# 2 0.000102 0.014696 -0.007444 0.006025 0.007610 -0.000818
# 3 -0.008572 -0.007444 0.023354 0.004095 -0.012515 0.003794
# 4 0.003198 0.006025 0.004095 0.046464 0.017269 0.017926
# 5 0.011840 0.007610 -0.012515 0.017269 0.044067 0.015277
# 6 0.001566 -0.000818 0.003794 0.017926 0.015277 0.040724
#
#
# Mechanical properties :
#
#
# Convention : Reuss Voigt Hill
#
# Bulk Modulus (GPa) = 54.01270 72.50028 63.25649
# Shear Modulus (GPa) = 22.76947 35.63045 29.19996
#
# Velocity S-wave (km/s) = 3.22911 4.03940 3.65677
# Velocity P-wave (km/s) = 6.21592 7.41329 6.84085
#
# Compressibility (1/GPa) = 0.01851416
#
# Stress axis : x y z
#
# Youngs Moduli (GPa) = 81.37011 68.04574 42.81871
#
# Poissons Ratio (x) = -0.00697 0.36703
# Poissons Ratio (y) = -0.00834 0.31872
# Poissons Ratio (z) = 0.69748 0.50650
#
# Static dielectric constant tensor:
#      x y z
#    x 1.835330 -0.004110 -0.026900 
#    y -0.004110 1.785010 0.020750 
#    z -0.026900 0.020750 1.825350 
# 
# From -- ./inp_files/20492.got.cif
#   From: 2010.05.17/outbox.cif.g08.bks.cpg/sg2_11_cif.got.tgz:20492.got - 2010.06.03 11:33:40.
