data_PCOD9034425
_publ_section_title
;
Structure prediction by ZEFSAII (Michael W. Deem and Ramdas Pophale) SiO2 
 PCOD9034425
Probable space group: P -1
;
_chemical_formula_sum "Si O2"
_cell_formula_units_Z 15
_cell_length_a 5.316548
_cell_length_b 21.306006
_cell_length_c 5.085451
_cell_angle_alpha 80.966517
_cell_angle_beta 100.722783
_cell_angle_gamma 106.198848
_cell_volume 540.139700
_symmetry_space_group_name_H-M "P -1"
_symmetry_group_IT_number 2
_symmetry_cell_setting 'triclinic'
loop_
_space_group_symop_operation_xyz
x,y,z
-x,-y,-z
loop_
_atom_site_type_symbol
_atom_site_label
_atom_site_fract_x
_atom_site_fract_y
_atom_site_fract_z
Si Si1 0.304060 0.455029 0.284970
Si Si2 0.780525 0.810525 0.139626
Si Si3 0.831310 0.241349 0.389117
Si Si4 0.033644 0.941555 0.852341
Si Si5 0.500000 0.000000 0.500000
Si Si6 0.466318 0.113984 0.557011
Si Si7 0.707165 0.304607 0.850602
Si Si8 0.736253 0.423172 0.129649
O O1 0.500000 0.500000 0.500000
O O2 0.461234 0.403535 0.247848
O O3 0.004343 0.425167 0.339618
O O4 0.257508 0.502975 0.010350
O O5 0.623333 0.857402 0.220028
O O6 0.949048 0.787858 0.416372
O O7 0.574495 0.741622 0.078893
O O8 0.966990 0.862308 0.948720
O O9 0.588001 0.176836 0.363530
O O10 0.899816 0.277734 0.103137
O O11 0.754571 0.287967 0.570471
O O12 0.764619 0.938354 0.612155
O O13 0.304526 0.963232 0.731736
O O14 0.000000 0.000000 0.000000
O O15 0.647649 0.065440 0.675701
O O16 0.728596 0.377928 0.903061
#
# Coordination Sequence:
#
# PCOD9034425 Si02
#       8
#     2   2   2   2   1   2   2   2
#     4  10  22  44  74 111 162 205 257 321 388 456
#     4  11  26  49  74 100 151 191 251 323 395 469
#     4  11  27  46  75 103 147 200 249 317 391 457
#     4  12  26  46  70 103 144 188 250 319 395 478
#     4  12  26  40  74 100 134 188 244 304 402 466
#     4  11  25  47  65 106 140 183 248 314 388 477
#     4  11  27  48  73 113 146 201 264 313 383 468
#     4  10  24  43  73 113 154 206 266 318 386 464
#
# _framework density 27.770599000000001
#
# number of rings (size 3 to 8) (size 9 to 14) (size 15 to 20)
#    0.000    1.067    2.667    1.600    9.333    1.600 
#    0.000    0.000    0.000    0.000    0.000    0.000 
#    0.000    0.000    0.000    0.000    0.000    0.000 
#
# Total GULP energy -83777.926120 kJ/mol
# GULP energy per Si atom -5585.195075 kJ/mol
# Density = 2.770739 g / cm^3
# Si number density = 27.770599 Si / 1000 Ang^3
#
#
#
# Elastic Constant Matrix: (Units=GPa)
#
#
# Indices 1 2 3 4 5 6 
#
# 1 149.8350 42.2478 29.7471 13.8445 -6.8591 -2.1622
# 2 42.2478 130.7651 18.3211 27.6491 -5.7527 1.1167
# 3 29.7471 18.3211 70.4578 16.1164 -4.8306 6.9567
# 4 13.8445 27.6491 16.1164 56.8591 -2.1606 -4.0834
# 5 -6.8591 -5.7527 -4.8306 -2.1606 42.7367 10.3678
# 6 -2.1622 1.1167 6.9567 -4.0834 10.3678 41.0469
#
#
#
# Elastic Compliance Matrix: (Units=1/GPa)
#
#
# Indices 1 2 3 4 5 6 
#
# 1 0.007868 -0.002134 -0.002818 -0.000002 0.000454 0.000835
# 2 -0.002134 0.009270 -0.000473 -0.003885 0.000872 -0.000891
# 3 -0.002818 -0.000473 0.016983 -0.004100 0.002159 -0.003967
# 4 -0.000002 -0.003885 -0.004100 0.020832 -0.000672 0.003043
# 5 0.000454 0.000872 0.002159 -0.000672 0.025465 -0.006864
# 6 0.000835 -0.000891 -0.003967 0.003043 -0.006864 0.027139
#
#
# Mechanical properties :
#
#
# Convention : Reuss Voigt Hill
#
# Bulk Modulus (GPa) = 42.97029 59.07666 51.02348
# Shear Modulus (GPa) = 39.63042 45.51135 42.57088
#
# Velocity S-wave (km/s) = 3.78175 4.05264 3.91954
# Velocity P-wave (km/s) = 5.88011 6.57403 6.23673
#
# Compressibility (1/GPa) = 0.02327189
#
# Stress axis : x y z
#
# Youngs Moduli (GPa) = 127.09410 107.86932 58.88150
#
# Poissons Ratio (x) = 0.23019 0.16592
# Poissons Ratio (y) = 0.27121 0.02786
# Poissons Ratio (z) = 0.35813 0.05105
#
# Static dielectric constant tensor:
#      x y z
#    x 1.994330 0.308670 -0.041030 
#    y 0.308670 1.825250 0.124920 
#    z -0.041030 0.124920 2.289010 
# 
# From -- ./inp_files/9751.got.cif
#   From: 2010.05.17/outbox.cif.g08.bks.cpg/sg2_5_cif.got.tgz:9751.got - 2010.06.03 11:33:40.
