data_PCOD9034082
_publ_section_title
;
Structure prediction by ZEFSAII (Michael W. Deem and Ramdas Pophale) SiO2 
 PCOD9034082
Probable space group: P -1
;
_chemical_formula_sum "Si O2"
_cell_formula_units_Z 16
_cell_length_a 9.209633
_cell_length_b 11.112902
_cell_length_c 9.082933
_cell_angle_alpha 127.451728
_cell_angle_beta 98.206053
_cell_angle_gamma 102.005232
_cell_volume 677.064383
_symmetry_space_group_name_H-M "P -1"
_symmetry_group_IT_number 2
_symmetry_cell_setting 'triclinic'
loop_
_space_group_symop_operation_xyz
x,y,z
-x,-y,-z
loop_
_atom_site_type_symbol
_atom_site_label
_atom_site_fract_x
_atom_site_fract_y
_atom_site_fract_z
Si Si1 0.119028 0.793936 0.091447
Si Si2 0.333291 0.992333 0.036746
Si Si3 0.813027 0.869235 0.129641
Si Si4 0.255062 0.525167 0.584346
Si Si5 0.462292 0.773746 0.567576
Si Si6 0.235710 0.887735 0.493192
Si Si7 0.470092 0.486112 0.161900
Si Si8 0.951044 0.483062 0.701735
O O1 0.222034 0.861465 0.299470
O O2 0.985001 0.870203 0.123484
O O3 0.232049 0.833641 0.995599
O O4 0.016743 0.601187 0.936567
O O5 0.366303 0.137428 0.271005
O O6 0.231314 0.021613 0.914499
O O7 0.500000 0.000000 0.000000
O O8 0.811858 0.963672 0.351831
O O9 0.674840 0.688525 0.970555
O O10 0.361780 0.688269 0.633866
O O11 0.382817 0.500666 0.697210
O O12 0.157511 0.442460 0.356781
O O13 0.104901 0.501629 0.644137
O O14 0.407794 0.913399 0.599878
O O15 0.435034 0.639878 0.336757
O O16 0.132004 0.707978 0.412122
O O17 0.500000 0.500000 0.000000
#
# Coordination Sequence:
#
# PCOD9034082 Si02
#       8
#     2   2   2   2   2   2   2   2
#     4  12  28  45  75 106 146 194 240 301 363 424
#     4  12  26  47  76 107 145 191 247 300 356 437
#     4  12  27  49  69 109 149 187 244 297 366 430
#     4  10  22  44  71 104 136 188 242 296 351 429
#     4  11  24  47  71 103 139 197 243 296 358 437
#     4  11  26  46  73 103 151 187 242 298 367 428
#     4  12  29  44  76 105 149 188 243 303 368 427
#     4  10  24  43  76 101 140 191 248 291 357 432
#
# _framework density 23.631430000000002
#
# number of rings (size 3 to 8) (size 9 to 14) (size 15 to 20)
#    0.000    0.750    2.500    3.750   10.500    1.500 
#    0.000    0.000    0.000    0.000    0.000    0.000 
#    0.000    0.000    0.000    0.000    0.000    0.000 
#
# Total GULP energy -89225.231157 kJ/mol
# GULP energy per Si atom -5576.576947 kJ/mol
# Density = 2.357764 g / cm^3
# Si number density = 23.631430 Si / 1000 Ang^3
#
#
#
# Elastic Constant Matrix: (Units=GPa)
#
#
# Indices 1 2 3 4 5 6 
#
# 1 99.6902 36.0216 5.9021 -16.7105 -1.3438 0.8958
# 2 36.0216 77.8458 24.3604 -19.3418 -3.0670 14.1765
# 3 5.9021 24.3604 89.2690 -0.4432 -9.5480 16.7363
# 4 -16.7105 -19.3418 -0.4432 40.0609 -2.8946 4.4711
# 5 -1.3438 -3.0670 -9.5480 -2.8946 31.0276 2.2594
# 6 0.8958 14.1765 16.7363 4.4711 2.2594 18.5582
#
#
#
# Elastic Compliance Matrix: (Units=1/GPa)
#
#
# Indices 1 2 3 4 5 6 
#
# 1 0.012466 -0.005942 0.000182 0.001960 -0.000050 0.003308
# 2 -0.005942 0.022198 -0.001853 0.010488 0.003654 -0.017971
# 3 0.000182 -0.001853 0.014667 0.001155 0.005375 -0.012754
# 4 0.001960 0.010488 0.001155 0.033277 0.005884 -0.017881
# 5 -0.000050 0.003654 0.005375 0.005884 0.035768 -0.013408
# 6 0.003308 -0.017971 -0.012754 -0.017881 -0.013408 0.084895
#
#
# Mechanical properties :
#
#
# Convention : Reuss Voigt Hill
#
# Bulk Modulus (GPa) = 29.32181 44.37480 36.84831
# Shear Modulus (GPa) = 21.75197 31.29741 26.52469
#
# Velocity S-wave (km/s) = 3.03721 3.64318 3.35391
# Velocity P-wave (km/s) = 4.97337 6.04281 5.53399
#
# Compressibility (1/GPa) = 0.03410430
#
# Stress axis : x y z
#
# Youngs Moduli (GPa) = 80.22025 45.04956 68.17879
#
# Poissons Ratio (x) = 0.26770 -0.01239
# Poissons Ratio (y) = 0.47670 0.12630
# Poissons Ratio (z) = -0.01458 0.08346
#
# Static dielectric constant tensor:
#      x y z
#    x 1.937720 -0.000380 0.014330 
#    y -0.000380 1.875620 0.026140 
#    z 0.014330 0.026140 1.939270 
# 
# From -- ./inp_files/190829.got.cif
#   From: 2010.05.17/outbox.cif.g08.bks.cpg/sg2_96_cif.got.tgz:190829.got - 2010.06.03 11:33:40.
