data_PCOD9034687
_publ_section_title
;
Structure prediction by ZEFSAII (Michael W. Deem and Ramdas Pophale) SiO2 
 PCOD9034687
Probable space group: P -1
;
_chemical_formula_sum "Si O2"
_cell_formula_units_Z 16
_cell_length_a 28.680309
_cell_length_b 16.302517
_cell_length_c 5.151082
_cell_angle_alpha 57.256883
_cell_angle_beta 56.022649
_cell_angle_gamma 20.059894
_cell_volume 683.979776
_symmetry_space_group_name_H-M "P -1"
_symmetry_group_IT_number 2
_symmetry_cell_setting 'triclinic'
loop_
_space_group_symop_operation_xyz
x,y,z
-x,-y,-z
loop_
_atom_site_type_symbol
_atom_site_label
_atom_site_fract_x
_atom_site_fract_y
_atom_site_fract_z
Si Si1 0.525978 0.392583 0.851495
Si Si2 0.151942 0.169780 0.202878
Si Si3 0.741184 0.424407 0.082126
Si Si4 0.255231 0.704316 0.199449
Si Si5 0.420100 0.979308 0.062641
Si Si6 0.260578 0.191032 0.682636
Si Si7 0.937786 0.801999 0.068084
Si Si8 0.795398 0.543187 0.913228
O O1 0.500000 0.500000 0.500000
O O2 0.682712 0.109889 0.838792
O O3 0.500000 0.500000 0.000000
O O4 0.414308 0.483242 0.041044
O O5 0.094903 0.226528 0.559978
O O6 0.147947 0.290339 0.941543
O O7 0.090602 0.200083 0.116699
O O8 0.757653 0.315213 0.435547
O O9 0.581220 0.710806 0.061551
O O10 0.784589 0.314214 0.856693
O O11 0.815809 0.401826 0.997848
O O12 0.165979 0.942253 0.021071
O O13 0.339378 0.041765 0.422513
O O14 0.355918 0.189116 0.957636
O O15 0.369262 0.031419 0.847852
O O16 0.197437 0.395712 0.458582
O O17 0.089625 0.602150 0.996702
#
# Coordination Sequence:
#
# PCOD9034687 Si02
#       8
#     2   2   2   2   2   2   2   2
#     4  12  21  40  67  98 131 171 215 268 336 383
#     4  12  23  43  67  98 137 183 206 292 324 409
#     4  12  25  44  74  95 139 170 232 280 343 374
#     4  12  26  43  69 106 130 182 215 282 331 411
#     4  10  22  45  67 102 130 169 218 293 328 400
#     4  10  24  42  70  99 134 166 228 267 354 389
#     4  12  27  45  66  97 144 175 235 257 342 400
#     4  10  29  45  69  98 133 185 225 283 320 410
#
# _framework density 23.392503000000001
#
# number of rings (size 3 to 8) (size 9 to 14) (size 15 to 20)
#    0.750    0.000    2.500    4.875    3.500    2.500 
#    0.000    0.000    0.000    0.000    0.000    0.000 
#    0.000    0.000    0.000    0.000    0.000    0.000 
#
# Total GULP energy -89603.614263 kJ/mol
# GULP energy per Si atom -5600.225891 kJ/mol
# Density = 2.333926 g / cm^3
# Si number density = 23.392503 Si / 1000 Ang^3
#
#
#
# Elastic Constant Matrix: (Units=GPa)
#
#
# Indices 1 2 3 4 5 6 
#
# 1 64.9259 -3.3244 26.0407 -21.2425 4.2756 -5.3112
# 2 -3.3244 55.6051 19.1912 -5.0307 4.3171 0.0602
# 3 26.0407 19.1912 65.6686 -19.9248 18.6032 -14.5240
# 4 -21.2425 -5.0307 -19.9248 15.5745 -1.6061 4.0324
# 5 4.2756 4.3171 18.6032 -1.6061 44.5983 -3.7079
# 6 -5.3112 0.0602 -14.5240 4.0324 -3.7079 34.5790
#
#
#
# Elastic Compliance Matrix: (Units=1/GPa)
#
#
# Indices 1 2 3 4 5 6 
#
# 1 0.029557 0.005826 -0.000449 0.041621 -0.001770 -0.000702
# 2 0.005826 0.021445 -0.007531 0.006054 0.000479 -0.002960
# 3 -0.000449 -0.007531 0.033961 0.036986 -0.011341 0.008680
# 4 0.041621 0.006054 0.036986 0.168619 -0.013868 0.000767
# 5 -0.001770 0.000479 -0.011341 -0.013868 0.026731 -0.000552
# 6 -0.000702 -0.002960 0.008680 0.000767 -0.000552 0.032314
#
#
# Mechanical properties :
#
#
# Convention : Reuss Voigt Hill
#
# Bulk Modulus (GPa) = 12.39844 30.00162 21.20003
# Shear Modulus (GPa) = 14.54248 28.56984 21.55616
#
# Velocity S-wave (km/s) = 2.49604 3.49854 3.03891
# Velocity P-wave (km/s) = 3.69035 5.40119 4.62555
#
# Compressibility (1/GPa) = 0.08065528
#
# Stress axis : x y z
#
# Youngs Moduli (GPa) = 33.83287 46.63058 29.44535
#
# Poissons Ratio (x) = -0.27165 0.01322
# Poissons Ratio (y) = -0.19710 0.22175
# Poissons Ratio (z) = 0.01519 0.35117
#
# Static dielectric constant tensor:
#      x y z
#    x 1.895880 0.049500 -0.034460 
#    y 0.049500 1.944390 -0.002770 
#    z -0.034460 -0.002770 1.856800 
# 
# From -- ./inp_files/128742.got.cif
#   From: 2010.05.17/outbox.cif.g08.bks.cpg/sg2_65_cif.got.tgz:128742.got - 2010.06.03 11:33:40.
