data_PCOD9034733
_publ_section_title
;
Structure prediction by ZEFSAII (Michael W. Deem and Ramdas Pophale) SiO2 
 PCOD9034733
Probable space group: P -1
;
_chemical_formula_sum "Si O2"
_cell_formula_units_Z 16
_cell_length_a 8.020730
_cell_length_b 14.910658
_cell_length_c 8.724376
_cell_angle_alpha 64.480922
_cell_angle_beta 46.213740
_cell_angle_gamma 79.883795
_cell_volume 667.645095
_symmetry_space_group_name_H-M "P -1"
_symmetry_group_IT_number 2
_symmetry_cell_setting 'triclinic'
loop_
_space_group_symop_operation_xyz
x,y,z
-x,-y,-z
loop_
_atom_site_type_symbol
_atom_site_label
_atom_site_fract_x
_atom_site_fract_y
_atom_site_fract_z
Si Si1 0.234851 0.505004 0.615160
Si Si2 0.543935 0.008414 0.782933
Si Si3 0.041702 0.842681 0.708509
Si Si4 0.755865 0.205023 0.922046
Si Si5 0.141433 0.106115 0.894389
Si Si6 0.970659 0.302406 0.430780
Si Si7 0.627677 0.564772 0.731580
Si Si8 0.213505 0.667026 0.905886
O O1 0.500000 0.500000 0.500000
O O2 0.139879 0.607209 0.639214
O O3 0.255932 0.496165 0.424036
O O4 0.035295 0.411590 0.868897
O O5 0.806936 0.057012 0.535196
O O6 0.434665 0.898322 0.864790
O O7 0.405299 0.089326 0.732399
O O8 0.500000 0.000000 0.000000
O O9 0.893332 0.874788 0.917767
O O10 0.926921 0.769769 0.698999
O O11 0.186714 0.766306 0.756700
O O12 0.013632 0.183626 0.826653
O O13 0.772615 0.235954 0.711511
O O14 0.714384 0.292946 0.997279
O O15 0.000000 0.000000 0.000000
O O16 0.170134 0.354692 0.379761
O O17 0.500000 0.500000 0.000000
O O18 0.423374 0.615427 0.750632
#
# Coordination Sequence:
#
# PCOD9034733 Si02
#       8
#     2   2   2   2   2   2   2   2
#     4  12  27  46  70  99 148 183 226 293 347 416
#     4  11  23  45  67 100 138 179 229 292 346 404
#     4  11  26  43  70 102 138 181 237 281 348 422
#     4  10  22  45  67  96 140 178 231 289 340 413
#     4   9  23  44  68  94 135 178 228 284 346 404
#     4  12  24  44  69 105 141 182 233 287 350 407
#     4  12  25  44  73  99 138 187 232 289 347 413
#     4  11  25  46  67 104 134 183 239 279 352 419
#
# _framework density 23.964827
#
# number of rings (size 3 to 8) (size 9 to 14) (size 15 to 20)
#    0.000    1.000    3.750    1.875    3.500    9.000 
#    2.250    0.000    0.000    0.000    0.000    0.000 
#    0.000    0.000    0.000    0.000    0.000    0.000 
#
# Total GULP energy -89462.804606 kJ/mol
# GULP energy per Si atom -5591.425288 kJ/mol
# Density = 2.391028 g / cm^3
# Si number density = 23.964827 Si / 1000 Ang^3
#
#
#
# Elastic Constant Matrix: (Units=GPa)
#
#
# Indices 1 2 3 4 5 6 
#
# 1 87.1504 30.6839 17.5665 -5.3165 -13.1546 2.7078
# 2 30.6839 116.2683 53.4109 0.5628 -12.8882 14.9149
# 3 17.5665 53.4109 75.9109 -26.5583 -0.5322 3.7070
# 4 -5.3165 0.5628 -26.5583 38.7454 1.9679 7.4863
# 5 -13.1546 -12.8882 -0.5322 1.9679 37.0962 8.4368
# 6 2.7078 14.9149 3.7070 7.4863 8.4368 48.9220
#
#
#
# Elastic Compliance Matrix: (Units=1/GPa)
#
#
# Indices 1 2 3 4 5 6 
#
# 1 0.013235 -0.002691 -0.000625 0.001374 0.003844 -0.000738
# 2 -0.002691 0.017491 -0.015214 -0.010698 0.006262 -0.003474
# 3 -0.000625 -0.015214 0.031761 0.022234 -0.006217 -0.000064
# 4 0.001374 -0.010698 0.022234 0.042432 -0.004191 -0.004269
# 5 0.003844 0.006262 -0.006217 -0.004191 0.032118 -0.006548
# 6 -0.000738 -0.003474 -0.000064 -0.004269 -0.006548 0.023328
#
#
# Mechanical properties :
#
#
# Convention : Reuss Voigt Hill
#
# Bulk Modulus (GPa) = 39.32945 53.62800 46.47873
# Shear Modulus (GPa) = 24.28355 36.79725 30.54040
#
# Velocity S-wave (km/s) = 3.18669 3.92276 3.57372
# Velocity P-wave (km/s) = 5.47603 6.55315 6.03865
#
# Compressibility (1/GPa) = 0.02542624
#
# Stress axis : x y z
#
# Youngs Moduli (GPa) = 75.55702 57.17126 31.48556
#
# Poissons Ratio (x) = 0.15387 0.01969
# Poissons Ratio (y) = 0.20335 0.47901
# Poissons Ratio (z) = 0.04726 0.86978
#
# Static dielectric constant tensor:
#      x y z
#    x 1.964820 -0.014840 0.036280 
#    y -0.014840 1.908990 0.050040 
#    z 0.036280 0.050040 1.881610 
# 
# From -- ./inp_files/39531.got.cif
#   From: 2010.05.17/outbox.cif.g08.bks.cpg/sg2_20_cif.got.tgz:39531.got - 2010.06.03 11:33:40.
