data_PCOD9034245
_publ_section_title
;
Structure prediction by ZEFSAII (Michael W. Deem and Ramdas Pophale) SiO2 
 PCOD9034245
Probable space group: P -1
;
_chemical_formula_sum "Si O2"
_cell_formula_units_Z 15
_cell_length_a 9.550088
_cell_length_b 22.807950
_cell_length_c 5.378733
_cell_angle_alpha 118.606798
_cell_angle_beta 126.673289
_cell_angle_gamma 36.689174
_cell_volume 561.430556
_symmetry_space_group_name_H-M "P -1"
_symmetry_group_IT_number 2
_symmetry_cell_setting 'triclinic'
loop_
_space_group_symop_operation_xyz
x,y,z
-x,-y,-z
loop_
_atom_site_type_symbol
_atom_site_label
_atom_site_fract_x
_atom_site_fract_y
_atom_site_fract_z
Si Si1 0.548845 0.131178 0.109878
Si Si2 0.741235 0.200907 0.698977
Si Si3 0.628236 0.490038 0.864286
Si Si4 0.872297 0.800302 0.815248
Si Si5 0.920415 0.945810 0.829679
Si Si6 0.500000 0.000000 0.500000
Si Si7 0.228572 0.404906 0.707813
Si Si8 0.100102 0.322541 0.754002
O O1 0.760103 0.125458 0.417754
O O2 0.346008 0.169789 0.182790
O O3 0.662829 0.029889 0.912896
O O4 0.382111 0.216696 0.902900
O O5 0.442978 0.302836 0.581124
O O6 0.842865 0.155529 0.992186
O O7 0.914059 0.216081 0.846474
O O8 0.500000 0.500000 0.500000
O O9 0.921382 0.381734 0.924486
O O10 0.500000 0.500000 0.000000
O O11 0.624612 0.570645 0.998835
O O12 0.002544 0.704580 0.600002
O O13 0.724102 0.889372 0.645398
O O14 0.741049 0.960450 0.472436
O O15 0.000000 0.000000 0.000000
O O16 0.119803 0.387794 0.770653
O O17 0.000000 0.500000 0.500000
#
# Coordination Sequence:
#
# PCOD9034245 Si02
#       8
#     2   2   2   2   2   1   2   2
#     4  12  25  46  76 110 156 204 259 327 403 475
#     4  11  25  43  75 108 150 200 263 318 396 479
#     4  12  29  50  79 118 157 205 278 346 407 489
#     4  11  25  49  74 112 157 205 263 324 397 482
#     4  11  23  43  70 109 151 200 254 314 392 480
#     4  10  22  44  72 108 152 202 254 320 380 476
#     4  12  26  52  82 113 158 215 272 341 415 486
#     4  12  26  51  78 108 158 211 255 333 411 482
#
# _framework density 26.717461
#
# number of rings (size 3 to 8) (size 9 to 14) (size 15 to 20)
#    0.000    0.533    2.667    4.800    3.733    4.267 
#    2.400    0.000    0.000    0.000    0.000    0.000 
#    0.000    0.000    0.000    0.000    0.000    0.000 
#
# Total GULP energy -83872.030083 kJ/mol
# GULP energy per Si atom -5591.468672 kJ/mol
# Density = 2.665665 g / cm^3
# Si number density = 26.717461 Si / 1000 Ang^3
#
#
#
# Elastic Constant Matrix: (Units=GPa)
#
#
# Indices 1 2 3 4 5 6 
#
# 1 160.8095 57.6589 54.6225 16.0720 20.1333 5.1880
# 2 57.6589 150.0436 29.4380 7.6796 -8.6330 6.1078
# 3 54.6225 29.4380 106.1764 6.7458 25.5681 3.0492
# 4 16.0720 7.6796 6.7458 64.7944 0.0747 -4.7501
# 5 20.1333 -8.6330 25.5681 0.0747 51.2437 4.7897
# 6 5.1880 6.1078 3.0492 -4.7501 4.7897 46.6168
#
#
#
# Elastic Compliance Matrix: (Units=1/GPa)
#
#
# Indices 1 2 3 4 5 6 
#
# 1 0.008708 -0.002795 -0.003033 -0.001534 -0.002347 -0.000320
# 2 -0.002795 0.008311 -0.001647 -0.000201 0.003418 -0.001042
# 3 -0.003033 -0.001647 0.012771 -0.000358 -0.005480 0.000245
# 4 -0.001534 -0.000201 -0.000358 0.016006 0.000556 0.001794
# 5 -0.002347 0.003418 -0.005480 0.000556 0.023954 -0.002233
# 6 -0.000320 -0.001042 0.000245 0.001794 -0.002233 0.022020
#
#
# Mechanical properties :
#
#
# Convention : Reuss Voigt Hill
#
# Bulk Modulus (GPa) = 67.38495 77.82983 72.60739
# Shear Modulus (GPa) = 44.77587 50.88499 47.83043
#
# Velocity S-wave (km/s) = 4.09822 4.36886 4.23570
# Velocity P-wave (km/s) = 6.90434 7.39210 7.15238
#
# Compressibility (1/GPa) = 0.01484011
#
# Stress axis : x y z
#
# Youngs Moduli (GPa) = 114.83139 120.32033 78.30387
#
# Poissons Ratio (x) = 0.33627 0.23753
# Poissons Ratio (y) = 0.32093 0.12895
# Poissons Ratio (z) = 0.34834 0.19815
#
# Static dielectric constant tensor:
#      x y z
#    x 2.805310 0.062560 0.513490 
#    y 0.062560 2.100360 0.089840 
#    z 0.513490 0.089840 2.651890 
# 
# From -- ./inp_files/53551.got.cif
#   From: 2010.05.17/outbox.cif.g08.bks.cpg/sg2_27_cif.got.tgz:53551.got - 2010.06.03 11:33:40.
