data_PCOD9034515
_publ_section_title
;
Structure prediction by ZEFSAII (Michael W. Deem and Ramdas Pophale) SiO2 
 PCOD9034515
Probable space group: P -1
;
_chemical_formula_sum "Si O2"
_cell_formula_units_Z 10
_cell_length_a 7.160910
_cell_length_b 11.822613
_cell_length_c 9.619023
_cell_angle_alpha 46.108434
_cell_angle_beta 130.862990
_cell_angle_gamma 99.311039
_cell_volume 374.862347
_symmetry_space_group_name_H-M "P -1"
_symmetry_group_IT_number 2
_symmetry_cell_setting 'triclinic'
loop_
_space_group_symop_operation_xyz
x,y,z
-x,-y,-z
loop_
_atom_site_type_symbol
_atom_site_label
_atom_site_fract_x
_atom_site_fract_y
_atom_site_fract_z
Si Si1 0.190388 0.528142 0.784345
Si Si2 0.676387 0.585064 0.674056
Si Si3 0.268773 0.786984 0.045079
Si Si4 0.228610 0.217927 0.870973
Si Si5 0.334183 0.931218 0.384003
O O1 0.210115 0.348991 0.876340
O O2 0.945419 0.589506 0.732645
O O3 0.041057 0.672468 0.458940
O O4 0.500000 0.500000 0.000000
O O5 0.415100 0.686349 0.347629
O O6 0.754721 0.374169 0.905741
O O7 0.549115 0.717202 0.632984
O O8 0.488770 0.824978 0.039892
O O9 0.969216 0.980620 0.757473
O O10 0.260215 0.040569 0.108653
O O11 0.500000 0.000000 0.500000
#
# Coordination Sequence:
#
# PCOD9034515 Si02
#       5
#     2   2   2   2   2
#     4  10  22  44  78 106 139 196 240 298 363 433
#     4  10  23  47  73 106 143 192 241 300 364 427
#     4  10  23  48  74 100 147 192 239 304 359 425
#     4  10  24  48  72 107 147 187 244 298 363 429
#     4  12  27  46  68 112 149 188 244 297 359 434
#
# _framework density 26.676459999999999
#
# number of rings (size 3 to 8) (size 9 to 14) (size 15 to 20)
#    0.000    1.600    2.000    0.600    5.600    6.400 
#    7.200    0.000    0.000    0.000    0.000    0.000 
#    0.000    0.000    0.000    0.000    0.000    0.000 
#
# Total GULP energy -56126.606696 kJ/mol
# GULP energy per Si atom -5612.660670 kJ/mol
# Density = 2.661574 g / cm^3
# Si number density = 26.676460 Si / 1000 Ang^3
#
#
#
# Elastic Constant Matrix: (Units=GPa)
#
#
# Indices 1 2 3 4 5 6 
#
# 1 134.6884 48.8951 46.2297 -2.3325 26.1468 -5.5099
# 2 48.8951 210.4180 77.1499 -9.5468 36.0598 -7.6709
# 3 46.2297 77.1499 132.6427 5.9649 26.5728 -1.1188
# 4 -2.3325 -9.5468 5.9649 59.1329 9.5693 12.1861
# 5 26.1468 36.0598 26.5728 9.5693 56.3127 -10.5815
# 6 -5.5099 -7.6709 -1.1188 12.1861 -10.5815 34.1243
#
#
#
# Elastic Compliance Matrix: (Units=1/GPa)
#
#
# Indices 1 2 3 4 5 6 
#
# 1 0.009013 -0.000776 -0.002166 0.000901 -0.002816 0.000015
# 2 -0.000776 0.006624 -0.003112 0.001856 -0.002778 -0.000263
# 3 -0.002166 -0.003112 0.010538 -0.001151 -0.001947 -0.000897
# 4 0.000901 0.001856 -0.001151 0.020108 -0.006086 -0.008543
# 5 -0.002816 -0.002778 -0.001947 -0.006086 0.024414 0.008601
# 6 0.000015 -0.000263 -0.000897 -0.008543 0.008601 0.034936
#
#
# Mechanical properties :
#
#
# Convention : Reuss Voigt Hill
#
# Bulk Modulus (GPa) = 71.08510 91.36649 81.22580
# Shear Modulus (GPa) = 40.83967 50.27893 45.55930
#
# Velocity S-wave (km/s) = 3.91695 4.34610 4.13709
# Velocity P-wave (km/s) = 6.86743 7.71421 7.30310
#
# Compressibility (1/GPa) = 0.01406765
#
# Stress axis : x y z
#
# Youngs Moduli (GPa) = 110.95557 150.95660 94.89327
#
# Poissons Ratio (x) = 0.11715 0.20554
# Poissons Ratio (y) = 0.08611 0.29528
# Poissons Ratio (z) = 0.24033 0.46973
#
# Static dielectric constant tensor:
#      x y z
#    x 2.058630 -0.014960 -0.035040 
#    y -0.014960 2.112020 0.031270 
#    z -0.035040 0.031270 2.116040 
# 
# From -- ./inp_files/384237.got.cif
#   From: 2010.05.17/outbox.cif.g08.bks.cpg/sg2_193_cif.got.tgz:384237.got - 2010.06.03 11:33:40.
