data_PCOD9034291
_publ_section_title
;
Structure prediction by ZEFSAII (Michael W. Deem and Ramdas Pophale) SiO2 
 PCOD9034291
Probable space group: P -1
;
_chemical_formula_sum "Si O2"
_cell_formula_units_Z 16
_cell_length_a 11.511808
_cell_length_b 16.441748
_cell_length_c 9.006080
_cell_angle_alpha 59.064478
_cell_angle_beta 95.503210
_cell_angle_gamma 46.496962
_cell_volume 732.729727
_symmetry_space_group_name_H-M "P -1"
_symmetry_group_IT_number 2
_symmetry_cell_setting 'triclinic'
loop_
_space_group_symop_operation_xyz
x,y,z
-x,-y,-z
loop_
_atom_site_type_symbol
_atom_site_label
_atom_site_fract_x
_atom_site_fract_y
_atom_site_fract_z
Si Si1 0.865669 0.740344 0.799629
Si Si2 0.754098 0.631609 0.299111
Si Si3 0.518039 0.507808 0.670628
Si Si4 0.319989 0.337733 0.142878
Si Si5 0.106465 0.664958 0.494718
Si Si6 0.469964 0.764179 0.426325
Si Si7 0.013890 0.198172 0.986347
Si Si8 0.367644 0.970548 0.736333
O O1 0.799644 0.679612 0.891220
O O2 0.894858 0.785874 0.904278
O O3 0.682504 0.911142 0.499464
O O4 0.117025 0.557799 0.921772
O O5 0.821357 0.495555 0.330726
O O6 0.613913 0.689944 0.367749
O O7 0.000000 0.500000 0.500000
O O8 0.577936 0.828642 0.013371
O O9 0.500000 0.500000 0.500000
O O10 0.325120 0.575511 0.652480
O O11 0.466659 0.654136 0.552311
O O12 0.788579 0.306861 0.929422
O O13 0.410459 0.271411 0.384639
O O14 0.546486 0.178681 0.214166
O O15 0.873314 0.863699 0.360052
O O16 0.059273 0.708586 0.270075
O O17 0.212831 0.983966 0.178654
#
# Coordination Sequence:
#
# PCOD9034291 Si02
#       8
#     2   2   2   2   2   2   2   2
#     4  11  24  44  68  98 137 184 227 273 335 403
#     4  12  28  42  67 103 142 174 218 278 345 401
#     4  10  22  44  72  98 131 174 234 291 326 387
#     4  11  25  42  70  97 137 182 229 272 330 415
#     4  11  25  45  68 102 133 178 223 289 341 380
#     4  12  23  44  72 103 128 182 233 272 335 405
#     4  11  22  42  74  99 129 175 237 279 326 400
#     4  12  26  43  65 100 142 175 218 275 343 407
#
# _framework density 21.836152999999999
#
# number of rings (size 3 to 8) (size 9 to 14) (size 15 to 20)
#    0.000    0.750    6.250    1.125    7.000    3.500 
#    0.000    1.250    0.000    0.000    0.000    0.000 
#    0.000    0.000    0.000    0.000    0.000    0.000 
#
# Total GULP energy -89371.091374 kJ/mol
# GULP energy per Si atom -5585.693211 kJ/mol
# Density = 2.178645 g / cm^3
# Si number density = 21.836153 Si / 1000 Ang^3
#
#
#
# Elastic Constant Matrix: (Units=GPa)
#
#
# Indices 1 2 3 4 5 6 
#
# 1 89.2399 37.1317 17.9849 -13.8161 24.0635 -5.9579
# 2 37.1317 145.4054 26.3832 -28.7763 8.2563 -14.9773
# 3 17.9849 26.3832 105.9354 -35.1326 6.2335 -14.1054
# 4 -13.8161 -28.7763 -35.1326 55.2590 -0.7933 3.9995
# 5 24.0635 8.2563 6.2335 -0.7933 21.4775 2.7576
# 6 -5.9579 -14.9773 -14.1054 3.9995 2.7576 18.8069
#
#
#
# Elastic Compliance Matrix: (Units=1/GPa)
#
#
# Indices 1 2 3 4 5 6 
#
# 1 0.018638 -0.002378 0.000560 0.002981 -0.020902 0.006862
# 2 -0.002378 0.008871 0.000330 0.003782 -0.001469 0.005970
# 3 0.000560 0.000330 0.013601 0.008174 -0.005650 0.009732
# 4 0.002981 0.003782 0.008174 0.025497 -0.006955 0.005684
# 5 -0.020902 -0.001469 -0.005650 -0.006955 0.074687 -0.021501
# 6 0.006862 0.005970 0.009732 0.005684 -0.021501 0.069343
#
#
# Mechanical properties :
#
#
# Convention : Reuss Voigt Hill
#
# Bulk Modulus (GPa) = 26.22198 55.95337 41.08767
# Shear Modulus (GPa) = 22.09212 36.38073 29.23642
#
# Velocity S-wave (km/s) = 3.18421 4.08619 3.66307
# Velocity P-wave (km/s) = 5.05505 6.92405 6.06201
#
# Compressibility (1/GPa) = 0.03813595
#
# Stress axis : x y z
#
# Youngs Moduli (GPa) = 53.65400 112.72109 73.52139
#
# Poissons Ratio (x) = 0.26800 -0.04119
# Poissons Ratio (y) = 0.12756 -0.02425
# Poissons Ratio (z) = -0.03006 -0.03718
#
# Static dielectric constant tensor:
#      x y z
#    x 1.831940 -0.057560 -0.012810 
#    y -0.057560 1.834670 0.011250 
#    z -0.012810 0.011250 1.865560 
# 
# From -- ./inp_files/272598.got.cif
#   From: 2010.05.17/outbox.cif.g08.bks.cpg/sg2_137_cif.got.tgz:272598.got - 2010.06.03 11:33:40.
