data_PCOD9034702
_publ_section_title
;
Structure prediction by ZEFSAII (Michael W. Deem and Ramdas Pophale) SiO2 
 PCOD9034702
Probable space group: P -1
;
_chemical_formula_sum "Si O2"
_cell_formula_units_Z 16
_cell_length_a 5.583642
_cell_length_b 11.093752
_cell_length_c 9.651459
_cell_angle_alpha 84.371909
_cell_angle_beta 102.256155
_cell_angle_gamma 83.342824
_cell_volume 575.626788
_symmetry_space_group_name_H-M "P -1"
_symmetry_group_IT_number 2
_symmetry_cell_setting 'triclinic'
loop_
_space_group_symop_operation_xyz
x,y,z
-x,-y,-z
loop_
_atom_site_type_symbol
_atom_site_label
_atom_site_fract_x
_atom_site_fract_y
_atom_site_fract_z
Si Si1 0.077942 0.599812 0.722214
Si Si2 0.489382 0.818508 0.109108
Si Si3 0.301607 0.753933 0.367704
Si Si4 0.881695 0.956159 0.200969
Si Si5 0.409650 0.478641 0.304339
Si Si6 0.291395 0.938788 0.563565
Si Si7 0.261625 0.398003 0.994528
Si Si8 0.012119 0.813913 0.885349
O O1 0.293260 0.555222 0.644536
O O2 0.115826 0.500584 0.866087
O O3 0.105755 0.732596 0.771531
O O4 0.792258 0.599000 0.644052
O O5 0.483196 0.807330 0.274791
O O6 0.545976 0.681489 0.072382
O O7 0.692529 0.902144 0.080811
O O8 0.219940 0.853756 0.008320
O O9 0.327613 0.613497 0.340811
O O10 0.335459 0.802255 0.520921
O O11 0.033702 0.829286 0.289162
O O12 0.695340 0.038233 0.274466
O O13 0.085424 0.048416 0.190770
O O14 0.377049 0.453366 0.137291
O O15 0.500000 0.000000 0.500000
O O16 0.000000 0.000000 0.500000
O O17 0.119069 0.289015 0.044580
#
# Coordination Sequence:
#
# PCOD9034702 Si02
#       8
#     2   2   2   2   2   2   2   2
#     4  11  21  38  60  87 123 168 210 250 301 366
#     4  12  20  36  61  90 126 167 209 249 313 381
#     4  11  23  39  67  91 122 160 219 265 315 360
#     4  11  25  41  59  91 130 167 210 259 320 379
#     4  11  21  36  62  90 119 156 210 263 300 361
#     4  10  22  45  67  90 119 165 217 266 307 362
#     4  11  22  37  56  86 127 167 217 243 311 364
#     4  11  24  38  56  90 136 173 200 251 319 386
#
# _framework density 27.795787000000001
#
# number of rings (size 3 to 8) (size 9 to 14) (size 15 to 20)
#    0.000    1.000    3.750    5.250    0.000    3.000 
#    0.000    0.000    0.000    3.750    0.000    0.000 
#    0.000    0.000    0.000    0.000    0.000    0.000 
#
# Total GULP energy -89355.923070 kJ/mol
# GULP energy per Si atom -5584.745192 kJ/mol
# Density = 2.773252 g / cm^3
# Si number density = 27.795787 Si / 1000 Ang^3
#
#
#
# Elastic Constant Matrix: (Units=GPa)
#
#
# Indices 1 2 3 4 5 6 
#
# 1 154.2251 59.4313 20.4240 6.1778 -22.2609 15.8893
# 2 59.4313 202.7910 56.1597 52.0021 -15.3217 20.1022
# 3 20.4240 56.1597 110.6398 33.7940 -31.1454 2.4649
# 4 6.1778 52.0021 33.7940 49.8526 -4.3386 -12.6516
# 5 -22.2609 -15.3217 -31.1454 -4.3386 31.4672 9.6486
# 6 15.8893 20.1022 2.4649 -12.6516 9.6486 58.2926
#
#
#
# Elastic Compliance Matrix: (Units=1/GPa)
#
#
# Indices 1 2 3 4 5 6 
#
# 1 0.008449 -0.002041 0.001735 -0.000187 0.007585 -0.002968
# 2 -0.002041 0.008841 -0.000146 -0.009916 0.002919 -0.005121
# 3 0.001735 -0.000146 0.018401 -0.012644 0.019842 -0.007229
# 4 -0.000187 -0.009916 -0.012644 0.041555 -0.016580 0.015768
# 5 0.007585 0.002919 0.019842 -0.016580 0.061335 -0.017664
# 6 -0.002968 -0.005121 -0.007229 0.015768 -0.017664 0.026382
#
#
# Mechanical properties :
#
#
# Convention : Reuss Voigt Hill
#
# Bulk Modulus (GPa) = 28.74793 82.18734 55.46764
# Shear Modulus (GPa) = 28.17484 50.03188 39.10336
#
# Velocity S-wave (km/s) = 3.18722 4.24722 3.75481
# Velocity P-wave (km/s) = 4.88973 7.32696 6.22872
#
# Compressibility (1/GPa) = 0.03478511
#
# Stress axis : x y z
#
# Youngs Moduli (GPa) = 118.35734 113.11174 54.34525
#
# Poissons Ratio (x) = 0.23090 -0.09428
# Poissons Ratio (y) = 0.24160 0.00795
# Poissons Ratio (z) = -0.20532 0.01654
#
# Static dielectric constant tensor:
#      x y z
#    x 2.308080 -0.033570 -0.010680 
#    y -0.033570 2.211240 -0.237560 
#    z -0.010680 -0.237560 2.489970 
# 
# From -- ./inp_files/363188.got.cif
#   From: 2010.05.17/outbox.cif.g08.bks.cpg/sg2_182_cif.got.tgz:363188.got - 2010.06.03 11:33:40.
