data_PCOD9034655
_publ_section_title
;
Structure prediction by ZEFSAII (Michael W. Deem and Ramdas Pophale) SiO2 
 PCOD9034655
Probable space group: P -1
;
_chemical_formula_sum "Si O2"
_cell_formula_units_Z 14
_cell_length_a 10.760408
_cell_length_b 8.103044
_cell_length_c 18.833647
_cell_angle_alpha 39.407737
_cell_angle_beta 36.748967
_cell_angle_gamma 64.027044
_cell_volume 548.227003
_symmetry_space_group_name_H-M "P -1"
_symmetry_group_IT_number 2
_symmetry_cell_setting 'triclinic'
loop_
_space_group_symop_operation_xyz
x,y,z
-x,-y,-z
loop_
_atom_site_type_symbol
_atom_site_label
_atom_site_fract_x
_atom_site_fract_y
_atom_site_fract_z
Si Si1 0.200458 0.190667 0.788101
Si Si2 0.543743 0.455482 0.913122
Si Si3 0.155885 0.586048 0.973692
Si Si4 0.290371 0.413907 0.529610
Si Si5 0.250697 0.930415 0.605916
Si Si6 0.142255 0.240655 0.444518
Si Si7 0.694235 0.166655 0.737683
O O1 0.141371 0.319098 0.701638
O O2 0.434274 0.470749 0.616910
O O3 0.264987 0.937722 0.814654
O O4 0.000000 0.000000 0.000000
O O5 0.797363 0.693126 0.687335
O O6 0.500000 0.500000 0.000000
O O7 0.352137 0.484708 0.938661
O O8 0.515339 0.127521 0.037244
O O9 0.948661 0.405030 0.185920
O O10 0.000000 0.500000 0.000000
O O11 0.181815 0.128070 0.624338
O O12 0.319877 0.688691 0.378103
O O13 0.277373 0.073355 0.469671
O O14 0.500000 0.000000 0.500000
O O15 0.237160 0.570580 0.325044
O O16 0.893120 0.079081 0.652351
#
# Coordination Sequence:
#
# PCOD9034655 Si02
#       7
#     2   2   2   2   2   2   2
#     4  11  24  43  65 100 137 183 230 282 352 409
#     4  12  26  44  66 104 144 178 224 288 360 411
#     4  12  24  43  70 103 140 177 236 291 340 417
#     4  10  23  42  67  95 137 180 227 288 337 413
#     4  11  21  42  68 101 134 180 231 287 344 404
#     4  10  23  42  70  94 129 185 227 282 335 414
#     4  10  22  45  66  96 132 177 242 271 337 417
#
# _framework density 25.536867000000001
#
# number of rings (size 3 to 8) (size 9 to 14) (size 15 to 20)
#    0.000    1.143    2.857    3.000    0.000    4.000 
#    2.571    0.000    0.000    0.000    0.000    0.000 
#    0.000    0.000    0.000    0.000    0.000    0.000 
#
# Total GULP energy -78159.170020 kJ/mol
# GULP energy per Si atom -5582.797859 kJ/mol
# Density = 2.547874 g / cm^3
# Si number density = 25.536867 Si / 1000 Ang^3
#
#
#
# Elastic Constant Matrix: (Units=GPa)
#
#
# Indices 1 2 3 4 5 6 
#
# 1 79.2689 14.0849 25.9982 7.7403 29.9280 -4.4910
# 2 14.0849 50.7595 17.1902 -11.9133 6.4010 6.7453
# 3 25.9982 17.1902 185.0684 0.3507 29.7915 6.3916
# 4 7.7403 -11.9133 0.3507 52.1716 10.7542 0.5060
# 5 29.9280 6.4010 29.7915 10.7542 51.0215 -1.2978
# 6 -4.4910 6.7453 6.3916 0.5060 -1.2978 38.0977
#
#
#
# Elastic Compliance Matrix: (Units=1/GPa)
#
#
# Indices 1 2 3 4 5 6 
#
# 1 0.017201 -0.004187 -0.000711 -0.001732 -0.008718 0.002614
# 2 -0.004187 0.023525 -0.001257 0.006294 -0.001205 -0.004572
# 3 -0.000711 -0.001257 0.006159 0.000434 -0.003139 -0.001007
# 4 -0.001732 0.006294 0.000434 0.021841 -0.004678 -0.001841
# 5 -0.008718 -0.001205 -0.003139 -0.004678 0.027701 0.000718
# 6 0.002614 -0.004572 -0.001007 -0.001841 0.000718 0.027584
#
#
# Mechanical properties :
#
#
# Convention : Reuss Voigt Hill
#
# Bulk Modulus (GPa) = 28.92224 47.73815 38.33019
# Shear Modulus (GPa) = 33.81898 45.44640 39.63269
#
# Velocity S-wave (km/s) = 3.64307 4.22315 3.94379
# Velocity P-wave (km/s) = 5.38945 6.52031 5.98166
#
# Compressibility (1/GPa) = 0.03457547
#
# Stress axis : x y z
#
# Youngs Moduli (GPa) = 58.13606 42.50814 162.35659
#
# Poissons Ratio (x) = 0.17796 0.11546
# Poissons Ratio (y) = 0.24339 0.20410
# Poissons Ratio (z) = 0.04134 0.05344
#
# Static dielectric constant tensor:
#      x y z
#    x 2.239790 -0.058840 -0.028080 
#    y -0.058840 2.076400 0.032930 
#    z -0.028080 0.032930 1.963560 
# 
# From -- ./inp_files/337558.got.cif
#   From: 2010.05.17/outbox.cif.g08.bks.cpg/sg2_169_cif.got.tgz:337558.got - 2010.06.03 11:33:40.
