data_PCOD9034636
_publ_section_title
;
Structure prediction by ZEFSAII (Michael W. Deem and Ramdas Pophale) SiO2 
 PCOD9034636
Probable space group: P -1
;
_chemical_formula_sum "Si O2"
_cell_formula_units_Z 13
_cell_length_a 11.517882
_cell_length_b 13.394858
_cell_length_c 11.037203
_cell_angle_alpha 145.858240
_cell_angle_beta 41.271623
_cell_angle_gamma 121.587143
_cell_volume 607.795616
_symmetry_space_group_name_H-M "P -1"
_symmetry_group_IT_number 2
_symmetry_cell_setting 'triclinic'
loop_
_space_group_symop_operation_xyz
x,y,z
-x,-y,-z
loop_
_atom_site_type_symbol
_atom_site_label
_atom_site_fract_x
_atom_site_fract_y
_atom_site_fract_z
Si Si1 0.000000 0.500000 0.500000
Si Si2 0.581728 0.223797 0.220457
Si Si3 0.637637 0.818909 0.863814
Si Si4 0.884661 0.429633 0.253353
Si Si5 0.303647 0.594893 0.191298
Si Si6 0.745394 0.684610 0.253862
Si Si7 0.423683 0.936834 0.374541
O O1 0.966339 0.392551 0.287758
O O2 0.849995 0.419371 0.607698
O O3 0.537548 0.213231 0.102792
O O4 0.716299 0.343105 0.273568
O O5 0.381408 0.300979 0.515233
O O6 0.657599 0.015144 0.000326
O O7 0.809028 0.650720 0.533701
O O8 0.593516 0.824902 0.046670
O O9 0.036827 0.358178 0.959461
O O10 0.299210 0.802320 0.367415
O O11 0.500000 0.500000 0.000000
O O12 0.290211 0.475247 0.963736
O O13 0.673242 0.882513 0.443556
O O14 0.500000 0.000000 0.500000
#
# Coordination Sequence:
#
# PCOD9034636 Si02
#       7
#     1   2   2   2   2   2   2
#     4  10  24  36  58  98 126 164 210 250 326 376
#     4  10  22  45  66  89 132 170 214 271 315 383
#     4  10  23  41  66  96 124 173 220 258 328 385
#     4  11  23  40  64  95 130 165 216 268 321 384
#     4  11  20  38  60  86 129 165 207 265 305 385
#     4  10  23  39  62  99 122 169 217 257 329 382
#     4  11  22  38  66  95 127 173 214 261 329 381
#
# _framework density 21.388769
#
# number of rings (size 3 to 8) (size 9 to 14) (size 15 to 20)
#    0.000    1.538    1.538    3.231    4.308    3.077 
#    0.000   12.308    0.000    0.000    0.000    0.000 
#    0.000    0.000    0.000    0.000    0.000    0.000 
#
# Total GULP energy -72406.359791 kJ/mol
# GULP energy per Si atom -5569.719984 kJ/mol
# Density = 2.134009 g / cm^3
# Si number density = 21.388769 Si / 1000 Ang^3
#
#
#
# Elastic Constant Matrix: (Units=GPa)
#
#
# Indices 1 2 3 4 5 6 
#
# 1 48.8761 27.5738 9.9278 -9.4108 18.9438 2.1253
# 2 27.5738 106.4898 43.2717 3.0022 3.8649 16.6172
# 3 9.9278 43.2717 97.2979 -1.7626 -1.8271 6.4650
# 4 -9.4108 3.0022 -1.7626 28.3493 4.5448 1.7687
# 5 18.9438 3.8649 -1.8271 4.5448 30.7460 -2.9088
# 6 2.1253 16.6172 6.4650 1.7687 -2.9088 18.5437
#
#
#
# Elastic Compliance Matrix: (Units=1/GPa)
#
#
# Indices 1 2 3 4 5 6 
#
# 1 0.039588 -0.009622 0.000207 0.018468 -0.026074 -0.001838
# 2 -0.009622 0.015630 -0.005332 -0.005110 0.003455 -0.010015
# 3 0.000207 -0.005332 0.012644 0.001209 0.001154 0.000412
# 4 0.018468 -0.005110 0.001209 0.045195 -0.017825 -0.005066
# 5 -0.026074 0.003455 0.001154 -0.017825 0.051739 0.009306
# 6 -0.001838 -0.010015 0.000412 -0.005066 0.009306 0.064912
#
#
# Mechanical properties :
#
#
# Convention : Reuss Voigt Hill
#
# Bulk Modulus (GPa) = 26.06307 46.02336 36.04322
# Shear Modulus (GPa) = 18.38293 26.98717 22.68505
#
# Velocity S-wave (km/s) = 2.93485 3.55596 3.26023
# Velocity P-wave (km/s) = 4.86788 6.19871 5.57316
#
# Compressibility (1/GPa) = 0.03836846
#
# Stress axis : x y z
#
# Youngs Moduli (GPa) = 25.26006 63.97902 79.08913
#
# Poissons Ratio (x) = 0.61563 -0.01638
# Poissons Ratio (y) = 0.24306 0.42167
# Poissons Ratio (z) = -0.00523 0.34111
#
# Static dielectric constant tensor:
#      x y z
#    x 8.827540 -4.532070 0.709370 
#    y -4.532070 4.678520 -0.512270 
#    z 0.709370 -0.512270 1.917740 
# 
# From -- ./inp_files/430726.got.cif
#   From: 2010.05.17/outbox.cif.g08.bks.cpg/sg2_216_cif.got.tgz:430726.got - 2010.06.03 11:33:40.
