data_PCOD9034775
_publ_section_title
;
Structure prediction by ZEFSAII (Michael W. Deem and Ramdas Pophale) SiO2 
 PCOD9034775
Probable space group: P -1
;
_chemical_formula_sum "Si O2"
_cell_formula_units_Z 14
_cell_length_a 13.543827
_cell_length_b 9.077551
_cell_length_c 16.825051
_cell_angle_alpha 54.798510
_cell_angle_beta 137.396961
_cell_angle_gamma 153.475357
_cell_volume 601.798697
_symmetry_space_group_name_H-M "P -1"
_symmetry_group_IT_number 2
_symmetry_cell_setting 'triclinic'
loop_
_space_group_symop_operation_xyz
x,y,z
-x,-y,-z
loop_
_atom_site_type_symbol
_atom_site_label
_atom_site_fract_x
_atom_site_fract_y
_atom_site_fract_z
Si Si1 0.586610 0.393327 0.565399
Si Si2 0.053638 0.623604 0.100610
Si Si3 0.437480 0.561686 0.864689
Si Si4 0.944937 0.323893 0.294547
Si Si5 0.251163 0.343087 0.095985
Si Si6 0.663790 0.396786 0.790718
Si Si7 0.057874 0.680911 0.398937
O O1 0.500000 0.500000 0.500000
O O2 0.892542 0.690799 0.619015
O O3 0.573043 0.300292 0.675149
O O4 0.362799 0.076942 0.472082
O O5 0.035508 0.538209 0.206769
O O6 0.079097 0.470940 0.108947
O O7 0.324153 0.032466 0.118917
O O8 0.796375 0.491583 0.986298
O O9 0.490090 0.479166 0.847852
O O10 0.160793 0.388805 0.734351
O O11 0.500000 0.500000 0.000000
O O12 0.053161 0.536693 0.369507
O O13 0.618528 0.959580 0.222695
O O14 0.245934 0.326297 0.194525
O O15 0.000000 0.000000 0.000000
O O16 0.000000 0.500000 0.500000
#
# Coordination Sequence:
#
# PCOD9034775 Si02
#       7
#     2   2   2   2   2   2   2
#     4  11  27  42  67 106 139 180 239 306 357 414
#     4  10  22  45  68 102 137 185 236 286 355 433
#     4  11  24  44  72 106 144 183 239 299 361 418
#     4  11  23  44  72 100 139 188 238 292 360 426
#     4  10  24  42  67  99 139 183 229 289 360 420
#     4  11  23  45  68  99 142 180 238 300 354 429
#     4  12  23  47  75 102 143 196 244 285 352 441
#
# _framework density 23.263593
#
# number of rings (size 3 to 8) (size 9 to 14) (size 15 to 20)
#    0.000    1.143    2.857    2.571    2.000    6.857 
#    5.143    0.000    0.000    0.000    0.000    0.000 
#    0.000    0.000    0.000    0.000    0.000    0.000 
#
# Total GULP energy -77996.586380 kJ/mol
# GULP energy per Si atom -5571.184741 kJ/mol
# Density = 2.321064 g / cm^3
# Si number density = 23.263593 Si / 1000 Ang^3
#
#
#
# Elastic Constant Matrix: (Units=GPa)
#
#
# Indices 1 2 3 4 5 6 
#
# 1 209.3145 23.3149 49.9132 4.8378 -8.2755 -0.2988
# 2 23.3149 55.5477 34.7183 7.3357 -16.0891 5.3243
# 3 49.9132 34.7183 122.8675 12.2268 0.8621 13.7289
# 4 4.8378 7.3357 12.2268 35.3522 -13.7733 -13.6723
# 5 -8.2755 -16.0891 0.8621 -13.7733 38.1802 4.9342
# 6 -0.2988 5.3243 13.7289 -13.6723 4.9342 26.6738
#
#
#
# Elastic Compliance Matrix: (Units=1/GPa)
#
#
# Indices 1 2 3 4 5 6 
#
# 1 0.005447 -0.000878 -0.002337 0.001449 0.001131 0.001972
# 2 -0.000878 0.026289 -0.006703 -0.000060 0.011531 -0.003971
# 3 -0.002337 -0.006703 0.012760 -0.008066 -0.005446 -0.008383
# 4 0.001449 -0.000060 -0.008066 0.046025 0.013815 0.025215
# 5 0.001131 0.011531 -0.005446 0.013815 0.036288 0.000883
# 6 0.001972 -0.003971 -0.008383 0.025215 0.000883 0.055381
#
#
# Mechanical properties :
#
#
# Convention : Reuss Voigt Hill
#
# Bulk Modulus (GPa) = 40.55270 67.06918 53.81094
# Shear Modulus (GPa) = 23.78175 38.69347 31.23761
#
# Velocity S-wave (km/s) = 3.20077 4.08274 3.66836
# Velocity P-wave (km/s) = 5.57939 7.14966 6.41277
#
# Compressibility (1/GPa) = 0.02465927
#
# Stress axis : x y z
#
# Youngs Moduli (GPa) = 183.59944 38.03884 78.37177
#
# Poissons Ratio (x) = 0.03341 0.18315
# Poissons Ratio (y) = 0.16125 0.52531
# Poissons Ratio (z) = 0.42906 0.25497
#
# Static dielectric constant tensor:
#      x y z
#    x 1.938100 -0.013980 -0.000510 
#    y -0.013980 1.902650 -0.083310 
#    z -0.000510 -0.083310 2.404970 
# 
# From -- ./inp_files/283413.got.cif
#   From: 2010.05.17/outbox.cif.g08.bks.cpg/sg2_142_cif.got.tgz:283413.got - 2010.06.03 11:33:40.
