data_PCOD9034627
_publ_section_title
;
Structure prediction by ZEFSAII (Michael W. Deem and Ramdas Pophale) SiO2 
 PCOD9034627
Probable space group: P -1
;
_chemical_formula_sum "Si O2"
_cell_formula_units_Z 14
_cell_length_a 5.137484
_cell_length_b 19.915789
_cell_length_c 9.934634
_cell_angle_alpha 36.379997
_cell_angle_beta 98.964561
_cell_angle_gamma 97.788412
_cell_volume 595.461718
_symmetry_space_group_name_H-M "P -1"
_symmetry_group_IT_number 2
_symmetry_cell_setting 'triclinic'
loop_
_space_group_symop_operation_xyz
x,y,z
-x,-y,-z
loop_
_atom_site_type_symbol
_atom_site_label
_atom_site_fract_x
_atom_site_fract_y
_atom_site_fract_z
Si Si1 0.759015 0.079153 0.390994
Si Si2 0.852889 0.579745 0.020579
Si Si3 0.117363 0.879440 0.365062
Si Si4 0.360969 0.741555 0.137669
Si Si5 0.332306 0.095765 0.902221
Si Si6 0.692525 0.354252 0.258326
Si Si7 0.148805 0.383164 0.725892
O O1 0.844545 0.130488 0.457567
O O2 0.500000 0.000000 0.500000
O O3 0.686632 0.177481 0.123944
O O4 0.000000 0.000000 0.500000
O O5 0.605379 0.622146 0.846005
O O6 0.118228 0.614320 0.905815
O O7 0.802496 0.443224 0.234836
O O8 0.841393 0.626965 0.094419
O O9 0.291279 0.776863 0.489774
O O10 0.846137 0.853381 0.310107
O O11 0.166684 0.012962 0.123610
O O12 0.502198 0.814217 0.146589
O O13 0.563662 0.642554 0.270430
O O14 0.065485 0.704211 0.212036
O O15 0.500000 0.000000 0.000000
O O16 0.000000 0.500000 0.500000
#
# Coordination Sequence:
#
# PCOD9034627 Si02
#       7
#     2   2   2   2   2   2   2
#     4  12  24  43  72 103 139 185 233 283 347 412
#     4  10  22  45  66 103 133 168 238 279 345 403
#     4  11  25  43  69 101 137 183 229 279 350 410
#     4  12  27  48  72 103 143 184 236 293 348 421
#     4  11  27  45  67 102 144 184 234 283 345 430
#     4  10  23  41  72  97 133 178 220 294 335 408
#     4  12  27  46  73 100 139 186 233 290 354 418
#
# _framework density 23.511165999999999
#
# number of rings (size 3 to 8) (size 9 to 14) (size 15 to 20)
#    0.000    0.857    1.429    4.714    8.000    0.000 
#    2.571    0.000    0.000    0.000    0.000    0.000 
#    0.000    0.000    0.000    0.000    0.000    0.000 
#
# Total GULP energy -78290.222255 kJ/mol
# GULP energy per Si atom -5592.158732 kJ/mol
# Density = 2.345765 g / cm^3
# Si number density = 23.511166 Si / 1000 Ang^3
#
#
#
# Elastic Constant Matrix: (Units=GPa)
#
#
# Indices 1 2 3 4 5 6 
#
# 1 88.8023 14.1460 18.8944 1.3996 17.6768 -3.9091
# 2 14.1460 146.7211 18.0372 10.8395 13.8333 21.8387
# 3 18.8944 18.0372 69.9452 -4.3684 24.8999 14.9983
# 4 1.3996 10.8395 -4.3684 42.7329 0.6282 7.4226
# 5 17.6768 13.8333 24.8999 0.6282 34.5690 -6.9102
# 6 -3.9091 21.8387 14.9983 7.4226 -6.9102 38.9951
#
#
#
# Elastic Compliance Matrix: (Units=1/GPa)
#
#
# Indices 1 2 3 4 5 6 
#
# 1 0.012799 -0.000805 -0.002218 -0.000723 -0.004217 0.001977
# 2 -0.000805 0.008118 0.000912 -0.000895 -0.004602 -0.005623
# 3 -0.002218 0.000912 0.025769 0.005459 -0.020969 -0.015399
# 4 -0.000723 -0.000895 0.005459 0.025581 -0.005159 -0.007454
# 5 -0.004217 -0.004602 -0.020969 -0.005159 0.052212 0.020454
# 6 0.001977 -0.005623 -0.015399 -0.007454 0.020454 0.039957
#
#
# Mechanical properties :
#
#
# Convention : Reuss Voigt Hill
#
# Bulk Modulus (GPa) = 23.54920 45.29155 34.42038
# Shear Modulus (GPa) = 27.35059 40.21881 33.78470
#
# Velocity S-wave (km/s) = 3.41442 4.14046 3.79484
# Velocity P-wave (km/s) = 5.05789 6.49334 5.82004
#
# Compressibility (1/GPa) = 0.04246428
#
# Stress axis : x y z
#
# Youngs Moduli (GPa) = 78.13201 123.18228 38.80679
#
# Poissons Ratio (x) = 0.09911 0.08607
# Poissons Ratio (y) = 0.06287 -0.03538
# Poissons Ratio (z) = 0.17328 -0.11232
#
# Static dielectric constant tensor:
#      x y z
#    x 1.816870 0.179520 -0.159670 
#    y 0.179520 1.287950 0.067480 
#    z -0.159670 0.067480 2.021390 
# 
# From -- ./inp_files/93046.got.cif
#   From: 2010.05.17/outbox.cif.g08.bks.cpg/sg2_47_cif.got.tgz:93046.got - 2010.06.03 11:33:40.
