data_PCOD9034193
_publ_section_title
;
Structure prediction by ZEFSAII (Michael W. Deem and Ramdas Pophale) SiO2 
 PCOD9034193
Probable space group: P -1
;
_chemical_formula_sum "Si O2"
_cell_formula_units_Z 12
_cell_length_a 4.883595
_cell_length_b 5.555700
_cell_length_c 21.630604
_cell_angle_alpha 53.692874
_cell_angle_beta 98.174349
_cell_angle_gamma 90.281397
_cell_volume 465.814632
_symmetry_space_group_name_H-M "P -1"
_symmetry_group_IT_number 2
_symmetry_cell_setting 'triclinic'
loop_
_space_group_symop_operation_xyz
x,y,z
-x,-y,-z
loop_
_atom_site_type_symbol
_atom_site_label
_atom_site_fract_x
_atom_site_fract_y
_atom_site_fract_z
Si Si1 0.608201 0.887587 0.087754
Si Si2 0.723496 0.211487 0.449771
Si Si3 0.368006 0.751954 0.364889
Si Si4 0.730457 0.689512 0.663129
Si Si5 0.678064 0.671881 0.797709
Si Si6 0.108676 0.209545 0.087039
O O1 0.531501 0.554473 0.149647
O O2 0.425984 0.103089 0.096831
O O3 0.922293 0.955559 0.096283
O O4 0.500000 0.000000 0.000000
O O5 0.635975 0.536606 0.428301
O O6 0.606233 0.277684 0.365907
O O7 0.500000 0.000000 0.500000
O O8 0.000000 0.000000 0.500000
O O9 0.175842 0.529086 0.357014
O O10 0.211852 0.964731 0.378795
O O11 0.445727 0.994474 0.279278
O O12 0.793297 0.551078 0.753027
O O13 0.895726 0.717526 0.851811
O O14 0.000000 0.500000 0.000000
#
# Coordination Sequence:
#
# PCOD9034193 Si02
#       6
#     2   2   2   2   2   2
#     4  12  26  45  71 103 141 190 246 300 362 421
#     4  10  22  44  72 101 140 182 236 293 352 440
#     4   8  19  42  67 102 138 186 228 290 362 414
#     4   8  19  42  67 102 138 186 228 290 362 414
#     4  10  22  44  72  97 154 178 250 295 356 436
#     4  12  26  45  71 103 141 190 246 300 362 421
#
# _framework density 25.761316999999998
#
# number of rings (size 3 to 8) (size 9 to 14) (size 15 to 20)
#    2.000    0.000    1.667    2.000    0.000    1.333 
#    3.000    3.333    0.000    0.000    0.000    0.000 
#    0.000    0.000    0.000    0.000    0.000    0.000 
#
# Total GULP energy -66930.423077 kJ/mol
# GULP energy per Si atom -5577.535256 kJ/mol
# Density = 2.570268 g / cm^3
# Si number density = 25.761317 Si / 1000 Ang^3
#
#
#
# Elastic Constant Matrix: (Units=GPa)
#
#
# Indices 1 2 3 4 5 6 
#
# 1 51.3502 7.3857 14.0377 -4.3444 8.0888 -5.8747
# 2 7.3857 158.0164 26.5081 0.2440 -8.4028 -2.5642
# 3 14.0377 26.5081 151.9913 -20.1563 -0.4362 7.7109
# 4 -4.3444 0.2440 -20.1563 67.7647 4.3196 -4.5485
# 5 8.0888 -8.4028 -0.4362 4.3196 29.7147 -3.0179
# 6 -5.8747 -2.5642 7.7109 -4.5485 -3.0179 36.2366
#
#
#
# Elastic Compliance Matrix: (Units=1/GPa)
#
#
# Indices 1 2 3 4 5 6 
#
# 1 0.021588 -0.000969 -0.001826 0.001464 -0.006035 0.003501
# 2 -0.000969 0.006706 -0.001180 -0.000537 0.002291 0.000692
# 3 -0.001826 -0.001180 0.007299 0.001956 -0.000187 -0.001703
# 4 0.001464 -0.000537 0.001956 0.015706 -0.002649 0.001534
# 5 -0.006035 0.002291 -0.000187 -0.002649 0.036523 0.001933
# 6 0.003501 0.000692 -0.001703 0.001534 0.001933 0.028929
#
#
# Mechanical properties :
#
#
# Convention : Reuss Voigt Hill
#
# Bulk Modulus (GPa) = 36.17513 50.80230 43.48872
# Shear Modulus (GPa) = 37.33775 47.63829 42.48802
#
# Velocity S-wave (km/s) = 3.81119 4.30492 4.06556
# Velocity P-wave (km/s) = 5.78272 6.66881 6.24151
#
# Compressibility (1/GPa) = 0.02764330
#
# Stress axis : x y z
#
# Youngs Moduli (GPa) = 46.32304 149.13053 137.00716
#
# Poissons Ratio (x) = 0.14452 0.25011
# Poissons Ratio (y) = 0.04489 0.16162
# Poissons Ratio (z) = 0.08456 0.17593
#
# Static dielectric constant tensor:
#      x y z
#    x 2.058210 -0.046730 0.002210 
#    y -0.046730 2.111650 0.004600 
#    z 0.002210 0.004600 2.065040 
# 
# From -- ./inp_files/581250.got.cif
#   From: 2010.05.17/outbox.cif.g08.bks.cpg/sg2_291_cif.got.tgz:581250.got - 2010.06.03 11:33:40.
