data_PCOD9034696
_publ_section_title
;
Structure prediction by ZEFSAII (Michael W. Deem and Ramdas Pophale) SiO2 
 PCOD9034696
Probable space group: P -1
;
_chemical_formula_sum "Si O2"
_cell_formula_units_Z 12
_cell_length_a 10.112216
_cell_length_b 13.018903
_cell_length_c 4.969434
_cell_angle_alpha 81.190846
_cell_angle_beta 64.333488
_cell_angle_gamma 49.117192
_cell_volume 437.590787
_symmetry_space_group_name_H-M "P -1"
_symmetry_group_IT_number 2
_symmetry_cell_setting 'triclinic'
loop_
_space_group_symop_operation_xyz
x,y,z
-x,-y,-z
loop_
_atom_site_type_symbol
_atom_site_label
_atom_site_fract_x
_atom_site_fract_y
_atom_site_fract_z
Si Si1 0.107383 0.216813 0.306534
Si Si2 0.786868 0.143315 0.676796
Si Si3 0.740575 0.490349 0.722660
Si Si4 0.276091 0.136787 0.658569
Si Si5 0.679071 0.316482 0.207732
Si Si6 0.637733 0.739497 0.040735
O O1 0.121694 0.148744 0.592596
O O2 0.931339 0.379240 0.420645
O O3 0.181141 0.126798 0.020702
O O4 0.299293 0.197376 0.247961
O O5 0.758664 0.258817 0.459565
O O6 0.592138 0.168797 0.762033
O O7 0.752263 0.192253 0.994680
O O8 0.000000 0.000000 0.500000
O O9 0.556493 0.580451 0.647574
O O10 0.723712 0.403702 0.985177
O O11 0.730645 0.595416 0.879798
O O12 0.267293 0.257224 0.772273
O O13 0.500000 0.000000 0.500000
#
# Coordination Sequence:
#
# PCOD9034696 Si02
#       6
#     2   2   2   2   2   2
#     4  10  23  40  67  99 130 183 214 281 339 398
#     4  11  24  46  68  95 132 182 232 272 336 400
#     4  10  22  45  67 105 141 172 230 271 351 404
#     4  10  23  42  61  96 137 178 225 269 336 395
#     4  10  25  43  68 100 135 180 219 290 324 401
#     4   9  24  40  69  96 138 173 221 288 331 396
#
# _framework density 27.422878999999998
#
# number of rings (size 3 to 8) (size 9 to 14) (size 15 to 20)
#    1.000    1.000    0.000    1.500    4.667   12.000 
#    3.000    0.000    0.000    0.000    0.000    0.000 
#    0.000    0.000    0.000    0.000    0.000    0.000 
#
# Total GULP energy -67006.199696 kJ/mol
# GULP energy per Si atom -5583.849975 kJ/mol
# Density = 2.736046 g / cm^3
# Si number density = 27.422879 Si / 1000 Ang^3
#
#
#
# Elastic Constant Matrix: (Units=GPa)
#
#
# Indices 1 2 3 4 5 6 
#
# 1 53.9553 16.4932 12.1346 14.3142 -10.3077 4.9237
# 2 16.4932 145.6063 46.5225 43.6960 -1.8588 -31.2273
# 3 12.1346 46.5225 48.1637 69.0863 16.4241 -25.0227
# 4 14.3142 43.6960 69.0863 38.1222 -5.1568 -17.8135
# 5 -10.3077 -1.8588 16.4241 -5.1568 61.8488 4.8497
# 6 4.9237 -31.2273 -25.0227 -17.8135 4.8497 36.9533
#
#
#
# Elastic Compliance Matrix: (Units=1/GPa)
#
#
# Indices 1 2 3 4 5 6 
#
# 1 0.023070 -0.002217 -0.002537 -0.005532 0.004771 -0.009958
# 2 -0.002217 0.009970 -0.003252 -0.002120 0.000188 0.005472
# 3 -0.002537 -0.003252 -0.009672 0.023631 0.003867 0.001924
# 4 -0.005532 -0.002120 0.023631 -0.007430 -0.008863 0.012528
# 5 0.004771 0.000188 0.003867 -0.008863 0.015530 -0.004169
# 6 -0.009958 0.005472 0.001924 0.012528 -0.004169 0.040902
#
#
# Mechanical properties :
#
#
# Convention : Reuss Voigt Hill
#
# Bulk Modulus (GPa) = 135.93705 44.22510 90.08108
# Shear Modulus (GPa) = 55.04637 38.88987 46.96812
#
# Velocity S-wave (km/s) = 4.48517 3.76992 4.14301
# Velocity P-wave (km/s) = 8.74646 5.92553 7.47036
#
# Compressibility (1/GPa) = 0.00735635
#
# Stress axis : x y z
#
# Youngs Moduli (GPa) = 43.34649 100.29912 -103.38649
#
# Poissons Ratio (x) = 0.22241 -0.26224
# Poissons Ratio (y) = 0.09612 -0.33618
# Poissons Ratio (z) = 0.10995 0.32614
#
# Static dielectric constant tensor:
#      x y z
#    x 2.546790 -0.037480 -0.086500 
#    y -0.037480 2.206520 -0.257300 
#    z -0.086500 -0.257300 2.535840 
# 
# From -- ./inp_files/74128.got.cif
#   From: 2010.05.17/outbox.cif.g08.bks.cpg/sg2_38_cif.got.tgz:74128.got - 2010.06.03 11:33:40.
