data_PCOD9034629
_publ_section_title
;
Structure prediction by ZEFSAII (Michael W. Deem and Ramdas Pophale) SiO2 
 PCOD9034629
Probable space group: P -1
;
_chemical_formula_sum "Si O2"
_cell_formula_units_Z 15
_cell_length_a 8.631473
_cell_length_b 5.290188
_cell_length_c 21.457058
_cell_angle_alpha 117.088597
_cell_angle_beta 139.194686
_cell_angle_gamma 67.428236
_cell_volume 568.745424
_symmetry_space_group_name_H-M "P -1"
_symmetry_group_IT_number 2
_symmetry_cell_setting 'triclinic'
loop_
_space_group_symop_operation_xyz
x,y,z
-x,-y,-z
loop_
_atom_site_type_symbol
_atom_site_label
_atom_site_fract_x
_atom_site_fract_y
_atom_site_fract_z
Si Si1 0.639517 0.503808 0.360738
Si Si2 0.213670 0.973196 0.301963
Si Si3 0.730687 0.746125 0.157854
Si Si4 0.500000 0.500000 0.500000
Si Si5 0.620628 0.825072 0.838683
Si Si6 0.931532 0.299736 0.543860
Si Si7 0.395199 0.308495 0.022005
Si Si8 0.112538 0.782538 0.117518
O O1 0.431927 0.738965 0.338111
O O2 0.536116 0.210680 0.276120
O O3 0.776383 0.477919 0.464728
O O4 0.815222 0.566105 0.363900
O O5 0.116812 0.992222 0.203040
O O6 0.994230 0.845918 0.258190
O O7 0.321996 0.252388 0.393640
O O8 0.722560 0.595458 0.070437
O O9 0.553659 0.026353 0.146558
O O10 0.595927 0.510026 0.128630
O O11 0.742675 0.284427 0.539242
O O12 0.731877 0.505103 0.848019
O O13 0.799906 0.052103 0.896765
O O14 0.000000 0.000000 0.500000
O O15 0.156851 0.285637 0.985436
O O16 0.500000 0.000000 0.000000
#
# Coordination Sequence:
#
# PCOD9034629 Si02
#       8
#     2   2   2   1   2   2   2   2
#     4  10  23  43  67  89 140 180 229 292 362 403
#     4  10  22  45  66 103 134 187 231 293 348 432
#     4  10  24  44  66 102 139 177 240 287 354 423
#     4  12  22  40  72  96 134 178 240 276 356 416
#     4  11  24  44  69 104 135 186 228 296 348 429
#     4  11  23  43  62  96 133 180 231 298 342 417
#     4  10  24  44  70  97 139 188 224 295 348 433
#     4  10  25  44  71  98 143 182 232 289 365 405
#
# _framework density 26.373842
#
# number of rings (size 3 to 8) (size 9 to 14) (size 15 to 20)
#    0.000    1.600    1.333    1.600   11.200    1.600 
#    2.400    0.000    0.000    0.000    0.000    0.000 
#    0.000    0.000    0.000    0.000    0.000    0.000 
#
# Total GULP energy -83595.108242 kJ/mol
# GULP energy per Si atom -5573.007216 kJ/mol
# Density = 2.631381 g / cm^3
# Si number density = 26.373842 Si / 1000 Ang^3
#
#
#
# Elastic Constant Matrix: (Units=GPa)
#
#
# Indices 1 2 3 4 5 6 
#
# 1 104.6002 35.0357 70.1778 9.2923 45.0597 -15.9893
# 2 35.0357 105.4244 51.7088 14.0587 19.1527 -24.6279
# 3 70.1778 51.7088 176.1435 29.7293 39.2958 -8.4472
# 4 9.2923 14.0587 29.7293 44.1099 -1.5898 6.5807
# 5 45.0597 19.1527 39.2958 -1.5898 59.7457 -2.8288
# 6 -15.9893 -24.6279 -8.4472 6.5807 -2.8288 44.4110
#
#
#
# Elastic Compliance Matrix: (Units=1/GPa)
#
#
# Indices 1 2 3 4 5 6 
#
# 1 0.017939 -0.000656 -0.004051 -0.001955 -0.010473 0.004947
# 2 -0.000656 0.013345 -0.002209 -0.003771 -0.002091 0.007169
# 3 -0.004051 -0.002209 0.009272 -0.004724 -0.002478 -0.000378
# 4 -0.001955 -0.003771 -0.004724 0.028821 0.006199 -0.007569
# 5 -0.010473 -0.002091 -0.002478 0.006199 0.026883 -0.004608
# 6 0.004947 0.007169 -0.000378 -0.007569 -0.004608 0.029030
#
#
# Mechanical properties :
#
#
# Convention : Reuss Voigt Hill
#
# Bulk Modulus (GPa) = 37.42067 77.77921 57.59994
# Shear Modulus (GPa) = 33.77682 44.93638 39.35660
#
# Velocity S-wave (km/s) = 3.58256 4.13222 3.86717
# Velocity P-wave (km/s) = 5.59753 7.23340 6.46739
#
# Compressibility (1/GPa) = 0.02672320
#
# Stress axis : x y z
#
# Youngs Moduli (GPa) = 55.74414 74.93636 107.85204
#
# Poissons Ratio (x) = 0.04914 0.43692
# Poissons Ratio (y) = 0.03655 0.23830
# Poissons Ratio (z) = 0.22582 0.16557
#
# Static dielectric constant tensor:
#      x y z
#    x 2.410070 0.135000 -0.022750 
#    y 0.135000 2.102430 -0.068690 
#    z -0.022750 -0.068690 2.125400 
# 
# From -- ./inp_files/54585.got.cif
#   From: 2010.05.17/outbox.cif.g08.bks.cpg/sg2_28_cif.got.tgz:54585.got - 2010.06.03 11:33:40.
