data_PCOD9034412
_publ_section_title
;
Structure prediction by ZEFSAII (Michael W. Deem and Ramdas Pophale) SiO2 
 PCOD9034412
Probable space group: P -1
;
_chemical_formula_sum "Si O2"
_cell_formula_units_Z 16
_cell_length_a 5.440247
_cell_length_b 24.926922
_cell_length_c 5.158229
_cell_angle_alpha 80.916668
_cell_angle_beta 95.863136
_cell_angle_gamma 61.452077
_cell_volume 593.894044
_symmetry_space_group_name_H-M "P -1"
_symmetry_group_IT_number 2
_symmetry_cell_setting 'triclinic'
loop_
_space_group_symop_operation_xyz
x,y,z
-x,-y,-z
loop_
_atom_site_type_symbol
_atom_site_label
_atom_site_fract_x
_atom_site_fract_y
_atom_site_fract_z
Si Si1 0.515944 0.570463 0.321001
Si Si2 0.939781 0.459216 0.813512
Si Si3 0.775920 0.745194 0.939563
Si Si4 0.794351 0.865744 0.720174
Si Si5 0.133832 0.897922 0.121639
Si Si6 0.258547 0.983668 0.734171
Si Si7 0.720869 0.215385 0.496185
Si Si8 0.128691 0.687578 0.501386
O O1 0.275519 0.566811 0.120360
O O2 0.344761 0.616202 0.504935
O O3 0.733012 0.589713 0.196402
O O4 0.749353 0.503479 0.519993
O O5 0.000000 0.500000 0.000000
O O6 0.736516 0.814883 0.892347
O O7 0.482100 0.754033 0.793400
O O8 0.008547 0.706151 0.765877
O O9 0.870468 0.711957 0.250117
O O10 0.536952 0.936757 0.638781
O O11 0.946420 0.830803 0.500993
O O12 0.037160 0.871958 0.893256
O O13 0.345394 0.836133 0.351476
O O14 0.264690 0.938932 0.000403
O O15 0.842441 0.949470 0.196381
O O16 0.000000 0.000000 0.500000
O O17 0.719706 0.272541 0.594509
#
# Coordination Sequence:
#
# PCOD9034412 Si02
#       8
#     2   2   2   2   2   2   2   2
#     4  10  24  43  71 113 149 202 256 313 368 453
#     4  10  22  44  74 107 158 199 254 309 382 432
#     4  11  26  45  72 101 145 187 243 299 366 439
#     4  11  23  43  64  94 131 176 227 294 360 439
#     4  11  23  41  66  91 132 173 227 294 361 446
#     4  11  25  41  63  97 127 174 229 288 372 441
#     4  11  26  45  71  95 140 181 239 294 373 432
#     4  11  27  46  72 110 143 194 248 301 367 437
#
# _framework density 26.940832
#
# number of rings (size 3 to 8) (size 9 to 14) (size 15 to 20)
#    0.000    1.250    1.250    3.000    7.000    5.000 
#    0.000    0.000    0.000    0.000    0.000    0.000 
#    0.000    0.000    0.000    0.000    0.000    0.000 
#
# Total GULP energy -89474.958328 kJ/mol
# GULP energy per Si atom -5592.184895 kJ/mol
# Density = 2.687951 g / cm^3
# Si number density = 26.940832 Si / 1000 Ang^3
#
#
#
# Elastic Constant Matrix: (Units=GPa)
#
#
# Indices 1 2 3 4 5 6 
#
# 1 142.7298 36.5571 24.0422 7.8349 18.9585 -10.5843
# 2 36.5571 126.7053 6.0097 22.3351 -3.6505 -6.2913
# 3 24.0422 6.0097 64.9592 6.4772 7.2323 10.0429
# 4 7.8349 22.3351 6.4772 41.9763 -1.1455 -4.8430
# 5 18.9585 -3.6505 7.2323 -1.1455 41.0149 9.1538
# 6 -10.5843 -6.2913 10.0429 -4.8430 9.1538 33.7647
#
#
#
# Elastic Compliance Matrix: (Units=1/GPa)
#
#
# Indices 1 2 3 4 5 6 
#
# 1 0.009211 -0.002495 -0.003436 0.000565 -0.004944 0.004866
# 2 -0.002495 0.009445 0.000345 -0.004596 0.001870 -0.000291
# 3 -0.003436 0.000345 0.018006 -0.003106 -0.000130 -0.006779
# 4 0.000565 -0.004596 -0.003106 0.027120 -0.000306 0.004218
# 5 -0.004944 0.001870 -0.000130 -0.000306 0.028863 -0.009032
# 6 0.004866 -0.000291 -0.006779 0.004218 -0.009032 0.036158
#
#
# Mechanical properties :
#
#
# Convention : Reuss Voigt Hill
#
# Bulk Modulus (GPa) = 39.23237 51.95691 45.59464
# Shear Modulus (GPa) = 33.67611 41.20355 37.43983
#
# Velocity S-wave (km/s) = 3.53937 3.91501 3.73192
# Velocity P-wave (km/s) = 5.59436 6.30586 5.96074
#
# Compressibility (1/GPa) = 0.02548916
#
# Stress axis : x y z
#
# Youngs Moduli (GPa) = 108.57090 105.87197 55.53552
#
# Poissons Ratio (x) = 0.26414 0.19084
# Poissons Ratio (y) = 0.27087 -0.01914
# Poissons Ratio (z) = 0.37309 -0.03648
#
# Static dielectric constant tensor:
#      x y z
#    x 2.244820 -0.010570 -0.139540 
#    y -0.010570 2.116980 0.042890 
#    z -0.139540 0.042890 2.173490 
# 
# From -- ./inp_files/14109.got.cif
#   From: 2010.05.17/outbox.cif.g08.bks.cpg/sg2_8_cif.got.tgz:14109.got - 2010.06.03 11:33:40.
