data_PCOD9034145
_publ_section_title
;
Structure prediction by ZEFSAII (Michael W. Deem and Ramdas Pophale) SiO2 
 PCOD9034145
Probable space group: P -1
;
_chemical_formula_sum "Si O2"
_cell_formula_units_Z 16
_cell_length_a 15.599229
_cell_length_b 15.181243
_cell_length_c 15.195458
_cell_angle_alpha 152.527397
_cell_angle_beta 148.042956
_cell_angle_gamma 28.069478
_cell_volume 744.648934
_symmetry_space_group_name_H-M "P -1"
_symmetry_group_IT_number 2
_symmetry_cell_setting 'triclinic'
loop_
_space_group_symop_operation_xyz
x,y,z
-x,-y,-z
loop_
_atom_site_type_symbol
_atom_site_label
_atom_site_fract_x
_atom_site_fract_y
_atom_site_fract_z
Si Si1 0.931449 0.577502 0.785102
Si Si2 0.277319 0.944848 0.047551
Si Si3 0.038662 0.673355 0.235215
Si Si4 0.915663 0.344375 0.386591
Si Si5 0.642805 0.589365 0.959596
Si Si6 0.281971 0.172260 0.433919
Si Si7 0.593533 0.377454 0.566230
Si Si8 0.373583 0.028108 0.831381
O O1 0.930870 0.442240 0.579650
O O2 0.903069 0.443643 0.721673
O O3 0.136949 0.560177 0.952150
O O4 0.782335 0.846459 0.886247
O O5 0.494396 0.738505 0.038126
O O6 0.154279 0.829916 0.824879
O O7 0.248750 0.059806 0.219551
O O8 0.191044 0.690852 0.326513
O O9 0.837251 0.907231 0.266656
O O10 0.000000 0.500000 0.000000
O O11 0.122338 0.219690 0.409146
O O12 0.767544 0.575665 0.409780
O O13 0.554576 0.484609 0.724283
O O14 0.651477 0.764511 0.058580
O O15 0.500000 0.000000 0.500000
O O16 0.500000 0.500000 0.500000
O O17 0.554042 0.179379 0.353992
O O18 0.500000 0.000000 0.000000
#
# Coordination Sequence:
#
# PCOD9034145 Si02
#       8
#     2   2   2   2   2   2   2   2
#     4  10  24  42  61  91 133 165 214 269 317 376
#     4  11  25  40  68  95 130 170 204 261 320 377
#     4  11  22  42  62  87 126 171 220 274 322 372
#     4  10  23  42  67 101 126 165 210 253 315 388
#     4  11  25  41  58  91 127 166 216 266 319 381
#     4  10  22  44  71  97 132 163 201 255 317 382
#     4  12  24  38  61  87 118 169 224 270 325 379
#     4  11  23  40  61  84 120 167 219 275 325 377
#
# _framework density 21.486636000000001
#
# number of rings (size 3 to 8) (size 9 to 14) (size 15 to 20)
#    0.000    1.250    3.750    1.500    5.250    4.500 
#    0.000    0.000    0.000    0.000    0.000    0.000 
#    0.000    0.000    0.000    0.000    0.000    0.000 
#
# Total GULP energy -89271.544418 kJ/mol
# GULP energy per Si atom -5579.471526 kJ/mol
# Density = 2.143773 g / cm^3
# Si number density = 21.486636 Si / 1000 Ang^3
#
#
#
# Elastic Constant Matrix: (Units=GPa)
#
#
# Indices 1 2 3 4 5 6 
#
# 1 73.4403 18.5722 13.0639 1.3443 -0.3607 -12.9486
# 2 18.5722 89.3151 31.6076 -1.4559 5.1920 -11.4714
# 3 13.0639 31.6076 125.5616 20.7424 -7.2618 -2.8591
# 4 1.3443 -1.4559 20.7424 31.4069 -5.4584 -3.2724
# 5 -0.3607 5.1920 -7.2618 -5.4584 26.1187 -0.8912
# 6 -12.9486 -11.4714 -2.8591 -3.2724 -0.8912 26.1136
#
#
#
# Elastic Compliance Matrix: (Units=1/GPa)
#
#
# Indices 1 2 3 4 5 6 
#
# 1 0.015499 -0.002011 -0.001036 0.000761 0.000717 0.006808
# 2 -0.002011 0.013856 -0.003882 0.003289 -0.003005 0.004974
# 3 -0.001036 -0.003882 0.010241 -0.006722 0.002136 -0.001867
# 4 0.000761 0.003289 -0.006722 0.038009 0.005637 0.006042
# 5 0.000717 -0.003005 0.002136 0.005637 0.040713 0.001366
# 6 0.006808 0.004974 -0.001867 0.006042 0.001366 0.044454
#
#
# Mechanical properties :
#
#
# Convention : Reuss Voigt Hill
#
# Bulk Modulus (GPa) = 38.85413 46.08937 42.47175
# Shear Modulus (GPa) = 26.99649 31.73270 29.36460
#
# Velocity S-wave (km/s) = 3.54846 3.84716 3.70083
# Velocity P-wave (km/s) = 5.90855 6.42114 6.17017
#
# Compressibility (1/GPa) = 0.02573729
#
# Stress axis : x y z
#
# Youngs Moduli (GPa) = 64.51879 72.17323 97.64837
#
# Poissons Ratio (x) = 0.14516 0.10112
# Poissons Ratio (y) = 0.12977 0.37911
# Poissons Ratio (z) = 0.06681 0.28020
#
# Static dielectric constant tensor:
#      x y z
#    x 1.836600 -0.072350 0.015360 
#    y -0.072350 1.984720 -0.051640 
#    z 0.015360 -0.051640 1.718600 
# 
# From -- ./inp_files/534625.got.cif
#   From: 2010.05.17/outbox.cif.g08.bks.cpg/sg2_268_cif.got.tgz:534625.got - 2010.06.03 11:33:40.
