data_PCOD9034424
_publ_section_title
;
Structure prediction by ZEFSAII (Michael W. Deem and Ramdas Pophale) SiO2 
 PCOD9034424
Probable space group: P -1
;
_chemical_formula_sum "Si O2"
_cell_formula_units_Z 12
_cell_length_a 9.432050
_cell_length_b 9.384507
_cell_length_c 8.582303
_cell_angle_alpha 46.344571
_cell_angle_beta 118.075541
_cell_angle_gamma 96.666943
_cell_volume 458.273123
_symmetry_space_group_name_H-M "P -1"
_symmetry_group_IT_number 2
_symmetry_cell_setting 'triclinic'
loop_
_space_group_symop_operation_xyz
x,y,z
-x,-y,-z
loop_
_atom_site_type_symbol
_atom_site_label
_atom_site_fract_x
_atom_site_fract_y
_atom_site_fract_z
Si Si1 0.518188 0.220034 0.799422
Si Si2 0.885485 0.244191 0.946268
Si Si3 0.240730 0.580367 0.570837
Si Si4 0.822612 0.101464 0.468346
Si Si5 0.896936 0.482402 0.143220
Si Si6 0.607626 0.833159 0.555940
O O1 0.703200 0.237792 0.910595
O O2 0.380226 0.395727 0.694522
O O3 0.481836 0.238229 0.580801
O O4 0.500000 0.000000 0.000000
O O5 0.865982 0.269267 0.731325
O O6 0.943126 0.444242 0.869992
O O7 0.035828 0.045296 0.233502
O O8 0.304790 0.720515 0.620655
O O9 0.131011 0.496020 0.699857
O O10 0.905182 0.243460 0.301493
O O11 0.724964 0.961558 0.445843
O O12 0.729485 0.640992 0.860850
O O13 0.500000 0.000000 0.500000
#
# Coordination Sequence:
#
# PCOD9034424 Si02
#       6
#     2   2   2   2   2   2
#     4  12  28  46  72 112 152 184 239 312 372 413
#     4  11  22  45  77 110 141 190 249 299 351 439
#     4  10  22  44  74 111 140 187 241 307 359 418
#     4   9  23  45  78 101 139 193 250 284 353 438
#     4   9  23  45  79 102 139 192 253 284 356 437
#     4  11  23  47  72 106 148 192 241 298 359 440
#
# _framework density 26.185258999999999
#
# number of rings (size 3 to 8) (size 9 to 14) (size 15 to 20)
#    1.000    0.667    0.000    3.500    2.333    3.333 
#    6.000    6.667    0.000    8.000    0.000    0.000 
#    0.000    0.000    0.000    0.000    0.000    0.000 
#
# Total GULP energy -67199.722143 kJ/mol
# GULP energy per Si atom -5599.976845 kJ/mol
# Density = 2.612566 g / cm^3
# Si number density = 26.185259 Si / 1000 Ang^3
#
#
#
# Elastic Constant Matrix: (Units=GPa)
#
#
# Indices 1 2 3 4 5 6 
#
# 1 139.9878 59.1650 59.8871 -12.5414 -5.6829 10.2032
# 2 59.1650 146.0170 48.4130 -5.3630 8.2220 10.9738
# 3 59.8871 48.4130 142.3209 -10.1736 -16.4219 14.6647
# 4 -12.5414 -5.3630 -10.1736 47.6212 12.6957 -6.8496
# 5 -5.6829 8.2220 -16.4219 12.6957 42.3574 -6.0388
# 6 10.2032 10.9738 14.6647 -6.8496 -6.0388 75.8280
#
#
#
# Elastic Compliance Matrix: (Units=1/GPa)
#
#
# Indices 1 2 3 4 5 6 
#
# 1 0.009817 -0.002937 -0.002977 0.001528 0.000252 -0.000162
# 2 -0.002937 0.008981 -0.002077 0.000548 -0.003208 -0.000709
# 3 -0.002977 -0.002077 0.009482 -0.000069 0.003579 -0.000854
# 4 0.001528 0.000548 -0.000069 0.023441 -0.006768 0.001307
# 5 0.000252 -0.003208 0.003579 -0.006768 0.027873 0.001347
# 6 -0.000162 -0.000709 -0.000854 0.001307 0.001347 0.013703
#
#
# Mechanical properties :
#
#
# Convention : Reuss Voigt Hill
#
# Bulk Modulus (GPa) = 81.31394 84.80622 83.06008
# Shear Modulus (GPa) = 44.10040 50.55202 47.32621
#
# Velocity S-wave (km/s) = 4.10831 4.39857 4.25592
# Velocity P-wave (km/s) = 7.32291 7.63242 7.47927
#
# Compressibility (1/GPa) = 0.01229801
#
# Stress axis : x y z
#
# Youngs Moduli (GPa) = 101.86248 111.34351 105.46642
#
# Poissons Ratio (x) = 0.32698 0.31397
# Poissons Ratio (y) = 0.29914 0.21909
# Poissons Ratio (z) = 0.30324 0.23130
#
# Static dielectric constant tensor:
#      x y z
#    x 2.159300 -0.013600 -0.057320 
#    y -0.013600 2.062840 0.014520 
#    z -0.057320 0.014520 2.015380 
# 
# From -- ./inp_files/242316.got.cif
#   From: 2010.05.17/outbox.cif.g08.bks.cpg/sg2_122_cif.got.tgz:242316.got - 2010.06.03 11:33:40.
