data_PCOD9034945
_publ_section_title
;
Structure prediction by ZEFSAII (Michael W. Deem and Ramdas Pophale) SiO2 
 PCOD9034945
Probable space group: P -1
;
_chemical_formula_sum "Si O2"
_cell_formula_units_Z 15
_cell_length_a 15.402162
_cell_length_b 8.444919
_cell_length_c 19.247654
_cell_angle_alpha 135.750981
_cell_angle_beta 21.216818
_cell_angle_gamma 127.539377
_cell_volume 615.035668
_symmetry_space_group_name_H-M "P -1"
_symmetry_group_IT_number 2
_symmetry_cell_setting 'triclinic'
loop_
_space_group_symop_operation_xyz
x,y,z
-x,-y,-z
loop_
_atom_site_type_symbol
_atom_site_label
_atom_site_fract_x
_atom_site_fract_y
_atom_site_fract_z
Si Si1 0.230637 0.467570 0.625774
Si Si2 0.642467 0.165439 0.871379
Si Si3 0.737417 0.826030 0.238765
Si Si4 0.000000 0.000000 0.000000
Si Si5 0.940220 0.701885 0.663863
Si Si6 0.919095 0.667177 0.455444
Si Si7 0.740007 0.321323 0.142493
Si Si8 0.128900 0.803731 0.142584
O O1 0.163388 0.356132 0.568564
O O2 0.523020 0.362277 0.373115
O O3 0.061500 0.363596 0.772980
O O4 0.158909 0.746030 0.769111
O O5 0.697203 0.235284 0.931664
O O6 0.804492 0.292079 0.741145
O O7 0.759772 0.890006 0.684866
O O8 0.355822 0.228516 0.088921
O O9 0.742132 0.580650 0.195156
O O10 0.500000 0.000000 0.500000
O O11 0.761563 0.872127 0.153854
O O12 0.021749 0.843577 0.049594
O O13 0.000000 0.500000 0.500000
O O14 0.074095 0.580587 0.593620
O O15 0.026105 0.931899 0.651579
O O16 0.725690 0.207185 0.041997
#
# Coordination Sequence:
#
# PCOD9034945 Si02
#       8
#     2   2   2   1   2   2   2   2
#     4  11  25  45  71 101 141 181 230 287 347 402
#     4  10  22  45  69  94 143 180 226 284 339 398
#     4  11  25  47  73 101 131 181 226 285 341 414
#     4  12  24  46  72 102 140 176 230 288 344 410
#     4  12  24  39  68 100 135 186 229 275 339 403
#     4  10  23  44  68  97 135 184 230 281 337 404
#     4  11  25  45  73  98 138 179 225 282 349 404
#     4  11  24  44  67 106 139 181 228 285 337 405
#
# _framework density 24.388829999999999
#
# number of rings (size 3 to 8) (size 9 to 14) (size 15 to 20)
#    0.000    1.067    4.000    1.600    3.733    1.600 
#    2.400    0.000    0.000    0.000    0.000    0.000 
#    0.000    0.000    0.000    0.000    0.000    0.000 
#
# Total GULP energy -83566.150863 kJ/mol
# GULP energy per Si atom -5571.076724 kJ/mol
# Density = 2.433332 g / cm^3
# Si number density = 24.388830 Si / 1000 Ang^3
#
#
#
# Elastic Constant Matrix: (Units=GPa)
#
#
# Indices 1 2 3 4 5 6 
#
# 1 38.1836 -15.1727 33.2314 5.7039 9.0263 8.0901
# 2 -15.1727 102.8341 31.3286 20.0473 -16.4337 1.5756
# 3 33.2314 31.3286 180.6072 4.7500 1.9516 11.9814
# 4 5.7039 20.0473 4.7500 43.2296 -6.1986 3.4338
# 5 9.0263 -16.4337 1.9516 -6.1986 31.6047 4.3258
# 6 8.0901 1.5756 11.9814 3.4338 4.3258 22.0530
#
#
#
# Elastic Compliance Matrix: (Units=1/GPa)
#
#
# Indices 1 2 3 4 5 6 
#
# 1 0.042523 0.009730 -0.008605 -0.009521 -0.007228 -0.008719
# 2 0.009730 0.014355 -0.004003 -0.006773 0.003896 -0.002130
# 3 -0.008605 -0.004003 0.007833 0.002307 0.000519 -0.001274
# 4 -0.009521 -0.006773 0.002307 0.028195 0.004946 -0.002637
# 5 -0.007228 0.003896 0.000519 0.004946 0.037494 -0.006034
# 6 -0.008719 -0.002130 -0.001274 -0.002637 -0.006034 0.050982
#
#
# Mechanical properties :
#
#
# Convention : Reuss Voigt Hill
#
# Bulk Modulus (GPa) = 16.96192 46.71104 31.83648
# Shear Modulus (GPa) = 24.17908 37.52664 30.85286
#
# Velocity S-wave (km/s) = 3.15207 3.92686 3.56060
# Velocity P-wave (km/s) = 4.49636 6.30512 5.47594
#
# Compressibility (1/GPa) = 0.05895559
#
# Stress axis : x y z
#
# Youngs Moduli (GPa) = 23.51660 69.66068 127.66786
#
# Poissons Ratio (x) = -0.67783 1.09859
# Poissons Ratio (y) = -0.22883 0.51107
# Poissons Ratio (z) = 0.20236 0.27886
#
# Static dielectric constant tensor:
#      x y z
#    x 1.595780 0.300840 0.008720 
#    y 0.300840 1.859510 -0.084750 
#    z 0.008720 -0.084750 1.937430 
# 
# From -- ./inp_files/599603.got.cif
#   From: 2010.05.17/outbox.cif.g08.bks.cpg/sg2_300_cif.got.tgz:599603.got - 2010.06.03 11:33:40.
