data_PCOD9034436
_publ_section_title
;
Structure prediction by ZEFSAII (Michael W. Deem and Ramdas Pophale) SiO2 
 PCOD9034436
Probable space group: P -1
;
_chemical_formula_sum "Si O2"
_cell_formula_units_Z 13
_cell_length_a 21.737173
_cell_length_b 12.116371
_cell_length_c 4.856861
_cell_angle_alpha 111.659071
_cell_angle_beta 111.162043
_cell_angle_gamma 25.580097
_cell_volume 512.058782
_symmetry_space_group_name_H-M "P -1"
_symmetry_group_IT_number 2
_symmetry_cell_setting 'triclinic'
loop_
_space_group_symop_operation_xyz
x,y,z
-x,-y,-z
loop_
_atom_site_type_symbol
_atom_site_label
_atom_site_fract_x
_atom_site_fract_y
_atom_site_fract_z
Si Si1 0.295171 0.909418 0.614799
Si Si2 0.728023 0.209686 0.037145
Si Si3 0.000000 0.500000 0.500000
Si Si4 0.318156 0.210525 0.341256
Si Si5 0.689926 0.631004 0.018952
Si Si6 0.476183 0.300913 0.507981
Si Si7 0.042938 0.680111 0.055979
O O1 0.306588 0.852983 0.897312
O O2 0.434200 0.753294 0.586671
O O3 0.279727 0.815514 0.316026
O O4 0.156998 0.211784 0.623956
O O5 0.621118 0.478181 0.221916
O O6 0.892052 0.976016 0.163791
O O7 0.990232 0.383766 0.231688
O O8 0.337755 0.294747 0.642205
O O9 0.146990 0.466939 0.273985
O O10 0.366458 0.167359 0.072947
O O11 0.403990 0.968224 0.389260
O O12 0.624909 0.618648 0.772318
O O13 0.858250 0.381582 0.997568
#
# Coordination Sequence:
#
# PCOD9034436 Si02
#       7
#     2   2   1   2   2   2   2
#     4  11  27  43  68  99 135 174 234 270 333 401
#     4  11  27  44  66  99 140 175 222 281 330 408
#     4  10  22  44  74  96 128 180 216 280 332 384
#     4  10  24  42  70 102 133 168 231 278 323 402
#     4  10  24  43  71 101 134 174 230 278 324 403
#     4  12  25  45  70  97 140 185 215 276 350 387
#     4   9  24  44  71 100 136 165 235 271 335 393
#
# _framework density 25.387709999999998
#
# number of rings (size 3 to 8) (size 9 to 14) (size 15 to 20)
#    0.923    0.615    0.000    2.769    8.615    5.538 
#    0.000    0.769    0.000    0.000    0.000    0.000 
#    0.000    0.000    0.000    0.000    0.000    0.000 
#
# Total GULP energy -72611.046493 kJ/mol
# GULP energy per Si atom -5585.465115 kJ/mol
# Density = 2.532993 g / cm^3
# Si number density = 25.387710 Si / 1000 Ang^3
#
#
#
# Elastic Constant Matrix: (Units=GPa)
#
#
# Indices 1 2 3 4 5 6 
#
# 1 45.6403 30.4814 14.2664 -3.6425 -3.1658 -6.9763
# 2 30.4814 137.8699 17.9985 -9.1671 8.5831 -1.7845
# 3 14.2664 17.9985 85.5975 -11.2095 -1.0062 -6.3259
# 4 -3.6425 -9.1671 -11.2095 35.4243 -8.5007 5.5508
# 5 -3.1658 8.5831 -1.0062 -8.5007 41.1072 -2.4165
# 6 -6.9763 -1.7845 -6.3259 5.5508 -2.4165 27.6353
#
#
#
# Elastic Compliance Matrix: (Units=1/GPa)
#
#
# Indices 1 2 3 4 5 6 
#
# 1 0.028035 -0.005954 -0.002864 0.000355 0.003776 0.006296
# 2 -0.005954 0.008874 -0.000866 0.001127 -0.002191 -0.001546
# 3 -0.002864 -0.000866 0.012942 0.003600 0.001113 0.001558
# 4 0.000355 0.001127 0.003600 0.031950 0.006200 -0.004889
# 5 0.003776 -0.002191 0.001113 0.006200 0.026510 0.002139
# 6 0.006296 -0.001546 0.001558 -0.004889 0.002139 0.039201
#
#
# Mechanical properties :
#
#
# Convention : Reuss Voigt Hill
#
# Bulk Modulus (GPa) = 32.80696 43.84449 38.32572
# Shear Modulus (GPa) = 28.24203 34.59078 31.41640
#
# Velocity S-wave (km/s) = 3.33893 3.69521 3.52158
# Velocity P-wave (km/s) = 5.27399 5.95933 5.62710
#
# Compressibility (1/GPa) = 0.03048134
#
# Stress axis : x y z
#
# Youngs Moduli (GPa) = 35.66971 112.68931 77.26982
#
# Poissons Ratio (x) = 0.67098 0.22133
# Poissons Ratio (y) = 0.21239 0.06691
# Poissons Ratio (z) = 0.10217 0.09759
#
# Static dielectric constant tensor:
#      x y z
#    x 2.077340 -0.055340 -0.025910 
#    y -0.055340 2.040290 -0.036070 
#    z -0.025910 -0.036070 1.934900 
# 
# From -- ./inp_files/124404.got.cif
#   From: 2010.05.17/outbox.cif.g08.bks.cpg/sg2_63_cif.got.tgz:124404.got - 2010.06.03 11:33:40.
