data_PCOD9034236
_publ_section_title
;
Structure prediction by ZEFSAII (Michael W. Deem and Ramdas Pophale) SiO2 
 PCOD9034236
Probable space group: P -1
;
_chemical_formula_sum "Si O2"
_cell_formula_units_Z 15
_cell_length_a 7.799992
_cell_length_b 14.430968
_cell_length_c 16.917675
_cell_angle_alpha 154.544178
_cell_angle_beta 127.617245
_cell_angle_gamma 64.655408
_cell_volume 604.492067
_symmetry_space_group_name_H-M "P -1"
_symmetry_group_IT_number 2
_symmetry_cell_setting 'triclinic'
loop_
_space_group_symop_operation_xyz
x,y,z
-x,-y,-z
loop_
_atom_site_type_symbol
_atom_site_label
_atom_site_fract_x
_atom_site_fract_y
_atom_site_fract_z
Si Si1 0.293589 0.276784 0.805621
Si Si2 0.000000 0.500000 0.500000
Si Si3 0.676525 0.642122 0.944219
Si Si4 0.220939 0.327995 0.517635
Si Si5 0.324678 0.893278 0.179865
Si Si6 0.276332 0.842815 0.692688
Si Si7 0.926135 0.398465 0.713289
Si Si8 0.765084 0.046539 0.979518
O O1 0.425687 0.096008 0.710453
O O2 0.065006 0.238356 0.660589
O O3 0.500000 0.500000 0.000000
O O4 0.236432 0.326947 0.917773
O O5 0.762548 0.589617 0.503719
O O6 0.840384 0.280989 0.229699
O O7 0.400233 0.498159 0.758284
O O8 0.770169 0.475716 0.790897
O O9 0.726166 0.895886 0.116236
O O10 0.944982 0.300233 0.424033
O O11 0.244772 0.083372 0.345096
O O12 0.329443 0.935992 0.121102
O O13 0.131544 0.643181 0.944394
O O14 0.205625 0.709627 0.487076
O O15 0.529018 0.866781 0.812984
O O16 0.000000 0.000000 0.000000
#
# Coordination Sequence:
#
# PCOD9034236 Si02
#       8
#     2   1   2   2   2   2   2   2
#     4  10  22  44  72 106 147 188 238 290 349 423
#     4  12  24  44  76  94 144 178 236 292 358 410
#     4  12  24  46  72 104 148 188 238 288 354 419
#     4  12  25  47  72 105 143 190 237 299 352 422
#     4  11  22  47  74 104 148 186 239 295 352 420
#     4  12  26  48  76 102 146 187 236 295 358 421
#     4  11  25  45  72 107 143 193 235 289 359 420
#     4  12  25  46  71 104 134 185 235 293 354 421
#
# _framework density 24.814222000000001
#
# number of rings (size 3 to 8) (size 9 to 14) (size 15 to 20)
#    0.000    0.533    5.333    3.600    0.000    1.067 
#    4.800    3.333    0.000    0.000    0.000    0.000 
#    0.000    0.000    0.000    0.000    0.000    0.000 
#
# Total GULP energy -83723.813995 kJ/mol
# GULP energy per Si atom -5581.587600 kJ/mol
# Density = 2.475774 g / cm^3
# Si number density = 24.814222 Si / 1000 Ang^3
#
#
#
# Elastic Constant Matrix: (Units=GPa)
#
#
# Indices 1 2 3 4 5 6 
#
# 1 120.2416 32.3655 45.0858 0.7330 12.7627 -23.0285
# 2 32.3655 107.2129 39.2972 -0.3101 5.1925 -30.3498
# 3 45.0858 39.2972 161.9596 -7.2108 16.5264 -19.5798
# 4 0.7330 -0.3101 -7.2108 37.7214 -6.7312 1.5830
# 5 12.7627 5.1925 16.5264 -6.7312 45.2376 -0.0395
# 6 -23.0285 -30.3498 -19.5798 1.5830 -0.0395 47.6464
#
#
#
# Elastic Compliance Matrix: (Units=1/GPa)
#
#
# Indices 1 2 3 4 5 6 
#
# 1 0.010294 -0.001336 -0.001962 -0.001119 -0.002198 0.003354
# 2 -0.001336 0.012228 -0.001798 -0.000567 -0.000448 0.006423
# 3 -0.001962 -0.001798 0.007506 0.001094 -0.001819 0.000953
# 4 -0.001119 -0.000567 0.001094 0.027521 0.004075 -0.001363
# 5 -0.002198 -0.000448 -0.001819 0.004075 0.024046 -0.002211
# 6 0.003354 0.006423 0.000953 -0.001363 -0.002211 0.027135
#
#
# Mechanical properties :
#
#
# Convention : Reuss Voigt Hill
#
# Bulk Modulus (GPa) = 50.41117 69.21235 59.81176
# Shear Modulus (GPa) = 39.83000 44.29879 42.06440
#
# Velocity S-wave (km/s) = 4.01075 4.22977 4.12171
# Velocity P-wave (km/s) = 6.46589 7.19773 6.84160
#
# Compressibility (1/GPa) = 0.01983687
#
# Stress axis : x y z
#
# Youngs Moduli (GPa) = 97.14293 81.78082 133.22237
#
# Poissons Ratio (x) = 0.10927 0.26133
# Poissons Ratio (y) = 0.12979 0.23953
# Poissons Ratio (z) = 0.19055 0.14704
#
# Static dielectric constant tensor:
#      x y z
#    x 2.229620 0.063760 0.125740 
#    y 0.063760 2.197580 0.120920 
#    z 0.125740 0.120920 1.957560 
# 
# From -- ./inp_files/591147.got.cif
#   From: 2010.05.17/outbox.cif.g08.bks.cpg/sg2_296_cif.got.tgz:591147.got - 2010.06.03 11:33:40.
