data_PCOD9034855
_publ_section_title
;
Structure prediction by ZEFSAII (Michael W. Deem and Ramdas Pophale) SiO2 
 PCOD9034855
Probable space group: P -1
;
_chemical_formula_sum "Si O2"
_cell_formula_units_Z 16
_cell_length_a 14.925448
_cell_length_b 12.263918
_cell_length_c 14.860148
_cell_angle_alpha 30.070270
_cell_angle_beta 140.114986
_cell_angle_gamma 120.629796
_cell_volume 766.196819
_symmetry_space_group_name_H-M "P -1"
_symmetry_group_IT_number 2
_symmetry_cell_setting 'triclinic'
loop_
_space_group_symop_operation_xyz
x,y,z
-x,-y,-z
loop_
_atom_site_type_symbol
_atom_site_label
_atom_site_fract_x
_atom_site_fract_y
_atom_site_fract_z
Si Si1 0.377565 0.411707 0.358302
Si Si2 0.233321 0.798032 0.636048
Si Si3 0.728104 0.238630 0.809627
Si Si4 0.123809 0.267552 0.319846
Si Si5 0.735511 0.952627 0.697844
Si Si6 0.087483 0.515300 0.302785
Si Si7 0.434252 0.381152 0.220106
Si Si8 0.976480 0.686507 0.428798
O O1 0.561971 0.264607 0.632113
O O2 0.294419 0.655029 0.182467
O O3 0.292403 0.250451 0.434547
O O4 0.369782 0.478181 0.200423
O O5 0.273008 0.932727 0.489329
O O6 0.134920 0.675298 0.602132
O O7 0.126560 0.018082 0.466728
O O8 0.380971 0.594833 0.951875
O O9 0.775900 0.412721 0.663942
O O10 0.869273 0.962470 0.113244
O O11 0.085725 0.349651 0.335306
O O12 0.000000 0.500000 0.000000
O O13 0.623512 0.190990 0.501997
O O14 0.652983 0.778990 0.758543
O O15 0.919046 0.771773 0.992721
O O16 0.109378 0.372084 0.513812
O O17 0.000000 0.500000 0.500000
#
# Coordination Sequence:
#
# PCOD9034855 Si02
#       8
#     2   2   2   2   2   2   2   2
#     4  10  22  45  68  99 129 180 218 270 342 389
#     4  12  23  43  67 103 134 173 223 280 338 393
#     4  10  24  47  67  91 140 173 224 275 324 401
#     4  11  21  42  74 101 137 168 216 288 335 397
#     4  11  22  42  63  96 140 167 221 274 335 399
#     4  11  23  45  68 100 130 180 226 268 340 392
#     4  11  24  38  69  98 134 178 218 277 336 399
#     4  12  28  43  67  99 135 179 229 269 323 411
#
# _framework density 20.882363000000002
#
# number of rings (size 3 to 8) (size 9 to 14) (size 15 to 20)
#    0.000    1.000    5.000    1.125    3.500    2.000 
#    4.500    1.875    0.000    0.000    0.000    0.000 
#    0.000    0.000    0.000    0.000    0.000    0.000 
#
# Total GULP energy -89422.837248 kJ/mol
# GULP energy per Si atom -5588.927328 kJ/mol
# Density = 2.083483 g / cm^3
# Si number density = 20.882363 Si / 1000 Ang^3
#
#
#
# Elastic Constant Matrix: (Units=GPa)
#
#
# Indices 1 2 3 4 5 6 
#
# 1 58.4363 11.6160 -9.5058 -9.9549 -6.7908 -6.8480
# 2 11.6160 79.7747 17.8346 1.9553 3.8048 -15.8785
# 3 -9.5058 17.8346 4.4206 -15.0730 0.7843 5.2420
# 4 -9.9549 1.9553 -15.0730 13.5620 9.0131 9.2858
# 5 -6.7908 3.8048 0.7843 9.0131 37.6300 4.5752
# 6 -6.8480 -15.8785 5.2420 9.2858 4.5752 25.7361
#
#
#
# Elastic Compliance Matrix: (Units=1/GPa)
#
#
# Indices 1 2 3 4 5 6 
#
# 1 0.015542 0.001553 -0.009041 -0.007320 0.003501 0.008954
# 2 0.001553 0.009953 0.010210 0.013674 -0.004250 0.000296
# 3 -0.009041 0.010210 -0.016077 -0.045172 0.005762 0.022443
# 4 -0.007320 0.013674 -0.045172 0.011607 -0.006072 0.012581
# 5 0.003501 -0.004250 0.005762 -0.006072 0.029694 -0.005952
# 6 0.008954 0.000296 0.022443 0.012581 -0.005952 0.033369
#
#
# Mechanical properties :
#
#
# Convention : Reuss Voigt Hill
#
# Bulk Modulus (GPa) = 67.28287 20.28014 43.78150
# Shear Modulus (GPa) = 59.80978 23.56476 41.68727
#
# Velocity S-wave (km/s) = 5.35756 3.36289 4.47283
# Velocity P-wave (km/s) = 8.40007 4.98110 6.90553
#
# Compressibility (1/GPa) = 0.01486262
#
# Stress axis : x y z
#
# Youngs Moduli (GPa) = 64.33981 100.47040 -62.20003
#
# Poissons Ratio (x) = -0.15599 -0.56232
# Poissons Ratio (y) = -0.09989 0.63506
# Poissons Ratio (z) = 0.58167 -1.02580
#
# Static dielectric constant tensor:
#      x y z
#    x 1.750380 -0.005380 0.031250 
#    y -0.005380 1.764130 -0.005960 
#    z 0.031250 -0.005960 1.732970 
# 
# From -- ./inp_files/314201.got.cif
#   From: 2010.05.17/outbox.cif.g08.bks.cpg/sg2_158_cif.got.tgz:314201.got - 2010.06.03 11:33:40.
