data_PCOD9034392
_publ_section_title
;
Structure prediction by ZEFSAII (Michael W. Deem and Ramdas Pophale) SiO2 
 PCOD9034392
Probable space group: P -1
;
_chemical_formula_sum "Si O2"
_cell_formula_units_Z 13
_cell_length_a 9.767132
_cell_length_b 12.015329
_cell_length_c 9.894915
_cell_angle_alpha 101.004196
_cell_angle_beta 126.726466
_cell_angle_gamma 42.891890
_cell_volume 564.670039
_symmetry_space_group_name_H-M "P -1"
_symmetry_group_IT_number 2
_symmetry_cell_setting 'triclinic'
loop_
_space_group_symop_operation_xyz
x,y,z
-x,-y,-z
loop_
_atom_site_type_symbol
_atom_site_label
_atom_site_fract_x
_atom_site_fract_y
_atom_site_fract_z
Si Si1 0.796025 0.617131 0.531336
Si Si2 0.839256 0.025561 0.287622
Si Si3 0.482238 0.428588 0.163713
Si Si4 0.168956 0.925539 0.218712
Si Si5 0.500000 0.000000 0.000000
Si Si6 0.948502 0.417922 0.852783
Si Si7 0.957517 0.278174 0.259493
O O1 0.489164 0.743473 0.339775
O O2 0.889802 0.497385 0.688231
O O3 0.825039 0.734850 0.609362
O O4 0.000000 0.500000 0.500000
O O5 0.599797 0.241345 0.155787
O O6 0.000000 0.000000 0.500000
O O7 0.049052 0.907674 0.259318
O O8 0.694028 0.981483 0.208354
O O9 0.321081 0.504108 0.226731
O O10 0.752038 0.366761 0.287315
O O11 0.253474 0.584855 0.955838
O O12 0.110542 0.081324 0.276852
O O13 0.000000 0.000000 0.000000
O O14 0.218711 0.199359 0.951732
O O15 0.000000 0.500000 0.000000
#
# Coordination Sequence:
#
# PCOD9034392 Si02
#       7
#     2   2   2   2   1   2   2
#     4  12  28  46  73 112 149 192 252 312 374 459
#     4  11  25  48  72 109 150 192 261 313 376 460
#     4  10  22  44  74 103 148 190 242 319 369 442
#     4  11  28  46  72 104 152 192 249 312 373 453
#     4  12  28  44  82 112 150 208 248 316 394 448
#     4  12  25  47  78 108 154 196 259 313 380 456
#     4  10  23  45  76 102 143 198 242 303 388 441
#
# _framework density 23.022293999999999
#
# number of rings (size 3 to 8) (size 9 to 14) (size 15 to 20)
#    0.000    0.923    3.077    1.385   10.769    2.462 
#    0.000    2.308    0.000    0.000    0.000    0.000 
#    0.000    0.000    0.000    0.000    0.000    0.000 
#
# Total GULP energy -72474.576554 kJ/mol
# GULP energy per Si atom -5574.967427 kJ/mol
# Density = 2.296989 g / cm^3
# Si number density = 23.022294 Si / 1000 Ang^3
#
#
#
# Elastic Constant Matrix: (Units=GPa)
#
#
# Indices 1 2 3 4 5 6 
#
# 1 135.2186 32.7278 56.6182 2.0545 -3.7290 -46.8218
# 2 32.7278 109.7549 7.7008 -10.7107 5.9943 -35.3479
# 3 56.6182 7.7008 113.9607 5.5693 9.8030 -29.5259
# 4 2.0545 -10.7107 5.5693 30.0311 -5.1440 10.4307
# 5 -3.7290 5.9943 9.8030 -5.1440 35.7167 4.7885
# 6 -46.8218 -35.3479 -29.5259 10.4307 4.7885 51.1495
#
#
#
# Elastic Compliance Matrix: (Units=1/GPa)
#
#
# Indices 1 2 3 4 5 6 
#
# 1 0.012420 -0.000797 -0.003537 -0.003663 0.000604 0.009467
# 2 -0.000797 0.012538 0.002428 -0.000016 -0.004161 0.009729
# 3 -0.003537 0.002428 0.013108 -0.005011 -0.006115 0.007602
# 4 -0.003663 -0.000016 -0.005011 0.041424 0.009046 -0.015551
# 5 0.000604 -0.004161 -0.006115 0.009046 0.033189 -0.010804
# 6 0.009467 0.009729 0.007602 -0.015551 -0.010804 0.043511
#
#
# Mechanical properties :
#
#
# Convention : Reuss Voigt Hill
#
# Bulk Modulus (GPa) = 29.19301 61.44754 45.32028
# Shear Modulus (GPa) = 29.16844 40.83863 35.00354
#
# Velocity S-wave (km/s) = 3.56331 4.21631 3.90349
# Velocity P-wave (km/s) = 5.44402 7.10291 6.32806
#
# Compressibility (1/GPa) = 0.03425478
#
# Stress axis : x y z
#
# Youngs Moduli (GPa) = 80.51830 79.76047 76.28678
#
# Poissons Ratio (x) = 0.06355 0.26980
# Poissons Ratio (y) = 0.06415 -0.18523
# Poissons Ratio (z) = 0.28477 -0.19366
#
# Static dielectric constant tensor:
#      x y z
#    x 1.896080 0.036620 0.005390 
#    y 0.036620 1.871900 0.020250 
#    z 0.005390 0.020250 1.827670 
# 
# From -- ./inp_files/188742.got.cif
#   From: 2010.05.17/outbox.cif.g08.bks.cpg/sg2_95_cif.got.tgz:188742.got - 2010.06.03 11:33:40.
