data_PCOD9034106
_publ_section_title
;
Structure prediction by ZEFSAII (Michael W. Deem and Ramdas Pophale) SiO2 
 PCOD9034106
Probable space group: P -1
;
_chemical_formula_sum "Si O2"
_cell_formula_units_Z 10
_cell_length_a 8.814747
_cell_length_b 11.599146
_cell_length_c 6.295136
_cell_angle_alpha 116.706030
_cell_angle_beta 56.268243
_cell_angle_gamma 132.218308
_cell_volume 393.370437
_symmetry_space_group_name_H-M "P -1"
_symmetry_group_IT_number 2
_symmetry_cell_setting 'triclinic'
loop_
_space_group_symop_operation_xyz
x,y,z
-x,-y,-z
loop_
_atom_site_type_symbol
_atom_site_label
_atom_site_fract_x
_atom_site_fract_y
_atom_site_fract_z
Si Si1 0.363492 0.563977 0.252392
Si Si2 0.989683 0.076670 0.285424
Si Si3 0.999945 0.627812 0.958597
Si Si4 0.692987 0.176058 0.457979
Si Si5 0.708862 0.745780 0.465274
O O1 0.124856 0.449654 0.233176
O O2 0.391952 0.724230 0.298353
O O3 0.464999 0.613288 0.455921
O O4 0.500000 0.500000 0.000000
O O5 0.890436 0.178543 0.420155
O O6 0.235502 0.202855 0.291611
O O7 0.819049 0.919552 0.422768
O O8 0.000000 0.000000 0.000000
O O9 0.234836 0.770917 0.800257
O O10 0.868363 0.691950 0.223781
O O11 0.000000 0.500000 0.000000
O O12 0.500000 0.000000 0.500000
#
# Coordination Sequence:
#
# PCOD9034106 Si02
#       5
#     2   2   2   2   2
#     4  10  23  46  71 106 151 193 243 304 373 442
#     4  11  22  44  74 106 149 188 248 311 367 427
#     4  11  24  47  71 107 154 197 243 304 375 442
#     4  12  24  45  75 108 146 197 252 307 359 441
#     4  10  22  44  71 108 143 195 245 304 368 440
#
# _framework density 25.421332
#
# number of rings (size 3 to 8) (size 9 to 14) (size 15 to 20)
#    0.000    1.200    4.000    1.800    0.000    0.000 
#    3.600    8.000    0.000    0.000    0.000    0.000 
#    0.000    0.000    0.000    0.000    0.000    0.000 
#
# Total GULP energy -55741.779400 kJ/mol
# GULP energy per Si atom -5574.177940 kJ/mol
# Density = 2.536347 g / cm^3
# Si number density = 25.421332 Si / 1000 Ang^3
#
#
#
# Elastic Constant Matrix: (Units=GPa)
#
#
# Indices 1 2 3 4 5 6 
#
# 1 141.1110 47.8942 51.8967 16.1961 15.9265 -21.4054
# 2 47.8942 158.4384 47.7094 0.9007 7.2769 -33.7124
# 3 51.8967 47.7094 94.5233 16.5146 -3.2623 0.6035
# 4 16.1961 0.9007 16.5146 58.1016 -1.8852 6.2941
# 5 15.9265 7.2769 -3.2623 -1.8852 44.1146 40.0416
# 6 -21.4054 -33.7124 0.6035 6.2941 40.0416 69.1967
#
#
#
# Elastic Compliance Matrix: (Units=1/GPa)
#
#
# Indices 1 2 3 4 5 6 
#
# 1 0.022651 0.009093 -0.017640 -0.007259 -0.047208 0.039569
# 2 0.009093 0.016444 -0.014159 -0.003475 -0.036681 0.032490
# 3 -0.017640 -0.014159 0.028812 0.002877 0.047681 -0.040459
# 4 -0.007259 -0.003475 0.002877 0.021039 0.020307 -0.017628
# 5 -0.047208 -0.036681 0.047681 0.020307 0.172055 -0.134299
# 6 0.039569 0.032490 -0.040459 -0.017628 -0.134299 0.122191
#
#
# Mechanical properties :
#
#
# Convention : Reuss Voigt Hill
#
# Bulk Modulus (GPa) = 44.45039 76.56370 60.50705
# Shear Modulus (GPa) = 11.46521 50.72077 31.09299
#
# Velocity S-wave (km/s) = 2.12600 4.47162 3.50109
# Velocity P-wave (km/s) = 4.85283 7.53948 6.34010
#
# Compressibility (1/GPa) = 0.02249699
#
# Stress axis : x y z
#
# Youngs Moduli (GPa) = 44.14783 60.81247 34.70793
#
# Poissons Ratio (x) = -0.55299 0.61224
# Poissons Ratio (y) = -0.40145 0.49142
# Poissons Ratio (z) = 0.77875 0.86103
#
# Static dielectric constant tensor:
#      x y z
#    x 2.219640 0.079630 0.080910 
#    y 0.079630 2.048440 -0.082410 
#    z 0.080910 -0.082410 2.042200 
# 
# From -- ./inp_files/18129.got.cif
#   From: 2010.05.17/outbox.cif.g08.bks.cpg/sg2_10_cif.got.tgz:18129.got - 2010.06.03 11:33:40.
