data_PCOD9034837
_publ_section_title
;
Structure prediction by ZEFSAII (Michael W. Deem and Ramdas Pophale) SiO2 
 PCOD9034837
Probable space group: P -1
;
_chemical_formula_sum "Si O2"
_cell_formula_units_Z 16
_cell_length_a 17.100875
_cell_length_b 11.309499
_cell_length_c 11.291917
_cell_angle_alpha 41.105995
_cell_angle_beta 69.897309
_cell_angle_gamma 41.387315
_cell_volume 816.635349
_symmetry_space_group_name_H-M "P -1"
_symmetry_group_IT_number 2
_symmetry_cell_setting 'triclinic'
loop_
_space_group_symop_operation_xyz
x,y,z
-x,-y,-z
loop_
_atom_site_type_symbol
_atom_site_label
_atom_site_fract_x
_atom_site_fract_y
_atom_site_fract_z
Si Si1 0.830084 0.202928 0.638040
Si Si2 0.383888 0.840180 0.769647
Si Si3 0.034606 0.796426 0.034842
Si Si4 0.695706 0.873407 0.651907
Si Si5 0.892965 0.705420 0.293967
Si Si6 0.164977 0.207293 0.132913
Si Si7 0.577835 0.860340 0.339981
Si Si8 0.227461 0.364671 0.773013
O O1 0.707980 0.500476 0.557281
O O2 0.829982 0.333965 0.425247
O O3 0.796616 0.057366 0.731344
O O4 0.972064 0.967388 0.813682
O O5 0.350477 0.922165 0.587200
O O6 0.249774 0.007786 0.784285
O O7 0.419485 0.980654 0.689473
O O8 0.500000 0.500000 0.000000
O O9 0.193087 0.465197 0.195712
O O10 0.949089 0.765069 0.136465
O O11 0.000000 0.000000 0.000000
O O12 0.773587 0.854239 0.725081
O O13 0.563158 0.003312 0.677994
O O14 0.861586 0.586855 0.317972
O O15 0.000000 0.500000 0.500000
O O16 0.217926 0.267432 0.969020
O O17 0.000000 0.500000 0.000000
O O18 0.618959 0.878690 0.177960
#
# Coordination Sequence:
#
# PCOD9034837 Si02
#       8
#     2   2   2   2   2   2   2   2
#     4  10  22  45  68  97 136 185 218 286 339 392
#     4  11  25  42  66 101 139 175 226 297 338 400
#     4  12  23  39  68 102 135 179 228 284 350 398
#     4  12  25  44  65 103 138 178 237 272 342 423
#     4  11  20  40  66  96 134 173 229 280 338 405
#     4  12  24  45  70 102 145 179 225 287 333 410
#     4   9  24  45  67  96 134 183 232 280 337 409
#     4   9  22  44  66  97 137 177 231 274 339 401
#
# _framework density 19.592589
#
# number of rings (size 3 to 8) (size 9 to 14) (size 15 to 20)
#    0.750    0.500    3.750    1.875    3.500    1.500 
#    2.250    0.000    0.000    0.000    0.000    0.000 
#    0.000    0.000    0.000    0.000    0.000    0.000 
#
# Total GULP energy -89277.525913 kJ/mol
# GULP energy per Si atom -5579.845370 kJ/mol
# Density = 1.954800 g / cm^3
# Si number density = 19.592589 Si / 1000 Ang^3
#
#
#
# Elastic Constant Matrix: (Units=GPa)
#
#
# Indices 1 2 3 4 5 6 
#
# 1 49.4242 27.7406 47.2850 -4.8613 -0.1314 -4.9558
# 2 27.7406 69.8891 55.6271 2.0805 3.5408 -11.9114
# 3 47.2850 55.6271 137.4136 -5.7145 -5.6797 11.9064
# 4 -4.8613 2.0805 -5.7145 39.5911 -5.7943 3.3263
# 5 -0.1314 3.5408 -5.6797 -5.7943 32.8695 3.0428
# 6 -4.9558 -11.9114 11.9064 3.3263 3.0428 42.1386
#
#
#
# Elastic Compliance Matrix: (Units=1/GPa)
#
#
# Indices 1 2 3 4 5 6 
#
# 1 0.032987 -0.004075 -0.010145 0.002144 -0.001315 0.005520
# 2 -0.004075 0.027185 -0.011091 -0.005482 -0.006871 0.011268
# 3 -0.010145 -0.011091 0.016458 0.003324 0.005476 -0.009636
# 4 0.002144 -0.005482 0.003324 0.027651 0.006500 -0.004889
# 5 -0.001315 -0.006871 0.005476 0.006500 0.033862 -0.006602
# 6 0.005520 0.011268 -0.009636 -0.004889 -0.006602 0.031151
#
#
# Mechanical properties :
#
#
# Convention : Reuss Voigt Hill
#
# Bulk Modulus (GPa) = 38.45003 57.55914 48.00459
# Shear Modulus (GPa) = 21.87374 31.32479 26.59926
#
# Velocity S-wave (km/s) = 3.34493 4.00285 3.68858
# Velocity P-wave (km/s) = 5.88094 7.12780 6.53418
#
# Compressibility (1/GPa) = 0.02600778
#
# Stress axis : x y z
#
# Youngs Moduli (GPa) = 30.31515 36.78451 60.76246
#
# Poissons Ratio (x) = 0.14990 0.61642
# Poissons Ratio (y) = 0.12354 0.67392
# Poissons Ratio (z) = 0.30754 0.40798
#
# Static dielectric constant tensor:
#      x y z
#    x 1.677950 0.041350 0.007910 
#    y 0.041350 1.707830 0.047300 
#    z 0.007910 0.047300 1.730200 
# 
# From -- ./inp_files/464303.got.cif
#   From: 2010.05.17/outbox.cif.g08.bks.cpg/sg2_233_cif.got.tgz:464303.got - 2010.06.03 11:33:40.
