data_PCOD9034044
_publ_section_title
;
Structure prediction by ZEFSAII (Michael W. Deem and Ramdas Pophale) SiO2 
 PCOD9034044
Probable space group: P -1
;
_chemical_formula_sum "Si O2"
_cell_formula_units_Z 14
_cell_length_a 5.720429
_cell_length_b 4.834165
_cell_length_c 19.834119
_cell_angle_alpha 114.388649
_cell_angle_beta 91.017159
_cell_angle_gamma 81.258123
_cell_volume 493.118598
_symmetry_space_group_name_H-M "P -1"
_symmetry_group_IT_number 2
_symmetry_cell_setting 'triclinic'
loop_
_space_group_symop_operation_xyz
x,y,z
-x,-y,-z
loop_
_atom_site_type_symbol
_atom_site_label
_atom_site_fract_x
_atom_site_fract_y
_atom_site_fract_z
Si Si1 0.730155 0.186262 0.769793
Si Si2 0.705973 0.626816 0.645225
Si Si3 0.469797 0.165813 0.151365
Si Si4 0.275050 0.762432 0.016531
Si Si5 0.767463 0.556665 0.375581
Si Si6 0.215059 0.799959 0.522142
Si Si7 0.087957 0.359777 0.881050
O O1 0.524377 0.475384 0.806987
O O2 0.960596 0.329364 0.806378
O O3 0.723427 0.988932 0.682913
O O4 0.699745 0.931459 0.800479
O O5 0.447861 0.593246 0.672147
O O6 0.679084 0.461007 0.556609
O O7 0.968845 0.477255 0.659451
O O8 0.358845 0.079718 0.070511
O O9 0.703930 0.926016 0.140057
O O10 0.095561 0.695566 0.066927
O O11 0.500000 0.500000 0.000000
O O12 0.168312 0.682803 0.936207
O O13 0.836531 0.376594 0.428392
O O14 0.662609 0.914576 0.423858
O O15 0.000000 0.000000 0.500000
#
# Coordination Sequence:
#
# PCOD9034044 Si02
#       7
#     2   2   2   2   2   2   2
#     4  11  26  41  63  94 134 176 220 271 333 415
#     4  11  25  45  67 102 135 181 225 279 346 408
#     4  10  23  42  63  94 130 171 226 270 334 398
#     4   8  16  37  66  97 122 168 219 276 326 392
#     4  11  25  43  71  98 135 173 229 284 339 403
#     4  10  22  44  71 101 133 173 227 287 339 400
#     4   9  19  40  66  91 133 169 217 275 335 390
#
# _framework density 28.390737999999999
#
# number of rings (size 3 to 8) (size 9 to 14) (size 15 to 20)
#    0.000    2.000    0.000    2.571    2.000    9.714 
#    2.571   24.286    0.000    0.000    0.000    0.000 
#    0.000    0.000    0.000    0.000    0.000    0.000 
#
# Total GULP energy -78354.666143 kJ/mol
# GULP energy per Si atom -5596.761867 kJ/mol
# Density = 2.832612 g / cm^3
# Si number density = 28.390738 Si / 1000 Ang^3
#
#
#
# Elastic Constant Matrix: (Units=GPa)
#
#
# Indices 1 2 3 4 5 6 
#
# 1 172.3340 25.5513 56.3058 8.4040 15.5463 -11.9413
# 2 25.5513 157.9145 60.8765 16.4297 2.5003 6.4562
# 3 56.3058 60.8765 185.5052 43.1790 24.0115 -9.5237
# 4 8.4040 16.4297 43.1790 53.0203 -3.8892 6.9288
# 5 15.5463 2.5003 24.0115 -3.8892 48.6727 9.5459
# 6 -11.9413 6.4562 -9.5237 6.9288 9.5459 39.7568
#
#
#
# Elastic Compliance Matrix: (Units=1/GPa)
#
#
# Indices 1 2 3 4 5 6 
#
# 1 0.006690 -0.000566 -0.001470 -0.000110 -0.001824 0.002206
# 2 -0.000566 0.007513 -0.002747 0.000453 0.001682 -0.002531
# 3 -0.001470 -0.002747 0.009538 -0.007756 -0.005697 0.005009
# 4 -0.000110 0.000453 -0.007756 0.026719 0.007631 -0.008453
# 5 -0.001824 0.001682 -0.005697 0.007631 0.026394 -0.009853
# 6 0.002206 -0.002531 0.005009 -0.008453 -0.009853 0.031266
#
#
# Mechanical properties :
#
#
# Convention : Reuss Voigt Hill
#
# Bulk Modulus (GPa) = 70.54249 89.02455 79.78352
# Shear Modulus (GPa) = 40.84678 53.15797 47.00238
#
# Velocity S-wave (km/s) = 3.79718 4.33178 4.07326
# Velocity P-wave (km/s) = 6.64272 7.51293 7.09119
#
# Compressibility (1/GPa) = 0.01417585
#
# Stress axis : x y z
#
# Youngs Moduli (GPa) = 149.48646 133.10832 104.84260
#
# Poissons Ratio (x) = 0.07529 0.15410
# Poissons Ratio (y) = 0.08455 0.28798
# Poissons Ratio (z) = 0.21972 0.36562
#
# Static dielectric constant tensor:
#      x y z
#    x 2.352950 0.042210 0.015530 
#    y 0.042210 2.135250 -0.010060 
#    z 0.015530 -0.010060 2.275690 
# 
# From -- ./inp_files/615002.got.cif
#   From: 2010.05.17/outbox.cif.g08.bks.cpg/sg2_308_cif.got.tgz:615002.got - 2010.06.03 11:33:40.
