data_PCOD9034917
_publ_section_title
;
Structure prediction by ZEFSAII (Michael W. Deem and Ramdas Pophale) SiO2 
 PCOD9034917
Probable space group: P -1
;
_chemical_formula_sum "Si O2"
_cell_formula_units_Z 16
_cell_length_a 13.984480
_cell_length_b 9.141026
_cell_length_c 9.732833
_cell_angle_alpha 85.835969
_cell_angle_beta 109.106467
_cell_angle_gamma 139.852799
_cell_volume 725.074895
_symmetry_space_group_name_H-M "P -1"
_symmetry_group_IT_number 2
_symmetry_cell_setting 'triclinic'
loop_
_space_group_symop_operation_xyz
x,y,z
-x,-y,-z
loop_
_atom_site_type_symbol
_atom_site_label
_atom_site_fract_x
_atom_site_fract_y
_atom_site_fract_z
Si Si1 0.898847 0.224713 0.134114
Si Si2 0.266574 0.604607 0.303205
Si Si3 0.433462 0.301935 0.882340
Si Si4 0.552002 0.146836 0.878264
Si Si5 0.030432 0.395029 0.702211
Si Si6 0.421679 0.467164 0.329164
Si Si7 0.261522 0.761280 0.558115
Si Si8 0.084131 0.948977 0.108918
O O1 0.907126 0.402321 0.179996
O O2 0.074562 0.365707 0.257259
O O3 0.737511 0.964599 0.137250
O O4 0.903107 0.173242 0.982753
O O5 0.300856 0.728329 0.165208
O O6 0.351014 0.546885 0.322310
O O7 0.330341 0.755839 0.458908
O O8 0.570609 0.330639 0.934466
O O9 0.435191 0.368430 0.727066
O O10 0.500000 0.500000 0.000000
O O11 0.401070 0.976839 0.710967
O O12 0.500000 0.000000 0.000000
O O13 0.153188 0.534013 0.621815
O O14 0.858534 0.253018 0.563310
O O15 0.009364 0.223722 0.791162
O O16 0.500000 0.500000 0.500000
O O17 0.268123 0.200508 0.219860
O O18 0.000000 0.000000 0.000000
#
# Coordination Sequence:
#
# PCOD9034917 Si02
#       8
#     2   2   2   2   2   2   2   2
#     4  11  22  46  72 102 136 184 240 299 352 421
#     4  10  24  44  69 103 139 183 238 291 354 426
#     4  11  24  45  68  99 139 181 234 290 351 423
#     4  11  25  42  69 101 143 183 234 291 351 426
#     4  10  24  41  75 105 138 186 240 296 358 423
#     4  11  26  45  67 101 146 189 229 286 365 428
#     4  10  22  45  69 104 142 185 239 290 358 420
#     4  12  25  44  72 107 147 186 240 300 361 425
#
# _framework density 22.066687000000002
#
# number of rings (size 3 to 8) (size 9 to 14) (size 15 to 20)
#    0.000    1.250    3.750    0.750    5.250    3.000 
#    2.250    1.250    0.000    0.000    0.000    0.000 
#    0.000    0.000    0.000    0.000    0.000    0.000 
#
# Total GULP energy -89316.627026 kJ/mol
# GULP energy per Si atom -5582.289189 kJ/mol
# Density = 2.201646 g / cm^3
# Si number density = 22.066687 Si / 1000 Ang^3
#
#
#
# Elastic Constant Matrix: (Units=GPa)
#
#
# Indices 1 2 3 4 5 6 
#
# 1 67.5191 35.4571 34.5859 -5.4437 -27.8320 3.7343
# 2 35.4571 117.5269 52.1476 -10.8389 2.5991 9.3488
# 3 34.5859 52.1476 132.1976 -10.7117 -13.9827 -7.1209
# 4 -5.4437 -10.8389 -10.7117 52.1566 4.5657 -2.5965
# 5 -27.8320 2.5991 -13.9827 4.5657 38.9827 2.6919
# 6 3.7343 9.3488 -7.1209 -2.5965 2.6919 30.8955
#
#
#
# Elastic Compliance Matrix: (Units=1/GPa)
#
#
# Indices 1 2 3 4 5 6 
#
# 1 0.028815 -0.007830 -0.002560 -0.001124 0.020556 -0.003589
# 2 -0.007830 0.013246 -0.004050 0.001637 -0.007899 -0.003169
# 3 -0.002560 -0.004050 0.010309 0.001047 0.001752 0.003846
# 4 -0.001124 0.001637 0.001047 0.019964 -0.003000 0.001821
# 5 0.020556 -0.007899 0.001752 -0.003000 0.042084 -0.003609
# 6 -0.003589 -0.003169 0.003846 0.001821 -0.003609 0.035114
#
#
# Mechanical properties :
#
#
# Convention : Reuss Voigt Hill
#
# Bulk Modulus (GPa) = 42.57215 62.40273 52.48744
# Shear Modulus (GPa) = 26.84667 37.41049 32.12858
#
# Velocity S-wave (km/s) = 3.49179 4.12192 3.81987
# Velocity P-wave (km/s) = 5.96583 7.14102 6.57971
#
# Compressibility (1/GPa) = 0.02348953
#
# Stress axis : x y z
#
# Youngs Moduli (GPa) = 34.70392 75.49556 97.00169
#
# Poissons Ratio (x) = 0.59114 0.24834
# Poissons Ratio (y) = 0.27174 0.39286
# Poissons Ratio (z) = 0.08885 0.30576
#
# Static dielectric constant tensor:
#      x y z
#    x 1.854480 -0.001370 -0.013020 
#    y -0.001370 1.870730 0.016310 
#    z -0.013020 0.016310 1.830650 
# 
# From -- ./inp_files/298335.got.cif
#   From: 2010.05.17/outbox.cif.g08.bks.cpg/sg2_150_cif.got.tgz:298335.got - 2010.06.03 11:33:40.
