data_PCOD9034930
_publ_section_title
;
Structure prediction by ZEFSAII (Michael W. Deem and Ramdas Pophale) SiO2 
 PCOD9034930
Probable space group: P -1
;
_chemical_formula_sum "Si O2"
_cell_formula_units_Z 16
_cell_length_a 13.936750
_cell_length_b 11.550159
_cell_length_c 17.503142
_cell_angle_alpha 51.296936
_cell_angle_beta 32.419313
_cell_angle_gamma 30.279157
_cell_volume 703.337477
_symmetry_space_group_name_H-M "P -1"
_symmetry_group_IT_number 2
_symmetry_cell_setting 'triclinic'
loop_
_space_group_symop_operation_xyz
x,y,z
-x,-y,-z
loop_
_atom_site_type_symbol
_atom_site_label
_atom_site_fract_x
_atom_site_fract_y
_atom_site_fract_z
Si Si1 0.630386 0.380825 0.840614
Si Si2 0.226356 0.798242 0.647220
Si Si3 0.289843 0.176811 0.828620
Si Si4 0.670569 0.208537 0.599057
Si Si5 0.342939 0.364991 0.168833
Si Si6 0.628567 0.540039 0.168000
Si Si7 0.179993 0.427513 0.647739
Si Si8 0.777440 0.910624 0.822660
O O1 0.643236 0.524767 0.818684
O O2 0.451152 0.514057 0.825928
O O3 0.454419 0.376992 0.012651
O O4 0.961635 0.096599 0.721720
O O5 0.307882 0.756897 0.517336
O O6 0.516197 0.694550 0.529659
O O7 0.990253 0.814466 0.788704
O O8 0.499730 0.164707 0.729157
O O9 0.245449 0.260195 0.737268
O O10 0.443306 0.916144 0.841891
O O11 0.959950 0.382884 0.002165
O O12 0.458640 0.460737 0.688210
O O13 0.000000 0.000000 0.500000
O O14 0.015312 0.516394 0.310345
O O15 0.387086 0.831322 0.201111
O O16 0.967786 0.691180 0.723877
O O17 0.500000 0.000000 0.000000
#
# Coordination Sequence:
#
# PCOD9034930 Si02
#       8
#     2   2   2   2   2   2   2   2
#     4  10  22  45  69  91 128 173 221 275 322 380
#     4  10  23  40  66  94 132 174 211 266 336 388
#     4  11  24  42  65  99 129 172 220 265 321 390
#     4  11  21  38  62  95 133 165 207 262 324 390
#     4  11  24  44  69  95 125 173 227 271 318 377
#     4  11  21  42  65  93 135 171 209 269 321 387
#     4  11  22  42  64  93 138 168 212 272 324 380
#     4  11  19  36  66  91 126 175 205 257 326 386
#
# _framework density 22.748681999999999
#
# number of rings (size 3 to 8) (size 9 to 14) (size 15 to 20)
#    0.000    1.250    5.000    2.250    0.000    1.000 
#   11.250    2.500    0.000    0.000    0.000    0.000 
#    0.000    0.000    0.000    0.000    0.000    0.000 
#
# Total GULP energy -89365.314642 kJ/mol
# GULP energy per Si atom -5585.332165 kJ/mol
# Density = 2.269690 g / cm^3
# Si number density = 22.748682 Si / 1000 Ang^3
#
#
#
# Elastic Constant Matrix: (Units=GPa)
#
#
# Indices 1 2 3 4 5 6 
#
# 1 111.7001 27.4292 50.2002 9.5940 -30.3739 15.9657
# 2 27.4292 -186.2196 46.0280 -33.4319 -69.4782 60.4285
# 3 50.2002 46.0280 176.3617 18.5242 -42.6461 10.5158
# 4 9.5940 -33.4319 18.5242 28.0024 -13.1807 -1.2492
# 5 -30.3739 -69.4782 -42.6461 -13.1807 39.0644 14.2771
# 6 15.9657 60.4285 10.5158 -1.2492 14.2771 20.5611
#
#
#
# Elastic Compliance Matrix: (Units=1/GPa)
#
#
# Indices 1 2 3 4 5 6 
#
# 1 0.013048 -0.002400 -0.000604 -0.004175 0.006586 -0.007597
# 2 -0.002400 -0.000253 -0.001375 -0.001707 -0.007458 0.008386
# 3 -0.000604 -0.001375 0.008581 -0.004103 0.006855 -0.004888
# 4 -0.004175 -0.001707 -0.004103 0.036607 -0.004030 0.015379
# 5 0.006586 -0.007458 0.006855 -0.004030 0.025203 -0.004446
# 6 -0.007597 0.008386 -0.004888 0.015379 -0.004446 0.036410
#
#
# Mechanical properties :
#
#
# Convention : Reuss Voigt Hill
#
# Bulk Modulus (GPa) = 79.24737 38.79524 59.02130
# Shear Modulus (GPa) = 37.71884 16.07122 26.89503
#
# Velocity S-wave (km/s) = 4.07635 2.66083 3.44214
# Velocity P-wave (km/s) = 7.55428 5.15081 6.46522
#
# Compressibility (1/GPa) = 0.01261872
#
# Stress axis : x y z
#
# Youngs Moduli (GPa) = 76.63723 -3950.04241 116.53998
#
# Poissons Ratio (x) = -9.47974 0.07037
# Poissons Ratio (y) = 0.18392 0.16024
# Poissons Ratio (z) = 0.04627 -5.43120
#
# Static dielectric constant tensor:
#      x y z
#    x 1.731080 0.206220 0.009520 
#    y 0.206220 1.425130 0.042380 
#    z 0.009520 0.042380 1.857340 
# 
# From -- ./inp_files/532201.got.cif
#   From: 2010.05.17/outbox.cif.g08.bks.cpg/sg2_267_cif.got.tgz:532201.got - 2010.06.03 11:33:40.
