data_PCOD9034646
_publ_section_title
;
Structure prediction by ZEFSAII (Michael W. Deem and Ramdas Pophale) SiO2 
 PCOD9034646
Probable space group: P -1
;
_chemical_formula_sum "Si O2"
_cell_formula_units_Z 13
_cell_length_a 13.624430
_cell_length_b 5.291629
_cell_length_c 11.131956
_cell_angle_alpha 83.883250
_cell_angle_beta 135.142638
_cell_angle_gamma 82.689512
_cell_volume 538.819670
_symmetry_space_group_name_H-M "P -1"
_symmetry_group_IT_number 2
_symmetry_cell_setting 'triclinic'
loop_
_space_group_symop_operation_xyz
x,y,z
-x,-y,-z
loop_
_atom_site_type_symbol
_atom_site_label
_atom_site_fract_x
_atom_site_fract_y
_atom_site_fract_z
Si Si1 0.500000 0.000000 0.500000
Si Si2 0.913991 0.064998 0.299631
Si Si3 0.963791 0.342186 0.108939
Si Si4 0.090063 0.763777 0.264999
Si Si5 0.663639 0.726011 0.819793
Si Si6 0.582048 0.525222 0.395131
Si Si7 0.406155 0.918806 0.026358
O O1 0.662533 0.949988 0.711355
O O2 0.570395 0.760151 0.467120
O O3 0.976875 0.821689 0.274934
O O4 0.000000 0.000000 0.500000
O O5 0.959705 0.289698 0.253422
O O6 0.740426 0.127586 0.151741
O O7 0.046409 0.559773 0.150568
O O8 0.051836 0.052428 0.159026
O O9 0.792531 0.462459 0.930132
O O10 0.251714 0.645178 0.459948
O O11 0.508890 0.686329 0.639556
O O12 0.643460 0.847846 0.928136
O O13 0.503920 0.664668 0.198529
O O14 0.500000 0.000000 0.000000
#
# Coordination Sequence:
#
# PCOD9034646 Si02
#       7
#     1   2   2   2   2   2   2
#     4  10  26  42  78  98 132 182 240 296 358 412
#     4  10  23  40  64  97 141 191 231 280 342 417
#     4  10  22  45  66  94 141 184 226 288 350 411
#     4  10  24  41  69  97 137 184 228 290 346 415
#     4  11  22  47  70  96 142 180 241 285 360 417
#     4  11  24  45  69 101 139 180 239 294 351 424
#     4  11  25  40  68 104 142 189 232 288 350 426
#
# _framework density 24.126808
#
# number of rings (size 3 to 8) (size 9 to 14) (size 15 to 20)
#    0.923    0.615    3.077    0.462   10.769    2.462 
#    0.000    1.538    0.000    0.000    0.000    0.000 
#    0.000    0.000    0.000    0.000    0.000    0.000 
#
# Total GULP energy -72417.360733 kJ/mol
# GULP energy per Si atom -5570.566210 kJ/mol
# Density = 2.407189 g / cm^3
# Si number density = 24.126808 Si / 1000 Ang^3
#
#
#
# Elastic Constant Matrix: (Units=GPa)
#
#
# Indices 1 2 3 4 5 6 
#
# 1 87.3434 19.1292 48.9403 -6.5293 2.4731 -1.3410
# 2 19.1292 138.2602 46.3806 -20.5389 14.4445 5.4946
# 3 48.9403 46.3806 170.3992 -31.1085 12.5917 -10.7222
# 4 -6.5293 -20.5389 -31.1085 45.0677 -8.6676 0.0502
# 5 2.4731 14.4445 12.5917 -8.6676 47.3429 7.0299
# 6 -1.3410 5.4946 -10.7222 0.0502 7.0299 20.3727
#
#
#
# Elastic Compliance Matrix: (Units=1/GPa)
#
#
# Indices 1 2 3 4 5 6 
#
# 1 0.013773 -0.000702 -0.004072 -0.001024 0.000575 -0.001243
# 2 -0.000702 0.008514 -0.001782 0.002314 -0.001239 -0.002858
# 3 -0.004072 -0.001782 0.008770 0.004342 -0.001577 0.005362
# 4 -0.001024 0.002314 0.004342 0.026669 0.003002 0.000492
# 5 0.000575 -0.001239 -0.001577 0.003002 0.023724 -0.008652
# 6 -0.001243 -0.002858 0.005362 0.000492 -0.008652 0.055580
#
#
# Mechanical properties :
#
#
# Convention : Reuss Voigt Hill
#
# Bulk Modulus (GPa) = 55.72704 69.43368 62.58036
# Shear Modulus (GPa) = 32.02581 41.32683 36.67632
#
# Velocity S-wave (km/s) = 3.64730 4.14321 3.90314
# Velocity P-wave (km/s) = 6.39412 7.19231 6.80493
#
# Compressibility (1/GPa) = 0.01794461
#
# Stress axis : x y z
#
# Youngs Moduli (GPa) = 72.60771 117.44893 114.02883
#
# Poissons Ratio (x) = 0.08248 0.46433
# Poissons Ratio (y) = 0.05099 0.20317
# Poissons Ratio (z) = 0.29566 0.20926
#
# Static dielectric constant tensor:
#      x y z
#    x 1.397640 -0.523810 0.337490 
#    y -0.523810 1.573290 0.384760 
#    z 0.337490 0.384760 1.668060 
# 
# From -- ./inp_files/30346.got.cif
#   From: 2010.05.17/outbox.cif.g08.bks.cpg/sg2_16_cif.got.tgz:30346.got - 2010.06.03 11:33:40.
