data_PCOD9034492
_publ_section_title
;
Structure prediction by ZEFSAII (Michael W. Deem and Ramdas Pophale) SiO2 
 PCOD9034492
Probable space group: P -1
;
_chemical_formula_sum "Si O2"
_cell_formula_units_Z 14
_cell_length_a 8.376028
_cell_length_b 11.822827
_cell_length_c 15.014401
_cell_angle_alpha 30.962019
_cell_angle_beta 46.760595
_cell_angle_gamma 45.434525
_cell_volume 530.715332
_symmetry_space_group_name_H-M "P -1"
_symmetry_group_IT_number 2
_symmetry_cell_setting 'triclinic'
loop_
_space_group_symop_operation_xyz
x,y,z
-x,-y,-z
loop_
_atom_site_type_symbol
_atom_site_label
_atom_site_fract_x
_atom_site_fract_y
_atom_site_fract_z
Si Si1 0.569226 0.792664 0.839564
Si Si2 0.728841 0.776560 0.047045
Si Si3 0.214168 0.957444 0.008021
Si Si4 0.759744 0.427252 0.414999
Si Si5 0.045919 0.122378 0.278558
Si Si6 0.576623 0.278294 0.247002
Si Si7 0.127776 0.501868 0.358140
O O1 0.828648 0.811307 0.726967
O O2 0.443741 0.842672 0.758284
O O3 0.420006 0.962402 0.859171
O O4 0.577861 0.534120 0.040320
O O5 0.727201 0.541259 0.251883
O O6 0.831106 0.762476 0.921272
O O7 0.500000 0.000000 0.000000
O O8 0.883812 0.873286 0.987540
O O9 0.256223 0.695104 0.197883
O O10 0.000000 0.000000 0.000000
O O11 0.500000 0.500000 0.500000
O O12 0.927994 0.531600 0.339477
O O13 0.859219 0.153950 0.571477
O O14 0.786549 0.190489 0.295306
O O15 0.659793 0.701712 0.623791
O O16 0.000000 0.500000 0.500000
#
# Coordination Sequence:
#
# PCOD9034492 Si02
#       7
#     2   2   2   2   2   2   2
#     4  10  22  44  76 111 149 201 254 307 374 461
#     4  12  23  43  75 110 152 195 256 312 371 447
#     4  11  20  40  71 106 136 193 249 303 368 434
#     4  12  26  46  70 114 151 192 262 314 371 453
#     4  12  25  47  78 110 156 205 249 318 383 448
#     4  10  25  47  76 110 149 202 256 306 389 458
#     4  11  26  47  75 107 146 191 248 322 380 454
#
# _framework density 26.379490000000001
#
# number of rings (size 3 to 8) (size 9 to 14) (size 15 to 20)
#    0.000    0.857    4.286    2.143    4.000    0.571 
#    2.571    0.714    0.000    0.000    0.000    0.000 
#    0.000    0.000    0.000    0.000    0.000    0.000 
#
# Total GULP energy -78202.913326 kJ/mol
# GULP energy per Si atom -5585.922380 kJ/mol
# Density = 2.631945 g / cm^3
# Si number density = 26.379490 Si / 1000 Ang^3
#
#
#
# Elastic Constant Matrix: (Units=GPa)
#
#
# Indices 1 2 3 4 5 6 
#
# 1 179.5026 42.7664 21.0092 7.3369 14.3419 -21.4003
# 2 42.7664 96.0664 29.5334 20.0823 5.6240 -22.6234
# 3 21.0092 29.5334 119.9751 -2.3280 10.1280 -6.8909
# 4 7.3369 20.0823 -2.3280 30.1422 -0.7878 -1.9713
# 5 14.3419 5.6240 10.1280 -0.7878 36.4028 -7.9213
# 6 -21.4003 -22.6234 -6.8909 -1.9713 -7.9213 62.2347
#
#
#
# Elastic Compliance Matrix: (Units=1/GPa)
#
#
# Indices 1 2 3 4 5 6 
#
# 1 0.006460 -0.002427 -0.000315 0.000042 -0.001848 0.001070
# 2 -0.002427 0.015526 -0.003363 -0.009737 0.000186 0.004152
# 3 -0.000315 -0.003363 0.009420 0.002963 -0.002011 -0.000450
# 4 0.000042 -0.009737 0.002963 0.039794 0.001135 -0.001792
# 5 -0.001848 0.000186 -0.002011 0.001135 0.029404 0.002988
# 6 0.001070 0.004152 -0.000450 -0.001792 0.002988 0.018219
#
#
# Mechanical properties :
#
#
# Convention : Reuss Voigt Hill
#
# Bulk Modulus (GPa) = 52.09957 64.68469 58.39213
# Shear Modulus (GPa) = 36.38136 45.90495 41.14315
#
# Velocity S-wave (km/s) = 3.71772 4.17607 3.95354
# Velocity P-wave (km/s) = 6.18236 6.91569 6.55928
#
# Compressibility (1/GPa) = 0.01919402
#
# Stress axis : x y z
#
# Youngs Moduli (GPa) = 154.80571 64.40630 106.16233
#
# Poissons Ratio (x) = 0.15634 0.03348
# Poissons Ratio (y) = 0.37577 0.35704
# Poissons Ratio (z) = 0.04881 0.21661
#
# Static dielectric constant tensor:
#      x y z
#    x 1.586820 -0.125770 -0.612360 
#    y -0.125770 2.114730 0.000730 
#    z -0.612360 0.000730 0.878620 
# 
# From -- ./inp_files/188495.got.cif
#   From: 2010.05.17/outbox.cif.g08.bks.cpg/sg2_95_cif.got.tgz:188495.got - 2010.06.03 11:33:40.
