data_PCOD9034455
_publ_section_title
;
Structure prediction by ZEFSAII (Michael W. Deem and Ramdas Pophale) SiO2 
 PCOD9034455
Probable space group: P -1
;
_chemical_formula_sum "Si O2"
_cell_formula_units_Z 15
_cell_length_a 8.713162
_cell_length_b 8.950753
_cell_length_c 13.506828
_cell_angle_alpha 85.276716
_cell_angle_beta 139.575327
_cell_angle_gamma 112.847186
_cell_volume 588.036983
_symmetry_space_group_name_H-M "P -1"
_symmetry_group_IT_number 2
_symmetry_cell_setting 'triclinic'
loop_
_space_group_symop_operation_xyz
x,y,z
-x,-y,-z
loop_
_atom_site_type_symbol
_atom_site_label
_atom_site_fract_x
_atom_site_fract_y
_atom_site_fract_z
Si Si1 0.561645 0.609820 0.162432
Si Si2 0.978083 0.328158 0.365921
Si Si3 0.608226 0.375823 0.343504
Si Si4 0.956401 0.702793 0.180875
Si Si5 0.432231 0.119538 0.534467
Si Si6 0.901618 0.915415 0.808339
Si Si7 0.685295 0.179609 0.027406
Si Si8 0.000000 0.000000 0.500000
O O1 0.544533 0.518996 0.260413
O O2 0.850659 0.678152 0.244597
O O3 0.299958 0.461101 0.984925
O O4 0.508678 0.769548 0.130193
O O5 0.243542 0.522267 0.489676
O O6 0.788827 0.354100 0.350680
O O7 0.847574 0.298907 0.194455
O O8 0.003362 0.168841 0.433377
O O9 0.353880 0.186598 0.241462
O O10 0.253974 0.730842 0.299586
O O11 0.963372 0.878591 0.138433
O O12 0.233817 0.152069 0.363299
O O13 0.500000 0.000000 0.500000
O O14 0.255216 0.027220 0.549500
O O15 0.108762 0.848139 0.936770
O O16 0.500000 0.000000 0.000000
#
# Coordination Sequence:
#
# PCOD9034455 Si02
#       8
#     2   2   2   2   2   2   2   1
#     4  11  25  45  76 108 148 207 252 315 387 466
#     4  11  26  46  74 107 150 195 251 318 381 458
#     4  11  28  46  72 112 151 198 256 316 389 457
#     4  10  22  44  75 106 147 202 254 307 390 466
#     4  10  23  42  76 109 151 198 253 314 389 460
#     4  11  24  46  70 108 149 194 250 317 384 462
#     4  12  26  48  73 105 149 199 249 317 389 454
#     4  12  24  46  76 120 144 200 262 326 380 454
#
# _framework density 25.508599
#
# number of rings (size 3 to 8) (size 9 to 14) (size 15 to 20)
#    0.000    1.067    2.667    3.200   11.200    2.667 
#    2.400    0.000    0.000    0.000    0.000    0.000 
#    0.000    0.000    0.000    0.000    0.000    0.000 
#
# Total GULP energy -83595.218621 kJ/mol
# GULP energy per Si atom -5573.014575 kJ/mol
# Density = 2.545054 g / cm^3
# Si number density = 25.508599 Si / 1000 Ang^3
#
#
#
# Elastic Constant Matrix: (Units=GPa)
#
#
# Indices 1 2 3 4 5 6 
#
# 1 88.9536 30.4825 13.0220 0.7866 30.0403 15.3702
# 2 30.4825 132.6245 11.9504 -8.3992 10.1564 6.5508
# 3 13.0220 11.9504 24.4570 3.4133 8.9869 -11.8470
# 4 0.7866 -8.3992 3.4133 49.2388 3.0603 10.6855
# 5 30.0403 10.1564 8.9869 3.0603 30.9343 2.7439
# 6 15.3702 6.5508 -11.8470 10.6855 2.7439 31.7723
#
#
#
# Elastic Compliance Matrix: (Units=1/GPa)
#
#
# Indices 1 2 3 4 5 6 
#
# 1 0.021548 -0.001557 -0.012823 0.004525 -0.015802 -0.015042
# 2 -0.001557 0.008815 -0.006198 0.002878 0.000523 -0.004388
# 3 -0.012823 -0.006198 0.076801 -0.014645 -0.010093 0.041915
# 4 0.004525 0.002878 -0.014645 0.025484 -0.002131 -0.016630
# 5 -0.015802 0.000523 -0.010093 -0.002131 0.050633 0.000117
# 6 -0.015042 -0.004388 0.041915 -0.016630 0.000117 0.060867
#
#
# Mechanical properties :
#
#
# Convention : Reuss Voigt Hill
#
# Bulk Modulus (GPa) = 15.14987 39.66056 27.40521
# Shear Modulus (GPa) = 16.27025 35.09444 25.68234
#
# Velocity S-wave (km/s) = 2.52828 3.71319 3.17647
# Velocity P-wave (km/s) = 3.80459 5.82798 4.92140
#
# Compressibility (1/GPa) = 0.06600718
#
# Stress axis : x y z
#
# Youngs Moduli (GPa) = 46.40727 113.43686 13.02069
#
# Poissons Ratio (x) = 0.17668 0.16697
# Poissons Ratio (y) = 0.07228 0.08070
# Poissons Ratio (z) = 0.59510 0.70306
#
# Static dielectric constant tensor:
#      x y z
#    x 1.777560 -0.255680 -0.239620 
#    y -0.255680 1.976240 -0.142750 
#    z -0.239620 -0.142750 2.053680 
# 
# From -- ./inp_files/495008.got.cif
#   From: 2010.05.17/outbox.cif.g08.bks.cpg/sg2_248_cif.got.tgz:495008.got - 2010.06.03 11:33:40.
