data_PCOD9034128
_publ_section_title
;
Structure prediction by ZEFSAII (Michael W. Deem and Ramdas Pophale) SiO2 
 PCOD9034128
Probable space group: P -1
;
_chemical_formula_sum "Si O2"
_cell_formula_units_Z 15
_cell_length_a 15.233025
_cell_length_b 8.928760
_cell_length_c 8.611307
_cell_angle_alpha 83.680926
_cell_angle_beta 107.267032
_cell_angle_gamma 139.575011
_cell_volume 712.448799
_symmetry_space_group_name_H-M "P -1"
_symmetry_group_IT_number 2
_symmetry_cell_setting 'triclinic'
loop_
_space_group_symop_operation_xyz
x,y,z
-x,-y,-z
loop_
_atom_site_type_symbol
_atom_site_label
_atom_site_fract_x
_atom_site_fract_y
_atom_site_fract_z
Si Si1 0.865248 0.438188 0.121913
Si Si2 0.529306 0.354547 0.643552
Si Si3 0.017700 0.092569 0.827685
Si Si4 0.000000 0.000000 0.500000
Si Si5 0.719626 0.438536 0.474089
Si Si6 0.590150 0.076517 0.190655
Si Si7 0.707848 0.839999 0.678157
Si Si8 0.819092 0.294327 0.763424
O O1 0.747108 0.222672 0.198360
O O2 0.879166 0.634057 0.136956
O O3 0.018858 0.552271 0.210465
O O4 0.821561 0.364331 0.928599
O O5 0.625791 0.425166 0.539686
O O6 0.619586 0.599022 0.747466
O O7 0.382578 0.240264 0.514589
O O8 0.491944 0.159710 0.739519
O O9 0.047023 0.021164 0.706814
O O10 0.864262 0.971235 0.710213
O O11 0.000000 0.000000 0.000000
O O12 0.135741 0.291736 0.527126
O O13 0.622241 0.256020 0.301966
O O14 0.760627 0.340012 0.604556
O O15 0.500000 0.000000 0.000000
O O16 0.728594 0.026145 0.748823
#
# Coordination Sequence:
#
# PCOD9034128 Si02
#       8
#     2   2   2   1   2   2   2   2
#     4  10  23  42  64 101 135 170 232 282 348 409
#     4  11  24  44  67  95 134 180 222 281 342 416
#     4  11  23  43  71  99 139 178 230 294 345 409
#     4  12  24  42  72 106 132 174 244 290 340 414
#     4  12  24  44  71  97 130 183 232 279 344 414
#     4  12  26  40  67 101 139 181 228 282 340 429
#     4  10  23  42  70  94 131 180 225 276 348 406
#     4  10  22  44  71  95 131 181 225 288 344 408
#
# _framework density 21.054144000000001
#
# number of rings (size 3 to 8) (size 9 to 14) (size 15 to 20)
#    0.000    1.067    4.000    2.000    3.733    1.600 
#    0.000    0.667    0.000    0.000    0.000    0.000 
#    0.000    0.000    0.000    0.000    0.000    0.000 
#
# Total GULP energy -83541.775412 kJ/mol
# GULP energy per Si atom -5569.451694 kJ/mol
# Density = 2.100622 g / cm^3
# Si number density = 21.054144 Si / 1000 Ang^3
#
#
#
# Elastic Constant Matrix: (Units=GPa)
#
#
# Indices 1 2 3 4 5 6 
#
# 1 47.6311 33.8541 23.8477 1.2026 -1.6844 -6.2160
# 2 33.8541 172.0119 45.8397 13.4510 -7.9580 -19.0255
# 3 23.8477 45.8397 84.3608 9.3658 -13.6047 -14.5420
# 4 1.2026 13.4510 9.3658 33.0502 -1.2256 -6.3718
# 5 -1.6844 -7.9580 -13.6047 -1.2256 24.8987 2.0270
# 6 -6.2160 -19.0255 -14.5420 -6.3718 2.0270 25.8188
#
#
#
# Elastic Compliance Matrix: (Units=1/GPa)
#
#
# Indices 1 2 3 4 5 6 
#
# 1 0.026707 -0.003863 -0.005968 0.002390 -0.002654 0.001020
# 2 -0.003863 0.007672 -0.002272 -0.001743 0.000622 0.002965
# 3 -0.005968 -0.002272 0.017217 -0.002413 0.007720 0.005384
# 4 0.002390 -0.001743 -0.002413 0.032708 -0.000596 0.006050
# 5 -0.002654 0.000622 0.007720 -0.000596 0.044327 0.000540
# 6 0.001020 0.002965 0.005384 0.006050 0.000540 0.045645
#
#
# Mechanical properties :
#
#
# Convention : Reuss Voigt Hill
#
# Bulk Modulus (GPa) = 36.50982 56.78740 46.64861
# Shear Modulus (GPa) = 24.08335 30.11769 27.10052
#
# Velocity S-wave (km/s) = 3.38579 3.78628 3.59162
# Velocity P-wave (km/s) = 5.71519 6.79303 6.27728
#
# Compressibility (1/GPa) = 0.02738989
#
# Stress axis : x y z
#
# Youngs Moduli (GPa) = 37.44301 130.33899 58.08338
#
# Poissons Ratio (x) = 0.50345 0.34667
# Poissons Ratio (y) = 0.14463 0.13197
# Poissons Ratio (z) = 0.22348 0.29614
#
# Static dielectric constant tensor:
#      x y z
#    x 1.842220 0.026090 -0.050280 
#    y 0.026090 1.781730 0.010640 
#    z -0.050280 0.010640 1.760650 
# 
# From -- ./inp_files/207650.got.cif
#   From: 2010.05.17/outbox.cif.g08.bks.cpg/sg2_104_cif.got.tgz:207650.got - 2010.06.03 11:33:40.
