data_PCOD9034088
_publ_section_title
;
Structure prediction by ZEFSAII (Michael W. Deem and Ramdas Pophale) SiO2 
 PCOD9034088
Probable space group: P -1
;
_chemical_formula_sum "Si O2"
_cell_formula_units_Z 12
_cell_length_a 9.281177
_cell_length_b 5.678717
_cell_length_c 11.414000
_cell_angle_alpha 119.488663
_cell_angle_beta 105.118599
_cell_angle_gamma 85.375294
_cell_volume 504.703001
_symmetry_space_group_name_H-M "P -1"
_symmetry_group_IT_number 2
_symmetry_cell_setting 'triclinic'
loop_
_space_group_symop_operation_xyz
x,y,z
-x,-y,-z
loop_
_atom_site_type_symbol
_atom_site_label
_atom_site_fract_x
_atom_site_fract_y
_atom_site_fract_z
Si Si1 0.413557 0.214611 0.457187
Si Si2 0.199149 0.601291 0.614233
Si Si3 0.789766 0.900611 0.820993
Si Si4 0.327713 0.987398 0.928925
Si Si5 0.055107 0.253975 0.874376
Si Si6 0.913519 0.384381 0.640988
O O1 0.500000 0.500000 0.500000
O O2 0.275223 0.326236 0.528273
O O3 0.337091 0.055947 0.291675
O O4 0.500000 0.000000 0.500000
O O5 0.300926 0.762394 0.769038
O O6 0.178445 0.749594 0.520243
O O7 0.043095 0.546449 0.633939
O O8 0.805370 0.576095 0.737487
O O9 0.955728 0.008507 0.849678
O O10 0.749912 0.038569 0.967029
O O11 0.232609 0.231266 0.916857
O O12 0.500000 0.000000 0.000000
O O13 0.001705 0.242398 0.726184
O O14 0.000000 0.500000 0.000000
#
# Coordination Sequence:
#
# PCOD9034088 Si02
#       6
#     2   2   2   2   2   2
#     4  11  27  48  74 109 156 202 247 314 398 462
#     4  10  23  44  70 104 146 182 253 318 367 448
#     4  11  24  46  73 102 147 199 249 307 379 459
#     4  12  25  44  69 107 152 191 242 319 384 453
#     4  12  24  42  78 104 144 199 258 307 375 465
#     4  10  22  44  71 105 133 186 258 313 369 436
#
# _framework density 23.776357000000001
#
# number of rings (size 3 to 8) (size 9 to 14) (size 15 to 20)
#    0.000    1.000    3.333    2.500    4.667    4.667 
#    0.000    2.500    0.000    0.000    0.000    0.000 
#    0.000    0.000    0.000    0.000    0.000    0.000 
#
# Total GULP energy -66944.794952 kJ/mol
# GULP energy per Si atom -5578.732913 kJ/mol
# Density = 2.372224 g / cm^3
# Si number density = 23.776357 Si / 1000 Ang^3
#
#
#
# Elastic Constant Matrix: (Units=GPa)
#
#
# Indices 1 2 3 4 5 6 
#
# 1 97.3872 41.3555 36.7510 -23.6702 8.4550 -17.0126
# 2 41.3555 83.6865 52.1296 -27.7016 -0.5127 -24.5948
# 3 36.7510 52.1296 215.7446 -43.1375 8.7035 -11.4445
# 4 -23.6702 -27.7016 -43.1375 40.1542 -9.6034 11.8490
# 5 8.4550 -0.5127 8.7035 -9.6034 50.7855 -8.3616
# 6 -17.0126 -24.5948 -11.4445 11.8490 -8.3616 36.1503
#
#
#
# Elastic Compliance Matrix: (Units=1/GPa)
#
#
# Indices 1 2 3 4 5 6 
#
# 1 0.013749 -0.005004 -0.000282 0.003584 -0.001369 0.001485
# 2 -0.005004 0.021353 -0.002519 0.007181 0.004495 0.010061
# 3 -0.000282 -0.002519 0.006264 0.005234 -0.000335 -0.001656
# 4 0.003584 0.007181 0.005234 0.039980 0.005548 -0.003592
# 5 -0.001369 0.004495 -0.000335 0.005548 0.021988 0.005575
# 6 0.001485 0.010061 -0.001656 -0.003592 0.005575 0.037149
#
#
# Mechanical properties :
#
#
# Convention : Reuss Voigt Hill
#
# Bulk Modulus (GPa) = 38.82721 73.03227 55.92974
# Shear Modulus (GPa) = 30.36218 43.19014 36.77616
#
# Velocity S-wave (km/s) = 3.57738 4.26668 3.93715
# Velocity P-wave (km/s) = 5.78179 7.41996 6.65150
#
# Compressibility (1/GPa) = 0.02575513
#
# Stress axis : x y z
#
# Youngs Moduli (GPa) = 72.73146 46.83269 159.64337
#
# Poissons Ratio (x) = 0.23436 0.04509
# Poissons Ratio (y) = 0.36396 0.40209
# Poissons Ratio (z) = 0.02054 0.11796
#
# Static dielectric constant tensor:
#      x y z
#    x 1.914530 -0.022330 0.084560 
#    y -0.022330 2.041470 0.018440 
#    z 0.084560 0.018440 1.842410 
# 
# From -- ./inp_files/28879.got.cif
#   From: 2010.05.17/outbox.cif.g08.bks.cpg/sg2_15_cif.got.tgz:28879.got - 2010.06.03 11:33:40.
