data_PCOD9034105
_publ_section_title
;
Structure prediction by ZEFSAII (Michael W. Deem and Ramdas Pophale) SiO2 
 PCOD9034105
Probable space group: P -1
;
_chemical_formula_sum "Si O2"
_cell_formula_units_Z 16
_cell_length_a 5.331247
_cell_length_b 8.415217
_cell_length_c 20.293125
_cell_angle_alpha 117.846754
_cell_angle_beta 128.920848
_cell_angle_gamma 67.954110
_cell_volume 621.845168
_symmetry_space_group_name_H-M "P -1"
_symmetry_group_IT_number 2
_symmetry_cell_setting 'triclinic'
loop_
_space_group_symop_operation_xyz
x,y,z
-x,-y,-z
loop_
_atom_site_type_symbol
_atom_site_label
_atom_site_fract_x
_atom_site_fract_y
_atom_site_fract_z
Si Si1 0.584457 0.781269 0.478297
Si Si2 0.708780 0.590001 0.144626
Si Si3 0.050119 0.941857 0.896454
Si Si4 0.220118 0.853968 0.553986
Si Si5 0.614959 0.719153 0.006070
Si Si6 0.928741 0.242432 0.271848
Si Si7 0.346344 0.021296 0.742328
Si Si8 0.349777 0.470498 0.298488
O O1 0.470680 0.744527 0.525601
O O2 0.406224 0.665114 0.374656
O O3 0.965483 0.733905 0.520407
O O4 0.500000 0.000000 0.500000
O O5 0.429104 0.459071 0.077604
O O6 0.055111 0.487805 0.201685
O O7 0.665420 0.765057 0.216719
O O8 0.705723 0.659872 0.083173
O O9 0.254353 0.833712 0.966560
O O10 0.189620 0.843487 0.832709
O O11 0.666546 0.948792 0.823615
O O12 0.143861 0.144706 0.952636
O O13 0.360510 0.959779 0.657435
O O14 0.000000 0.000000 0.500000
O O15 0.951447 0.065285 0.289257
O O16 0.668479 0.379534 0.295547
O O17 0.215516 0.353229 0.313373
#
# Coordination Sequence:
#
# PCOD9034105 Si02
#       8
#     2   2   2   2   2   2   2   2
#     4  10  22  44  71 108 142 182 229 299 365 424
#     4  11  23  43  70 115 143 193 252 312 359 425
#     4  11  24  49  71 102 151 206 238 301 369 440
#     4  10  23  43  72 109 143 181 234 298 366 427
#     4  10  23  45  68 107 152 191 256 301 365 427
#     4  12  25  49  71 108 142 207 241 290 365 446
#     4  12  26  45  79 104 148 196 247 299 371 442
#     4  12  26  48  79 105 153 192 245 299 370 435
#
# _framework density 25.729880000000001
#
# number of rings (size 3 to 8) (size 9 to 14) (size 15 to 20)
#    0.000    1.000    3.750    2.250    1.750    5.000 
#    9.000    3.750    0.000    0.000    0.000    0.000 
#    0.000    0.000    0.000    0.000    0.000    0.000 
#
# Total GULP energy -89557.165495 kJ/mol
# GULP energy per Si atom -5597.322843 kJ/mol
# Density = 2.567132 g / cm^3
# Si number density = 25.729880 Si / 1000 Ang^3
#
#
#
# Elastic Constant Matrix: (Units=GPa)
#
#
# Indices 1 2 3 4 5 6 
#
# 1 173.7800 23.6578 40.8638 16.0134 -1.8835 2.5159
# 2 23.6578 104.6947 41.5825 17.0399 -4.0594 11.4897
# 3 40.8638 41.5825 136.7019 25.9192 7.1445 9.5121
# 4 16.0134 17.0399 25.9192 62.8851 5.0835 4.0003
# 5 -1.8835 -4.0594 7.1445 5.0835 32.1473 0.0615
# 6 2.5159 11.4897 9.5121 4.0003 0.0615 17.0825
#
#
#
# Elastic Compliance Matrix: (Units=1/GPa)
#
#
# Indices 1 2 3 4 5 6 
#
# 1 0.006302 -0.000689 -0.001594 -0.000863 0.000772 0.000622
# 2 -0.000689 0.011829 -0.002782 -0.001697 0.002351 -0.005917
# 3 -0.001594 -0.002782 0.009377 -0.002369 -0.002149 -0.002553
# 4 -0.000863 -0.001697 -0.002369 0.017866 -0.002560 -0.001587
# 5 0.000772 0.002351 -0.002149 -0.002560 0.032332 -0.000015
# 6 0.000622 -0.005917 -0.002553 -0.001587 -0.000015 0.064221
#
#
# Mechanical properties :
#
#
# Convention : Reuss Voigt Hill
#
# Bulk Modulus (GPa) = 57.54288 69.70944 63.62616
# Shear Modulus (GPa) = 31.67605 43.02781 37.35193
#
# Velocity S-wave (km/s) = 3.51251 4.09380 3.81424
# Velocity P-wave (km/s) = 6.23403 7.03543 6.64681
#
# Compressibility (1/GPa) = 0.01737834
#
# Stress axis : x y z
#
# Youngs Moduli (GPa) = 158.68127 84.54004 106.64307
#
# Poissons Ratio (x) = 0.05822 0.17002
# Poissons Ratio (y) = 0.10928 0.29664
# Poissons Ratio (z) = 0.25299 0.23516
#
# Static dielectric constant tensor:
#      x y z
#    x 2.065620 -0.052200 0.051210 
#    y -0.052200 2.061160 -0.009140 
#    z 0.051210 -0.009140 1.994180 
# 
# From -- ./inp_files/582545.got.cif
#   From: 2010.05.17/outbox.cif.g08.bks.cpg/sg2_292_cif.got.tgz:582545.got - 2010.06.03 11:33:40.
