data_PCOD9034356
_publ_section_title
;
Structure prediction by ZEFSAII (Michael W. Deem and Ramdas Pophale) SiO2 
 PCOD9034356
Probable space group: P -1
;
_chemical_formula_sum "Si O2"
_cell_formula_units_Z 13
_cell_length_a 9.059338
_cell_length_b 11.258140
_cell_length_c 8.495298
_cell_angle_alpha 42.190632
_cell_angle_beta 109.317067
_cell_angle_gamma 90.665343
_cell_volume 510.525508
_symmetry_space_group_name_H-M "P -1"
_symmetry_group_IT_number 2
_symmetry_cell_setting 'triclinic'
loop_
_space_group_symop_operation_xyz
x,y,z
-x,-y,-z
loop_
_atom_site_type_symbol
_atom_site_label
_atom_site_fract_x
_atom_site_fract_y
_atom_site_fract_z
Si Si1 0.795948 0.369874 0.235820
Si Si2 0.500000 0.000000 0.500000
Si Si3 0.490288 0.391156 0.288517
Si Si4 0.391394 0.303006 0.646830
Si Si5 0.976481 0.438866 0.728627
Si Si6 0.335103 0.951164 0.805328
Si Si7 0.000860 0.964099 0.845027
O O1 0.640485 0.450032 0.223120
O O2 0.935649 0.460121 0.222990
O O3 0.691798 0.443045 0.967981
O O4 0.882092 0.151815 0.529298
O O5 0.504496 0.797842 0.617528
O O6 0.360502 0.988462 0.595940
O O7 0.516463 0.335037 0.533565
O O8 0.223430 0.484967 0.409004
O O9 0.337087 0.134924 0.722851
O O10 0.492684 0.221323 0.919162
O O11 0.000000 0.500000 0.500000
O O12 0.055790 0.215243 0.006610
O O13 0.175800 0.918125 0.857333
O O14 0.000000 0.000000 0.000000
#
# Coordination Sequence:
#
# PCOD9034356 Si02
#       7
#     2   1   2   2   2   2   2
#     4  11  25  47  69 103 152 190 245 305 368 441
#     4  10  24  44  76 112 142 198 250 302 374 434
#     4  10  25  46  71 103 149 201 242 308 366 442
#     4  10  22  45  71 103 144 196 247 298 368 447
#     4  12  26  43  73 111 142 194 245 308 375 434
#     4  10  22  44  73 109 149 192 248 305 368 444
#     4  12  24  44  73 111 151 192 246 311 371 442
#
# _framework density 25.463958000000002
#
# number of rings (size 3 to 8) (size 9 to 14) (size 15 to 20)
#    0.000    1.231    3.077    0.923    4.308    4.923 
#    0.000    1.538    0.000    0.000    0.000    0.000 
#    0.000    0.000    0.000    0.000    0.000    0.000 
#
# Total GULP energy -72518.858443 kJ/mol
# GULP energy per Si atom -5578.373726 kJ/mol
# Density = 2.540600 g / cm^3
# Si number density = 25.463958 Si / 1000 Ang^3
#
#
#
# Elastic Constant Matrix: (Units=GPa)
#
#
# Indices 1 2 3 4 5 6 
#
# 1 117.5741 40.9419 28.8675 12.0025 -14.7080 -5.0745
# 2 40.9419 91.4224 59.8575 -12.5094 1.8779 -1.3806
# 3 28.8675 59.8575 130.1251 -31.8520 8.4637 15.7499
# 4 12.0025 -12.5094 -31.8520 28.5094 1.8729 -4.4208
# 5 -14.7080 1.8779 8.4637 1.8729 49.8398 3.6475
# 6 -5.0745 -1.3806 15.7499 -4.4208 3.6475 39.2326
#
#
#
# Elastic Compliance Matrix: (Units=1/GPa)
#
#
# Indices 1 2 3 4 5 6 
#
# 1 0.013291 -0.004984 -0.004260 -0.012676 0.005212 0.001341
# 2 -0.004984 0.018094 -0.006765 0.003061 -0.001351 0.003179
# 3 -0.004260 -0.006765 0.016824 0.017081 -0.004118 -0.005236
# 4 -0.012676 0.003061 0.017081 0.061332 -0.009015 -0.000640
# 5 0.005212 -0.001351 -0.004118 -0.009015 0.022754 -0.000852
# 6 0.001341 0.003179 -0.005236 -0.000640 -0.000852 0.027883
#
#
# Mechanical properties :
#
#
# Convention : Reuss Voigt Hill
#
# Bulk Modulus (GPa) = 61.76271 66.49504 64.12887
# Shear Modulus (GPa) = 25.30443 37.48003 31.39223
#
# Velocity S-wave (km/s) = 3.15578 3.84068 3.51495
# Velocity P-wave (km/s) = 6.13076 6.77036 6.45848
#
# Compressibility (1/GPa) = 0.01619100
#
# Stress axis : x y z
#
# Youngs Moduli (GPa) = 75.24104 55.26586 59.43714
#
# Poissons Ratio (x) = 0.27545 0.25319
# Poissons Ratio (y) = 0.37501 0.40211
# Poissons Ratio (z) = 0.32052 0.37389
#
# Static dielectric constant tensor:
#      x y z
#    x 1.991420 0.016650 0.012250 
#    y 0.016650 2.084900 -0.007450 
#    z 0.012250 -0.007450 2.010200 
# 
# From -- ./inp_files/183887.got.cif
#   From: 2010.05.17/outbox.cif.g08.bks.cpg/sg2_92_cif.got.tgz:183887.got - 2010.06.03 11:33:40.
