data_PCOD9034773
_publ_section_title
;
Structure prediction by ZEFSAII (Michael W. Deem and Ramdas Pophale) SiO2 
 PCOD9034773
Probable space group: P -1
;
_chemical_formula_sum "Si O2"
_cell_formula_units_Z 16
_cell_length_a 14.474751
_cell_length_b 15.175098
_cell_length_c 13.958082
_cell_angle_alpha 152.624548
_cell_angle_beta 136.146308
_cell_angle_gamma 27.435214
_cell_volume 616.189537
_symmetry_space_group_name_H-M "P -1"
_symmetry_group_IT_number 2
_symmetry_cell_setting 'triclinic'
loop_
_space_group_symop_operation_xyz
x,y,z
-x,-y,-z
loop_
_atom_site_type_symbol
_atom_site_label
_atom_site_fract_x
_atom_site_fract_y
_atom_site_fract_z
Si Si1 0.295629 0.741550 0.646672
Si Si2 0.185723 0.797147 0.274911
Si Si3 0.714058 0.667967 0.993882
Si Si4 0.680227 0.637474 0.576416
Si Si5 0.243859 0.494241 0.832750
Si Si6 0.979694 0.298525 0.309895
Si Si7 0.862344 0.659405 0.899562
Si Si8 0.676939 0.049814 0.616807
O O1 0.500000 0.500000 0.500000
O O2 0.347686 0.544379 0.582328
O O3 0.063418 0.921258 0.611439
O O4 0.251487 0.013641 0.893976
O O5 0.285769 0.882112 0.390720
O O6 0.294933 0.547921 0.198122
O O7 0.210078 0.636161 0.043930
O O8 0.918153 0.526520 0.065698
O O9 0.517891 0.005250 0.212563
O O10 0.739371 0.684540 0.916335
O O11 0.760977 0.531231 0.427679
O O12 0.855852 0.543278 0.685807
O O13 0.045281 0.758695 0.869346
O O14 0.452413 0.323756 0.766230
O O15 0.275931 0.231026 0.623208
O O16 0.000000 0.500000 0.500000
O O17 0.160140 0.043388 0.272872
#
# Coordination Sequence:
#
# PCOD9034773 Si02
#       8
#     2   2   2   2   2   2   2   2
#     4  11  24  44  71 103 139 181 242 290 340 420
#     4  11  24  44  70 105 144 183 233 293 349 419
#     4  10  24  42  70 103 130 181 236 275 352 418
#     4  12  24  47  72  96 140 186 229 287 355 406
#     4  10  24  44  70 101 145 185 224 296 354 404
#     4  10  24  41  69 103 131 181 235 273 344 432
#     4  10  24  48  69  97 141 179 226 300 341 405
#     4  10  22  45  68 101 143 182 234 288 344 421
#
# _framework density 25.966038000000001
#
# number of rings (size 3 to 8) (size 9 to 14) (size 15 to 20)
#    0.000    1.500    2.500    0.750   12.250    0.500 
#    2.250    8.125    0.000    0.000    0.000    0.000 
#    0.000    0.000    0.000    0.000    0.000    0.000 
#
# Total GULP energy -89654.012022 kJ/mol
# GULP energy per Si atom -5603.375751 kJ/mol
# Density = 2.590694 g / cm^3
# Si number density = 25.966038 Si / 1000 Ang^3
#
#
#
# Elastic Constant Matrix: (Units=GPa)
#
#
# Indices 1 2 3 4 5 6 
#
# 1 208.1478 28.3650 45.3550 21.5029 21.2595 2.4028
# 2 28.3650 84.7005 35.6213 12.7456 -1.1365 -0.4134
# 3 45.3550 35.6213 104.5040 4.9898 15.6525 -0.0965
# 4 21.5029 12.7456 4.9898 51.6664 6.2924 1.2651
# 5 21.2595 -1.1365 15.6525 6.2924 53.2401 8.4644
# 6 2.4028 -0.4134 -0.0965 1.2651 8.4644 36.7178
#
#
#
# Elastic Compliance Matrix: (Units=1/GPa)
#
#
# Indices 1 2 3 4 5 6 
#
# 1 0.005666 -0.000874 -0.001847 -0.001778 -0.001533 0.000029
# 2 -0.000874 0.014626 -0.004832 -0.003074 0.002486 -0.000258
# 3 -0.001847 -0.004832 0.012457 0.001138 -0.003293 0.000819
# 4 -0.001778 -0.003074 0.001138 0.021009 -0.002151 -0.000143
# 5 -0.001533 0.002486 -0.003293 -0.002151 0.021425 -0.004745
# 6 0.000029 -0.000258 0.000819 -0.000143 -0.004745 0.028331
#
#
# Mechanical properties :
#
#
# Convention : Reuss Voigt Hill
#
# Bulk Modulus (GPa) = 56.67655 68.44833 62.56244
# Shear Modulus (GPa) = 40.16116 47.52560 43.84338
#
# Velocity S-wave (km/s) = 3.93705 4.28284 4.11358
# Velocity P-wave (km/s) = 6.52240 7.13266 6.83435
#
# Compressibility (1/GPa) = 0.01764398
#
# Stress axis : x y z
#
# Youngs Moduli (GPa) = 176.50422 68.37290 80.27550
#
# Poissons Ratio (x) = 0.05973 0.14824
# Poissons Ratio (y) = 0.15419 0.38789
# Poissons Ratio (z) = 0.32594 0.33038
#
# Static dielectric constant tensor:
#      x y z
#    x 1.998890 -0.044420 0.045030 
#    y -0.044420 2.118270 0.005630 
#    z 0.045030 0.005630 1.983370 
# 
# From -- ./inp_files/534586.got.cif
#   From: 2010.05.17/outbox.cif.g08.bks.cpg/sg2_268_cif.got.tgz:534586.got - 2010.06.03 11:33:40.
