data_PCOD9034550
_publ_section_title
;
Structure prediction by ZEFSAII (Michael W. Deem and Ramdas Pophale) SiO2 
 PCOD9034550
Probable space group: P -1
;
_chemical_formula_sum "Si O2"
_cell_formula_units_Z 16
_cell_length_a 19.907202
_cell_length_b 6.927895
_cell_length_c 5.158155
_cell_angle_alpha 81.874568
_cell_angle_beta 96.414379
_cell_angle_gamma 103.106315
_cell_volume 683.554985
_symmetry_space_group_name_H-M "P -1"
_symmetry_group_IT_number 2
_symmetry_cell_setting 'triclinic'
loop_
_space_group_symop_operation_xyz
x,y,z
-x,-y,-z
loop_
_atom_site_type_symbol
_atom_site_label
_atom_site_fract_x
_atom_site_fract_y
_atom_site_fract_z
Si Si1 0.566514 0.653966 0.609891
Si Si2 0.289499 0.015272 0.965514
Si Si3 0.801320 0.768324 0.852641
Si Si4 0.932442 0.072273 0.052431
Si Si5 0.783061 0.374379 0.260558
Si Si6 0.069552 0.671529 0.488120
Si Si7 0.293935 0.393938 0.539967
Si Si8 0.564701 0.900370 0.063653
O O1 0.500000 0.500000 0.500000
O O2 0.639434 0.582796 0.622297
O O3 0.571968 0.837759 0.376391
O O4 0.555634 0.718910 0.886168
O O5 0.236086 0.840487 0.839373
O O6 0.305256 0.227738 0.781101
O O7 0.363297 0.959793 0.027234
O O8 0.252034 0.081389 0.184415
O O9 0.785841 0.701317 0.565671
O O10 0.869851 0.889454 0.989471
O O11 0.783273 0.555045 0.026821
O O12 0.924111 0.245538 0.816301
O O13 0.935755 0.158026 0.329874
O O14 0.000000 0.000000 0.000000
O O15 0.859596 0.397086 0.404328
O O16 0.718381 0.394378 0.410853
O O17 0.000000 0.500000 0.500000
O O18 0.500000 0.000000 0.000000
#
# Coordination Sequence:
#
# PCOD9034550 Si02
#       8
#     2   2   2   2   2   2   2   2
#     4  11  24  44  66  96 136 174 224 277 337 400
#     4  10  22  45  63  95 138 173 226 278 337 397
#     4  11  23  43  68  98 136 175 226 274 341 397
#     4  12  27  46  73  98 141 182 218 282 336 393
#     4  11  25  41  70 102 131 179 225 278 335 402
#     4  12  27  47  70 103 139 176 229 277 330 404
#     4  10  24  41  67  95 136 179 220 281 337 401
#     4  11  24  43  67  97 132 178 223 278 335 399
#
# _framework density 23.407042000000001
#
# number of rings (size 3 to 8) (size 9 to 14) (size 15 to 20)
#    0.000    1.000    2.500    3.000    7.000    2.000 
#    0.000    0.000    0.000    0.000    0.000    0.000 
#    0.000    0.000    0.000    0.000    0.000    0.000 
#
# Total GULP energy -89269.148801 kJ/mol
# GULP energy per Si atom -5579.321800 kJ/mol
# Density = 2.335377 g / cm^3
# Si number density = 23.407042 Si / 1000 Ang^3
#
#
#
# Elastic Constant Matrix: (Units=GPa)
#
#
# Indices 1 2 3 4 5 6 
#
# 1 135.9146 31.5127 0.3033 6.9074 20.7728 -10.7108
# 2 31.5127 59.8462 -1.4847 12.4677 3.9986 1.6956
# 3 0.3033 -1.4847 53.0367 8.1112 7.1491 -2.3883
# 4 6.9074 12.4677 8.1112 32.9125 0.5964 8.8945
# 5 20.7728 3.9986 7.1491 0.5964 33.0193 7.5173
# 6 -10.7108 1.6956 -2.3883 8.8945 7.5173 50.7755
#
#
#
# Elastic Compliance Matrix: (Units=1/GPa)
#
#
# Indices 1 2 3 4 5 6 
#
# 1 0.009745 -0.004462 0.001086 -0.001445 -0.006593 0.003485
# 2 -0.004462 0.020598 0.001668 -0.007196 0.000153 -0.000313
# 3 0.001086 0.001668 0.020888 -0.006772 -0.006022 0.003234
# 4 -0.001445 -0.007196 -0.006772 0.037032 0.004287 -0.007505
# 5 -0.006593 0.000153 -0.006022 0.004287 0.037457 -0.007975
# 6 0.003485 -0.000313 0.003234 -0.007505 -0.007975 0.023088
#
#
# Mechanical properties :
#
#
# Convention : Reuss Voigt Hill
#
# Bulk Modulus (GPa) = 20.91335 34.38444 27.64889
# Shear Modulus (GPa) = 29.73310 37.90588 33.81949
#
# Velocity S-wave (km/s) = 3.56794 4.02857 3.80523
# Velocity P-wave (km/s) = 5.09192 6.03000 5.58070
#
# Compressibility (1/GPa) = 0.04781635
#
# Stress axis : x y z
#
# Youngs Moduli (GPa) = 102.61272 48.54835 47.87337
#
# Poissons Ratio (x) = 0.21661 -0.05199
# Poissons Ratio (y) = 0.45783 -0.07985
# Poissons Ratio (z) = -0.11144 -0.08098
#
# Static dielectric constant tensor:
#      x y z
#    x 1.990720 0.023090 -0.009510 
#    y 0.023090 1.915940 0.003650 
#    z -0.009510 0.003650 1.944580 
# 
# From -- ./inp_files/10710.got.cif
#   From: 2010.05.17/outbox.cif.g08.bks.cpg/sg2_6_cif.got.tgz:10710.got - 2010.06.03 11:33:40.
