data_PCOD9034573
_publ_section_title
;
Structure prediction by ZEFSAII (Michael W. Deem and Ramdas Pophale) SiO2 
 PCOD9034573
Probable space group: P -1
;
_chemical_formula_sum "Si O2"
_cell_formula_units_Z 16
_cell_length_a 5.816488
_cell_length_b 20.493523
_cell_length_c 5.336929
_cell_angle_alpha 82.732751
_cell_angle_beta 97.462035
_cell_angle_gamma 102.274074
_cell_volume 613.138864
_symmetry_space_group_name_H-M "P -1"
_symmetry_group_IT_number 2
_symmetry_cell_setting 'triclinic'
loop_
_space_group_symop_operation_xyz
x,y,z
-x,-y,-z
loop_
_atom_site_type_symbol
_atom_site_label
_atom_site_fract_x
_atom_site_fract_y
_atom_site_fract_z
Si Si1 0.686360 0.539254 0.809755
Si Si2 0.360642 0.784757 0.837957
Si Si3 0.681494 0.845450 0.453922
Si Si4 0.631234 0.094169 0.920280
Si Si5 0.000644 0.659514 0.638210
Si Si6 0.142729 0.940097 0.545206
Si Si7 0.303136 0.584065 0.386675
Si Si8 0.644101 0.710583 0.215062
O O1 0.846939 0.612269 0.851914
O O2 0.527099 0.562319 0.558417
O O3 0.817549 0.481342 0.753408
O O4 0.500000 0.500000 0.000000
O O5 0.273000 0.826011 0.034033
O O6 0.589254 0.750699 0.943661
O O7 0.471374 0.841038 0.626210
O O8 0.156211 0.726551 0.738175
O O9 0.630617 0.896380 0.203694
O O10 0.644082 0.770103 0.385321
O O11 0.939014 0.873165 0.583085
O O12 0.747934 0.066317 0.710687
O O13 0.681609 0.054379 0.193920
O O14 0.858984 0.680296 0.367686
O O15 0.152875 0.609453 0.566832
O O16 0.000000 0.000000 0.500000
O O17 0.416799 0.649651 0.214439
#
# Coordination Sequence:
#
# PCOD9034573 Si02
#       8
#     2   2   2   2   2   2   2   2
#     4  10  24  44  66  95 135 184 238 291 357 440
#     4  11  24  47  72 109 141 188 246 292 369 432
#     4  11  25  47  74 106 149 191 241 306 355 436
#     4  11  26  50  74 108 154 195 244 300 367 430
#     4  11  23  46  70  98 140 186 230 302 369 425
#     4  12  28  48  76 113 150 198 248 295 363 434
#     4  10  22  45  64  99 136 178 237 292 362 432
#     4  10  24  41  69 102 142 175 237 302 355 433
#
# _framework density 26.095233
#
# number of rings (size 3 to 8) (size 9 to 14) (size 15 to 20)
#    0.000    1.250    2.500    1.500    5.250    1.500 
#   11.250    0.000    0.000    0.000    0.000    0.000 
#    0.000    0.000    0.000    0.000    0.000    0.000 
#
# Total GULP energy -89370.748219 kJ/mol
# GULP energy per Si atom -5585.671764 kJ/mol
# Density = 2.603584 g / cm^3
# Si number density = 26.095233 Si / 1000 Ang^3
#
#
#
# Elastic Constant Matrix: (Units=GPa)
#
#
# Indices 1 2 3 4 5 6 
#
# 1 52.1991 32.8508 25.6185 11.6272 6.2119 2.6470
# 2 32.8508 126.7952 43.0706 -0.7623 -3.3241 -13.0583
# 3 25.6185 43.0706 115.2272 1.1241 10.0158 6.6438
# 4 11.6272 -0.7623 1.1241 33.3540 -7.2700 0.4111
# 5 6.2119 -3.3241 10.0158 -7.2700 35.1955 -2.7532
# 6 2.6470 -13.0583 6.6438 0.4111 -2.7532 35.4647
#
#
#
# Elastic Compliance Matrix: (Units=1/GPa)
#
#
# Indices 1 2 3 4 5 6 
#
# 1 0.028888 -0.007387 -0.002581 -0.011810 -0.007882 -0.004868
# 2 -0.007387 0.011750 -0.003533 0.003912 0.004685 0.005858
# 3 -0.002581 -0.003533 0.011064 -0.000241 -0.003346 -0.003438
# 4 -0.011810 0.003912 -0.000241 0.036398 0.010255 0.002741
# 5 -0.007882 0.004685 -0.003346 0.010255 0.033742 0.005441
# 6 -0.004868 0.005858 -0.003438 0.002741 0.005441 0.031752
#
#
# Mechanical properties :
#
#
# Convention : Reuss Voigt Hill
#
# Bulk Modulus (GPa) = 40.48260 55.25569 47.86914
# Shear Modulus (GPa) = 26.47884 33.64829 30.06357
#
# Velocity S-wave (km/s) = 3.18889 3.59478 3.39790
# Velocity P-wave (km/s) = 5.39498 6.20085 5.81190
#
# Compressibility (1/GPa) = 0.02470197
#
# Stress axis : x y z
#
# Youngs Moduli (GPa) = 34.61594 85.10379 90.38148
#
# Poissons Ratio (x) = 0.62866 0.23324
# Poissons Ratio (y) = 0.25571 0.31932
# Poissons Ratio (z) = 0.08933 0.30067
#
# Static dielectric constant tensor:
#      x y z
#    x 2.086570 0.014870 -0.007980 
#    y 0.014870 2.104360 -0.022340 
#    z -0.007980 -0.022340 2.132500 
# 
# From -- ./inp_files/11152.got.cif
#   From: 2010.05.17/outbox.cif.g08.bks.cpg/sg2_6_cif.got.tgz:11152.got - 2010.06.03 11:33:40.
