data_PCOD9034603
_publ_section_title
;
Structure prediction by ZEFSAII (Michael W. Deem and Ramdas Pophale) SiO2 
 PCOD9034603
Probable space group: P -1
;
_chemical_formula_sum "Si O2"
_cell_formula_units_Z 16
_cell_length_a 13.180162
_cell_length_b 6.994687
_cell_length_c 7.945613
_cell_angle_alpha 85.480193
_cell_angle_beta 62.194532
_cell_angle_gamma 93.561361
_cell_volume 641.847446
_symmetry_space_group_name_H-M "P -1"
_symmetry_group_IT_number 2
_symmetry_cell_setting 'triclinic'
loop_
_space_group_symop_operation_xyz
x,y,z
-x,-y,-z
loop_
_atom_site_type_symbol
_atom_site_label
_atom_site_fract_x
_atom_site_fract_y
_atom_site_fract_z
Si Si1 0.071388 0.444906 0.287022
Si Si2 0.920453 0.097412 0.278486
Si Si3 0.362765 0.100056 0.856360
Si Si4 0.230834 0.198889 0.389359
Si Si5 0.866982 0.136969 0.931182
Si Si6 0.569298 0.234800 0.334632
Si Si7 0.332467 0.405049 0.607740
Si Si8 0.515142 0.728266 0.951133
O O1 0.164823 0.313843 0.296321
O O2 0.123673 0.639498 0.140825
O O3 0.000000 0.500000 0.500000
O O4 0.983483 0.308391 0.250495
O O5 0.830865 0.009227 0.494687
O O6 0.866712 0.100084 0.134722
O O7 0.019873 0.952535 0.214525
O O8 0.403943 0.986592 0.667567
O O9 0.318080 0.293948 0.803380
O O10 0.250182 0.983482 0.033245
O O11 0.473469 0.166513 0.884175
O O12 0.239883 0.325968 0.546793
O O13 0.360540 0.196910 0.226706
O O14 0.454228 0.339643 0.449845
O O15 0.658040 0.369349 0.371933
O O16 0.577516 0.242753 0.122518
O O17 0.500000 0.500000 0.000000
#
# Coordination Sequence:
#
# PCOD9034603 Si02
#       8
#     2   2   2   2   2   2   2   2
#     4  12  26  43  69 102 133 173 228 280 336 396
#     4  11  24  49  69  95 139 178 224 280 337 401
#     4  12  23  41  69  99 132 175 230 270 337 400
#     4  11  24  46  70  95 138 185 217 280 341 396
#     4  11  26  44  71 101 132 181 224 278 339 400
#     4  10  23  42  66  95 133 177 224 280 330 395
#     4  10  22  45  65  95 135 176 225 273 335 399
#     4  11  24  42  66  98 140 179 218 278 343 395
#
# _framework density 24.928042000000001
#
# number of rings (size 3 to 8) (size 9 to 14) (size 15 to 20)
#    0.000    1.000    3.750    2.250    3.500    2.000 
#    0.000    0.000    0.000    0.000    0.000    0.000 
#    0.000    0.000    0.000    0.000    0.000    0.000 
#
# Total GULP energy -89460.936621 kJ/mol
# GULP energy per Si atom -5591.308539 kJ/mol
# Density = 2.487130 g / cm^3
# Si number density = 24.928042 Si / 1000 Ang^3
#
#
#
# Elastic Constant Matrix: (Units=GPa)
#
#
# Indices 1 2 3 4 5 6 
#
# 1 61.1073 12.9746 18.8539 3.0302 6.9792 13.0245
# 2 12.9746 124.3172 23.0267 13.1953 7.7485 24.2030
# 3 18.8539 23.0267 78.5908 -18.3010 -12.2655 -1.5197
# 4 3.0302 13.1953 -18.3010 29.2164 2.1630 5.6757
# 5 6.9792 7.7485 -12.2655 2.1630 36.7337 8.2871
# 6 13.0245 24.2030 -1.5197 5.6757 8.2871 43.5027
#
#
#
# Elastic Compliance Matrix: (Units=1/GPa)
#
#
# Indices 1 2 3 4 5 6 
#
# 1 0.020458 0.001268 -0.007588 -0.006032 -0.005130 -0.005331
# 2 0.001268 0.010972 -0.005821 -0.007517 -0.002893 -0.005155
# 3 -0.007588 -0.005821 0.021215 0.015580 0.008238 0.002649
# 4 -0.006032 -0.007517 0.015580 0.047753 0.005281 -0.000704
# 5 -0.005130 -0.002893 0.008238 0.005281 0.032004 -0.003352
# 6 -0.005331 -0.005155 0.002649 -0.000704 -0.003352 0.028274
#
#
# Mechanical properties :
#
#
# Convention : Reuss Voigt Hill
#
# Bulk Modulus (GPa) = 35.25581 41.52509 38.39045
# Shear Modulus (GPa) = 25.71880 35.83458 30.77669
#
# Velocity S-wave (km/s) = 3.21553 3.79558 3.51753
# Velocity P-wave (km/s) = 5.28771 5.99189 5.65078
#
# Compressibility (1/GPa) = 0.02836412
#
# Stress axis : x y z
#
# Youngs Moduli (GPa) = 48.88085 91.14498 47.13693
#
# Poissons Ratio (x) = -0.11560 0.35767
# Poissons Ratio (y) = -0.06200 0.27436
# Poissons Ratio (z) = 0.37090 0.53051
#
# Static dielectric constant tensor:
#      x y z
#    x 2.043630 -0.051950 -0.005560 
#    y -0.051950 2.238250 0.025680 
#    z -0.005560 0.025680 2.062330 
# 
# From -- ./inp_files/288611.got.cif
#   From: 2010.05.17/outbox.cif.g08.bks.cpg/sg2_145_cif.got.tgz:288611.got - 2010.06.03 11:33:40.
