data_PCOD9034327
_publ_section_title
;
Structure prediction by ZEFSAII (Michael W. Deem and Ramdas Pophale) SiO2 
 PCOD9034327
Probable space group: P -1
;
_chemical_formula_sum "Si O2"
_cell_formula_units_Z 16
_cell_length_a 5.539106
_cell_length_b 19.034667
_cell_length_c 14.722468
_cell_angle_alpha 26.618428
_cell_angle_beta 77.855266
_cell_angle_gamma 72.525305
_cell_volume 657.236011
_symmetry_space_group_name_H-M "P -1"
_symmetry_group_IT_number 2
_symmetry_cell_setting 'triclinic'
loop_
_space_group_symop_operation_xyz
x,y,z
-x,-y,-z
loop_
_atom_site_type_symbol
_atom_site_label
_atom_site_fract_x
_atom_site_fract_y
_atom_site_fract_z
Si Si1 0.910676 0.069457 0.618666
Si Si2 0.911414 0.621527 0.784251
Si Si3 0.971450 0.633462 0.222329
Si Si4 0.272653 0.465088 0.793503
Si Si5 0.403814 0.877950 0.580958
Si Si6 0.284417 0.774368 0.886520
Si Si7 0.106504 0.254362 0.702813
Si Si8 0.324392 0.804392 0.327293
O O1 0.747862 0.020281 0.607860
O O2 0.785701 0.077727 0.716858
O O3 0.922763 0.247191 0.382645
O O4 0.195491 0.955624 0.724892
O O5 0.624408 0.729632 0.694998
O O6 0.992835 0.533625 0.782624
O O7 0.000000 0.500000 0.000000
O O8 0.714922 0.636068 0.183691
O O9 0.946234 0.736199 0.196632
O O10 0.067880 0.443434 0.459014
O O11 0.136647 0.689694 0.067468
O O12 0.366985 0.622794 0.576568
O O13 0.433315 0.340812 0.996377
O O14 0.232946 0.799759 0.753820
O O15 0.500000 0.000000 0.500000
O O16 0.404459 0.173601 0.752824
O O17 0.897468 0.188235 0.739230
#
# Coordination Sequence:
#
# PCOD9034327 Si02
#       8
#     2   2   2   2   2   2   2   2
#     4  11  28  43  66  96 139 183 231 286 352 419
#     4  11  24  42  64  98 128 181 226 288 343 411
#     4  10  24  38  70 103 134 178 229 295 350 421
#     4  10  23  40  66  98 137 173 236 283 351 406
#     4  12  27  44  68  95 141 185 232 283 353 421
#     4  12  24  42  65  98 136 182 233 280 353 416
#     4  10  22  44  73 102 144 174 240 291 366 413
#     4  10  23  45  70 103 136 187 229 301 350 422
#
# _framework density 24.344374999999999
#
# number of rings (size 3 to 8) (size 9 to 14) (size 15 to 20)
#    0.000    1.250    3.750    0.375   10.500    2.000 
#    0.000    1.250    0.000    0.000    0.000    0.000 
#    0.000    0.000    0.000    0.000    0.000    0.000 
#
# Total GULP energy -89338.253511 kJ/mol
# GULP energy per Si atom -5583.640844 kJ/mol
# Density = 2.428897 g / cm^3
# Si number density = 24.344375 Si / 1000 Ang^3
#
#
#
# Elastic Constant Matrix: (Units=GPa)
#
#
# Indices 1 2 3 4 5 6 
#
# 1 97.5952 64.8477 11.2945 -8.0567 11.9866 -9.4764
# 2 64.8477 162.7845 11.0979 2.3840 15.1598 4.7787
# 3 11.2945 11.0979 87.8368 3.5166 7.2751 9.3933
# 4 -8.0567 2.3840 3.5166 22.2391 -13.5802 4.9096
# 5 11.9866 15.1598 7.2751 -13.5802 19.2950 -2.3653
# 6 -9.4764 4.7787 9.3933 4.9096 -2.3653 40.5452
#
#
#
# Elastic Compliance Matrix: (Units=1/GPa)
#
#
# Indices 1 2 3 4 5 6 
#
# 1 0.015485 -0.006350 -0.001975 0.006365 0.001099 0.004119
# 2 -0.006350 0.009907 0.001204 -0.010219 -0.011777 -0.002380
# 3 -0.001975 0.001204 0.013167 -0.009328 -0.011642 -0.003204
# 4 0.006365 -0.010219 -0.009328 0.096159 0.074975 -0.002417
# 5 0.001099 -0.011777 -0.011642 0.074975 0.117818 0.002136
# 6 0.004119 -0.002380 -0.003204 -0.002417 0.002136 0.027067
#
#
# Mechanical properties :
#
#
# Convention : Reuss Voigt Hill
#
# Bulk Modulus (GPa) = 41.12556 58.07743 49.60150
# Shear Modulus (GPa) = 16.55899 33.81427 25.18663
#
# Velocity S-wave (km/s) = 2.61089 3.73097 3.22001
# Velocity P-wave (km/s) = 5.10087 6.51679 5.85182
#
# Compressibility (1/GPa) = 0.02431578
#
# Stress axis : x y z
#
# Youngs Moduli (GPa) = 64.57876 100.93748 75.94818
#
# Poissons Ratio (x) = 0.64100 0.15000
# Poissons Ratio (y) = 0.41011 -0.09144
# Poissons Ratio (z) = 0.12755 -0.12153
#
# Static dielectric constant tensor:
#      x y z
#    x 2.070960 0.022190 -0.034540 
#    y 0.022190 1.913400 -0.014840 
#    z -0.034540 -0.014840 1.972170 
# 
# From -- ./inp_files/485129.got.cif
#   From: 2010.05.17/outbox.cif.g08.bks.cpg/sg2_243_cif.got.tgz:485129.got - 2010.06.03 11:33:40.
