data_PCOD9034840
_publ_section_title
;
Structure prediction by ZEFSAII (Michael W. Deem and Ramdas Pophale) SiO2 
 PCOD9034840
Probable space group: P -1
;
_chemical_formula_sum "Si O2"
_cell_formula_units_Z 16
_cell_length_a 6.541523
_cell_length_b 10.254570
_cell_length_c 17.278893
_cell_angle_alpha 134.470952
_cell_angle_beta 105.331732
_cell_angle_gamma 58.292497
_cell_volume 693.309851
_symmetry_space_group_name_H-M "P -1"
_symmetry_group_IT_number 2
_symmetry_cell_setting 'triclinic'
loop_
_space_group_symop_operation_xyz
x,y,z
-x,-y,-z
loop_
_atom_site_type_symbol
_atom_site_label
_atom_site_fract_x
_atom_site_fract_y
_atom_site_fract_z
Si Si1 0.031229 0.782099 0.884743
Si Si2 0.446573 0.590906 0.243595
Si Si3 0.193335 0.655372 0.382969
Si Si4 0.486493 0.719137 0.559918
Si Si5 0.195026 0.235173 0.988322
Si Si6 0.313236 0.231984 0.546836
Si Si7 0.285889 0.601421 0.082298
Si Si8 0.593539 0.826601 0.775381
O O1 0.862654 0.804031 0.802736
O O2 0.323310 0.636604 0.849169
O O3 0.902544 0.720938 0.915434
O O4 0.000000 0.000000 0.000000
O O5 0.189337 0.682380 0.301619
O O6 0.587000 0.638590 0.343543
O O7 0.367972 0.704300 0.200407
O O8 0.277247 0.787010 0.501353
O O9 0.372020 0.401912 0.296767
O O10 0.946433 0.700519 0.416083
O O11 0.500000 0.500000 0.500000
O O12 0.695179 0.712816 0.521620
O O13 0.480005 0.856574 0.690065
O O14 0.967696 0.254938 0.924672
O O15 0.420459 0.009952 0.893618
O O16 0.254546 0.416783 0.043974
O O17 0.500000 0.000000 0.500000
O O18 0.500000 0.500000 0.000000
#
# Coordination Sequence:
#
# PCOD9034840 Si02
#       8
#     2   2   2   2   2   2   2   2
#     4  12  23  42  68 101 137 181 232 277 340 417
#     4  11  23  42  69  96 134 186 221 278 347 402
#     4  10  22  45  68  97 138 174 227 284 343 414
#     4   9  23  44  67 100 135 175 229 286 351 404
#     4  11  25  42  66  97 138 176 232 280 337 413
#     4  11  25  44  69 103 137 180 230 284 347 425
#     4  11  24  43  64  94 137 182 227 281 337 407
#     4  11  22  41  67  98 134 179 221 286 345 400
#
# _framework density 23.077703
#
# number of rings (size 3 to 8) (size 9 to 14) (size 15 to 20)
#    0.000    1.250    2.500    2.625    0.000    7.000 
#    4.500    0.000    0.000    0.000    0.000    0.000 
#    0.000    0.000    0.000    0.000    0.000    0.000 
#
# Total GULP energy -89076.351253 kJ/mol
# GULP energy per Si atom -5567.271953 kJ/mol
# Density = 2.302518 g / cm^3
# Si number density = 23.077703 Si / 1000 Ang^3
#
#
#
# Elastic Constant Matrix: (Units=GPa)
#
#
# Indices 1 2 3 4 5 6 
#
# 1 93.6784 16.2301 18.5634 -6.5546 -27.1754 5.6319
# 2 16.2301 47.0943 16.4670 -0.4304 -11.8245 -6.7905
# 3 18.5634 16.4670 90.4381 -22.5812 -10.7466 1.0764
# 4 -6.5546 -0.4304 -22.5812 40.7394 -0.5702 -6.3830
# 5 -27.1754 -11.8245 -10.7466 -0.5702 50.9849 -9.1081
# 6 5.6319 -6.7905 1.0764 -6.3830 -9.1081 31.7060
#
#
#
# Elastic Compliance Matrix: (Units=1/GPa)
#
#
# Indices 1 2 3 4 5 6 
#
# 1 0.013292 -0.002778 -0.001136 0.001425 0.006058 -0.000890
# 2 -0.002778 0.025868 -0.003912 -0.001116 0.005000 0.007378
# 3 -0.001136 -0.003912 0.014141 0.007786 0.001724 0.000947
# 4 0.001425 -0.001116 0.007786 0.030124 0.003612 0.006346
# 5 0.006058 0.005000 0.001724 0.003612 0.025851 0.008089
# 6 -0.000890 0.007378 0.000947 0.006346 0.008089 0.036847
#
#
# Mechanical properties :
#
#
# Convention : Reuss Voigt Hill
#
# Bulk Modulus (GPa) = 26.56214 37.08130 31.82172
# Shear Modulus (GPa) = 28.68208 36.68278 32.68243
#
# Velocity S-wave (km/s) = 3.52923 3.99122 3.76731
# Velocity P-wave (km/s) = 5.30492 6.11087 5.72210
#
# Compressibility (1/GPa) = 0.03764757
#
# Stress axis : x y z
#
# Youngs Moduli (GPa) = 75.23450 38.65746 70.71867
#
# Poissons Ratio (x) = 0.10738 0.08036
# Poissons Ratio (y) = 0.20898 0.27668
# Poissons Ratio (z) = 0.08549 0.15124
#
# Static dielectric constant tensor:
#      x y z
#    x 2.776340 0.190890 -0.314640 
#    y 0.190890 1.932320 -0.118870 
#    z -0.314640 -0.118870 2.061610 
# 
# From -- ./inp_files/549560.got.cif
#   From: 2010.05.17/outbox.cif.g08.bks.cpg/sg2_275_cif.got.tgz:549560.got - 2010.06.03 11:33:40.
