data_PCOD9034736
_publ_section_title
;
Structure prediction by ZEFSAII (Michael W. Deem and Ramdas Pophale) SiO2 
 PCOD9034736
Probable space group: P -1
;
_chemical_formula_sum "Si O2"
_cell_formula_units_Z 16
_cell_length_a 11.743925
_cell_length_b 8.667427
_cell_length_c 23.441141
_cell_angle_alpha 72.435046
_cell_angle_beta 29.922360
_cell_angle_gamma 52.538322
_cell_volume 776.788881
_symmetry_space_group_name_H-M "P -1"
_symmetry_group_IT_number 2
_symmetry_cell_setting 'triclinic'
loop_
_space_group_symop_operation_xyz
x,y,z
-x,-y,-z
loop_
_atom_site_type_symbol
_atom_site_label
_atom_site_fract_x
_atom_site_fract_y
_atom_site_fract_z
Si Si1 0.650971 0.176471 0.810287
Si Si2 0.724392 0.772168 0.260670
Si Si3 0.251054 0.075540 0.025120
Si Si4 0.443462 0.370527 0.749681
Si Si5 0.454023 0.366844 0.993083
Si Si6 0.093403 0.972888 0.898277
Si Si7 0.709530 0.964058 0.465799
Si Si8 0.190756 0.540277 0.380890
O O1 0.539872 0.053328 0.888876
O O2 0.479503 0.298057 0.808907
O O3 0.047867 0.007832 0.654683
O O4 0.508319 0.366977 0.901574
O O5 0.541020 0.777341 0.287627
O O6 0.075712 0.504911 0.151335
O O7 0.842905 0.885200 0.172671
O O8 0.517477 0.892228 0.395450
O O9 0.316327 0.910819 0.064853
O O10 0.907184 0.356972 0.142137
O O11 0.205260 0.968369 0.007803
O O12 0.750331 0.337251 0.616818
O O13 0.500000 0.500000 0.000000
O O14 0.441191 0.703323 0.767311
O O15 0.000000 0.000000 0.000000
O O16 0.983446 0.693662 0.398290
O O17 0.500000 0.000000 0.500000
O O18 0.000000 0.500000 0.500000
#
# Coordination Sequence:
#
# PCOD9034736 Si02
#       8
#     2   2   2   2   2   2   2   2
#     4  11  24  44  70  99 133 180 228 271 343 408
#     4  12  24  44  67 101 139 173 231 280 334 398
#     4  11  23  42  67  99 137 176 217 280 345 390
#     4  10  24  41  72  98 134 173 227 283 337 388
#     4  12  25  41  69  99 137 179 226 277 337 401
#     4  11  24  39  71 104 133 171 228 287 327 395
#     4  11  26  45  70  95 141 184 217 278 344 405
#     4  10  22  45  67  97 132 184 226 265 342 404
#
# _framework density 20.597615000000001
#
# number of rings (size 3 to 8) (size 9 to 14) (size 15 to 20)
#    0.000    1.000    3.750    2.250    5.250    3.000 
#    2.250    0.625    0.000    0.000    0.000    0.000 
#    0.000    0.000    0.000    0.000    0.000    0.000 
#
# Total GULP energy -89144.893567 kJ/mol
# GULP energy per Si atom -5571.555848 kJ/mol
# Density = 2.055073 g / cm^3
# Si number density = 20.597615 Si / 1000 Ang^3
#
#
#
# Elastic Constant Matrix: (Units=GPa)
#
#
# Indices 1 2 3 4 5 6 
#
# 1 202.7389 64.9123 71.2836 -25.6819 -8.0976 10.8735
# 2 64.9123 66.2072 15.7825 -17.1609 -9.7496 8.4958
# 3 71.2836 15.7825 105.8814 -27.1250 2.0173 9.3207
# 4 -25.6819 -17.1609 -27.1250 33.9541 3.8353 -14.5375
# 5 -8.0976 -9.7496 2.0173 3.8353 41.4435 -1.0840
# 6 10.8735 8.4958 9.3207 -14.5375 -1.0840 30.4410
#
#
#
# Elastic Compliance Matrix: (Units=1/GPa)
#
#
# Indices 1 2 3 4 5 6 
#
# 1 0.009261 -0.008123 -0.005403 -0.001488 0.000297 -0.000087
# 2 -0.008123 0.025026 0.004060 0.008988 0.003247 -0.000918
# 3 -0.005403 0.004060 0.015176 0.010832 -0.001809 0.001259
# 4 -0.001488 0.008988 0.010832 0.049692 -0.002822 0.018337
# 5 0.000297 0.003247 -0.001809 -0.002822 0.025277 -0.000906
# 6 -0.000087 -0.000918 0.001259 0.018337 -0.000906 0.041477
#
#
# Mechanical properties :
#
#
# Convention : Reuss Voigt Hill
#
# Bulk Modulus (GPa) = 32.75475 75.42051 54.08763
# Shear Modulus (GPa) = 25.63885 36.02434 30.83159
#
# Velocity S-wave (km/s) = 3.53193 4.18659 3.87312
# Velocity P-wave (km/s) = 5.70696 7.75020 6.80570
#
# Compressibility (1/GPa) = 0.03052992
#
# Stress axis : x y z
#
# Youngs Moduli (GPa) = 107.97990 39.95897 65.89515
#
# Poissons Ratio (x) = 0.32457 0.35605
# Poissons Ratio (y) = 0.87707 -0.26751
# Poissons Ratio (z) = 0.58345 -0.16222
#
# Static dielectric constant tensor:
#      x y z
#    x 1.621030 0.081450 -0.097200 
#    y 0.081450 1.792680 0.080480 
#    z -0.097200 0.080480 1.700710 
# 
# From -- ./inp_files/528612.got.cif
#   From: 2010.05.17/outbox.cif.g08.bks.cpg/sg2_265_cif.got.tgz:528612.got - 2010.06.03 11:33:40.
