data_PCOD9034539
_publ_section_title
;
Structure prediction by ZEFSAII (Michael W. Deem and Ramdas Pophale) SiO2 
 PCOD9034539
Probable space group: P -1
;
_chemical_formula_sum "Si O2"
_cell_formula_units_Z 14
_cell_length_a 8.304568
_cell_length_b 9.331142
_cell_length_c 11.075238
_cell_angle_alpha 41.712611
_cell_angle_beta 98.305311
_cell_angle_gamma 90.697407
_cell_volume 559.078745
_symmetry_space_group_name_H-M "P -1"
_symmetry_group_IT_number 2
_symmetry_cell_setting 'triclinic'
loop_
_space_group_symop_operation_xyz
x,y,z
-x,-y,-z
loop_
_atom_site_type_symbol
_atom_site_label
_atom_site_fract_x
_atom_site_fract_y
_atom_site_fract_z
Si Si1 0.456474 0.999238 0.204129
Si Si2 0.182738 0.076743 0.616248
Si Si3 0.308021 0.724372 0.524820
Si Si4 0.061770 0.693600 0.738263
Si Si5 0.970055 0.237481 0.700552
Si Si6 0.434970 0.683213 0.170219
Si Si7 0.042727 0.730138 0.054943
O O1 0.627142 0.975310 0.309564
O O2 0.336676 0.957728 0.327237
O O3 0.445816 0.815582 0.213951
O O4 0.458893 0.211722 0.987376
O O5 0.107714 0.199311 0.411944
O O6 0.102993 0.851581 0.750083
O O7 0.116100 0.220721 0.632220
O O8 0.206229 0.720714 0.639435
O O9 0.478507 0.563264 0.650405
O O10 0.191163 0.650272 0.454823
O O11 0.042634 0.445829 0.916664
O O12 0.997636 0.333828 0.771195
O O13 0.961155 0.980468 0.881556
O O14 0.243145 0.709215 0.093016
#
# Coordination Sequence:
#
# PCOD9034539 Si02
#       7
#     2   2   2   2   2   2   2
#     4  11  23  41  67  90 143 169 213 270 330 393
#     4  10  22  45  62  96 129 185 207 274 328 385
#     4  11  24  40  65 100 129 174 214 274 329 382
#     4  10  25  40  68  95 134 168 232 260 325 396
#     4  10  23  39  67  99 127 172 222 266 338 363
#     4  11  24  40  66 103 131 170 217 271 332 390
#     4  11  22  42  67 102 129 167 225 276 316 405
#
# _framework density 25.041194999999998
#
# number of rings (size 3 to 8) (size 9 to 14) (size 15 to 20)
#    0.000    1.429    2.857    1.286    6.000    2.286 
#    0.000    2.143    0.000    0.000    0.000    0.000 
#    0.000    0.000    0.000    0.000    0.000    0.000 
#
# Total GULP energy -78238.731033 kJ/mol
# GULP energy per Si atom -5588.480788 kJ/mol
# Density = 2.498420 g / cm^3
# Si number density = 25.041195 Si / 1000 Ang^3
#
#
#
# Elastic Constant Matrix: (Units=GPa)
#
#
# Indices 1 2 3 4 5 6 
#
# 1 63.2886 24.7390 26.8439 -0.1658 7.2233 11.2812
# 2 24.7390 78.2146 16.6529 2.3886 -17.3512 2.8263
# 3 26.8439 16.6529 111.9423 -24.8030 -11.0211 -2.8857
# 4 -0.1658 2.3886 -24.8030 37.8171 10.8766 -5.5103
# 5 7.2233 -17.3512 -11.0211 10.8766 49.6158 3.6642
# 6 11.2812 2.8263 -2.8857 -5.5103 3.6642 21.8381
#
#
#
# Elastic Compliance Matrix: (Units=1/GPa)
#
#
# Indices 1 2 3 4 5 6 
#
# 1 0.024107 -0.006911 -0.006495 -0.003927 -0.005587 -0.012471
# 2 -0.006911 0.017093 -0.001087 -0.004220 0.007753 -0.001151
# 3 -0.006495 -0.001087 0.013014 0.009420 0.000841 0.007451
# 4 -0.003927 -0.004220 0.009420 0.037317 -0.008070 0.014590
# 5 -0.005587 0.007753 0.000841 -0.008070 0.025960 -0.004398
# 6 -0.012471 -0.001151 0.007451 0.014590 -0.004398 0.057787
#
#
# Mechanical properties :
#
#
# Convention : Reuss Voigt Hill
#
# Bulk Modulus (GPa) = 39.63695 43.32414 41.48055
# Shear Modulus (GPa) = 23.51024 34.20151 28.85587
#
# Velocity S-wave (km/s) = 3.06741 3.69970 3.39829
# Velocity P-wave (km/s) = 5.32995 5.96565 5.65674
#
# Compressibility (1/GPa) = 0.02522898
#
# Stress axis : x y z
#
# Youngs Moduli (GPa) = 41.48156 58.50326 76.83879
#
# Poissons Ratio (x) = 0.40432 0.49903
# Poissons Ratio (y) = 0.28668 0.08353
# Poissons Ratio (z) = 0.26940 0.06359
#
# Static dielectric constant tensor:
#      x y z
#    x 1.986080 -0.011290 -0.085270 
#    y -0.011290 1.942730 0.019750 
#    z -0.085270 0.019750 2.058930 
# 
# From -- ./inp_files/190691.got.cif
#   From: 2010.05.17/outbox.cif.g08.bks.cpg/sg2_96_cif.got.tgz:190691.got - 2010.06.03 11:33:40.
