data_PCOD9034654
_publ_section_title
;
Structure prediction by ZEFSAII (Michael W. Deem and Ramdas Pophale) SiO2 
 PCOD9034654
Probable space group: P -1
;
_chemical_formula_sum "Si O2"
_cell_formula_units_Z 14
_cell_length_a 8.850575
_cell_length_b 14.084743
_cell_length_c 7.012033
_cell_angle_alpha 97.483643
_cell_angle_beta 47.566673
_cell_angle_gamma 100.154314
_cell_volume 634.963787
_symmetry_space_group_name_H-M "P -1"
_symmetry_group_IT_number 2
_symmetry_cell_setting 'triclinic'
loop_
_space_group_symop_operation_xyz
x,y,z
-x,-y,-z
loop_
_atom_site_type_symbol
_atom_site_label
_atom_site_fract_x
_atom_site_fract_y
_atom_site_fract_z
Si Si1 0.735357 0.488270 0.342805
Si Si2 0.522007 0.780445 0.847854
Si Si3 0.340276 0.412483 0.196741
Si Si4 0.952804 0.638772 0.913964
Si Si5 0.835873 0.828582 0.269493
Si Si6 0.268127 0.897743 0.841955
Si Si7 0.497772 0.895552 0.287685
O O1 0.500000 0.500000 0.500000
O O2 0.781180 0.546775 0.514438
O O3 0.809797 0.384003 0.293616
O O4 0.845714 0.543483 0.085489
O O5 0.525691 0.668746 0.861609
O O6 0.733613 0.813448 0.559949
O O7 0.346334 0.808911 0.864065
O O8 0.494182 0.836312 0.082194
O O9 0.171276 0.363108 0.178791
O O10 0.500000 0.500000 0.000000
O O11 0.907979 0.730469 0.098171
O O12 0.664814 0.858971 0.279097
O O13 0.037682 0.905580 0.106576
O O14 0.291650 0.885745 0.590436
O O15 0.424007 0.992352 0.786502
#
# Coordination Sequence:
#
# PCOD9034654 Si02
#       7
#     2   2   2   2   2   2   2
#     4  11  24  42  65  89 125 167 219 266 317 374
#     4  11  24  41  65  95 136 166 219 271 317 387
#     4  12  24  42  65  93 128 174 215 263 322 380
#     4  11  24  41  63  90 127 170 212 268 317 381
#     4  11  23  40  66  96 132 169 214 266 328 383
#     4  10  24  41  69  97 128 172 215 265 330 385
#     4  10  22  45  66  96 132 167 216 270 320 392
#
# _framework density 22.048503
#
# number of rings (size 3 to 8) (size 9 to 14) (size 15 to 20)
#    0.000    1.143    4.286    1.286    2.000    2.857 
#    2.571    0.000    0.000    0.000    0.000    0.000 
#    0.000    0.000    0.000    0.000    0.000    0.000 
#
# Total GULP energy -78207.279009 kJ/mol
# GULP energy per Si atom -5586.234215 kJ/mol
# Density = 2.199832 g / cm^3
# Si number density = 22.048503 Si / 1000 Ang^3
#
#
#
# Elastic Constant Matrix: (Units=GPa)
#
#
# Indices 1 2 3 4 5 6 
#
# 1 42.3446 10.5264 19.6966 -9.9163 -3.7909 -10.6208
# 2 10.5264 84.6243 8.2805 8.9149 10.4563 -16.0067
# 3 19.6966 8.2805 100.2655 3.9422 16.1680 11.4525
# 4 -9.9163 8.9149 3.9422 40.1957 2.6185 1.9835
# 5 -3.7909 10.4563 16.1680 2.6185 35.9337 6.0749
# 6 -10.6208 -16.0067 11.4525 1.9835 6.0749 26.7860
#
#
#
# Elastic Compliance Matrix: (Units=1/GPa)
#
#
# Indices 1 2 3 4 5 6 
#
# 1 0.034916 -0.002254 -0.009593 0.008970 0.005520 0.014682
# 2 -0.002254 0.015235 -0.000903 -0.003978 -0.005696 0.010183
# 3 -0.009593 -0.000903 0.013911 -0.002746 -0.005306 -0.008884
# 4 0.008970 -0.003978 -0.002746 0.028160 0.001292 -0.000024
# 5 0.005520 -0.005696 -0.005306 0.001292 0.033484 -0.006636
# 6 0.014682 0.010183 -0.008884 -0.000024 -0.006636 0.054545
#
#
# Mechanical properties :
#
#
# Convention : Reuss Voigt Hill
#
# Bulk Modulus (GPa) = 25.93345 33.80460 29.86903
# Shear Modulus (GPa) = 22.87235 33.16512 28.01874
#
# Velocity S-wave (km/s) = 3.22431 3.88260 3.56866
# Velocity P-wave (km/s) = 5.06449 5.95522 5.52783
#
# Compressibility (1/GPa) = 0.03856024
#
# Stress axis : x y z
#
# Youngs Moduli (GPa) = 28.64051 65.63963 71.88589
#
# Poissons Ratio (x) = 0.14798 0.68957
# Poissons Ratio (y) = 0.06457 0.06495
# Poissons Ratio (z) = 0.27474 0.05930
#
# Static dielectric constant tensor:
#      x y z
#    x 1.913410 -0.047990 -0.120200 
#    y -0.047990 1.845410 0.037760 
#    z -0.120200 0.037760 1.902570 
# 
# From -- ./inp_files/38289.got.cif
#   From: 2010.05.17/outbox.cif.g08.bks.cpg/sg2_20_cif.got.tgz:38289.got - 2010.06.03 11:33:40.
