data_PCOD9034746
_publ_section_title
;
Structure prediction by ZEFSAII (Michael W. Deem and Ramdas Pophale) SiO2 
 PCOD9034746
Probable space group: P -1
;
_chemical_formula_sum "Si O2"
_cell_formula_units_Z 16
_cell_length_a 11.894285
_cell_length_b 8.773059
_cell_length_c 12.764361
_cell_angle_alpha 131.282479
_cell_angle_beta 95.755779
_cell_angle_gamma 113.239878
_cell_volume 784.305530
_symmetry_space_group_name_H-M "P -1"
_symmetry_group_IT_number 2
_symmetry_cell_setting 'triclinic'
loop_
_space_group_symop_operation_xyz
x,y,z
-x,-y,-z
loop_
_atom_site_type_symbol
_atom_site_label
_atom_site_fract_x
_atom_site_fract_y
_atom_site_fract_z
Si Si1 0.132895 0.027481 0.275363
Si Si2 0.104074 0.081323 0.947294
Si Si3 0.352941 0.679730 0.222262
Si Si4 0.214622 0.748874 0.824791
Si Si5 0.948696 0.170521 0.594668
Si Si6 0.663604 0.054733 0.853196
Si Si7 0.340604 0.636386 0.594569
Si Si8 0.669562 0.069545 0.464132
O O1 0.245936 0.329818 0.449533
O O2 0.089010 0.862083 0.301002
O O3 0.209795 0.959418 0.171893
O O4 0.993503 0.972543 0.185822
O O5 0.162705 0.918968 0.874885
O O6 0.237941 0.381581 0.101195
O O7 0.000000 0.000000 0.000000
O O8 0.328780 0.747553 0.136126
O O9 0.337102 0.840897 0.379916
O O10 0.518411 0.794597 0.300852
O O11 0.290090 0.730690 0.724445
O O12 0.074580 0.462949 0.710146
O O13 0.316574 0.862708 0.987530
O O14 0.806023 0.075067 0.475059
O O15 0.000000 0.000000 0.500000
O O16 0.509274 0.783070 0.693147
O O17 0.318842 0.731610 0.526370
#
# Coordination Sequence:
#
# PCOD9034746 Si02
#       8
#     2   2   2   2   2   2   2   2
#     4  12  24  42  71  98 131 176 226 276 325 397
#     4  12  25  41  66 100 133 174 220 273 330 391
#     4  10  22  45  67  98 129 171 228 276 322 386
#     4  12  26  44  66  98 140 176 216 275 336 396
#     4  12  25  43  66  99 133 174 217 272 334 393
#     4  11  24  44  70  99 132 176 222 280 325 391
#     4  11  25  45  65 101 138 175 219 272 338 396
#     4  10  23  42  71  94 131 176 221 273 327 392
#
# _framework density 20.400213000000001
#
# number of rings (size 3 to 8) (size 9 to 14) (size 15 to 20)
#    0.000    0.750    3.750    3.750    1.750    3.000 
#    2.250    1.250    0.000    0.000    0.000    0.000 
#    0.000    0.000    0.000    0.000    0.000    0.000 
#
# Total GULP energy -89548.880356 kJ/mol
# GULP energy per Si atom -5596.805022 kJ/mol
# Density = 2.035378 g / cm^3
# Si number density = 20.400213 Si / 1000 Ang^3
#
#
#
# Elastic Constant Matrix: (Units=GPa)
#
#
# Indices 1 2 3 4 5 6 
#
# 1 72.3021 2.4638 14.6646 6.4599 24.9211 -12.7419
# 2 2.4638 57.6903 6.0781 5.8115 21.7560 -0.3140
# 3 14.6646 6.0781 46.1057 8.9533 16.8464 -12.1809
# 4 6.4599 5.8115 8.9533 50.1866 3.1432 -0.0105
# 5 24.9211 21.7560 16.8464 3.1432 33.8559 -8.6479
# 6 -12.7419 -0.3140 -12.1809 -0.0105 -8.6479 25.2259
#
#
#
# Elastic Compliance Matrix: (Units=1/GPa)
#
#
# Indices 1 2 3 4 5 6 
#
# 1 0.020797 0.006194 0.001004 -0.002423 -0.018343 0.004777
# 2 0.006194 0.025716 0.002773 -0.002830 -0.022992 -0.003096
# 3 0.001004 0.002773 0.029847 -0.004874 -0.014358 0.010030
# 4 -0.002423 -0.002830 -0.004874 0.021219 0.003438 -0.002425
# 5 -0.018343 -0.022992 -0.014358 0.003438 0.066228 0.006221
# 6 0.004777 -0.003096 0.010030 -0.002425 0.006221 0.048991
#
#
# Mechanical properties :
#
#
# Convention : Reuss Voigt Hill
#
# Bulk Modulus (GPa) = 10.38422 24.72346 17.55384
# Shear Modulus (GPa) = 22.22627 32.04643 27.13635
#
# Velocity S-wave (km/s) = 3.30436 3.96774 3.65115
# Velocity P-wave (km/s) = 4.43392 5.75640 5.13789
#
# Compressibility (1/GPa) = 0.09630000
#
# Stress axis : x y z
#
# Youngs Moduli (GPa) = 48.08366 38.88574 33.50438
#
# Poissons Ratio (x) = -0.24084 -0.03363
# Poissons Ratio (y) = -0.29781 -0.09289
# Poissons Ratio (z) = -0.04826 -0.10782
#
# Static dielectric constant tensor:
#      x y z
#    x 1.708620 0.007630 0.012460 
#    y 0.007630 1.709830 -0.017590 
#    z 0.012460 -0.017590 1.701230 
# 
# From -- ./inp_files/242682.got.cif
#   From: 2010.05.17/outbox.cif.g08.bks.cpg/sg2_122_cif.got.tgz:242682.got - 2010.06.03 11:33:40.
