data_PCOD9034578
_publ_section_title
;
Structure prediction by ZEFSAII (Michael W. Deem and Ramdas Pophale) SiO2 
 PCOD9034578
Probable space group: P -1
;
_chemical_formula_sum "Si O2"
_cell_formula_units_Z 10
_cell_length_a 11.675749
_cell_length_b 11.815572
_cell_length_c 11.374863
_cell_angle_alpha 151.395311
_cell_angle_beta 37.847045
_cell_angle_gamma 147.348286
_cell_volume 397.536393
_symmetry_space_group_name_H-M "P -1"
_symmetry_group_IT_number 2
_symmetry_cell_setting 'triclinic'
loop_
_space_group_symop_operation_xyz
x,y,z
-x,-y,-z
loop_
_atom_site_type_symbol
_atom_site_label
_atom_site_fract_x
_atom_site_fract_y
_atom_site_fract_z
Si Si1 0.656807 0.687144 0.441238
Si Si2 0.997089 0.787853 0.639512
Si Si3 0.661718 0.802624 0.102616
Si Si4 0.912348 0.128292 0.820729
Si Si5 0.314642 0.773118 0.697222
O O1 0.500000 0.500000 0.500000
O O2 0.491539 0.680795 0.474083
O O3 0.842903 0.634061 0.192229
O O4 0.792978 0.981233 0.663497
O O5 0.911438 0.470500 0.394038
O O6 0.953361 0.922598 0.683049
O O7 0.843005 0.782157 0.862446
O O8 0.232808 0.987997 0.682888
O O9 0.587508 0.950880 0.204465
O O10 0.500000 0.500000 0.000000
O O11 0.757185 0.190759 0.081786
#
# Coordination Sequence:
#
# PCOD9034578 Si02
#       5
#     2   2   2   2   2
#     4  11  23  45  68 100 141 178 229 279 338 409
#     4  10  22  45  65 103 139 174 229 287 331 409
#     4  10  24  44  69  99 139 178 229 283 339 409
#     4  10  24  44  66 102 142 175 226 286 330 411
#     4  11  23  45  74 100 136 187 224 278 351 398
#
# _framework density 25.154931000000001
#
# number of rings (size 3 to 8) (size 9 to 14) (size 15 to 20)
#    0.000    1.600    2.000    1.200    2.800    1.600 
#   14.400    0.000    0.000    0.000    0.000    0.000 
#    0.000    0.000    0.000    0.000    0.000    0.000 
#
# Total GULP energy -55949.543963 kJ/mol
# GULP energy per Si atom -5594.954396 kJ/mol
# Density = 2.509768 g / cm^3
# Si number density = 25.154931 Si / 1000 Ang^3
#
#
#
# Elastic Constant Matrix: (Units=GPa)
#
#
# Indices 1 2 3 4 5 6 
#
# 1 69.9720 39.7727 2.5851 9.4280 6.9562 4.9768
# 2 39.7727 174.5533 19.0429 -0.3462 -5.3924 -10.9520
# 3 2.5851 19.0429 45.5642 -6.9490 16.4733 1.5412
# 4 9.4280 -0.3462 -6.9490 44.6138 -0.6040 -2.4538
# 5 6.9562 -5.3924 16.4733 -0.6040 39.0306 3.1119
# 6 4.9768 -10.9520 1.5412 -2.4538 3.1119 37.6371
#
#
#
# Elastic Compliance Matrix: (Units=1/GPa)
#
#
# Indices 1 2 3 4 5 6 
#
# 1 0.018145 -0.004752 0.002151 -0.003804 -0.004559 -0.003741
# 2 -0.004752 0.007540 -0.004115 0.000619 0.003416 0.002749
# 3 0.002151 -0.004115 0.028850 0.003757 -0.012963 -0.001347
# 4 -0.003804 0.000619 0.003757 0.023918 -0.000623 0.002140
# 5 -0.004559 0.003416 -0.012963 -0.000623 0.032414 -0.000593
# 6 -0.003741 0.002749 -0.001347 0.002140 -0.000593 0.028108
#
#
# Mechanical properties :
#
#
# Convention : Reuss Voigt Hill
#
# Bulk Modulus (GPa) = 24.32910 45.87677 35.10294
# Shear Modulus (GPa) = 30.10094 39.50221 34.80158
#
# Velocity S-wave (km/s) = 3.46298 3.96707 3.72356
# Velocity P-wave (km/s) = 5.06777 6.26585 5.69838
#
# Compressibility (1/GPa) = 0.04110304
#
# Stress axis : x y z
#
# Youngs Moduli (GPa) = 55.11154 132.62798 34.66196
#
# Poissons Ratio (x) = 0.63028 -0.07457
# Poissons Ratio (y) = 0.26190 0.14264
# Poissons Ratio (z) = -0.11856 0.54578
#
# Static dielectric constant tensor:
#      x y z
#    x 2.019710 0.047310 0.005170 
#    y 0.047310 2.053090 0.030790 
#    z 0.005170 0.030790 1.966080 
# 
# From -- ./inp_files/1489.got.cif
#   From: 2010.05.17/outbox.cif.g08.bks.cpg/sg2_1_cif.got.tgz:1489.got - 2010.06.03 11:33:40.
