data_PCOD9034111
_publ_section_title
;
Structure prediction by ZEFSAII (Michael W. Deem and Ramdas Pophale) SiO2 
 PCOD9034111
Probable space group: P -1
;
_chemical_formula_sum "Si O2"
_cell_formula_units_Z 14
_cell_length_a 14.434239
_cell_length_b 8.826761
_cell_length_c 6.377250
_cell_angle_alpha 79.676272
_cell_angle_beta 60.519168
_cell_angle_gamma 108.998079
_cell_volume 609.271085
_symmetry_space_group_name_H-M "P -1"
_symmetry_group_IT_number 2
_symmetry_cell_setting 'triclinic'
loop_
_space_group_symop_operation_xyz
x,y,z
-x,-y,-z
loop_
_atom_site_type_symbol
_atom_site_label
_atom_site_fract_x
_atom_site_fract_y
_atom_site_fract_z
Si Si1 0.911079 0.565548 0.687247
Si Si2 0.810126 0.719232 0.406956
Si Si3 0.080611 0.944242 0.560813
Si Si4 0.532124 0.129285 0.237956
Si Si5 0.141251 0.549611 0.822442
Si Si6 0.473166 0.425375 0.299365
Si Si7 0.701418 0.104245 0.720380
O O1 0.838211 0.630435 0.601332
O O2 0.000000 0.500000 0.500000
O O3 0.000014 0.736093 0.681919
O O4 0.823218 0.417768 0.982332
O O5 0.846090 0.618308 0.220506
O O6 0.672771 0.671050 0.527459
O O7 0.885067 0.930573 0.304255
O O8 0.208790 0.975554 0.316884
O O9 0.000000 0.000000 0.500000
O O10 0.540138 0.309488 0.254639
O O11 0.500000 0.000000 0.500000
O O12 0.413198 0.037863 0.244658
O O13 0.643784 0.142885 0.976703
O O14 0.224063 0.717438 0.544398
O O15 0.000000 0.500000 0.000000
O O16 0.500000 0.500000 0.500000
O O17 0.500000 0.500000 0.000000
#
# Coordination Sequence:
#
# PCOD9034111 Si02
#       7
#     2   2   2   2   2   2   2
#     4  11  23  44  72 109 152 204 256 315 392 494
#     4  11  25  46  70 106 157 200 260 328 402 473
#     4  10  22  44  71 108 151 201 247 327 392 480
#     4  11  28  51  79 109 151 214 275 332 406 474
#     4  12  24  43  72 110 150 203 254 313 401 478
#     4  12  30  52  80 119 159 210 277 345 410 475
#     4  11  24  49  75 108 152 199 266 325 393 489
#
# _framework density 22.978278
#
# number of rings (size 3 to 8) (size 9 to 14) (size 15 to 20)
#    0.000    0.857    4.286    0.857    8.000    2.857 
#    2.571    0.000    0.000    0.000    0.000    0.000 
#    0.000    0.000    0.000    0.000    0.000    0.000 
#
# Total GULP energy -77946.910562 kJ/mol
# GULP energy per Si atom -5567.636469 kJ/mol
# Density = 2.292598 g / cm^3
# Si number density = 22.978278 Si / 1000 Ang^3
#
#
#
# Elastic Constant Matrix: (Units=GPa)
#
#
# Indices 1 2 3 4 5 6 
#
# 1 139.8061 33.0587 49.1895 13.7386 -14.5713 -3.4531
# 2 33.0587 128.7907 55.0383 30.4196 -8.2880 -7.3104
# 3 49.1895 55.0383 170.9223 19.2252 -6.1720 -14.3404
# 4 13.7386 30.4196 19.2252 29.1661 -10.4366 -2.0445
# 5 -14.5713 -8.2880 -6.1720 -10.4366 45.5155 5.6585
# 6 -3.4531 -7.3104 -14.3404 -2.0445 5.6585 58.4941
#
#
#
# Elastic Compliance Matrix: (Units=1/GPa)
#
#
# Indices 1 2 3 4 5 6 
#
# 1 0.008366 -0.000988 -0.001940 -0.000915 0.002067 -0.000337
# 2 -0.000988 0.011344 -0.002208 -0.010216 -0.000962 0.000554
# 3 -0.001940 -0.002208 0.007419 -0.001790 -0.000605 0.001424
# 4 -0.000915 -0.010216 -0.001790 0.049754 0.009126 -0.000914
# 5 0.002067 -0.000962 -0.000605 0.009126 0.024744 -0.002221
# 6 -0.000337 0.000554 0.001424 -0.000914 -0.002221 0.017677
#
#
# Mechanical properties :
#
#
# Convention : Reuss Voigt Hill
#
# Bulk Modulus (GPa) = 59.32223 79.34358 69.33290
# Shear Modulus (GPa) = 36.98328 46.78397 41.88362
#
# Velocity S-wave (km/s) = 4.01620 4.51711 4.27400
# Velocity P-wave (km/s) = 6.88325 7.86196 7.38883
#
# Compressibility (1/GPa) = 0.01685709
#
# Stress axis : x y z
#
# Youngs Moduli (GPa) = 119.52921 88.15045 134.79123
#
# Poissons Ratio (x) = 0.08712 0.26152
# Poissons Ratio (y) = 0.11813 0.29757
# Poissons Ratio (z) = 0.23191 0.19460
#
# Static dielectric constant tensor:
#      x y z
#    x 1.862580 0.055830 0.099970 
#    y 0.055830 1.947450 -0.023570 
#    z 0.099970 -0.023570 1.926790 
# 
# From -- ./inp_files/90288.got.cif
#   From: 2010.05.17/outbox.cif.g08.bks.cpg/sg2_46_cif.got.tgz:90288.got - 2010.06.03 11:33:40.
