data_PCOD9034459
_publ_section_title
;
Structure prediction by ZEFSAII (Michael W. Deem and Ramdas Pophale) SiO2 
 PCOD9034459
Probable space group: P -1
;
_chemical_formula_sum "Si O2"
_cell_formula_units_Z 12
_cell_length_a 8.647505
_cell_length_b 11.002207
_cell_length_c 9.003416
_cell_angle_alpha 124.178124
_cell_angle_beta 129.898547
_cell_angle_gamma 49.824129
_cell_volume 485.861866
_symmetry_space_group_name_H-M "P -1"
_symmetry_group_IT_number 2
_symmetry_cell_setting 'triclinic'
loop_
_space_group_symop_operation_xyz
x,y,z
-x,-y,-z
loop_
_atom_site_type_symbol
_atom_site_label
_atom_site_fract_x
_atom_site_fract_y
_atom_site_fract_z
Si Si1 0.061629 0.916436 0.638431
Si Si2 0.284313 0.009895 0.283837
Si Si3 0.442340 0.561455 0.334225
Si Si4 0.849681 0.626743 0.622263
Si Si5 0.516407 0.230607 0.029599
Si Si6 0.004911 0.347083 0.748531
O O1 0.317374 0.870666 0.805093
O O2 0.891842 0.010332 0.729172
O O3 0.026642 0.753607 0.478335
O O4 0.000000 0.000000 0.500000
O O5 0.159590 0.194856 0.266905
O O6 0.500000 0.000000 0.500000
O O7 0.375152 0.870078 0.120119
O O8 0.500000 0.500000 0.500000
O O9 0.592008 0.654036 0.459364
O O10 0.513488 0.407941 0.162639
O O11 0.173008 0.650479 0.237858
O O12 0.000000 0.500000 0.500000
O O13 0.936306 0.527489 0.762275
O O14 0.259637 0.262870 0.902129
#
# Coordination Sequence:
#
# PCOD9034459 Si02
#       6
#     2   2   2   2   2   2
#     4  12  27  49  78 111 157 200 254 320 383 459
#     4  12  26  49  77 118 156 198 258 320 381 460
#     4  10  22  44  75 108 151 196 254 312 372 450
#     4  11  21  46  77 105 156 198 246 322 372 444
#     4  12  24  50  80 113 151 205 258 312 393 451
#     4  11  24  47  75 112 151 197 264 311 378 451
#
# _framework density 24.69838
#
# number of rings (size 3 to 8) (size 9 to 14) (size 15 to 20)
#    0.000    0.667    6.667    1.000    2.333    0.667 
#    9.000    7.500    0.000    0.000    0.000    0.000 
#    0.000    0.000    0.000    0.000    0.000    0.000 
#
# Total GULP energy -67214.071633 kJ/mol
# GULP energy per Si atom -5601.172636 kJ/mol
# Density = 2.464216 g / cm^3
# Si number density = 24.698380 Si / 1000 Ang^3
#
#
#
# Elastic Constant Matrix: (Units=GPa)
#
#
# Indices 1 2 3 4 5 6 
#
# 1 156.9704 77.9120 52.7416 -14.0580 11.7789 -19.0798
# 2 77.9120 116.4979 53.6441 -2.1524 -8.0233 -13.1344
# 3 52.7416 53.6441 148.9554 -7.9513 14.3725 -27.2897
# 4 -14.0580 -2.1524 -7.9513 59.9758 -30.1738 3.6495
# 5 11.7789 -8.0233 14.3725 -30.1738 35.4849 -4.2584
# 6 -19.0798 -13.1344 -27.2897 3.6495 -4.2584 42.8731
#
#
#
# Elastic Compliance Matrix: (Units=1/GPa)
#
#
# Indices 1 2 3 4 5 6 
#
# 1 0.010561 -0.007041 -0.000399 -0.000549 -0.005184 0.001821
# 2 -0.007041 0.016009 -0.004139 0.003872 0.010913 -0.000109
# 3 -0.000399 -0.004139 0.009593 -0.002327 -0.006158 0.004247
# 4 -0.000549 0.003872 -0.002327 0.030377 0.027787 -0.000365
# 5 -0.005184 0.010913 -0.006158 0.027787 0.058559 0.000568
# 6 0.001821 -0.000109 0.004247 -0.000365 0.000568 0.026892
#
#
# Mechanical properties :
#
#
# Convention : Reuss Voigt Hill
#
# Bulk Modulus (GPa) = 76.88956 87.89102 82.39029
# Shear Modulus (GPa) = 27.85751 43.54182 35.69967
#
# Velocity S-wave (km/s) = 3.36208 4.20330 3.80600
# Velocity P-wave (km/s) = 6.80224 7.69545 7.26259
#
# Compressibility (1/GPa) = 0.01300567
#
# Stress axis : x y z
#
# Youngs Moduli (GPa) = 94.69136 62.46345 104.23927
#
# Poissons Ratio (x) = 0.43980 0.04160
# Poissons Ratio (y) = 0.66672 0.43142
# Poissons Ratio (z) = 0.03779 0.25852
#
# Static dielectric constant tensor:
#      x y z
#    x 1.939670 -0.009110 0.005310 
#    y -0.009110 2.055770 0.008470 
#    z 0.005310 0.008470 1.960020 
# 
# From -- ./inp_files/182901.got.cif
#   From: 2010.05.17/outbox.cif.g08.bks.cpg/sg2_92_cif.got.tgz:182901.got - 2010.06.03 11:33:40.
