data_PCOD9034310
_publ_section_title
;
Structure prediction by ZEFSAII (Michael W. Deem and Ramdas Pophale) SiO2 
 PCOD9034310
Probable space group: P -1
;
_chemical_formula_sum "Si O2"
_cell_formula_units_Z 12
_cell_length_a 9.701012
_cell_length_b 16.087925
_cell_length_c 13.262478
_cell_angle_alpha 154.922261
_cell_angle_beta 45.548092
_cell_angle_gamma 142.500189
_cell_volume 532.729359
_symmetry_space_group_name_H-M "P -1"
_symmetry_group_IT_number 2
_symmetry_cell_setting 'triclinic'
loop_
_space_group_symop_operation_xyz
x,y,z
-x,-y,-z
loop_
_atom_site_type_symbol
_atom_site_label
_atom_site_fract_x
_atom_site_fract_y
_atom_site_fract_z
Si Si1 0.888276 0.927702 0.773096
Si Si2 0.598416 0.248327 0.170319
Si Si3 0.313232 0.712774 0.057754
Si Si4 0.676805 0.096719 0.422377
Si Si5 0.002959 0.560864 0.682512
Si Si6 0.918882 0.788878 0.384213
O O1 0.628305 0.757520 0.754303
O O2 0.861998 0.867351 0.602059
O O3 0.096704 0.906606 0.677795
O O4 0.962106 0.188757 0.046909
O O5 0.782573 0.418085 0.343459
O O6 0.723424 0.279199 0.034250
O O7 0.500000 0.000000 0.000000
O O8 0.124017 0.743669 0.243960
O O9 0.548863 0.928334 0.209246
O O10 0.280424 0.465430 0.827370
O O11 0.772489 0.360524 0.632672
O O12 0.500000 0.000000 0.500000
O O13 0.000000 0.500000 0.500000
O O14 0.000000 0.000000 0.500000
#
# Coordination Sequence:
#
# PCOD9034310 Si02
#       6
#     2   2   2   2   2   2
#     4  11  25  45  73 102 137 192 237 283 358 416
#     4  10  22  44  73 100 137 180 241 288 340 426
#     4  11  25  44  67 101 144 180 231 295 345 413
#     4  12  26  44  69 105 151 183 232 297 351 422
#     4  11  26  46  73 105 146 182 235 300 355 419
#     4  11  24  42  69  97 134 187 238 281 348 420
#
# _framework density 22.525511000000002
#
# number of rings (size 3 to 8) (size 9 to 14) (size 15 to 20)
#    0.000    1.000    1.667    5.000    4.667    8.667 
#    0.000    0.000    0.000    0.000    0.000    0.000 
#    0.000    0.000    0.000    0.000    0.000    0.000 
#
# Total GULP energy -67036.114696 kJ/mol
# GULP energy per Si atom -5586.342891 kJ/mol
# Density = 2.247424 g / cm^3
# Si number density = 22.525511 Si / 1000 Ang^3
#
#
#
# Elastic Constant Matrix: (Units=GPa)
#
#
# Indices 1 2 3 4 5 6 
#
# 1 73.5076 16.2192 33.5787 7.5106 15.7964 20.1062
# 2 16.2192 115.8287 49.6768 16.5975 11.7333 6.3740
# 3 33.5787 49.6768 154.0772 18.5806 10.1141 0.1799
# 4 7.5106 16.5975 18.5806 55.0508 2.2839 2.1513
# 5 15.7964 11.7333 10.1141 2.2839 41.0842 4.0717
# 6 20.1062 6.3740 0.1799 2.1513 4.0717 32.8005
#
#
#
# Elastic Compliance Matrix: (Units=1/GPa)
#
#
# Indices 1 2 3 4 5 6 
#
# 1 0.019708 0.000203 -0.003894 -0.000763 -0.005508 -0.011365
# 2 0.000203 0.010506 -0.003053 -0.002011 -0.002040 -0.001764
# 3 -0.003894 -0.003053 0.008501 -0.001538 0.000062 0.003027
# 4 -0.000763 -0.002011 -0.001538 0.019403 0.000211 -0.000432
# 5 -0.005508 -0.002040 0.000062 0.000211 0.026973 0.000410
# 6 -0.011365 -0.001764 0.003027 -0.000432 0.000410 0.037758
#
#
# Mechanical properties :
#
#
# Convention : Reuss Voigt Hill
#
# Bulk Modulus (GPa) = 39.63834 60.26256 49.95045
# Shear Modulus (GPa) = 34.54317 42.04968 38.29643
#
# Velocity S-wave (km/s) = 3.92026 4.32529 4.12774
# Velocity P-wave (km/s) = 6.17467 7.19411 6.70380
#
# Compressibility (1/GPa) = 0.02522810
#
# Stress axis : x y z
#
# Youngs Moduli (GPa) = 50.74033 95.18004 117.63164
#
# Poissons Ratio (x) = -0.01932 0.45802
# Poissons Ratio (y) = -0.01030 0.35914
# Poissons Ratio (z) = 0.19757 0.29060
#
# Static dielectric constant tensor:
#      x y z
#    x 1.901890 0.012360 -0.028160 
#    y 0.012360 1.831920 0.019290 
#    z -0.028160 0.019290 1.843090 
# 
# From -- ./inp_files/230239.got.cif
#   From: 2010.05.17/outbox.cif.g08.bks.cpg/sg2_116_cif.got.tgz:230239.got - 2010.06.03 11:33:40.
