data_PCOD9034692
_publ_section_title
;
Structure prediction by ZEFSAII (Michael W. Deem and Ramdas Pophale) SiO2 
 PCOD9034692
Probable space group: P -1
;
_chemical_formula_sum "Si O2"
_cell_formula_units_Z 16
_cell_length_a 9.182139
_cell_length_b 11.864116
_cell_length_c 12.456880
_cell_angle_alpha 61.993871
_cell_angle_beta 67.356375
_cell_angle_gamma 119.698350
_cell_volume 616.960516
_symmetry_space_group_name_H-M "P -1"
_symmetry_group_IT_number 2
_symmetry_cell_setting 'triclinic'
loop_
_space_group_symop_operation_xyz
x,y,z
-x,-y,-z
loop_
_atom_site_type_symbol
_atom_site_label
_atom_site_fract_x
_atom_site_fract_y
_atom_site_fract_z
Si Si1 0.667040 0.002772 0.559956
Si Si2 0.291799 0.755650 0.413941
Si Si3 0.852372 0.984951 0.855542
Si Si4 0.431146 0.829629 0.921381
Si Si5 0.186553 0.307037 0.122011
Si Si6 0.831254 0.500132 0.153231
Si Si7 0.288197 0.348809 0.729873
Si Si8 0.772095 0.532762 0.563468
O O1 0.614835 0.115451 0.559486
O O2 0.586056 0.234302 0.323291
O O3 0.960404 0.179728 0.338000
O O4 0.632693 0.917232 0.726629
O O5 0.027971 0.411920 0.438873
O O6 0.000985 0.902731 0.120798
O O7 0.484552 0.964533 0.181283
O O8 0.896470 0.878646 0.834171
O O9 0.532591 0.817688 0.998878
O O10 0.032185 0.218157 0.639695
O O11 0.154355 0.400299 0.002169
O O12 0.118067 0.622396 0.054970
O O13 0.500000 0.500000 0.000000
O O14 0.762418 0.551372 0.244808
O O15 0.500000 0.500000 0.500000
O O16 0.471957 0.390054 0.744584
O O17 0.298529 0.613747 0.447049
#
# Coordination Sequence:
#
# PCOD9034692 Si02
#       8
#     2   2   2   2   2   2   2   2
#     4  10  23  47  75 103 150 195 236 310 371 432
#     4   8  19  37  72 102 141 192 243 286 367 433
#     4  10  22  45  67 103 149 185 241 307 368 431
#     4   9  22  44  73 106 144 197 244 302 368 438
#     4  12  29  45  74 116 143 189 253 303 372 451
#     4  12  26  47  75 108 148 195 250 306 366 443
#     4  10  23  41  74 103 140 193 244 297 371 437
#     4   9  17  39  68 104 138 188 239 289 364 436
#
# _framework density 25.933586999999999
#
# number of rings (size 3 to 8) (size 9 to 14) (size 15 to 20)
#    0.750    1.250    0.000    2.625    3.500    3.500 
#    0.000    6.250    0.000    0.000    0.000    0.000 
#    0.000    0.000    0.000    0.000    0.000    0.000 
#
# Total GULP energy -89401.566024 kJ/mol
# GULP energy per Si atom -5587.597876 kJ/mol
# Density = 2.587456 g / cm^3
# Si number density = 25.933587 Si / 1000 Ang^3
#
#
#
# Elastic Constant Matrix: (Units=GPa)
#
#
# Indices 1 2 3 4 5 6 
#
# 1 135.8383 34.3504 23.8696 -8.9372 -10.3672 14.5470
# 2 34.3504 206.0923 36.8751 -19.6864 -4.8211 -24.7864
# 3 23.8696 36.8751 105.0843 -4.5435 -18.1114 8.7298
# 4 -8.9372 -19.6864 -4.5435 45.6523 4.7281 -5.6888
# 5 -10.3672 -4.8211 -18.1114 4.7281 36.6243 -6.8368
# 6 14.5470 -24.7864 8.7298 -5.6888 -6.8368 40.2071
#
#
#
# Elastic Compliance Matrix: (Units=1/GPa)
#
#
# Indices 1 2 3 4 5 6 
#
# 1 0.008413 -0.001639 -0.000842 0.000294 0.001029 -0.003655
# 2 -0.001639 0.006460 -0.002235 0.002931 -0.000078 0.005463
# 3 -0.000842 -0.002235 0.011511 -0.000833 0.004728 -0.002886
# 4 0.000294 0.002931 -0.000833 0.023975 -0.002121 0.004913
# 5 0.001029 -0.000078 0.004728 -0.002121 0.030851 0.003499
# 6 -0.003655 0.005463 -0.002886 0.004913 0.003499 0.031478
#
#
# Mechanical properties :
#
#
# Convention : Reuss Voigt Hill
#
# Bulk Modulus (GPa) = 58.99130 70.80056 64.89593
# Shear Modulus (GPa) = 39.13236 47.95804 43.54520
#
# Velocity S-wave (km/s) = 3.88873 4.30497 4.10213
# Velocity P-wave (km/s) = 6.55434 7.21598 6.89310
#
# Compressibility (1/GPa) = 0.01695165
#
# Stress axis : x y z
#
# Youngs Moduli (GPa) = 118.85701 154.78769 86.87710
#
# Poissons Ratio (x) = 0.25369 0.07317
# Poissons Ratio (y) = 0.19480 0.19419
# Poissons Ratio (z) = 0.10011 0.34598
#
# Static dielectric constant tensor:
#      x y z
#    x 2.146410 0.058410 0.075590 
#    y 0.058410 1.996480 -0.008350 
#    z 0.075590 -0.008350 2.111980 
# 
# From -- ./inp_files/567384.got.cif
#   From: 2010.05.17/outbox.cif.g08.bks.cpg/sg2_284_cif.got.tgz:567384.got - 2010.06.03 11:33:40.
