data_PCOD9034501
_publ_section_title
;
Structure prediction by ZEFSAII (Michael W. Deem and Ramdas Pophale) SiO2 
 PCOD9034501
Probable space group: P -1
;
_chemical_formula_sum "Si O2"
_cell_formula_units_Z 11
_cell_length_a 13.664975
_cell_length_b 11.420110
_cell_length_c 7.229367
_cell_angle_alpha 63.972523
_cell_angle_beta 47.944633
_cell_angle_gamma 31.154155
_cell_volume 405.955271
_symmetry_space_group_name_H-M "P -1"
_symmetry_group_IT_number 2
_symmetry_cell_setting 'triclinic'
loop_
_space_group_symop_operation_xyz
x,y,z
-x,-y,-z
loop_
_atom_site_type_symbol
_atom_site_label
_atom_site_fract_x
_atom_site_fract_y
_atom_site_fract_z
Si Si1 0.803556 0.443655 0.087335
Si Si2 0.980614 0.018637 0.285314
Si Si3 0.723519 0.810678 0.489520
Si Si4 0.328418 0.961849 0.279899
Si Si5 0.160000 0.552635 0.559635
Si Si6 0.500000 0.500000 0.000000
O O1 0.839025 0.263229 0.220013
O O2 0.564829 0.684460 0.106178
O O3 0.750846 0.556017 0.273579
O O4 0.050569 0.291305 0.795821
O O5 0.822786 0.023914 0.428170
O O6 0.000000 0.000000 0.500000
O O7 0.258165 0.780776 0.033243
O O8 0.820269 0.583000 0.511494
O O9 0.500000 0.000000 0.500000
O O10 0.637776 0.940028 0.703437
O O11 0.126711 0.172683 0.239690
O O12 0.313475 0.544049 0.290676
#
# Coordination Sequence:
#
# PCOD9034501 Si02
#       6
#     2   2   2   2   2   1
#     4  12  25  47  74 103 144 184 235 296 348 414
#     4  11  23  45  73 105 140 186 235 289 347 416
#     4  12  26  47  72 104 146 186 234 292 350 422
#     4  11  26  45  71 107 138 193 235 281 357 416
#     4  11  24  49  72 103 143 190 232 289 355 411
#     4  10  22  44  76  98 136 186 230 282 352 406
#
# _framework density 27.096582000000001
#
# number of rings (size 3 to 8) (size 9 to 14) (size 15 to 20)
#    0.000    0.727    5.455    2.727    0.000    4.364 
#    6.545    0.000    0.000    0.000    0.000    0.000 
#    0.000    0.000    0.000    0.000    0.000    0.000 
#
# Total GULP energy -61425.316157 kJ/mol
# GULP energy per Si atom -5584.119651 kJ/mol
# Density = 2.703491 g / cm^3
# Si number density = 27.096582 Si / 1000 Ang^3
#
#
#
# Elastic Constant Matrix: (Units=GPa)
#
#
# Indices 1 2 3 4 5 6 
#
# 1 78.0978 8.2957 37.7693 -3.4492 9.2983 10.1795
# 2 8.2957 151.0675 36.7865 34.8360 -1.3973 6.1096
# 3 37.7693 36.7865 123.3657 13.5370 -10.2004 -5.9762
# 4 -3.4492 34.8360 13.5370 52.9326 -14.6965 -12.2603
# 5 9.2983 -1.3973 -10.2004 -14.6965 33.0317 3.9248
# 6 10.1795 6.1096 -5.9762 -12.2603 3.9248 44.7762
#
#
#
# Elastic Compliance Matrix: (Units=1/GPa)
#
#
# Indices 1 2 3 4 5 6 
#
# 1 0.016983 0.000833 -0.006118 -0.000680 -0.006413 -0.004415
# 2 0.000833 0.008879 -0.002589 -0.006811 -0.003294 -0.003323
# 3 -0.006118 -0.002589 0.011250 0.000485 0.004952 0.002944
# 4 -0.000680 -0.006811 0.000485 0.028276 0.011699 0.007866
# 5 -0.006413 -0.003294 0.004952 0.011699 0.038388 0.002407
# 6 -0.004415 -0.003323 0.002944 0.007866 0.002407 0.026126
#
#
# Mechanical properties :
#
#
# Convention : Reuss Voigt Hill
#
# Bulk Modulus (GPa) = 46.80318 57.58155 52.19237
# Shear Modulus (GPa) = 32.72884 44.12673 38.42778
#
# Velocity S-wave (km/s) = 3.47920 4.03984 3.76996
# Velocity P-wave (km/s) = 5.78359 6.56179 6.18494
#
# Compressibility (1/GPa) = 0.02136607
#
# Stress axis : x y z
#
# Youngs Moduli (GPa) = 58.88077 112.62929 88.89130
#
# Poissons Ratio (x) = -0.09384 0.54380
# Poissons Ratio (y) = -0.04906 0.23010
# Poissons Ratio (z) = 0.36021 0.29155
#
# Static dielectric constant tensor:
#      x y z
#    x 2.137070 0.036560 0.021560 
#    y 0.036560 2.164620 0.016670 
#    z 0.021560 0.016670 2.023780 
# 
# From -- ./inp_files/304706.got.cif
#   From: 2010.05.17/outbox.cif.g08.bks.cpg/sg2_153_cif.got.tgz:304706.got - 2010.06.03 11:33:40.
