data_PCOD9034677
_publ_section_title
;
Structure prediction by ZEFSAII (Michael W. Deem and Ramdas Pophale) SiO2 
 PCOD9034677
Probable space group: P -1
;
_chemical_formula_sum "Si O2"
_cell_formula_units_Z 16
_cell_length_a 8.944358
_cell_length_b 12.404447
_cell_length_c 9.280531
_cell_angle_alpha 121.347284
_cell_angle_beta 117.109193
_cell_angle_gamma 57.063474
_cell_volume 716.255040
_symmetry_space_group_name_H-M "P -1"
_symmetry_group_IT_number 2
_symmetry_cell_setting 'triclinic'
loop_
_space_group_symop_operation_xyz
x,y,z
-x,-y,-z
loop_
_atom_site_type_symbol
_atom_site_label
_atom_site_fract_x
_atom_site_fract_y
_atom_site_fract_z
Si Si1 0.010870 0.467126 0.812134
Si Si2 0.664727 0.726845 0.783274
Si Si3 0.084901 0.783872 0.459509
Si Si4 0.426971 0.767550 0.427695
Si Si5 0.328968 0.747557 0.812322
Si Si6 0.164963 0.980006 0.282947
Si Si7 0.849009 0.928923 0.972537
Si Si8 0.342573 0.504982 0.828695
O O1 0.832606 0.580277 0.733368
O O2 0.011893 0.317114 0.688632
O O3 0.184848 0.478931 0.823681
O O4 0.000000 0.500000 0.000000
O O5 0.530078 0.787620 0.628989
O O6 0.542469 0.702064 0.838370
O O7 0.753259 0.835693 0.931357
O O8 0.222358 0.782965 0.392265
O O9 0.230151 0.726795 0.612414
O O10 0.938611 0.926448 0.560608
O O11 0.370131 0.880138 0.352196
O O12 0.557853 0.616454 0.326224
O O13 0.278723 0.656244 0.839570
O O14 0.258785 0.908581 0.929272
O O15 0.151699 0.078823 0.207863
O O16 0.045151 0.899171 0.111026
O O17 0.500000 0.500000 0.000000
#
# Coordination Sequence:
#
# PCOD9034677 Si02
#       8
#     2   2   2   2   2   2   2   2
#     4  12  28  45  69 101 132 176 229 284 337 406
#     4  11  25  43  69 102 136 178 226 279 338 401
#     4  10  23  44  69  97 135 178 226 273 339 399
#     4  11  24  44  69 102 140 179 222 281 339 398
#     4  10  22  45  67 100 138 178 221 277 336 397
#     4  10  23  42  69 100 138 182 225 278 333 398
#     4  10  23  40  71 100 137 182 229 274 330 399
#     4  12  26  43  70  96 135 178 226 281 342 398
#
# _framework density 22.338411000000001
#
# number of rings (size 3 to 8) (size 9 to 14) (size 15 to 20)
#    0.000    1.250    0.000    4.500   10.500    3.500 
#    4.500    0.000    0.000    0.000    0.000    0.000 
#    0.000    0.000    0.000    0.000    0.000    0.000 
#
# Total GULP energy -89409.932110 kJ/mol
# GULP energy per Si atom -5588.120757 kJ/mol
# Density = 2.228757 g / cm^3
# Si number density = 22.338411 Si / 1000 Ang^3
#
#
#
# Elastic Constant Matrix: (Units=GPa)
#
#
# Indices 1 2 3 4 5 6 
#
# 1 126.7439 25.5711 36.6752 21.6428 5.1617 10.1779
# 2 25.5711 85.7699 34.6379 -1.8881 4.8868 -0.8423
# 3 36.6752 34.6379 68.6894 17.6828 -5.8858 6.7632
# 4 21.6428 -1.8881 17.6828 39.4397 -3.0614 4.1196
# 5 5.1617 4.8868 -5.8858 -3.0614 30.4893 4.1734
# 6 10.1779 -0.8423 6.7632 4.1196 4.1734 36.3903
#
#
#
# Elastic Compliance Matrix: (Units=1/GPa)
#
#
# Indices 1 2 3 4 5 6 
#
# 1 0.010165 -0.001506 -0.003693 -0.004028 -0.002397 -0.001461
# 2 -0.001506 0.016223 -0.009292 0.005214 -0.003942 0.002385
# 3 -0.003693 -0.009292 0.024282 -0.008443 0.006430 -0.003477
# 4 -0.004028 0.005214 -0.008443 0.031821 0.001543 -0.000963
# 5 -0.002397 -0.003942 0.006430 0.001543 0.035904 -0.004908
# 6 -0.001461 0.002385 -0.003477 -0.000963 -0.004908 0.029262
#
#
# Mechanical properties :
#
#
# Convention : Reuss Voigt Hill
#
# Bulk Modulus (GPa) = 46.10379 52.77458 49.43918
# Shear Modulus (GPa) = 27.19345 33.55178 30.37262
#
# Velocity S-wave (km/s) = 3.49283 3.87974 3.69136
# Velocity P-wave (km/s) = 6.07865 6.61409 6.35202
#
# Compressibility (1/GPa) = 0.02169019
#
# Stress axis : x y z
#
# Youngs Moduli (GPa) = 98.37686 61.63993 41.18228
#
# Poissons Ratio (x) = 0.09281 0.15207
# Poissons Ratio (y) = 0.14813 0.38266
# Poissons Ratio (z) = 0.36328 0.57274
#
# Static dielectric constant tensor:
#      x y z
#    x 2.811380 2.148310 -0.461300 
#    y 2.148310 6.492150 -0.994630 
#    z -0.461300 -0.994630 1.647710 
# 
# From -- ./inp_files/169925.got.cif
#   From: 2010.05.17/outbox.cif.g08.bks.cpg/sg2_85_cif.got.tgz:169925.got - 2010.06.03 11:33:40.
