data_PCOD9034925
_publ_section_title
;
Structure prediction by ZEFSAII (Michael W. Deem and Ramdas Pophale) SiO2 
 PCOD9034925
Probable space group: P -1
;
_chemical_formula_sum "Si O2"
_cell_formula_units_Z 16
_cell_length_a 5.146319
_cell_length_b 12.632148
_cell_length_c 11.053816
_cell_angle_alpha 61.335288
_cell_angle_beta 94.793162
_cell_angle_gamma 98.686042
_cell_volume 623.245183
_symmetry_space_group_name_H-M "P -1"
_symmetry_group_IT_number 2
_symmetry_cell_setting 'triclinic'
loop_
_space_group_symop_operation_xyz
x,y,z
-x,-y,-z
loop_
_atom_site_type_symbol
_atom_site_label
_atom_site_fract_x
_atom_site_fract_y
_atom_site_fract_z
Si Si1 0.705212 0.367643 0.905941
Si Si2 0.232139 0.136110 0.541040
Si Si3 0.215435 0.337677 0.074149
Si Si4 0.842646 0.785793 0.263468
Si Si5 0.655252 0.125433 0.895826
Si Si6 0.036351 0.472144 0.658129
Si Si7 0.101822 0.865292 0.714705
Si Si8 0.413320 0.681207 0.693241
O O1 0.446075 0.375540 0.968041
O O2 0.688154 0.224787 0.948586
O O3 0.768695 0.440469 0.742904
O O4 0.965114 0.395190 0.983271
O O5 0.088740 0.208456 0.596156
O O6 0.486925 0.221977 0.459538
O O7 0.064342 0.123226 0.419498
O O8 0.251912 0.000040 0.666088
O O9 0.343723 0.364911 0.197262
O O10 0.104816 0.193321 0.161081
O O11 0.549416 0.819950 0.230935
O O12 0.848472 0.656672 0.271977
O O13 0.062639 0.876584 0.153301
O O14 0.500000 0.000000 0.000000
O O15 0.220025 0.575444 0.680936
O O16 0.000000 0.500000 0.500000
O O17 0.281104 0.761005 0.744888
#
# Coordination Sequence:
#
# PCOD9034925 Si02
#       8
#     2   2   2   2   2   2   2   2
#     4  11  25  48  71 110 146 191 250 310 366 450
#     4  10  24  40  74 106 152 186 253 311 373 452
#     4  11  24  47  74 106 145 188 246 305 384 431
#     4  11  26  48  72 114 143 201 249 309 378 446
#     4  11  26  46  74 108 151 194 252 305 384 455
#     4  11  27  51  77 108 157 202 257 314 370 455
#     4  10  22  45  69 115 144 192 245 316 376 443
#     4  11  24  47  76 107 148 203 251 306 381 442
#
# _framework density 25.672077000000002
#
# number of rings (size 3 to 8) (size 9 to 14) (size 15 to 20)
#    0.000    1.250    1.250    3.000    8.750    1.500 
#   15.750    0.000    0.000    0.000    0.000    0.000 
#    0.000    0.000    0.000    0.000    0.000    0.000 
#
# Total GULP energy -89555.598156 kJ/mol
# GULP energy per Si atom -5597.224885 kJ/mol
# Density = 2.561365 g / cm^3
# Si number density = 25.672077 Si / 1000 Ang^3
#
#
#
# Elastic Constant Matrix: (Units=GPa)
#
#
# Indices 1 2 3 4 5 6 
#
# 1 120.8788 47.2050 61.0928 -0.4878 -23.7696 18.1733
# 2 47.2050 147.5101 58.1207 -10.1897 -37.3096 31.9240
# 3 61.0928 58.1207 136.6279 -4.7286 -26.0687 18.7696
# 4 -0.4878 -10.1897 -4.7286 23.6441 2.1353 -5.2585
# 5 -23.7696 -37.3096 -26.0687 2.1353 48.8443 -0.0212
# 6 18.1733 31.9240 18.7696 -5.2585 -0.0212 37.1081
#
#
#
# Elastic Compliance Matrix: (Units=1/GPa)
#
#
# Indices 1 2 3 4 5 6 
#
# 1 0.011649 -0.000856 -0.003884 -0.001906 0.003024 -0.003272
# 2 -0.000856 0.011608 -0.001950 0.002093 0.007314 -0.008280
# 3 -0.003884 -0.001950 0.010562 0.000618 0.002230 -0.001674
# 4 -0.001906 0.002093 0.000618 0.044505 -0.000942 0.005127
# 5 0.003024 0.007314 0.002230 -0.000942 0.028759 -0.009019
# 6 -0.003272 -0.008280 -0.001674 0.005127 -0.009019 0.037242
#
#
# Mechanical properties :
#
#
# Convention : Reuss Voigt Hill
#
# Bulk Modulus (GPa) = 48.92517 81.98376 65.45447
# Shear Modulus (GPa) = 30.39168 37.82587 34.10878
#
# Velocity S-wave (km/s) = 3.44443 3.84269 3.64900
# Velocity P-wave (km/s) = 5.90914 7.18976 6.58068
#
# Compressibility (1/GPa) = 0.02043938
#
# Stress axis : x y z
#
# Youngs Moduli (GPa) = 85.84421 86.14825 94.67786
#
# Poissons Ratio (x) = 0.07375 0.36774
# Poissons Ratio (y) = 0.07349 0.18458
# Poissons Ratio (z) = 0.33343 0.16795
#
# Static dielectric constant tensor:
#      x y z
#    x 2.047620 -0.032720 0.052620 
#    y -0.032720 2.081760 -0.010350 
#    z 0.052620 -0.010350 2.089380 
# 
# From -- ./inp_files/69782.got.cif
#   From: 2010.05.17/outbox.cif.g08.bks.cpg/sg2_35_cif.got.tgz:69782.got - 2010.06.03 11:33:40.
