data_PCOD9034694
_publ_section_title
;
Structure prediction by ZEFSAII (Michael W. Deem and Ramdas Pophale) SiO2 
 PCOD9034694
Probable space group: P -1
;
_chemical_formula_sum "Si O2"
_cell_formula_units_Z 13
_cell_length_a 8.016174
_cell_length_b 9.631279
_cell_length_c 17.268327
_cell_angle_alpha 142.356438
_cell_angle_beta 144.516375
_cell_angle_gamma 47.871595
_cell_volume 471.378256
_symmetry_space_group_name_H-M "P -1"
_symmetry_group_IT_number 2
_symmetry_cell_setting 'triclinic'
loop_
_space_group_symop_operation_xyz
x,y,z
-x,-y,-z
loop_
_atom_site_type_symbol
_atom_site_label
_atom_site_fract_x
_atom_site_fract_y
_atom_site_fract_z
Si Si1 0.379161 0.359735 0.527056
Si Si2 0.000000 0.000000 0.500000
Si Si3 0.427661 0.345762 0.832383
Si Si4 0.367221 0.035011 0.065475
Si Si5 0.044504 0.865506 0.629612
Si Si6 0.315022 0.472624 0.141666
Si Si7 0.219178 0.133504 0.223332
O O1 0.200175 0.607313 0.566758
O O2 0.623875 0.385162 0.694901
O O3 0.415607 0.280339 0.416989
O O4 0.184213 0.167308 0.404372
O O5 0.118795 0.247140 0.679590
O O6 0.079354 0.058763 0.465851
O O7 0.480057 0.455142 0.817453
O O8 0.649678 0.122126 0.824414
O O9 0.500000 0.500000 0.000000
O O10 0.700274 0.971894 0.182849
O O11 0.370929 0.213856 0.076826
O O12 0.260190 0.170178 0.163959
O O13 0.119718 0.861470 0.884926
O O14 0.000000 0.500000 0.000000
#
# Coordination Sequence:
#
# PCOD9034694 Si02
#       7
#     2   1   2   2   2   2   2
#     4  10  24  44  74 102 148 186 244 299 364 441
#     4  12  24  48  74 106 146 192 256 294 368 440
#     4  12  28  49  72 108 148 193 246 306 370 437
#     4  10  23  44  69 103 144 184 243 294 366 435
#     4  10  22  45  67 105 138 195 234 302 361 427
#     4  11  23  47  69 108 144 189 239 305 372 428
#     4  11  24  47  70 109 139 195 243 300 369 438
#
# _framework density 27.578703000000001
#
# number of rings (size 3 to 8) (size 9 to 14) (size 15 to 20)
#    0.000    1.231    4.615    0.000    0.000    8.615 
#    0.000    0.000    0.000    0.000    0.000    0.000 
#    0.000    0.000    0.000    0.000    0.000    0.000 
#
# Total GULP energy -72668.800489 kJ/mol
# GULP energy per Si atom -5589.907730 kJ/mol
# Density = 2.751593 g / cm^3
# Si number density = 27.578703 Si / 1000 Ang^3
#
#
#
# Elastic Constant Matrix: (Units=GPa)
#
#
# Indices 1 2 3 4 5 6 
#
# 1 82.8292 55.1132 55.6137 13.9073 -1.3536 31.4082
# 2 55.1132 105.3826 18.3674 -2.3392 -14.5375 31.4028
# 3 55.6137 18.3674 227.7635 -8.6581 -21.3000 6.6137
# 4 13.9073 -2.3392 -8.6581 40.3666 9.6595 1.1894
# 5 -1.3536 -14.5375 -21.3000 9.6595 66.0308 6.5215
# 6 31.4082 31.4028 6.6137 1.1894 6.5215 63.3614
#
#
#
# Elastic Compliance Matrix: (Units=1/GPa)
#
#
# Indices 1 2 3 4 5 6 
#
# 1 0.029705 -0.012721 -0.006638 -0.011726 -0.001896 -0.007312
# 2 -0.012721 0.017267 0.002353 0.005053 0.003856 -0.002989
# 3 -0.006638 0.002353 0.006072 0.003273 0.001739 0.001250
# 4 -0.011726 0.005053 0.003273 0.030395 -0.002783 0.002682
# 5 -0.001896 0.003856 0.001739 -0.002783 0.017206 -0.002872
# 6 -0.007312 -0.002989 0.001250 0.002682 -0.002872 0.021003
#
#
# Mechanical properties :
#
#
# Convention : Reuss Voigt Hill
#
# Bulk Modulus (GPa) = 52.54254 74.90711 63.72482
# Shear Modulus (GPa) = 30.86361 53.07716 41.97038
#
# Velocity S-wave (km/s) = 3.34894 4.39175 3.90531
# Velocity P-wave (km/s) = 5.83499 7.27577 6.59484
#
# Compressibility (1/GPa) = 0.01903220
#
# Stress axis : x y z
#
# Youngs Moduli (GPa) = 33.66472 57.91472 164.68335
#
# Poissons Ratio (x) = 0.73673 1.09315
# Poissons Ratio (y) = 0.42825 -0.38753
# Poissons Ratio (z) = 0.22346 -0.13628
#
# Static dielectric constant tensor:
#      x y z
#    x 2.219900 -0.109620 0.013250 
#    y -0.109620 2.117780 0.012330 
#    z 0.013250 0.012330 2.173860 
# 
# From -- ./inp_files/494012.got.cif
#   From: 2010.05.17/outbox.cif.g08.bks.cpg/sg2_248_cif.got.tgz:494012.got - 2010.06.03 11:33:40.
