data_PCOD9034030
_publ_section_title
;
Structure prediction by ZEFSAII (Michael W. Deem and Ramdas Pophale) SiO2 
 PCOD9034030
Probable space group: P -1
;
_chemical_formula_sum "Si O2"
_cell_formula_units_Z 15
_cell_length_a 21.748225
_cell_length_b 6.781137
_cell_length_c 10.054316
_cell_angle_alpha 127.716276
_cell_angle_beta 142.298680
_cell_angle_gamma 66.321349
_cell_volume 706.830588
_symmetry_space_group_name_H-M "P -1"
_symmetry_group_IT_number 2
_symmetry_cell_setting 'triclinic'
loop_
_space_group_symop_operation_xyz
x,y,z
-x,-y,-z
loop_
_atom_site_type_symbol
_atom_site_label
_atom_site_fract_x
_atom_site_fract_y
_atom_site_fract_z
Si Si1 0.500000 0.500000 0.000000
Si Si2 0.570526 0.060637 0.465736
Si Si3 0.848490 0.551454 0.303725
Si Si4 0.728974 0.419427 0.294411
Si Si5 0.033010 0.913532 0.665210
Si Si6 0.744886 0.428906 0.790940
Si Si7 0.643527 0.912294 0.809442
Si Si8 0.887652 0.556618 0.858180
O O1 0.622999 0.485309 0.190440
O O2 0.528632 0.775717 0.234944
O O3 0.651393 0.201056 0.557801
O O4 0.468416 0.182093 0.358546
O O5 0.623405 0.054445 0.697424
O O6 0.765755 0.564696 0.280827
O O7 0.905360 0.317290 0.341917
O O8 0.933192 0.799759 0.532724
O O9 0.798246 0.487874 0.048450
O O10 0.817086 0.496650 0.584449
O O11 0.709155 0.119221 0.102263
O O12 0.000000 0.000000 0.500000
O O13 0.097335 0.151459 0.948391
O O14 0.697280 0.676031 0.773923
O O15 0.828524 0.394858 0.810778
O O16 0.000000 0.500000 0.000000
#
# Coordination Sequence:
#
# PCOD9034030 Si02
#       8
#     1   2   2   2   2   2   2   2
#     4  10  24  44  68 102 146 176 214 294 348 402
#     4  10  22  44  71 102 138 183 229 278 350 413
#     4  11  25  42  76 101 125 190 240 277 336 418
#     4  11  24  46  68 102 142 182 230 281 353 406
#     4  11  24  47  70  98 141 179 235 289 339 408
#     4  12  24  43  72 104 130 184 239 279 337 416
#     4  10  22  44  71 100 138 180 230 289 336 408
#     4  12  28  44  68 102 146 182 223 293 354 400
#
# _framework density 21.221492999999999
#
# number of rings (size 3 to 8) (size 9 to 14) (size 15 to 20)
#    0.000    1.067    2.667    2.800    5.600    1.600 
#    2.400    3.333    0.000    0.000    0.000    0.000 
#    0.000    0.000    0.000    0.000    0.000    0.000 
#
# Total GULP energy -83660.724406 kJ/mol
# GULP energy per Si atom -5577.381627 kJ/mol
# Density = 2.117319 g / cm^3
# Si number density = 21.221493 Si / 1000 Ang^3
#
#
#
# Elastic Constant Matrix: (Units=GPa)
#
#
# Indices 1 2 3 4 5 6 
#
# 1 133.1382 29.1238 48.2269 -15.7174 23.7502 3.2442
# 2 29.1238 47.4242 36.7842 0.8640 5.8954 3.3355
# 3 48.2269 36.7842 131.0904 0.0593 5.3130 2.8227
# 4 -15.7174 0.8640 0.0593 24.2235 -4.1595 1.7407
# 5 23.7502 5.8954 5.3130 -4.1595 33.9412 -1.4322
# 6 3.2442 3.3355 2.8227 1.7407 -1.4322 29.2977
#
#
#
# Elastic Compliance Matrix: (Units=1/GPa)
#
#
# Indices 1 2 3 4 5 6 
#
# 1 0.011262 -0.004088 -0.002730 0.006517 -0.005995 -0.001199
# 2 -0.004088 0.029105 -0.006547 -0.003821 -0.001727 -0.002088
# 3 -0.002730 -0.006547 0.010415 -0.001361 0.001258 0.000187
# 4 0.006517 -0.003821 -0.001361 0.046171 0.001856 -0.002808
# 5 -0.005995 -0.001727 0.001258 0.001856 0.034085 0.002295
# 6 -0.001199 -0.002088 0.000187 -0.002808 0.002295 0.034764
#
#
# Mechanical properties :
#
#
# Convention : Reuss Voigt Hill
#
# Bulk Modulus (GPa) = 41.57337 59.99140 50.78239
# Shear Modulus (GPa) = 24.93147 30.66034 27.79591
#
# Velocity S-wave (km/s) = 3.43129 3.80515 3.62304
# Velocity P-wave (km/s) = 5.94399 6.90189 6.44077
#
# Compressibility (1/GPa) = 0.02405386
#
# Stress axis : x y z
#
# Youngs Moduli (GPa) = 88.79273 34.35790 96.01161
#
# Poissons Ratio (x) = 0.14044 0.26215
# Poissons Ratio (y) = 0.36294 0.62855
# Poissons Ratio (z) = 0.24244 0.22493
#
# Static dielectric constant tensor:
#      x y z
#    x 1.787310 0.017060 0.031540 
#    y 0.017060 1.755200 0.007670 
#    z 0.031540 0.007670 1.762400 
# 
# From -- ./inp_files/340730.got.cif
#   From: 2010.05.17/outbox.cif.g08.bks.cpg/sg2_171_cif.got.tgz:340730.got - 2010.06.03 11:33:40.
