data_PCOD9034314
_publ_section_title
;
Structure prediction by ZEFSAII (Michael W. Deem and Ramdas Pophale) SiO2 
 PCOD9034314
Probable space group: P -1
;
_chemical_formula_sum "Si O2"
_cell_formula_units_Z 12
_cell_length_a 8.399450
_cell_length_b 10.822789
_cell_length_c 9.139198
_cell_angle_alpha 123.011890
_cell_angle_beta 80.011434
_cell_angle_gamma 135.206333
_cell_volume 457.782229
_symmetry_space_group_name_H-M "P -1"
_symmetry_group_IT_number 2
_symmetry_cell_setting 'triclinic'
loop_
_space_group_symop_operation_xyz
x,y,z
-x,-y,-z
loop_
_atom_site_type_symbol
_atom_site_label
_atom_site_fract_x
_atom_site_fract_y
_atom_site_fract_z
Si Si1 0.046566 0.872349 0.485453
Si Si2 0.822603 0.650427 0.858343
Si Si3 0.476548 0.809482 0.547754
Si Si4 0.640798 0.018072 0.121569
Si Si5 0.203701 0.513517 0.939865
Si Si6 0.708411 0.746947 0.687218
O O1 0.878425 0.632420 0.284972
O O2 0.958614 0.851061 0.648380
O O3 0.000000 0.000000 0.500000
O O4 0.318977 0.014323 0.491288
O O5 0.698440 0.428420 0.651762
O O6 0.714659 0.720933 0.841757
O O7 0.785367 0.596561 0.000359
O O8 0.104221 0.846582 0.903718
O O9 0.632385 0.844586 0.680817
O O10 0.330443 0.843347 0.663439
O O11 0.453476 0.769708 0.049970
O O12 0.500000 0.000000 0.000000
O O13 0.000000 0.500000 0.000000
O O14 0.500000 0.500000 0.500000
#
# Coordination Sequence:
#
# PCOD9034314 Si02
#       6
#     2   2   2   2   2   2
#     4  10  22  46  73  97 140 194 231 289 358 419
#     4  11  25  44  71 110 138 187 240 293 351 425
#     4  10  22  44  73 100 143 186 238 291 356 418
#     4  12  25  43  71 104 147 189 232 296 353 419
#     4  12  25  45  71 104 147 185 236 297 358 415
#     4   9  22  43  71  97 138 185 234 287 346 422
#
# _framework density 26.213336999999999
#
# number of rings (size 3 to 8) (size 9 to 14) (size 15 to 20)
#    0.000    1.333    3.333    0.500    7.000    2.000 
#    0.000   15.000    0.000    0.000    0.000    0.000 
#    0.000    0.000    0.000    0.000    0.000    0.000 
#
# Total GULP energy -67236.393195 kJ/mol
# GULP energy per Si atom -5603.032766 kJ/mol
# Density = 2.615367 g / cm^3
# Si number density = 26.213337 Si / 1000 Ang^3
#
#
#
# Elastic Constant Matrix: (Units=GPa)
#
#
# Indices 1 2 3 4 5 6 
#
# 1 62.5716 13.9259 7.0945 -17.9152 6.4401 4.1608
# 2 13.9259 149.3123 22.5636 2.8153 13.3832 1.5140
# 3 7.0945 22.5636 94.5915 17.2758 -6.6667 -15.5687
# 4 -17.9152 2.8153 17.2758 53.8683 -10.1780 21.9450
# 5 6.4401 13.3832 -6.6667 -10.1780 55.9141 -9.8201
# 6 4.1608 1.5140 -15.5687 21.9450 -9.8201 37.4958
#
#
#
# Elastic Compliance Matrix: (Units=1/GPa)
#
#
# Indices 1 2 3 4 5 6 
#
# 1 0.022786 -0.000914 -0.007080 0.015564 -0.003114 -0.015356
# 2 -0.000914 0.007325 -0.002220 0.000395 -0.002178 -0.001918
# 3 -0.007080 -0.002220 0.017351 -0.014148 0.003893 0.017379
# 4 0.015564 0.000395 -0.014148 0.040989 -0.001744 -0.032064
# 5 -0.003114 -0.002178 0.003893 -0.001744 0.020388 0.008410
# 6 -0.015356 -0.001918 0.017379 -0.032064 0.008410 0.056636
#
#
# Mechanical properties :
#
#
# Convention : Reuss Voigt Hill
#
# Bulk Modulus (GPa) = 36.99108 43.73816 40.36462
# Shear Modulus (GPa) = 25.65224 46.98173 36.31698
#
# Velocity S-wave (km/s) = 3.13164 4.23813 3.72619
# Velocity P-wave (km/s) = 5.21713 6.37736 5.82620
#
# Compressibility (1/GPa) = 0.02703355
#
# Stress axis : x y z
#
# Youngs Moduli (GPa) = 43.88735 136.51355 57.63318
#
# Poissons Ratio (x) = 0.12475 0.40806
# Poissons Ratio (y) = 0.04011 0.12795
# Poissons Ratio (z) = 0.31074 0.30307
#
# Static dielectric constant tensor:
#      x y z
#    x 2.095740 -0.019290 -0.010670 
#    y -0.019290 2.022470 -0.043970 
#    z -0.010670 -0.043970 2.096510 
# 
# From -- ./inp_files/185181.got.cif
#   From: 2010.05.17/outbox.cif.g08.bks.cpg/sg2_93_cif.got.tgz:185181.got - 2010.06.03 11:33:40.
