data_PCOD9034376
_publ_section_title
;
Structure prediction by ZEFSAII (Michael W. Deem and Ramdas Pophale) SiO2 
 PCOD9034376
Probable space group: P -1
;
_chemical_formula_sum "Si O2"
_cell_formula_units_Z 13
_cell_length_a 11.985709
_cell_length_b 9.572352
_cell_length_c 14.718200
_cell_angle_alpha 136.945595
_cell_angle_beta 36.387860
_cell_angle_gamma 143.332887
_cell_volume 580.761443
_symmetry_space_group_name_H-M "P -1"
_symmetry_group_IT_number 2
_symmetry_cell_setting 'triclinic'
loop_
_space_group_symop_operation_xyz
x,y,z
-x,-y,-z
loop_
_atom_site_type_symbol
_atom_site_label
_atom_site_fract_x
_atom_site_fract_y
_atom_site_fract_z
Si Si1 0.146671 0.685375 0.912300
Si Si2 0.979099 0.011851 0.127057
Si Si3 0.948390 0.443820 0.403201
Si Si4 0.525265 0.654032 0.355018
Si Si5 0.984808 0.702866 0.334397
Si Si6 0.500000 0.500000 0.500000
Si Si7 0.575129 0.860397 0.817160
O O1 0.054957 0.530281 0.807345
O O2 0.401853 0.768151 0.801034
O O3 0.000000 0.500000 0.000000
O O4 0.120799 0.912480 0.033346
O O5 0.732473 0.837644 0.245482
O O6 0.041645 0.277983 0.235589
O O7 0.000000 0.000000 0.000000
O O8 0.683646 0.315667 0.501955
O O9 0.044251 0.672542 0.382654
O O10 0.000000 0.500000 0.500000
O O11 0.587830 0.666881 0.426270
O O12 0.455348 0.384056 0.240144
O O13 0.744927 0.664043 0.464637
O O14 0.176512 0.942606 0.277670
O O15 0.500000 0.000000 0.000000
#
# Coordination Sequence:
#
# PCOD9034376 Si02
#       7
#     2   2   2   2   2   1   2
#     4  12  22  45  72 106 147 189 250 307 377 437
#     4  12  25  47  76 101 150 201 250 303 378 463
#     4  11  28  47  68 104 151 201 250 308 373 460
#     4  11  25  45  73 107 144 197 254 304 383 441
#     4  11  23  46  70 112 143 194 252 302 382 438
#     4  10  22  44  74 100 148 186 242 312 362 442
#     4  12  25  40  75 113 145 186 245 321 369 439
#
# _framework density 22.384405999999998
#
# number of rings (size 3 to 8) (size 9 to 14) (size 15 to 20)
#    0.000    0.615    6.154    0.462    2.154    4.923 
#    0.000    1.538    0.000    0.000    0.000    0.000 
#    0.000    0.000    0.000    0.000    0.000    0.000 
#
# Total GULP energy -72518.220983 kJ/mol
# GULP energy per Si atom -5578.324691 kJ/mol
# Density = 2.233346 g / cm^3
# Si number density = 22.384406 Si / 1000 Ang^3
#
#
#
# Elastic Constant Matrix: (Units=GPa)
#
#
# Indices 1 2 3 4 5 6 
#
# 1 108.6320 18.8451 24.6450 12.6420 12.3344 -24.1251
# 2 18.8451 78.9715 14.7267 -11.0959 -5.7862 -7.1672
# 3 24.6450 14.7267 73.0454 3.7761 1.0497 -19.0397
# 4 12.6420 -11.0959 3.7761 55.4092 -5.7511 0.3391
# 5 12.3344 -5.7862 1.0497 -5.7511 57.6080 -1.2251
# 6 -24.1251 -7.1672 -19.0397 0.3391 -1.2251 29.3687
#
#
#
# Elastic Compliance Matrix: (Units=1/GPa)
#
#
# Indices 1 2 3 4 5 6 
#
# 1 0.012734 -0.002771 -0.001168 -0.003764 -0.003169 0.008938
# 2 -0.002771 0.014467 -0.002261 0.003942 0.002478 -0.000154
# 3 -0.001168 -0.002261 0.017118 -0.001435 -0.000228 0.009594
# 4 -0.003764 0.003942 -0.001435 0.020142 0.003172 -0.003161
# 5 -0.003169 0.002478 -0.000228 0.003172 0.018577 -0.001408
# 6 0.008938 -0.000154 0.009594 -0.003161 -0.001408 0.047552
#
#
# Mechanical properties :
#
#
# Convention : Reuss Voigt Hill
#
# Bulk Modulus (GPa) = 31.32888 41.89807 36.61348
# Shear Modulus (GPa) = 32.54577 41.97266 37.25922
#
# Velocity S-wave (km/s) = 3.81720 4.33492 4.08427
# Velocity P-wave (km/s) = 5.78397 6.61918 6.21562
#
# Compressibility (1/GPa) = 0.03191943
#
# Stress axis : x y z
#
# Youngs Moduli (GPa) = 78.53025 69.12236 58.41764
#
# Poissons Ratio (x) = 0.19153 0.06822
# Poissons Ratio (y) = 0.21760 0.13210
# Poissons Ratio (z) = 0.09170 0.15631
#
# Static dielectric constant tensor:
#      x y z
#    x 1.865380 -0.032770 0.039700 
#    y -0.032770 1.792270 -0.039320 
#    z 0.039700 -0.039320 1.678080 
# 
# From -- ./inp_files/395382.got.cif
#   From: 2010.05.17/outbox.cif.g08.bks.cpg/sg2_198_cif.got.tgz:395382.got - 2010.06.03 11:33:40.
