data_PCOD9034656
_publ_section_title
;
Structure prediction by ZEFSAII (Michael W. Deem and Ramdas Pophale) SiO2 
 PCOD9034656
Probable space group: P -1
;
_chemical_formula_sum "Si O2"
_cell_formula_units_Z 16
_cell_length_a 6.260999
_cell_length_b 13.840763
_cell_length_c 15.975276
_cell_angle_alpha 34.304840
_cell_angle_beta 84.608858
_cell_angle_gamma 69.760763
_cell_volume 682.194327
_symmetry_space_group_name_H-M "P -1"
_symmetry_group_IT_number 2
_symmetry_cell_setting 'triclinic'
loop_
_space_group_symop_operation_xyz
x,y,z
-x,-y,-z
loop_
_atom_site_type_symbol
_atom_site_label
_atom_site_fract_x
_atom_site_fract_y
_atom_site_fract_z
Si Si1 0.976375 0.887156 0.439379
Si Si2 0.484949 0.303785 0.121613
Si Si3 0.137252 0.334470 0.542963
Si Si4 0.490841 0.673115 0.591130
Si Si5 0.090179 0.048466 0.862204
Si Si6 0.278210 0.215940 0.347407
Si Si7 0.424159 0.331188 0.908115
Si Si8 0.242019 0.093317 0.992054
O O1 0.986128 0.727874 0.484257
O O2 0.937090 0.815452 0.583604
O O3 0.240304 0.875629 0.441044
O O4 0.744475 0.100279 0.273042
O O5 0.289924 0.294265 0.199845
O O6 0.500000 0.500000 0.000000
O O7 0.407379 0.327727 0.010826
O O8 0.345929 0.365135 0.469470
O O9 0.213710 0.142159 0.732200
O O10 0.000000 0.500000 0.500000
O O11 0.650573 0.672201 0.664899
O O12 0.401741 0.519647 0.728415
O O13 0.059257 0.153081 0.877548
O O14 0.298927 0.826766 0.011768
O O15 0.836128 0.047607 0.853007
O O16 0.500000 0.000000 0.500000
O O17 0.239485 0.262876 0.925353
O O18 0.500000 0.000000 0.000000
#
# Coordination Sequence:
#
# PCOD9034656 Si02
#       8
#     2   2   2   2   2   2   2   2
#     4  10  24  46  68  99 142 189 227 295 352 416
#     4  11  21  45  73 103 140 185 237 293 354 417
#     4  11  26  43  70 100 144 189 234 286 357 421
#     4  11  25  44  69 102 141 182 240 287 352 421
#     4  10  22  45  66  96 136 185 231 290 353 411
#     4   9  21  43  69  91 140 184 224 285 356 409
#     4  11  23  43  69 103 137 181 233 293 348 417
#     4   9  22  39  70  95 134 175 232 291 353 405
#
# _framework density 23.453728999999999
#
# number of rings (size 3 to 8) (size 9 to 14) (size 15 to 20)
#    0.000    1.750    2.500    0.000    7.000    5.500 
#    0.000    1.875    0.000    0.000    0.000    0.000 
#    0.000    0.000    0.000    0.000    0.000    0.000 
#
# Total GULP energy -89186.659846 kJ/mol
# GULP energy per Si atom -5574.166240 kJ/mol
# Density = 2.340035 g / cm^3
# Si number density = 23.453729 Si / 1000 Ang^3
#
#
#
# Elastic Constant Matrix: (Units=GPa)
#
#
# Indices 1 2 3 4 5 6 
#
# 1 84.7726 53.3139 37.5264 -1.0004 -18.2646 -8.3612
# 2 53.3139 151.3275 55.2131 23.7433 -19.0641 -8.6940
# 3 37.5264 55.2131 114.7665 10.3593 -20.0262 -8.9507
# 4 -1.0004 23.7433 10.3593 41.4843 -6.5382 -4.2893
# 5 -18.2646 -19.0641 -20.0262 -6.5382 26.6265 -7.3095
# 6 -8.3612 -8.6940 -8.9507 -4.2893 -7.3095 42.2403
#
#
#
# Elastic Compliance Matrix: (Units=1/GPa)
#
#
# Indices 1 2 3 4 5 6 
#
# 1 0.018739 -0.005263 -0.001976 0.006067 0.010357 0.004616
# 2 -0.005263 0.010337 -0.002684 -0.005289 0.000491 0.000065
# 3 -0.001976 -0.002684 0.012003 -0.000216 0.006437 0.002692
# 4 0.006067 -0.005289 -0.000216 0.029157 0.008612 0.004518
# 5 0.010357 0.000491 0.006437 0.008612 0.055826 0.014050
# 6 0.004616 0.000065 0.002692 0.004518 0.014050 0.028062
#
#
# Mechanical properties :
#
#
# Convention : Reuss Voigt Hill
#
# Bulk Modulus (GPa) = 47.09443 71.44149 59.26796
# Shear Modulus (GPa) = 27.61702 35.72443 31.67073
#
# Velocity S-wave (km/s) = 3.43521 3.90704 3.67870
# Velocity P-wave (km/s) = 5.98812 7.13302 6.58550
#
# Compressibility (1/GPa) = 0.02123393
#
# Stress axis : x y z
#
# Youngs Moduli (GPa) = 53.36428 96.73837 83.31089
#
# Poissons Ratio (x) = 0.50914 0.16460
# Poissons Ratio (y) = 0.28086 0.22360
# Poissons Ratio (z) = 0.10543 0.25964
#
# Static dielectric constant tensor:
#      x y z
#    x 2.008990 0.064500 0.004570 
#    y 0.064500 2.009190 -0.013980 
#    z 0.004570 -0.013980 1.968280 
# 
# From -- ./inp_files/550012.got.cif
#   From: 2010.05.17/outbox.cif.g08.bks.cpg/sg2_276_cif.got.tgz:550012.got - 2010.06.03 11:33:40.
