data_PCOD9034624
_publ_section_title
;
Structure prediction by ZEFSAII (Michael W. Deem and Ramdas Pophale) SiO2 
 PCOD9034624
Probable space group: P -1
;
_chemical_formula_sum "Si O2"
_cell_formula_units_Z 14
_cell_length_a 8.574646
_cell_length_b 8.274284
_cell_length_c 15.906838
_cell_angle_alpha 93.762495
_cell_angle_beta 137.817882
_cell_angle_gamma 65.247896
_cell_volume 630.394460
_symmetry_space_group_name_H-M "P -1"
_symmetry_group_IT_number 2
_symmetry_cell_setting 'triclinic'
loop_
_space_group_symop_operation_xyz
x,y,z
-x,-y,-z
loop_
_atom_site_type_symbol
_atom_site_label
_atom_site_fract_x
_atom_site_fract_y
_atom_site_fract_z
Si Si1 0.079265 0.422193 0.124987
Si Si2 0.355028 0.399017 0.599529
Si Si3 0.798531 0.294020 0.145034
Si Si4 0.690006 0.087756 0.591019
Si Si5 0.292442 0.802640 0.585752
Si Si6 0.685826 0.773439 0.087267
Si Si7 0.210871 0.420237 0.715349
O O1 0.411282 0.260155 0.256880
O O2 0.935917 0.329948 0.118989
O O3 0.958683 0.623764 0.136254
O O4 0.000000 0.500000 0.000000
O O5 0.591872 0.252279 0.627004
O O6 0.292738 0.611274 0.594224
O O7 0.408603 0.312527 0.711553
O O8 0.082540 0.439257 0.443259
O O9 0.739533 0.442649 0.202489
O O10 0.529531 0.292525 0.015984
O O11 0.017006 0.088806 0.266695
O O12 0.680935 0.177010 0.501508
O O13 0.500000 0.000000 0.500000
O O14 0.000000 0.000000 0.500000
O O15 0.781601 0.729445 0.221036
O O16 0.500000 0.000000 0.000000
#
# Coordination Sequence:
#
# PCOD9034624 Si02
#       7
#     2   2   2   2   2   2   2
#     4  11  26  46  71 106 144 190 245 289 360 431
#     4  11  25  40  73 103 141 181 235 305 350 430
#     4  11  24  46  74  99 145 196 232 296 363 434
#     4  12  23  45  70 103 142 181 244 292 363 419
#     4  12  28  44  73 104 147 192 239 300 357 424
#     4  11  27  46  73 104 144 190 240 299 361 433
#     4  10  22  45  66 101 140 184 238 286 364 423
#
# _framework density 22.208316
#
# number of rings (size 3 to 8) (size 9 to 14) (size 15 to 20)
#    0.000    0.857    2.857    3.857   12.000    1.143 
#    0.000    1.429    0.000    0.000    0.000    0.000 
#    0.000    0.000    0.000    0.000    0.000    0.000 
#
# Total GULP energy -78138.447623 kJ/mol
# GULP energy per Si atom -5581.317687 kJ/mol
# Density = 2.215777 g / cm^3
# Si number density = 22.208316 Si / 1000 Ang^3
#
#
#
# Elastic Constant Matrix: (Units=GPa)
#
#
# Indices 1 2 3 4 5 6 
#
# 1 84.1016 20.2162 55.3722 6.6540 -37.1479 -16.5023
# 2 20.2162 89.1931 30.1101 -14.1950 -5.5819 -17.4028
# 3 55.3722 30.1101 136.1158 -15.1302 -16.8041 -14.0659
# 4 6.6540 -14.1950 -15.1302 42.5823 4.8416 7.8176
# 5 -37.1479 -5.5819 -16.8041 4.8416 63.7805 4.8490
# 6 -16.5023 -17.4028 -14.0659 7.8176 4.8490 35.3191
#
#
#
# Elastic Compliance Matrix: (Units=1/GPa)
#
#
# Indices 1 2 3 4 5 6 
#
# 1 0.026897 -0.002318 -0.009174 -0.011295 0.013261 0.008451
# 2 -0.002318 0.013568 -0.001328 0.003734 -0.001131 0.004402
# 3 -0.009174 -0.001328 0.011532 0.005625 -0.002756 -0.001215
# 4 -0.011295 0.003734 0.005625 0.030532 -0.006551 -0.007056
# 5 0.013261 -0.001131 -0.002756 -0.006551 0.022858 0.002853
# 6 0.008451 0.004402 -0.001215 -0.007056 0.002853 0.035117
#
#
# Mechanical properties :
#
#
# Convention : Reuss Voigt Hill
#
# Bulk Modulus (GPa) = 37.94174 57.86750 47.90462
# Shear Modulus (GPa) = 28.58307 41.91718 35.25013
#
# Velocity S-wave (km/s) = 3.59143 4.34920 3.98835
# Velocity P-wave (km/s) = 5.85828 7.16477 6.54421
#
# Compressibility (1/GPa) = 0.02635620
#
# Stress axis : x y z
#
# Youngs Moduli (GPa) = 37.17928 73.70454 86.71596
#
# Poissons Ratio (x) = 0.17086 0.79553
# Poissons Ratio (y) = 0.08619 0.11515
# Poissons Ratio (z) = 0.34108 0.09788
#
# Static dielectric constant tensor:
#      x y z
#    x 1.941680 0.028140 0.038010 
#    y 0.028140 1.828640 0.018970 
#    z 0.038010 0.018970 1.818930 
# 
# From -- ./inp_files/182198.got.cif
#   From: 2010.05.17/outbox.cif.g08.bks.cpg/sg2_92_cif.got.tgz:182198.got - 2010.06.03 11:33:40.
