data_PCOD9034584
_publ_section_title
;
Structure prediction by ZEFSAII (Michael W. Deem and Ramdas Pophale) SiO2 
 PCOD9034584
Probable space group: P -1
;
_chemical_formula_sum "Si O2"
_cell_formula_units_Z 16
_cell_length_a 14.630639
_cell_length_b 11.415222
_cell_length_c 14.558502
_cell_angle_alpha 135.481481
_cell_angle_beta 150.594754
_cell_angle_gamma 37.017078
_cell_volume 717.479300
_symmetry_space_group_name_H-M "P -1"
_symmetry_group_IT_number 2
_symmetry_cell_setting 'triclinic'
loop_
_space_group_symop_operation_xyz
x,y,z
-x,-y,-z
loop_
_atom_site_type_symbol
_atom_site_label
_atom_site_fract_x
_atom_site_fract_y
_atom_site_fract_z
Si Si1 0.520241 0.334596 0.858799
Si Si2 0.647463 0.040867 0.580943
Si Si3 0.178168 0.710749 0.035926
Si Si4 0.244298 0.176625 0.607214
Si Si5 0.572860 0.886437 0.857794
Si Si6 0.780151 0.699540 0.753049
Si Si7 0.473233 0.741380 0.873279
Si Si8 0.812167 0.437057 0.471874
O O1 0.766668 0.230401 0.980434
O O2 0.439573 0.213967 0.776782
O O3 0.365664 0.412052 0.674801
O O4 0.500000 0.500000 0.000000
O O5 0.745448 0.172188 0.768000
O O6 0.465346 0.160943 0.413767
O O7 0.500000 0.000000 0.500000
O O8 0.820414 0.858590 0.570373
O O9 0.333431 0.473666 0.044098
O O10 0.940944 0.760187 0.882302
O O11 0.040214 0.354833 0.575842
O O12 0.340078 0.001373 0.666279
O O13 0.758918 0.737991 0.865802
O O14 0.555515 0.772681 0.865485
O O15 0.588979 0.068181 0.013948
O O16 0.828955 0.511386 0.629477
O O17 0.264859 0.717650 0.670572
#
# Coordination Sequence:
#
# PCOD9034584 Si02
#       8
#     2   2   2   2   2   2   2   2
#     4  11  21  38  63  92 126 170 210 254 314 382
#     4  11  22  43  58  96 135 162 209 269 309 375
#     4  11  23  42  66  92 129 173 208 261 316 378
#     4  11  22  38  62  91 132 164 212 261 317 374
#     4  10  24  42  64  95 124 168 210 270 317 371
#     4  11  23  41  67  97 124 168 215 257 323 373
#     4  10  22  45  65  89 132 163 215 264 315 381
#     4  11  22  40  65  95 126 168 214 262 313 384
#
# _framework density 22.300294999999998
#
# number of rings (size 3 to 8) (size 9 to 14) (size 15 to 20)
#    0.000    1.250    3.750    3.375    1.750    3.000 
#    0.000    0.000    0.000    0.000    0.000    0.000 
#    0.000    0.000    0.000    0.000    0.000    0.000 
#
# Total GULP energy -89106.122648 kJ/mol
# GULP energy per Si atom -5569.132665 kJ/mol
# Density = 2.224954 g / cm^3
# Si number density = 22.300295 Si / 1000 Ang^3
#
#
#
# Elastic Constant Matrix: (Units=GPa)
#
#
# Indices 1 2 3 4 5 6 
#
# 1 142.3823 25.2403 46.5581 16.9625 -11.7954 -22.7461
# 2 25.2403 47.5386 16.4764 14.9356 -6.7439 -1.1216
# 3 46.5581 16.4764 117.9861 25.2570 1.3465 -4.9617
# 4 16.9625 14.9356 25.2570 34.3056 -10.3507 1.8750
# 5 -11.7954 -6.7439 1.3465 -10.3507 28.6784 14.0057
# 6 -22.7461 -1.1216 -4.9617 1.8750 14.0057 28.1629
#
#
#
# Elastic Compliance Matrix: (Units=1/GPa)
#
#
# Indices 1 2 3 4 5 6 
#
# 1 0.010019 -0.003710 -0.002540 -0.002430 -0.001651 0.008479
# 2 -0.003710 0.026107 -0.000683 -0.007822 0.003410 -0.003252
# 3 -0.002540 -0.000683 0.011911 -0.009677 -0.007372 0.004330
# 4 -0.002430 -0.007822 -0.009677 0.049558 0.025170 -0.019796
# 5 -0.001651 0.003410 -0.007372 0.025170 0.061364 -0.034689
# 6 0.008479 -0.003252 0.004330 -0.019796 -0.034689 0.061559
#
#
# Mechanical properties :
#
#
# Convention : Reuss Voigt Hill
#
# Bulk Modulus (GPa) = 29.26438 53.82852 41.54645
# Shear Modulus (GPa) = 20.34406 32.87152 26.60779
#
# Velocity S-wave (km/s) = 3.02367 3.84349 3.45796
# Velocity P-wave (km/s) = 5.03403 6.62472 5.88338
#
# Compressibility (1/GPa) = 0.03417123
#
# Stress axis : x y z
#
# Youngs Moduli (GPa) = 99.81174 38.30457 83.95622
#
# Poissons Ratio (x) = 0.14210 0.21323
# Poissons Ratio (y) = 0.37027 0.05735
# Poissons Ratio (z) = 0.25350 0.02616
#
# Static dielectric constant tensor:
#      x y z
#    x 2.001750 -0.281350 -0.217830 
#    y -0.281350 2.314640 0.292220 
#    z -0.217830 0.292220 2.026920 
# 
# From -- ./inp_files/532075.got.cif
#   From: 2010.05.17/outbox.cif.g08.bks.cpg/sg2_267_cif.got.tgz:532075.got - 2010.06.03 11:33:40.
