data_PCOD9034149
_publ_section_title
;
Structure prediction by ZEFSAII (Michael W. Deem and Ramdas Pophale) SiO2 
 PCOD9034149
Probable space group: P -1
;
_chemical_formula_sum "Si O2"
_cell_formula_units_Z 16
_cell_length_a 9.304544
_cell_length_b 19.148602
_cell_length_c 7.486236
_cell_angle_alpha 114.599204
_cell_angle_beta 127.208642
_cell_angle_gamma 35.347607
_cell_volume 605.942798
_symmetry_space_group_name_H-M "P -1"
_symmetry_group_IT_number 2
_symmetry_cell_setting 'triclinic'
loop_
_space_group_symop_operation_xyz
x,y,z
-x,-y,-z
loop_
_atom_site_type_symbol
_atom_site_label
_atom_site_fract_x
_atom_site_fract_y
_atom_site_fract_z
Si Si1 0.403315 0.224853 0.886350
Si Si2 0.834964 0.763286 0.620081
Si Si3 0.015074 0.999857 0.293417
Si Si4 0.704602 0.690925 0.738385
Si Si5 0.879202 0.208307 0.888301
Si Si6 0.625557 0.420591 0.335046
Si Si7 0.904115 0.189189 0.496809
Si Si8 0.291884 0.427737 0.836133
O O1 0.356842 0.324313 0.869502
O O2 0.332265 0.187292 0.639461
O O3 0.715614 0.102380 0.068611
O O4 0.213366 0.294454 0.997888
O O5 0.135210 0.617306 0.646427
O O6 0.663372 0.769574 0.642345
O O7 0.935041 0.807028 0.843495
O O8 0.105454 0.059568 0.413946
O O9 0.000000 0.000000 0.500000
O O10 0.136441 0.878481 0.190355
O O11 0.409294 0.744955 0.620287
O O12 0.950182 0.552740 0.701594
O O13 0.013803 0.177083 0.760559
O O14 0.548950 0.347109 0.798154
O O15 0.500000 0.500000 0.500000
O O16 0.817565 0.286177 0.408055
O O17 0.381883 0.466509 0.078344
#
# Coordination Sequence:
#
# PCOD9034149 Si02
#       8
#     2   2   2   2   2   2   2   2
#     4  11  23  44  69  99 136 180 230 275 336 409
#     4  11  27  41  65 107 140 177 222 281 348 394
#     4   9  20  45  74  97 129 181 235 280 329 404
#     4  11  24  43  70  98 142 179 225 280 333 413
#     4  10  24  41  66 101 136 176 230 285 334 396
#     4  11  24  40  65 102 140 181 220 276 344 404
#     4  10  22  44  71  97 133 186 228 271 340 409
#     4  11  23  41  66 103 133 182 229 272 341 407
#
# _framework density 26.405131999999998
#
# number of rings (size 3 to 8) (size 9 to 14) (size 15 to 20)
#    0.000    1.500    2.500    1.875    7.000    3.000 
#    0.000    2.500    2.750    0.000    0.000    0.000 
#    0.000    0.000    0.000    0.000    0.000    0.000 
#
# Total GULP energy -89402.440595 kJ/mol
# GULP energy per Si atom -5587.652537 kJ/mol
# Density = 2.634503 g / cm^3
# Si number density = 26.405132 Si / 1000 Ang^3
#
#
#
# Elastic Constant Matrix: (Units=GPa)
#
#
# Indices 1 2 3 4 5 6 
#
# 1 71.2932 -4.9425 23.4133 11.5053 -0.0580 -6.2105
# 2 -4.9425 104.6561 25.6369 20.7481 -5.5936 -6.6272
# 3 23.4133 25.6369 187.5542 30.5112 -5.4285 -12.7392
# 4 11.5053 20.7481 30.5112 41.7445 -2.9171 -13.4218
# 5 -0.0580 -5.5936 -5.4285 -2.9171 28.0134 3.5154
# 6 -6.2105 -6.6272 -12.7392 -13.4218 3.5154 22.3114
#
#
#
# Elastic Compliance Matrix: (Units=1/GPa)
#
#
# Indices 1 2 3 4 5 6 
#
# 1 0.015380 0.001881 -0.001491 -0.003486 -0.000492 0.001969
# 2 0.001881 0.010971 -0.000838 -0.005291 0.001496 -0.000115
# 3 -0.001491 -0.000838 0.006264 -0.003476 0.000590 0.000729
# 4 -0.003486 -0.005291 -0.003476 0.035493 -0.000156 0.016849
# 5 -0.000492 0.001496 0.000590 -0.000156 0.036750 -0.005240
# 6 0.001969 -0.000115 0.000729 0.016849 -0.005240 0.056712
#
#
# Mechanical properties :
#
#
# Convention : Reuss Voigt Hill
#
# Bulk Modulus (GPa) = 31.52597 50.19098 40.85847
# Shear Modulus (GPa) = 28.89513 39.70691 34.30102
#
# Velocity S-wave (km/s) = 3.31161 3.88204 3.60811
# Velocity P-wave (km/s) = 5.15632 6.25643 5.73282
#
# Compressibility (1/GPa) = 0.03171988
#
# Stress axis : x y z
#
# Youngs Moduli (GPa) = 65.01890 91.15049 159.63085
#
# Poissons Ratio (x) = -0.17145 0.23793
# Poissons Ratio (y) = -0.12230 0.13380
# Poissons Ratio (z) = 0.09691 0.07640
#
# Static dielectric constant tensor:
#      x y z
#    x 2.196170 -0.026590 0.028840 
#    y -0.026590 2.104240 0.017630 
#    z 0.028840 0.017630 2.106430 
# 
# From -- ./inp_files/282186.got.cif
#   From: 2010.05.17/outbox.cif.g08.bks.cpg/sg2_142_cif.got.tgz:282186.got - 2010.06.03 11:33:40.
