data_PCOD9034639
_publ_section_title
;
Structure prediction by ZEFSAII (Michael W. Deem and Ramdas Pophale) SiO2 
 PCOD9034639
Probable space group: P -1
;
_chemical_formula_sum "Si O2"
_cell_formula_units_Z 8
_cell_length_a 7.073724
_cell_length_b 17.182093
_cell_length_c 7.748381
_cell_angle_alpha 26.886611
_cell_angle_beta 141.889583
_cell_angle_gamma 132.553241
_cell_volume 261.747534
_symmetry_space_group_name_H-M "P -1"
_symmetry_group_IT_number 2
_symmetry_cell_setting 'triclinic'
loop_
_space_group_symop_operation_xyz
x,y,z
-x,-y,-z
loop_
_atom_site_type_symbol
_atom_site_label
_atom_site_fract_x
_atom_site_fract_y
_atom_site_fract_z
Si Si1 0.780098 0.849039 0.606895
Si Si2 0.207085 0.146019 0.791340
Si Si3 0.297990 0.510329 0.704944
Si Si4 0.426099 0.707403 0.940093
O O1 0.695930 0.875555 0.294172
O O2 0.400111 0.621845 0.721843
O O3 0.566040 0.840635 0.637244
O O4 0.960434 0.644642 0.149425
O O5 0.472195 0.202728 0.990199
O O6 0.000000 0.000000 0.500000
O O7 0.000000 0.000000 0.000000
O O8 0.064294 0.697720 0.703834
O O9 0.409859 0.470922 0.666536
#
# Coordination Sequence:
#
# PCOD9034639 Si02
#       4
#     2   2   2   2
#     4  10  24  42  71  97 131 173 219 269 331 376
#     4  12  22  41  64 101 132 168 214 272 327 385
#     4  10  22  45  66  91 134 175 211 269 327 384
#     4  10  25  40  65  94 135 164 221 265 321 382
#
# _framework density 30.563804999999999
#
# number of rings (size 3 to 8) (size 9 to 14) (size 15 to 20)
#    1.500    0.000    2.500    2.250    0.000    5.000 
#    0.000    7.500    0.000    0.000    0.000    0.000 
#    0.000    0.000    0.000    0.000    0.000    0.000 
#
# Total GULP energy -44670.126317 kJ/mol
# GULP energy per Si atom -5583.765790 kJ/mol
# Density = 3.049424 g / cm^3
# Si number density = 30.563805 Si / 1000 Ang^3
#
#
#
# Elastic Constant Matrix: (Units=GPa)
#
#
# Indices 1 2 3 4 5 6 
#
# 1 158.4123 47.9003 0.0578 19.0277 -1.7139 -34.0014
# 2 47.9003 181.1605 78.2344 20.5104 -35.8170 -12.6526
# 3 0.0578 78.2344 140.9571 14.9580 -12.8466 6.9661
# 4 19.0277 20.5104 14.9580 82.3208 15.9115 -19.3790
# 5 -1.7139 -35.8170 -12.8466 15.9115 71.4782 4.3059
# 6 -34.0014 -12.6526 6.9661 -19.3790 4.3059 68.0264
#
#
#
# Elastic Compliance Matrix: (Units=1/GPa)
#
#
# Indices 1 2 3 4 5 6 
#
# 1 0.007803 -0.002477 0.001174 -0.000453 -0.000938 0.003249
# 2 -0.002477 0.009132 -0.004538 -0.001611 0.004047 0.000210
# 3 0.001174 -0.004538 0.009821 -0.001289 -0.000096 -0.001624
# 4 -0.000453 -0.001611 -0.001289 0.014736 -0.004577 0.004093
# 5 -0.000938 0.004047 -0.000096 -0.004577 0.017123 -0.002094
# 6 0.003249 0.000210 -0.001624 0.004093 -0.002094 0.017828
#
#
# Mechanical properties :
#
#
# Convention : Reuss Voigt Hill
#
# Bulk Modulus (GPa) = 66.34475 81.43497 73.88986
# Shear Modulus (GPa) = 53.67645 67.98759 60.83202
#
# Velocity S-wave (km/s) = 4.19526 4.72152 4.46615
# Velocity P-wave (km/s) = 6.72466 7.51171 7.12905
#
# Compressibility (1/GPa) = 0.01507278
#
# Stress axis : x y z
#
# Youngs Moduli (GPa) = 128.15500 109.50710 101.82414
#
# Poissons Ratio (x) = 0.27128 -0.11952
# Poissons Ratio (y) = 0.31748 0.46208
# Poissons Ratio (z) = -0.15043 0.49694
#
# Static dielectric constant tensor:
#      x y z
#    x 2.295790 0.063760 0.099860 
#    y 0.063760 2.434520 -0.381270 
#    z 0.099860 -0.381270 3.070940 
# 
# From -- ./inp_files/33902.got.cif
#   From: 2010.05.17/outbox.cif.g08.bks.cpg/sg2_17_cif.got.tgz:33902.got - 2010.06.03 11:33:40.
