data_PCOD9034534
_publ_section_title
;
Structure prediction by ZEFSAII (Michael W. Deem and Ramdas Pophale) SiO2 
 PCOD9034534
Probable space group: P -1
;
_chemical_formula_sum "Si O2"
_cell_formula_units_Z 16
_cell_length_a 9.565325
_cell_length_b 11.323389
_cell_length_c 16.638195
_cell_angle_alpha 44.147166
_cell_angle_beta 138.256512
_cell_angle_gamma 104.519110
_cell_volume 659.678963
_symmetry_space_group_name_H-M "P -1"
_symmetry_group_IT_number 2
_symmetry_cell_setting 'triclinic'
loop_
_space_group_symop_operation_xyz
x,y,z
-x,-y,-z
loop_
_atom_site_type_symbol
_atom_site_label
_atom_site_fract_x
_atom_site_fract_y
_atom_site_fract_z
Si Si1 0.042741 0.483123 0.873035
Si Si2 0.748787 0.164474 0.589476
Si Si3 0.988399 0.904418 0.680341
Si Si4 0.478549 0.266487 0.571817
Si Si5 0.339194 0.227638 0.697136
Si Si6 0.296798 0.483635 0.701332
Si Si7 0.498179 0.786068 0.928672
Si Si8 0.442050 0.080067 0.319502
O O1 0.012038 0.690502 0.788264
O O2 0.779516 0.551264 0.679804
O O3 0.278385 0.356910 0.970930
O O4 0.156370 0.308069 0.077769
O O5 0.733722 0.204240 0.660087
O O6 0.648109 0.376848 0.395514
O O7 0.574866 0.077550 0.553916
O O8 0.006795 0.976094 0.742966
O O9 0.199855 0.891804 0.721604
O O10 0.682235 0.086761 0.434551
O O11 0.439593 0.304005 0.631298
O O12 0.491731 0.055599 0.668026
O O13 0.365783 0.296503 0.761983
O O14 0.018610 0.362348 0.486491
O O15 0.491180 0.974662 0.874551
O O16 0.451071 0.381063 0.899509
#
# Coordination Sequence:
#
# PCOD9034534 Si02
#       8
#     2   2   2   2   2   2   2   2
#     4  11  22  39  64  96 125 177 205 249 318 371
#     4  10  22  45  61  95 131 167 205 264 310 368
#     4  11  24  38  61  97 130 170 208 253 306 382
#     4   9  21  42  66  89 129 164 209 258 310 376
#     4  11  22  46  67  90 127 166 209 271 314 372
#     4  11  25  41  69  93 123 168 213 262 325 360
#     4  12  23  41  65  96 130 162 214 261 309 381
#     4   9  22  40  60  89 131 167 203 250 307 374
#
# _framework density 24.254221999999999
#
# number of rings (size 3 to 8) (size 9 to 14) (size 15 to 20)
#    0.750    0.750    3.750    1.125    1.750    2.500 
#    0.000    0.000    0.000    2.250    0.000    0.000 
#    0.000    0.000    0.000    0.000    0.000    0.000 
#
# Total GULP energy -89196.307614 kJ/mol
# GULP energy per Si atom -5574.769226 kJ/mol
# Density = 2.419902 g / cm^3
# Si number density = 24.254222 Si / 1000 Ang^3
#
#
#
# Elastic Constant Matrix: (Units=GPa)
#
#
# Indices 1 2 3 4 5 6 
#
# 1 114.1112 7.5996 19.0611 -14.0579 -3.0412 -28.9505
# 2 7.5996 33.2870 9.0349 -17.2959 -6.7159 -6.7946
# 3 19.0611 9.0349 67.7330 -13.5005 -4.7209 -6.6043
# 4 -14.0579 -17.2959 -13.5005 27.4138 0.0843 0.9282
# 5 -3.0412 -6.7159 -4.7209 0.0843 35.1673 -10.2811
# 6 -28.9505 -6.7946 -6.6043 0.9282 -10.2811 28.0633
#
#
#
# Elastic Compliance Matrix: (Units=1/GPa)
#
#
# Indices 1 2 3 4 5 6 
#
# 1 0.015350 0.009439 -0.000314 0.012934 0.009192 0.020987
# 2 0.009439 0.060400 0.002451 0.043022 0.021785 0.031496
# 3 -0.000314 0.002451 0.017315 0.009709 0.004388 0.005631
# 4 0.012934 0.043022 0.009709 0.073935 0.019441 0.030721
# 5 0.009192 0.021785 0.004388 0.019441 0.042963 0.030887
# 6 0.020987 0.031496 0.005631 0.030721 0.030887 0.076534
#
#
# Mechanical properties :
#
#
# Convention : Reuss Voigt Hill
#
# Bulk Modulus (GPa) = 8.60449 31.83583 20.22016
# Shear Modulus (GPa) = 16.55180 30.09126 23.32153
#
# Velocity S-wave (km/s) = 2.61517 3.52612 3.10424
# Velocity P-wave (km/s) = 3.56008 5.45275 4.60470
#
# Compressibility (1/GPa) = 0.11621837
#
# Stress axis : x y z
#
# Youngs Moduli (GPa) = 65.14702 16.55643 57.75248
#
# Poissons Ratio (x) = -0.15628 0.01813
# Poissons Ratio (y) = -0.61495 -0.14157
# Poissons Ratio (z) = 0.02045 -0.04059
#
# Static dielectric constant tensor:
#      x y z
#    x 2.018480 -0.078810 -0.012870 
#    y -0.078810 1.981900 0.002170 
#    z -0.012870 0.002170 1.964440 
# 
# From -- ./inp_files/559689.got.cif
#   From: 2010.05.17/outbox.cif.g08.bks.cpg/sg2_280_cif.got.tgz:559689.got - 2010.06.03 11:33:40.
