data_PCOD9034021
_publ_section_title
;
Structure prediction by ZEFSAII (Michael W. Deem and Ramdas Pophale) SiO2 
 PCOD9034021
Probable space group: P -1
;
_chemical_formula_sum "Si O2"
_cell_formula_units_Z 16
_cell_length_a 9.375082
_cell_length_b 15.180925
_cell_length_c 6.030101
_cell_angle_alpha 50.401230
_cell_angle_beta 93.412480
_cell_angle_gamma 100.233420
_cell_volume 649.125949
_symmetry_space_group_name_H-M "P -1"
_symmetry_group_IT_number 2
_symmetry_cell_setting 'triclinic'
loop_
_space_group_symop_operation_xyz
x,y,z
-x,-y,-z
loop_
_atom_site_type_symbol
_atom_site_label
_atom_site_fract_x
_atom_site_fract_y
_atom_site_fract_z
Si Si1 0.794812 0.993067 0.316775
Si Si2 0.563946 0.546079 0.179676
Si Si3 0.006557 0.845690 0.584254
Si Si4 0.880318 0.631220 0.200688
Si Si5 0.730559 0.264647 0.325777
Si Si6 0.542040 0.812861 0.800105
Si Si7 0.888027 0.484119 0.814250
Si Si8 0.578989 0.124978 0.892906
O O1 0.654269 0.904980 0.530963
O O2 0.898058 0.914319 0.335126
O O3 0.884565 0.057128 0.427057
O O4 0.734786 0.092179 0.021673
O O5 0.500000 0.500000 0.500000
O O6 0.739958 0.550162 0.205759
O O7 0.500000 0.500000 0.000000
O O8 0.560595 0.683332 0.963999
O O9 0.111957 0.771872 0.587672
O O10 0.908219 0.759162 0.891076
O O11 0.858778 0.600991 0.508440
O O12 0.033114 0.590756 0.229144
O O13 0.624701 0.179219 0.289023
O O14 0.633439 0.241244 0.571172
O O15 0.749788 0.393681 0.025755
O O16 0.541782 0.841980 0.008964
O O17 0.000000 0.500000 0.000000
O O18 0.500000 0.000000 0.000000
#
# Coordination Sequence:
#
# PCOD9034021 Si02
#       8
#     2   2   2   2   2   2   2   2
#     4  11  22  43  70 102 144 193 246 307 382 455
#     4  12  30  50  79 114 154 208 264 329 397 469
#     4  10  22  44  70  99 148 191 242 312 380 466
#     4  10  23  47  67 105 145 196 249 317 387 460
#     4  11  24  42  68 107 139 195 248 314 382 460
#     4  12  25  48  73 104 156 192 256 319 380 467
#     4  10  24  41  72 101 144 191 252 317 382 463
#     4  12  25  41  74 109 144 196 251 311 388 454
#
# _framework density 24.648527000000001
#
# number of rings (size 3 to 8) (size 9 to 14) (size 15 to 20)
#    0.000    1.000    3.750    1.875    7.000    1.500 
#    0.000    0.000    0.000    0.000    0.000    0.000 
#    0.000    0.000    0.000    0.000    0.000    0.000 
#
# Total GULP energy -89154.930071 kJ/mol
# GULP energy per Si atom -5572.183129 kJ/mol
# Density = 2.459243 g / cm^3
# Si number density = 24.648527 Si / 1000 Ang^3
#
#
#
# Elastic Constant Matrix: (Units=GPa)
#
#
# Indices 1 2 3 4 5 6 
#
# 1 90.9122 13.0898 24.1838 -3.9315 -13.5590 13.1865
# 2 13.0898 83.0988 22.9432 -7.8806 -14.0814 7.0839
# 3 24.1838 22.9432 135.4429 -18.6815 -20.8504 12.1240
# 4 -3.9315 -7.8806 -18.6815 24.1089 8.4290 -3.1186
# 5 -13.5590 -14.0814 -20.8504 8.4290 39.0185 -8.5993
# 6 13.1865 7.0839 12.1240 -3.1186 -8.5993 45.2005
#
#
#
# Elastic Compliance Matrix: (Units=1/GPa)
#
#
# Indices 1 2 3 4 5 6 
#
# 1 0.012275 -0.000910 -0.001488 -0.000738 0.002735 -0.002570
# 2 -0.000910 0.013324 -0.001255 0.002012 0.003225 -0.000734
# 3 -0.001488 -0.001255 0.009075 0.005379 0.002507 -0.000955
# 4 -0.000738 0.002012 0.005379 0.048719 -0.007076 0.000472
# 5 0.002735 0.003225 0.002507 -0.007076 0.031384 0.003507
# 6 -0.002570 -0.000734 -0.000955 0.000472 0.003507 0.023944
#
#
# Mechanical properties :
#
#
# Convention : Reuss Voigt Hill
#
# Bulk Modulus (GPa) = 36.53998 47.76527 42.15263
# Shear Modulus (GPa) = 32.22686 38.28139 35.25413
#
# Velocity S-wave (km/s) = 3.61980 3.94520 3.78600
# Velocity P-wave (km/s) = 5.68570 6.33825 6.02082
#
# Compressibility (1/GPa) = 0.02736728
#
# Stress axis : x y z
#
# Youngs Moduli (GPa) = 81.46420 75.05520 110.19519
#
# Poissons Ratio (x) = 0.06831 0.16401
# Poissons Ratio (y) = 0.07414 0.13827
# Poissons Ratio (z) = 0.12124 0.09417
#
# Static dielectric constant tensor:
#      x y z
#    x 2.034260 -0.055900 0.002080 
#    y -0.055900 2.151210 0.234330 
#    z 0.002080 0.234330 2.183370 
# 
# From -- ./inp_files/46298.got.cif
#   From: 2010.05.17/outbox.cif.g08.bks.cpg/sg2_24_cif.got.tgz:46298.got - 2010.06.03 11:33:40.
