data_PCOD9034610
_publ_section_title
;
Structure prediction by ZEFSAII (Michael W. Deem and Ramdas Pophale) SiO2 
 PCOD9034610
Probable space group: P -1
;
_chemical_formula_sum "Si O2"
_cell_formula_units_Z 16
_cell_length_a 16.610823
_cell_length_b 7.453434
_cell_length_c 19.221932
_cell_angle_alpha 55.066461
_cell_angle_beta 160.390478
_cell_angle_gamma 119.418941
_cell_volume 644.642231
_symmetry_space_group_name_H-M "P -1"
_symmetry_group_IT_number 2
_symmetry_cell_setting 'triclinic'
loop_
_space_group_symop_operation_xyz
x,y,z
-x,-y,-z
loop_
_atom_site_type_symbol
_atom_site_label
_atom_site_fract_x
_atom_site_fract_y
_atom_site_fract_z
Si Si1 0.014854 0.330477 0.985421
Si Si2 0.192955 0.352115 0.548601
Si Si3 0.287104 0.201042 0.804721
Si Si4 0.732000 0.720524 0.071807
Si Si5 0.222586 0.959282 0.568189
Si Si6 0.702644 0.704276 0.566253
Si Si7 0.089043 0.983530 0.228451
Si Si8 0.485654 0.564823 0.631818
O O1 0.295311 0.313152 0.197268
O O2 0.975439 0.103141 0.039216
O O3 0.000000 0.500000 0.000000
O O4 0.865932 0.472709 0.773061
O O5 0.239157 0.370332 0.663717
O O6 0.209253 0.095048 0.599403
O O7 0.411547 0.428894 0.667069
O O8 0.935797 0.496173 0.281236
O O9 0.346240 0.282755 0.910579
O O10 0.024573 0.132612 0.618054
O O11 0.500000 0.000000 0.000000
O O12 0.884589 0.914664 0.128942
O O13 0.475674 0.785016 0.808289
O O14 0.217967 0.149821 0.463851
O O15 0.483286 0.601428 0.373109
O O16 0.738105 0.864137 0.625178
O O17 0.259875 0.760206 0.394719
#
# Coordination Sequence:
#
# PCOD9034610 Si02
#       8
#     2   2   2   2   2   2   2   2
#     4  10  23  39  68  97 131 174 221 274 330 403
#     4  10  24  43  66  97 128 174 221 271 330 396
#     4  12  24  42  70  97 132 177 217 272 337 396
#     4  11  24  46  65  94 136 170 223 278 327 400
#     4  11  24  44  66  94 136 174 217 274 337 392
#     4  10  23  41  64  96 124 178 216 263 344 387
#     4  10  22  45  65  97 132 172 225 276 331 399
#     4  10  23  44  64  96 137 168 221 281 328 398
#
# _framework density 24.819972
#
# number of rings (size 3 to 8) (size 9 to 14) (size 15 to 20)
#    0.000    1.500    2.500    1.125    8.750    3.000 
#    9.000    0.000    0.000    0.000    0.000    0.000 
#    0.000    0.000    0.000    0.000    0.000    0.000 
#
# Total GULP energy -89294.796462 kJ/mol
# GULP energy per Si atom -5580.924779 kJ/mol
# Density = 2.476348 g / cm^3
# Si number density = 24.819972 Si / 1000 Ang^3
#
#
#
# Elastic Constant Matrix: (Units=GPa)
#
#
# Indices 1 2 3 4 5 6 
#
# 1 100.9872 17.7722 -31.2135 10.5130 -20.2732 52.0839
# 2 17.7722 76.7890 33.3216 3.4541 -11.6661 -3.7157
# 3 -31.2135 33.3216 339.2253 -38.2529 -9.3325 -92.6690
# 4 10.5130 3.4541 -38.2529 30.4116 4.3001 13.8834
# 5 -20.2732 -11.6661 -9.3325 4.3001 41.4715 -7.4532
# 6 52.0839 -3.7157 -92.6690 13.8834 -7.4532 95.4576
#
#
#
# Elastic Compliance Matrix: (Units=1/GPa)
#
#
# Indices 1 2 3 4 5 6 
#
# 1 0.016158 -0.002802 -0.000852 -0.003092 0.005647 -0.008862
# 2 -0.002802 0.015156 -0.001778 -0.003986 0.003126 0.001217
# 3 -0.000852 -0.001778 0.004760 0.004398 0.000492 0.004415
# 4 -0.003092 -0.003986 0.004398 0.041081 -0.006018 -0.000643
# 5 0.005647 0.003126 0.000492 -0.006018 0.028600 0.000626
# 6 -0.008862 0.001217 0.004415 -0.000643 0.000626 0.019787
#
#
# Mechanical properties :
#
#
# Convention : Reuss Voigt Hill
#
# Bulk Modulus (GPa) = 39.66662 61.86245 50.76454
# Shear Modulus (GPa) = 34.52857 66.60954 50.56906
#
# Velocity S-wave (km/s) = 3.73387 5.18607 4.51869
# Velocity P-wave (km/s) = 5.88264 7.79994 6.90813
#
# Compressibility (1/GPa) = 0.02521011
#
# Stress axis : x y z
#
# Youngs Moduli (GPa) = 61.88923 65.98236 210.09514
#
# Poissons Ratio (x) = 0.18486 0.17906
# Poissons Ratio (y) = 0.17339 0.37348
# Poissons Ratio (z) = 0.05275 0.11729
#
# Static dielectric constant tensor:
#      x y z
#    x 2.028660 -0.027150 -0.034160 
#    y -0.027150 2.007990 0.048480 
#    z -0.034160 0.048480 2.009720 
# 
# From -- ./inp_files/599459.got.cif
#   From: 2010.05.17/outbox.cif.g08.bks.cpg/sg2_300_cif.got.tgz:599459.got - 2010.06.03 11:33:40.
