data_PCOD9034214
_publ_section_title
;
Structure prediction by ZEFSAII (Michael W. Deem and Ramdas Pophale) SiO2 
 PCOD9034214
Probable space group: P -1
;
_chemical_formula_sum "Si O2"
_cell_formula_units_Z 14
_cell_length_a 20.431413
_cell_length_b 25.555364
_cell_length_c 12.409987
_cell_angle_alpha 152.716017
_cell_angle_beta 26.171721
_cell_angle_gamma 167.297141
_cell_volume 622.565384
_symmetry_space_group_name_H-M "P -1"
_symmetry_group_IT_number 2
_symmetry_cell_setting 'triclinic'
loop_
_space_group_symop_operation_xyz
x,y,z
-x,-y,-z
loop_
_atom_site_type_symbol
_atom_site_label
_atom_site_fract_x
_atom_site_fract_y
_atom_site_fract_z
Si Si1 0.700544 0.046243 0.720313
Si Si2 0.322867 0.854323 0.730143
Si Si3 0.663388 0.425623 0.603774
Si Si4 0.442197 0.472399 0.870814
Si Si5 0.783610 0.339701 0.689922
Si Si6 0.583056 0.497870 0.484842
Si Si7 0.742078 0.945128 0.889905
O O1 0.063335 0.306240 0.681173
O O2 0.608969 0.006864 0.659454
O O3 0.581776 0.839437 0.546574
O O4 0.500000 0.000000 0.000000
O O5 0.334827 0.814947 0.518975
O O6 0.015535 0.591653 0.758685
O O7 0.295033 0.971259 0.980262
O O8 0.651854 0.519369 0.706386
O O9 0.995756 0.590249 0.432912
O O10 0.565598 0.418006 0.847556
O O11 0.547659 0.557031 0.747304
O O12 0.088173 0.185864 0.866870
O O13 0.506322 0.204926 0.921564
O O14 0.500000 0.500000 0.500000
O O15 0.350271 0.233896 0.359347
#
# Coordination Sequence:
#
# PCOD9034214 Si02
#       7
#     2   2   2   2   2   2   2
#     4  11  26  45  70 100 137 178 231 289 343 409
#     4  10  23  40  72 104 134 175 225 293 343 400
#     4  10  23  46  69 101 136 180 228 291 340 413
#     4  11  26  43  69 101 140 183 233 278 347 421
#     4  10  22  44  72 103 138 172 237 287 344 405
#     4  12  29  45  67  99 142 191 227 283 351 413
#     4  12  25  43  73 100 137 185 228 289 339 416
#
# _framework density 22.487597999999998
#
# number of rings (size 3 to 8) (size 9 to 14) (size 15 to 20)
#    0.000    1.143    1.429    3.429    8.000    2.286 
#    0.000    0.000    0.000    0.000    0.000    0.000 
#    0.000    0.000    0.000    0.000    0.000    0.000 
#
# Total GULP energy -78443.123985 kJ/mol
# GULP energy per Si atom -5603.080285 kJ/mol
# Density = 2.243642 g / cm^3
# Si number density = 22.487598 Si / 1000 Ang^3
#
#
#
# Elastic Constant Matrix: (Units=GPa)
#
#
# Indices 1 2 3 4 5 6 
#
# 1 86.2543 14.7129 11.5385 -12.9858 -0.6314 4.5478
# 2 14.7129 92.3039 25.5190 -6.0438 1.6069 4.5167
# 3 11.5385 25.5190 81.9745 9.4501 8.2587 -10.1031
# 4 -12.9858 -6.0438 9.4501 45.5438 -5.4243 1.9364
# 5 -0.6314 1.6069 8.2587 -5.4243 30.9576 -3.2261
# 6 4.5478 4.5167 -10.1031 1.9364 -3.2261 22.2524
#
#
#
# Elastic Compliance Matrix: (Units=1/GPa)
#
#
# Indices 1 2 3 4 5 6 
#
# 1 0.012992 -0.000866 -0.002697 0.004483 0.001410 -0.003890
# 2 -0.000866 0.012691 -0.004780 0.002699 0.000580 -0.004720
# 3 -0.002697 -0.004780 0.016222 -0.005644 -0.004210 0.008767
# 4 0.004483 0.002699 -0.005644 0.025638 0.005378 -0.005477
# 5 0.001410 0.000580 -0.004210 0.005378 0.034599 0.002231
# 6 -0.003890 -0.004720 0.008767 -0.005477 0.002231 0.051473
#
#
# Mechanical properties :
#
#
# Convention : Reuss Voigt Hill
#
# Bulk Modulus (GPa) = 39.65349 40.45259 40.05304
# Shear Modulus (GPa) = 27.97872 33.66826 30.82349
#
# Velocity S-wave (km/s) = 3.53113 3.87355 3.70630
# Velocity P-wave (km/s) = 5.85636 6.16715 6.01376
#
# Compressibility (1/GPa) = 0.02521846
#
# Stress axis : x y z
#
# Youngs Moduli (GPa) = 76.96777 78.79642 61.64496
#
# Poissons Ratio (x) = 0.06823 0.16628
# Poissons Ratio (y) = 0.06665 0.29467
# Poissons Ratio (z) = 0.20761 0.37666
#
# Static dielectric constant tensor:
#      x y z
#    x 1.833660 -0.008150 0.018450 
#    y -0.008150 1.811200 0.010020 
#    z 0.018450 0.010020 1.815930 
# 
# From -- ./inp_files/543480.got.cif
#   From: 2010.05.17/outbox.cif.g08.bks.cpg/sg2_272_cif.got.tgz:543480.got - 2010.06.03 11:33:40.
