data_PCOD9034520
_publ_section_title
;
Structure prediction by ZEFSAII (Michael W. Deem and Ramdas Pophale) SiO2 
 PCOD9034520
Probable space group: P -1
;
_chemical_formula_sum "Si O2"
_cell_formula_units_Z 14
_cell_length_a 8.055854
_cell_length_b 12.713643
_cell_length_c 11.884146
_cell_angle_alpha 48.677442
_cell_angle_beta 50.411220
_cell_angle_gamma 88.190468
_cell_volume 521.350202
_symmetry_space_group_name_H-M "P -1"
_symmetry_group_IT_number 2
_symmetry_cell_setting 'triclinic'
loop_
_space_group_symop_operation_xyz
x,y,z
-x,-y,-z
loop_
_atom_site_type_symbol
_atom_site_label
_atom_site_fract_x
_atom_site_fract_y
_atom_site_fract_z
Si Si1 0.931773 0.605406 0.028158
Si Si2 0.170456 0.905472 0.194159
Si Si3 0.394615 0.049744 0.775603
Si Si4 0.349968 0.136473 0.254814
Si Si5 0.198130 0.015159 0.634873
Si Si6 0.704231 0.453924 0.461089
Si Si7 0.653318 0.488484 0.711514
O O1 0.953757 0.588979 0.165022
O O2 0.603963 0.514059 0.205133
O O3 0.000000 0.500000 0.000000
O O4 0.124307 0.825760 0.763097
O O5 0.931218 0.693926 0.492116
O O6 0.096349 0.022257 0.198262
O O7 0.500000 0.000000 0.000000
O O8 0.127456 0.899388 0.081478
O O9 0.317394 0.061796 0.675672
O O10 0.553754 0.247314 0.627938
O O11 0.573913 0.985277 0.734357
O O12 0.404222 0.170558 0.341736
O O13 0.524740 0.324466 0.972985
O O14 0.000000 0.000000 0.500000
O O15 0.500000 0.500000 0.500000
O O16 0.749932 0.462975 0.568314
#
# Coordination Sequence:
#
# PCOD9034520 Si02
#       7
#     2   2   2   2   2   2   2
#     4  11  23  46  81 122 165 213 270 335 410 493
#     4  12  28  52  84 117 160 211 275 347 416 482
#     4  12  27  48  83 116 160 223 271 335 413 484
#     4  12  27  50  79 118 173 214 269 341 409 489
#     4  12  25  51  80 115 168 214 272 336 407 494
#     4  10  22  44  78 118 161 209 275 339 395 496
#     4  11  26  51  79 119 166 213 273 336 410 488
#
# _framework density 26.853351
#
# number of rings (size 3 to 8) (size 9 to 14) (size 15 to 20)
#    0.000    0.571    1.429    6.857    2.000    2.286 
#    2.571    0.000    0.000    0.000    0.000    0.000 
#    0.000    0.000    0.000    0.000    0.000    0.000 
#
# Total GULP energy -78642.910114 kJ/mol
# GULP energy per Si atom -5617.350722 kJ/mol
# Density = 2.679223 g / cm^3
# Si number density = 26.853351 Si / 1000 Ang^3
#
#
#
# Elastic Constant Matrix: (Units=GPa)
#
#
# Indices 1 2 3 4 5 6 
#
# 1 139.6152 68.8416 68.7976 6.6665 13.4925 -11.6895
# 2 68.8416 198.6500 72.4015 19.2590 17.5374 -19.0569
# 3 68.7976 72.4015 227.6868 11.1449 38.8756 1.3283
# 4 6.6665 19.2590 11.1449 59.2341 6.3211 -1.4259
# 5 13.4925 17.5374 38.8756 6.3211 49.2661 5.5441
# 6 -11.6895 -19.0569 1.3283 -1.4259 5.5441 46.3911
#
#
#
# Elastic Compliance Matrix: (Units=1/GPa)
#
#
# Indices 1 2 3 4 5 6 
#
# 1 0.009511 -0.002380 -0.002081 0.000165 -0.000307 0.001520
# 2 -0.002380 0.006745 -0.001219 -0.001551 -0.000842 0.002259
# 3 -0.002081 -0.001219 0.006045 -0.000134 -0.003663 -0.000765
# 4 0.000165 -0.001551 -0.000134 0.017574 -0.001658 0.000146
# 5 -0.000307 -0.000842 -0.003663 -0.001658 0.024151 -0.003256
# 6 0.001520 0.002259 -0.000765 0.000146 -0.003256 0.023282
#
#
# Mechanical properties :
#
#
# Convention : Reuss Voigt Hill
#
# Bulk Modulus (GPa) = 91.41414 109.55927 100.48670
# Shear Modulus (GPa) = 48.86843 54.70567 51.78705
#
# Velocity S-wave (km/s) = 4.27057 4.51843 4.39625
# Velocity P-wave (km/s) = 7.64414 8.25284 7.95431
#
# Compressibility (1/GPa) = 0.01093923
#
# Stress axis : x y z
#
# Youngs Moduli (GPa) = 105.14129 148.26700 165.42848
#
# Poissons Ratio (x) = 0.35294 0.34432
# Poissons Ratio (y) = 0.25028 0.20163
# Poissons Ratio (z) = 0.21884 0.18071
#
# Static dielectric constant tensor:
#      x y z
#    x 2.235570 0.039620 0.011870 
#    y 0.039620 2.033790 -0.013800 
#    z 0.011870 -0.013800 2.137650 
# 
# From -- ./inp_files/260784.got.cif
#   From: 2010.05.17/outbox.cif.g08.bks.cpg/sg2_131_cif.got.tgz:260784.got - 2010.06.03 11:33:40.
