data_PCOD9034302
_publ_section_title
;
Structure prediction by ZEFSAII (Michael W. Deem and Ramdas Pophale) SiO2 
 PCOD9034302
Probable space group: P -1
;
_chemical_formula_sum "Si O2"
_cell_formula_units_Z 16
_cell_length_a 7.223701
_cell_length_b 12.180927
_cell_length_c 11.903799
_cell_angle_alpha 130.486076
_cell_angle_beta 87.527876
_cell_angle_gamma 122.735419
_cell_volume 587.368052
_symmetry_space_group_name_H-M "P -1"
_symmetry_group_IT_number 2
_symmetry_cell_setting 'triclinic'
loop_
_space_group_symop_operation_xyz
x,y,z
-x,-y,-z
loop_
_atom_site_type_symbol
_atom_site_label
_atom_site_fract_x
_atom_site_fract_y
_atom_site_fract_z
Si Si1 0.461055 0.291964 0.313256
Si Si2 0.739025 0.021449 0.481844
Si Si3 0.965546 0.747922 0.810650
Si Si4 0.403663 0.946204 0.776756
Si Si5 0.277583 0.238157 0.534907
Si Si6 0.447608 0.608241 0.146923
Si Si7 0.080159 0.650815 0.959145
Si Si8 0.001489 0.572343 0.396376
O O1 0.256973 0.261447 0.220185
O O2 0.496146 0.138223 0.210755
O O3 0.376010 0.285240 0.437594
O O4 0.737167 0.485557 0.394665
O O5 0.784093 0.960145 0.558204
O O6 0.500000 0.000000 0.500000
O O7 0.756196 0.208940 0.424589
O O8 0.023835 0.192779 0.541896
O O9 0.204322 0.921712 0.845134
O O10 0.942129 0.564397 0.653051
O O11 0.017050 0.753010 0.944165
O O12 0.642478 0.168158 0.889097
O O13 0.369673 0.160180 0.718042
O O14 0.505431 0.608252 0.278355
O O15 0.500000 0.500000 0.000000
O O16 0.159015 0.488088 0.048777
O O17 0.049418 0.495295 0.776799
#
# Coordination Sequence:
#
# PCOD9034302 Si02
#       8
#     2   2   2   2   2   2   2   2
#     4  11  21  39  70  99 137 183 224 278 341 426
#     4   9  21  44  72  99 129 177 237 283 351 412
#     4   9  22  40  60  99 136 179 225 268 337 425
#     4  11  22  38  64  87 144 175 229 272 338 405
#     4   9  22  41  70 101 133 176 233 292 344 414
#     4  10  22  44  72  99 137 178 230 299 358 401
#     4  10  23  44  63  98 142 181 222 294 345 408
#     4   9  23  41  60  97 138 180 226 271 343 414
#
# _framework density 27.240159999999999
#
# number of rings (size 3 to 8) (size 9 to 14) (size 15 to 20)
#    1.500    0.750    0.000    2.625    3.500    4.500 
#    0.000    0.625    0.000    0.000    0.000    0.000 
#    0.000    0.000    0.000    0.000    0.000    0.000 
#
# Total GULP energy -89441.792870 kJ/mol
# GULP energy per Si atom -5590.112054 kJ/mol
# Density = 2.717816 g / cm^3
# Si number density = 27.240160 Si / 1000 Ang^3
#
#
#
# Elastic Constant Matrix: (Units=GPa)
#
#
# Indices 1 2 3 4 5 6 
#
# 1 193.0845 48.2846 41.9657 11.8625 22.9766 29.1089
# 2 48.2846 148.0532 41.9899 35.9898 -3.0705 49.8304
# 3 41.9657 41.9899 100.8585 28.0636 15.7010 12.8071
# 4 11.8625 35.9898 28.0636 59.1635 3.9268 13.1780
# 5 22.9766 -3.0705 15.7010 3.9268 46.3536 -3.5964
# 6 29.1089 49.8304 12.8071 13.1780 -3.5964 43.4781
#
#
#
# Elastic Compliance Matrix: (Units=1/GPa)
#
#
# Indices 1 2 3 4 5 6 
#
# 1 0.006598 -0.000738 -0.001772 0.000973 -0.003081 -0.003599
# 2 -0.000738 0.012762 -0.002657 -0.003762 0.001492 -0.012086
# 3 -0.001772 -0.002657 0.013338 -0.004440 -0.003333 0.001372
# 4 0.000973 -0.003762 -0.004440 0.021550 -0.001182 -0.001661
# 5 -0.003081 0.001492 -0.003333 -0.001182 0.024718 0.003737
# 6 -0.003599 -0.012086 0.001372 -0.001661 0.003737 0.039670
#
#
# Mechanical properties :
#
#
# Convention : Reuss Voigt Hill
#
# Bulk Modulus (GPa) = 44.71480 78.49739 61.60610
# Shear Modulus (GPa) = 36.65005 50.44947 43.54976
#
# Velocity S-wave (km/s) = 3.67201 4.30819 4.00275
# Velocity P-wave (km/s) = 5.86761 7.32302 6.63534
#
# Compressibility (1/GPa) = 0.02236396
#
# Stress axis : x y z
#
# Youngs Moduli (GPa) = 151.55344 78.35938 74.97222
#
# Poissons Ratio (x) = 0.05786 0.13286
# Poissons Ratio (y) = 0.11190 0.19918
# Poissons Ratio (z) = 0.26857 0.20818
#
# Static dielectric constant tensor:
#      x y z
#    x 2.343230 -0.222140 -0.075750 
#    y -0.222140 2.316040 0.020420 
#    z -0.075750 0.020420 2.202320 
# 
# From -- ./inp_files/367970.got.cif
#   From: 2010.05.17/outbox.cif.g08.bks.cpg/sg2_184_cif.got.tgz:367970.got - 2010.06.03 11:33:40.
