data_PCOD9034307
_publ_section_title
;
Structure prediction by ZEFSAII (Michael W. Deem and Ramdas Pophale) SiO2 
 PCOD9034307
Probable space group: P -1
;
_chemical_formula_sum "Si O2"
_cell_formula_units_Z 16
_cell_length_a 17.091555
_cell_length_b 10.177193
_cell_length_c 12.996656
_cell_angle_alpha 115.210794
_cell_angle_beta 36.898038
_cell_angle_gamma 140.852679
_cell_volume 735.818824
_symmetry_space_group_name_H-M "P -1"
_symmetry_group_IT_number 2
_symmetry_cell_setting 'triclinic'
loop_
_space_group_symop_operation_xyz
x,y,z
-x,-y,-z
loop_
_atom_site_type_symbol
_atom_site_label
_atom_site_fract_x
_atom_site_fract_y
_atom_site_fract_z
Si Si1 0.816783 0.773440 0.256649
Si Si2 0.720067 0.788556 0.146666
Si Si3 0.748295 0.255812 0.292089
Si Si4 0.264799 0.496901 0.464153
Si Si5 0.858488 0.920420 0.476902
Si Si6 0.674476 0.520031 0.831393
Si Si7 0.434421 0.673172 0.903339
Si Si8 0.790273 0.440643 0.094997
O O1 0.777979 0.842570 0.223855
O O2 0.746985 0.778828 0.438251
O O3 0.720506 0.531604 0.250128
O O4 0.075955 0.982742 0.058990
O O5 0.506396 0.686089 0.315668
O O6 0.667754 0.575860 0.100856
O O7 0.824148 0.458651 0.352679
O O8 0.748620 0.290822 0.181220
O O9 0.500000 0.000000 0.500000
O O10 0.948767 0.323766 0.121181
O O11 0.135888 0.229148 0.520724
O O12 0.302457 0.550460 0.321474
O O13 0.693057 0.883503 0.691912
O O14 0.091733 0.196222 0.305380
O O15 0.500000 0.500000 0.000000
O O16 0.622180 0.367684 0.930836
O O17 0.335097 0.687770 0.924377
#
# Coordination Sequence:
#
# PCOD9034307 Si02
#       8
#     2   2   2   2   2   2   2   2
#     4  10  17  32  56  87 125 149 187 238 300 361
#     4   9  18  30  54  89 120 157 180 235 303 357
#     4  11  24  42  63  85 115 159 204 256 295 338
#     4  11  22  37  57  88 119 157 199 237 292 356
#     4  11  21  34  60  92 122 159 188 234 301 365
#     4  12  22  39  58  92 130 156 190 233 295 366
#     4  10  22  36  57  88 124 157 192 243 290 355
#     4  10  23  40  58  87 120 152 204 251 294 342
#
# _framework density 21.744484
#
# number of rings (size 3 to 8) (size 9 to 14) (size 15 to 20)
#    0.000    1.500    5.000    1.125    1.750    2.500 
#    0.000    0.625    0.000    1.500    0.000    0.000 
#    0.000    0.000    0.000    0.000    0.000    0.000 
#
# Total GULP energy -89307.068285 kJ/mol
# GULP energy per Si atom -5581.691768 kJ/mol
# Density = 2.169499 g / cm^3
# Si number density = 21.744484 Si / 1000 Ang^3
#
#
#
# Elastic Constant Matrix: (Units=GPa)
#
#
# Indices 1 2 3 4 5 6 
#
# 1 97.0021 15.3251 45.3154 9.0205 18.0153 16.2061
# 2 15.3251 18.1338 18.7464 0.7991 -8.3611 7.8567
# 3 45.3154 18.7464 112.2723 -12.8353 11.4114 12.6206
# 4 9.0205 0.7991 -12.8353 40.1157 13.6571 3.4710
# 5 18.0153 -8.3611 11.4114 13.6571 38.9704 3.6276
# 6 16.2061 7.8567 12.6206 3.4710 3.6276 16.4375
#
#
#
# Elastic Compliance Matrix: (Units=1/GPa)
#
#
# Indices 1 2 3 4 5 6 
#
# 1 0.016254 -0.011276 -0.003334 -0.001267 -0.007949 -0.006053
# 2 -0.011276 0.124250 -0.018598 -0.018587 0.047607 -0.040572
# 3 -0.003334 -0.018598 0.015434 0.009535 -0.010366 0.000600
# 4 -0.001267 -0.018587 0.009535 0.034939 -0.018392 -0.000507
# 5 -0.007949 0.047607 -0.010366 -0.018392 0.050351 -0.014187
# 6 -0.006053 -0.040572 0.000600 -0.000507 -0.014187 0.088975
#
#
# Mechanical properties :
#
#
# Convention : Reuss Voigt Hill
#
# Bulk Modulus (GPa) = 11.17055 42.90911 27.03983
# Shear Modulus (GPa) = 11.72448 28.97280 20.34864
#
# Velocity S-wave (km/s) = 2.32457 3.65419 3.06242
# Velocity P-wave (km/s) = 3.51471 6.13028 4.99668
#
# Compressibility (1/GPa) = 0.08952114
#
# Stress axis : x y z
#
# Youngs Moduli (GPa) = 61.52516 8.04831 64.79161
#
# Poissons Ratio (x) = 0.09076 0.21600
# Poissons Ratio (y) = 0.69379 1.20499
# Poissons Ratio (z) = 0.20511 0.14968
#
# Static dielectric constant tensor:
#      x y z
#    x 1.847110 0.002260 0.028270 
#    y 0.002260 1.846050 0.027870 
#    z 0.028270 0.027870 1.832970 
# 
# From -- ./inp_files/464664.got.cif
#   From: 2010.05.17/outbox.cif.g08.bks.cpg/sg2_233_cif.got.tgz:464664.got - 2010.06.03 11:33:40.
