data_PCOD9034228
_publ_section_title
;
Structure prediction by ZEFSAII (Michael W. Deem and Ramdas Pophale) SiO2 
 PCOD9034228
Probable space group: P -1
;
_chemical_formula_sum "Si O2"
_cell_formula_units_Z 16
_cell_length_a 8.890659
_cell_length_b 15.343916
_cell_length_c 5.632613
_cell_angle_alpha 95.023875
_cell_angle_beta 109.072239
_cell_angle_gamma 78.953967
_cell_volume 712.496091
_symmetry_space_group_name_H-M "P -1"
_symmetry_group_IT_number 2
_symmetry_cell_setting 'triclinic'
loop_
_space_group_symop_operation_xyz
x,y,z
-x,-y,-z
loop_
_atom_site_type_symbol
_atom_site_label
_atom_site_fract_x
_atom_site_fract_y
_atom_site_fract_z
Si Si1 0.209079 0.834342 0.855226
Si Si2 0.390160 0.093928 0.406878
Si Si3 0.137565 0.030679 0.916246
Si Si4 0.369048 0.770753 0.431493
Si Si5 0.988200 0.371509 0.560676
Si Si6 0.907556 0.828402 0.445855
Si Si7 0.639634 0.427063 0.658635
Si Si8 0.125998 0.521387 0.874338
O O1 0.276717 0.779067 0.641245
O O2 0.019970 0.828737 0.735307
O O3 0.227966 0.936221 0.839697
O O4 0.277988 0.806699 0.145888
O O5 0.495356 0.169740 0.436825
O O6 0.274766 0.131933 0.573637
O O7 0.500000 0.000000 0.500000
O O8 0.270343 0.075169 0.131818
O O9 0.047507 0.099915 0.697151
O O10 0.000000 0.000000 0.000000
O O11 0.421085 0.666447 0.381477
O O12 0.812700 0.404687 0.600519
O O13 0.947314 0.385925 0.265916
O O14 0.061634 0.272450 0.650417
O O15 0.117428 0.437472 0.681814
O O16 0.500000 0.500000 0.500000
O O17 0.700940 0.467477 0.939962
O O18 0.000000 0.500000 0.000000
#
# Coordination Sequence:
#
# PCOD9034228 Si02
#       8
#     2   2   2   2   2   2   2   2
#     4  12  25  49  76 104 148 197 255 297 371 443
#     4  12  28  46  69 105 149 191 245 312 375 431
#     4  12  26  45  74 106 145 199 255 306 370 443
#     4  12  28  48  76 109 154 196 245 315 374 447
#     4  10  22  44  72 105 136 190 243 304 358 445
#     4  12  26  43  76 107 142 197 257 301 368 449
#     4  11  25  44  70 105 144 190 239 301 379 438
#     4   9  21  43  72  98 143 180 239 301 365 433
#
# _framework density 22.456263
#
# number of rings (size 3 to 8) (size 9 to 14) (size 15 to 20)
#    0.000    0.750    3.750    2.625    1.750    7.500 
#    0.000    0.000    0.000    0.000    0.000    0.000 
#    0.000    0.000    0.000    0.000    0.000    0.000 
#
# Total GULP energy -89297.937138 kJ/mol
# GULP energy per Si atom -5581.121071 kJ/mol
# Density = 2.240515 g / cm^3
# Si number density = 22.456263 Si / 1000 Ang^3
#
#
#
# Elastic Constant Matrix: (Units=GPa)
#
#
# Indices 1 2 3 4 5 6 
#
# 1 81.9047 40.8812 15.3911 4.4727 10.8710 -4.4142
# 2 40.8812 194.0782 46.9873 -7.7413 25.6405 -1.2271
# 3 15.3911 46.9873 104.6485 1.5796 24.1402 -9.1012
# 4 4.4727 -7.7413 1.5796 35.0271 14.4401 8.5956
# 5 10.8710 25.6405 24.1402 14.4401 37.6073 4.8443
# 6 -4.4142 -1.2271 -9.1012 8.5956 4.8443 30.9702
#
#
#
# Elastic Compliance Matrix: (Units=1/GPa)
#
#
# Indices 1 2 3 4 5 6 
#
# 1 0.014131 -0.002822 -0.000206 -0.002511 -0.001421 0.002761
# 2 -0.002822 0.006887 -0.001913 0.003900 -0.004002 -0.001148
# 3 -0.000206 -0.001913 0.012604 0.001121 -0.007736 0.004498
# 4 -0.002511 0.003900 0.001121 0.038383 -0.016364 -0.007967
# 5 -0.001421 -0.004002 -0.007736 -0.016364 0.041571 -0.004595
# 6 0.002761 -0.001148 0.004498 -0.007967 -0.004595 0.036889
#
#
# Mechanical properties :
#
#
# Convention : Reuss Voigt Hill
#
# Bulk Modulus (GPa) = 42.12102 65.23894 53.67998
# Shear Modulus (GPa) = 29.71620 39.21238 34.46429
#
# Velocity S-wave (km/s) = 3.64165 4.18325 3.92181
# Velocity P-wave (km/s) = 6.03985 7.24206 6.66810
#
# Compressibility (1/GPa) = 0.02374112
#
# Stress axis : x y z
#
# Youngs Moduli (GPa) = 70.76720 145.20001 79.34091
#
# Poissons Ratio (x) = 0.40973 0.01631
# Poissons Ratio (y) = 0.19969 0.15177
# Poissons Ratio (z) = 0.01455 0.27775
#
# Static dielectric constant tensor:
#      x y z
#    x 1.951740 -0.030190 -0.077160 
#    y -0.030190 1.876360 0.050100 
#    z -0.077160 0.050100 1.922500 
# 
# From -- ./inp_files/38972.got.cif
#   From: 2010.05.17/outbox.cif.g08.bks.cpg/sg2_20_cif.got.tgz:38972.got - 2010.06.03 11:33:40.
