data_PCOD9034523
_publ_section_title
;
Structure prediction by ZEFSAII (Michael W. Deem and Ramdas Pophale) SiO2 
 PCOD9034523
Probable space group: P -1
;
_chemical_formula_sum "Si O2"
_cell_formula_units_Z 11
_cell_length_a 14.223960
_cell_length_b 8.837295
_cell_length_c 11.024590
_cell_angle_alpha 153.919285
_cell_angle_beta 136.962464
_cell_angle_gamma 47.500730
_cell_volume 414.957014
_symmetry_space_group_name_H-M "P -1"
_symmetry_group_IT_number 2
_symmetry_cell_setting 'triclinic'
loop_
_space_group_symop_operation_xyz
x,y,z
-x,-y,-z
loop_
_atom_site_type_symbol
_atom_site_label
_atom_site_fract_x
_atom_site_fract_y
_atom_site_fract_z
Si Si1 0.316013 0.343149 0.740541
Si Si2 0.897128 0.376822 0.554997
Si Si3 0.878602 0.616897 0.064841
Si Si4 0.000000 0.500000 0.500000
Si Si5 0.634920 0.873704 0.637152
Si Si6 0.581357 0.663788 0.892057
O O1 0.368981 0.139716 0.523412
O O2 0.151255 0.327163 0.566498
O O3 0.369081 0.263206 0.869967
O O4 0.360715 0.732042 0.037463
O O5 0.917742 0.289979 0.372384
O O6 0.780312 0.677633 0.670275
O O7 0.043438 0.507542 0.829371
O O8 0.864474 0.034663 0.348471
O O9 0.720059 0.530129 0.852670
O O10 0.000000 0.500000 0.000000
O O11 0.525601 0.632355 0.418147
O O12 0.500000 0.000000 0.000000
#
# Coordination Sequence:
#
# PCOD9034523 Si02
#       6
#     2   2   2   1   2   2
#     4  11  26  49  79 120 157 209 270 334 402 473
#     4  10  23  44  70 110 147 202 264 325 389 465
#     4  11  25  46  71 109 159 203 268 323 393 477
#     4  10  22  44  80 102 156 196 270 320 390 462
#     4  11  26  49  81 116 161 201 272 339 400 477
#     4  12  25  51  79 115 162 214 265 323 419 477
#
# _framework density 26.508769999999998
#
# number of rings (size 3 to 8) (size 9 to 14) (size 15 to 20)
#    0.000    1.091    3.636    1.091    5.091    5.818 
#    6.545    4.545    0.000    0.000    0.000    0.000 
#    0.000    0.000    0.000    0.000    0.000    0.000 
#
# Total GULP energy -61321.617146 kJ/mol
# GULP energy per Si atom -5574.692468 kJ/mol
# Density = 2.644843 g / cm^3
# Si number density = 26.508770 Si / 1000 Ang^3
#
#
#
# Elastic Constant Matrix: (Units=GPa)
#
#
# Indices 1 2 3 4 5 6 
#
# 1 157.1981 36.2276 43.5826 -4.9237 20.4248 -28.8867
# 2 36.2276 181.1275 44.4974 4.2458 23.9308 -27.4785
# 3 43.5826 44.4974 98.3525 -0.6413 5.4458 -20.8783
# 4 -4.9237 4.2458 -0.6413 34.1051 -18.4367 4.6561
# 5 20.4248 23.9308 5.4458 -18.4367 41.1447 -7.1007
# 6 -28.8867 -27.4785 -20.8783 4.6561 -7.1007 37.8490
#
#
#
# Elastic Compliance Matrix: (Units=1/GPa)
#
#
# Indices 1 2 3 4 5 6 
#
# 1 0.008319 0.000208 -0.002617 -0.001558 -0.003820 0.004531
# 2 0.000208 0.007464 -0.002394 -0.004406 -0.005450 0.003776
# 3 -0.002617 -0.002394 0.013109 0.000687 0.001915 0.003770
# 4 -0.001558 -0.004406 0.000687 0.041749 0.021056 -0.005194
# 5 -0.003820 -0.005450 0.001915 0.021056 0.038343 -0.001213
# 6 0.004531 0.003776 0.003770 -0.005194 -0.001213 0.035112
#
#
# Mechanical properties :
#
#
# Convention : Reuss Voigt Hill
#
# Bulk Modulus (GPa) = 51.85368 76.14371 63.99870
# Shear Modulus (GPa) = 31.22404 43.44445 37.33424
#
# Velocity S-wave (km/s) = 3.43574 4.05269 3.75690
# Velocity P-wave (km/s) = 5.94496 7.11937 6.55850
#
# Compressibility (1/GPa) = 0.01928503
#
# Stress axis : x y z
#
# Youngs Moduli (GPa) = 120.20054 133.97973 76.28165
#
# Poissons Ratio (x) = -0.02783 0.19965
# Poissons Ratio (y) = -0.02497 0.18264
# Poissons Ratio (z) = 0.31459 0.32078
#
# Static dielectric constant tensor:
#      x y z
#    x 2.036280 0.024720 -0.081060 
#    y 0.024720 2.099510 -0.066110 
#    z -0.081060 -0.066110 2.098320 
# 
# From -- ./inp_files/445440.got.cif
#   From: 2010.05.17/outbox.cif.g08.bks.cpg/sg2_223_cif.got.tgz:445440.got - 2010.06.03 11:33:40.
