data_PCOD9034875
_publ_section_title
;
Structure prediction by ZEFSAII (Michael W. Deem and Ramdas Pophale) SiO2 
 PCOD9034875
Probable space group: P -1
;
_chemical_formula_sum "Si O2"
_cell_formula_units_Z 16
_cell_length_a 5.339505
_cell_length_b 18.830357
_cell_length_c 22.041137
_cell_angle_alpha 161.281652
_cell_angle_beta 119.695998
_cell_angle_gamma 59.067059
_cell_volume 609.742183
_symmetry_space_group_name_H-M "P -1"
_symmetry_group_IT_number 2
_symmetry_cell_setting 'triclinic'
loop_
_space_group_symop_operation_xyz
x,y,z
-x,-y,-z
loop_
_atom_site_type_symbol
_atom_site_label
_atom_site_fract_x
_atom_site_fract_y
_atom_site_fract_z
Si Si1 0.257745 0.709882 0.622880
Si Si2 0.906920 0.236808 0.844155
Si Si3 0.237895 0.863606 0.873371
Si Si4 0.015550 0.685407 0.223172
Si Si5 0.213860 0.127832 0.534018
Si Si6 0.550299 0.987800 0.206450
Si Si7 0.324736 0.417926 0.598627
Si Si8 0.619348 0.453220 0.154512
O O1 0.500000 0.500000 0.500000
O O2 0.111371 0.804839 0.745301
O O3 0.010536 0.627236 0.484634
O O4 0.416870 0.895874 0.759765
O O5 0.141963 0.165387 0.866200
O O6 0.021245 0.222620 0.775471
O O7 0.801288 0.499437 0.053444
O O8 0.746158 0.024076 0.645579
O O9 0.351880 0.626604 0.727094
O O10 0.500000 0.000000 0.000000
O O11 0.000000 0.000000 0.000000
O O12 0.339608 0.540347 0.148960
O O13 0.996710 0.830874 0.399104
O O14 0.167406 0.383275 0.710963
O O15 0.500000 0.000000 0.500000
O O16 0.511104 0.189883 0.412735
O O17 0.326248 0.815919 0.055078
O O18 0.420380 0.481938 0.727700
#
# Coordination Sequence:
#
# PCOD9034875 Si02
#       8
#     2   2   2   2   2   2   2   2
#     4  12  26  51  77 109 152 200 255 312 395 473
#     4  10  22  45  69 100 143 194 242 309 373 437
#     4  12  28  50  84 119 156 204 258 324 399 481
#     4  10  23  45  67  98 145 191 247 306 365 451
#     4  12  24  39  68  99 136 190 247 302 372 441
#     4  11  26  47  74 106 148 196 249 319 380 461
#     4  12  27  46  79 109 151 194 255 316 384 463
#     4  11  26  45  67 109 145 195 248 308 380 445
#
# _framework density 26.240599
#
# number of rings (size 3 to 8) (size 9 to 14) (size 15 to 20)
#    0.000    0.750    2.500    3.750    5.250    3.500 
#    0.000    0.000    0.000    0.000    0.000    0.000 
#    0.000    0.000    0.000    0.000    0.000    0.000 
#
# Total GULP energy -89356.401522 kJ/mol
# GULP energy per Si atom -5584.775095 kJ/mol
# Density = 2.618087 g / cm^3
# Si number density = 26.240599 Si / 1000 Ang^3
#
#
#
# Elastic Constant Matrix: (Units=GPa)
#
#
# Indices 1 2 3 4 5 6 
#
# 1 50.1922 7.0658 -7.3878 2.4396 4.8533 11.3871
# 2 7.0658 123.7543 18.5133 13.0438 1.4653 27.0897
# 3 -7.3878 18.5133 111.5209 -10.3782 3.4734 36.5155
# 4 2.4396 13.0438 -10.3782 49.9374 10.8031 14.3237
# 5 4.8533 1.4653 3.4734 10.8031 34.1154 -0.3311
# 6 11.3871 27.0897 36.5155 14.3237 -0.3311 42.1007
#
#
#
# Elastic Compliance Matrix: (Units=1/GPa)
#
#
# Indices 1 2 3 4 5 6 
#
# 1 0.024793 0.000291 0.007407 0.006053 -0.006360 -0.015426
# 2 0.000291 0.009454 0.000558 -0.000405 -0.000439 -0.006511
# 3 0.007407 0.000558 0.017486 0.010591 -0.006417 -0.021182
# 4 0.006053 -0.000405 0.010591 0.030642 -0.011830 -0.021080
# 5 -0.006360 -0.000439 -0.006417 -0.011830 0.034750 0.011867
# 6 -0.015426 -0.006511 -0.021182 -0.021080 0.011867 0.057752
#
#
# Mechanical properties :
#
#
# Convention : Reuss Voigt Hill
#
# Bulk Modulus (GPa) = 14.65356 35.76112 25.20734
# Shear Modulus (GPa) = 27.60678 43.04910 35.32794
#
# Velocity S-wave (km/s) = 3.24707 4.05477 3.67319
# Velocity P-wave (km/s) = 4.43333 5.96484 5.25517
#
# Compressibility (1/GPa) = 0.06824278
#
# Stress axis : x y z
#
# Youngs Moduli (GPa) = 40.33359 105.77954 57.18808
#
# Poissons Ratio (x) = -0.03073 -0.42357
# Poissons Ratio (y) = -0.01172 -0.03190
# Poissons Ratio (z) = -0.29874 -0.05900
#
# Static dielectric constant tensor:
#      x y z
#    x 2.398660 -0.048680 0.362200 
#    y -0.048680 2.019600 0.019050 
#    z 0.362200 0.019050 2.535340 
# 
# From -- ./inp_files/582253.got.cif
#   From: 2010.05.17/outbox.cif.g08.bks.cpg/sg2_292_cif.got.tgz:582253.got - 2010.06.03 11:33:40.
