data_PCOD9034226
_publ_section_title
;
Structure prediction by ZEFSAII (Michael W. Deem and Ramdas Pophale) SiO2 
 PCOD9034226
Probable space group: P -1
;
_chemical_formula_sum "Si O2"
_cell_formula_units_Z 12
_cell_length_a 11.613858
_cell_length_b 14.860823
_cell_length_c 12.570823
_cell_angle_alpha 153.601913
_cell_angle_beta 148.744532
_cell_angle_gamma 27.547087
_cell_volume 426.245977
_symmetry_space_group_name_H-M "P -1"
_symmetry_group_IT_number 2
_symmetry_cell_setting 'triclinic'
loop_
_space_group_symop_operation_xyz
x,y,z
-x,-y,-z
loop_
_atom_site_type_symbol
_atom_site_label
_atom_site_fract_x
_atom_site_fract_y
_atom_site_fract_z
Si Si1 0.738933 0.541728 0.102274
Si Si2 0.500000 0.500000 0.500000
Si Si3 0.000000 0.500000 0.500000
Si Si4 0.261520 0.987358 0.248660
Si Si5 0.996887 0.292217 0.682292
Si Si6 0.916794 0.969274 0.142460
Si Si7 0.525760 0.103806 0.240039
O O1 0.427888 0.722967 0.048845
O O2 0.862052 0.645405 0.229121
O O3 0.850767 0.516180 0.283331
O O4 0.851707 0.269149 0.870784
O O5 0.749789 0.514056 0.774013
O O6 0.530386 0.639102 0.560715
O O7 0.104569 0.217895 0.297220
O O8 0.065762 0.011468 0.211219
O O9 0.500000 0.000000 0.500000
O O10 0.197767 0.072247 0.676240
O O11 0.808598 0.203690 0.382681
O O12 0.690677 0.916275 0.885565
O O13 0.500000 0.000000 0.000000
#
# Coordination Sequence:
#
# PCOD9034226 Si02
#       7
#     2   1   1   2   2   2   2
#     4  11  25  46  74 113 151 205 253 310 377 448
#     4  12  26  52  80 110 148 198 254 334 384 452
#     4  10  22  44  72 104 156 190 254 310 358 442
#     4  10  22  45  71 109 155 199 251 312 368 443
#     4  12  27  52  75 114 156 192 263 326 377 464
#     4  12  25  49  75 113 152 208 255 308 390 449
#     4  12  29  49  78 113 147 199 260 318 396 458
#
# _framework density 28.152757000000001
#
# number of rings (size 3 to 8) (size 9 to 14) (size 15 to 20)
#    0.000    0.667    6.667    1.000    2.333    2.667 
#    6.000    0.000    0.000    0.000    0.000    0.000 
#    0.000    0.000    0.000    0.000    0.000    0.000 
#
# Total GULP energy -66809.087324 kJ/mol
# GULP energy per Si atom -5567.423944 kJ/mol
# Density = 2.808868 g / cm^3
# Si number density = 28.152757 Si / 1000 Ang^3
#
#
#
# Elastic Constant Matrix: (Units=GPa)
#
#
# Indices 1 2 3 4 5 6 
#
# 1 150.3789 71.7294 60.8647 -7.7918 56.3300 1.2077
# 2 71.7294 310.5474 67.8736 5.6450 30.3300 34.2869
# 3 60.8647 67.8736 100.4347 7.9561 17.3677 11.5978
# 4 -7.7918 5.6450 7.9561 60.7439 -13.6644 7.4268
# 5 56.3300 30.3300 17.3677 -13.6644 41.8900 8.0802
# 6 1.2077 34.2869 11.5978 7.4268 8.0802 61.6149
#
#
#
# Elastic Compliance Matrix: (Units=1/GPa)
#
#
# Indices 1 2 3 4 5 6 
#
# 1 0.018167 -0.000983 -0.006801 -0.002341 -0.022570 0.004713
# 2 -0.000983 0.004116 -0.001859 -0.000176 -0.000593 -0.001822
# 3 -0.006801 -0.001859 0.014957 -0.001466 0.004201 -0.002022
# 4 -0.002341 -0.000176 -0.001466 0.019201 0.010785 -0.003309
# 5 -0.022570 -0.000593 0.004201 0.010785 0.058154 -0.008945
# 6 0.004713 -0.001822 -0.002022 -0.003309 -0.008945 0.019104
#
#
# Mechanical properties :
#
#
# Convention : Reuss Voigt Hill
#
# Bulk Modulus (GPa) = 55.69558 106.92182 81.30870
# Shear Modulus (GPa) = 31.45267 56.90931 44.18099
#
# Velocity S-wave (km/s) = 3.34610 4.50093 3.96578
# Velocity P-wave (km/s) = 5.89532 8.06677 7.06497
#
# Compressibility (1/GPa) = 0.01795474
#
# Stress axis : x y z
#
# Youngs Moduli (GPa) = 55.04543 242.96843 66.85703
#
# Poissons Ratio (x) = 0.23889 0.45467
# Poissons Ratio (y) = 0.05412 0.12427
# Poissons Ratio (z) = 0.37435 0.45160
#
# Static dielectric constant tensor:
#      x y z
#    x -68.838310 -20.755300 14.438650 
#    y -20.755300 -3.365550 4.248560 
#    z 14.438650 4.248560 -0.546660 
# 
# From -- ./inp_files/520528.got.cif
#   From: 2010.05.17/outbox.cif.g08.bks.cpg/sg2_261_cif.got.tgz:520528.got - 2010.06.03 11:33:40.
