data_PCOD9034822
_publ_section_title
;
Structure prediction by ZEFSAII (Michael W. Deem and Ramdas Pophale) SiO2 
 PCOD9034822
Probable space group: P -1
;
_chemical_formula_sum "Si O2"
_cell_formula_units_Z 10
_cell_length_a 11.339839
_cell_length_b 7.520541
_cell_length_c 7.421772
_cell_angle_alpha 121.814465
_cell_angle_beta 125.045030
_cell_angle_gamma 89.739124
_cell_volume 397.847221
_symmetry_space_group_name_H-M "P -1"
_symmetry_group_IT_number 2
_symmetry_cell_setting 'triclinic'
loop_
_space_group_symop_operation_xyz
x,y,z
-x,-y,-z
loop_
_atom_site_type_symbol
_atom_site_label
_atom_site_fract_x
_atom_site_fract_y
_atom_site_fract_z
Si Si1 0.135819 0.366747 0.193057
Si Si2 0.247612 0.179175 0.890996
Si Si3 0.806552 0.948564 0.623885
Si Si4 0.161313 0.698688 0.675658
Si Si5 0.495706 0.744955 0.087785
O O1 0.170596 0.615430 0.435947
O O2 0.190444 0.233740 0.323343
O O3 0.226926 0.373210 0.091763
O O4 0.948011 0.199387 0.916360
O O5 0.424650 0.202554 0.014651
O O6 0.172238 0.138463 0.604359
O O7 0.162251 0.947333 0.808217
O O8 0.627456 0.925802 0.432887
O O9 0.000000 0.500000 0.500000
O O10 0.319709 0.721619 0.927181
O O11 0.500000 0.500000 0.000000
#
# Coordination Sequence:
#
# PCOD9034822 Si02
#       5
#     2   2   2   2   2
#     4  11  21  43  70  97 130 182 217 268 338 392
#     4  10  24  42  69  97 136 171 221 277 325 393
#     4   9  21  40  66  96 136 171 217 271 328 390
#     4  12  24  42  71 100 134 174 223 275 329 393
#     4  10  22  45  68  95 139 177 212 281 331 382
#
# _framework density 25.135276000000001
#
# number of rings (size 3 to 8) (size 9 to 14) (size 15 to 20)
#    1.200    0.400    2.000    3.600    0.000    1.600 
#    0.000    8.000    0.000    0.000    0.000    0.000 
#    0.000    0.000    0.000    0.000    0.000    0.000 
#
# Total GULP energy -55928.878382 kJ/mol
# GULP energy per Si atom -5592.887838 kJ/mol
# Density = 2.507807 g / cm^3
# Si number density = 25.135276 Si / 1000 Ang^3
#
#
#
# Elastic Constant Matrix: (Units=GPa)
#
#
# Indices 1 2 3 4 5 6 
#
# 1 90.6132 20.0765 46.9080 -19.4849 19.5843 -8.6484
# 2 20.0765 51.8838 11.9483 -14.7902 7.1670 6.0439
# 3 46.9080 11.9483 125.4986 -30.7038 12.3187 -19.8264
# 4 -19.4849 -14.7902 -30.7038 36.1469 -11.4606 1.2989
# 5 19.5843 7.1670 12.3187 -11.4606 70.3309 -0.7295
# 6 -8.6484 6.0439 -19.8264 1.2989 -0.7295 30.6021
#
#
#
# Elastic Compliance Matrix: (Units=1/GPa)
#
#
# Indices 1 2 3 4 5 6 
#
# 1 0.015431 -0.004316 -0.004229 0.001999 -0.002766 0.002322
# 2 -0.004316 0.023834 0.000327 0.007902 -0.000059 -0.006052
# 3 -0.004229 0.000327 0.012573 0.008420 0.000382 0.006538
# 4 0.001999 0.007902 0.008420 0.040214 0.003746 0.002842
# 5 -0.002766 -0.000059 0.000382 0.003746 0.015535 -0.000311
# 6 0.002322 -0.006052 0.006538 0.002842 -0.000311 0.038637
#
#
# Mechanical properties :
#
#
# Convention : Reuss Voigt Hill
#
# Bulk Modulus (GPa) = 28.24636 47.31792 37.78214
# Shear Modulus (GPa) = 28.65977 40.02017 34.33997
#
# Velocity S-wave (km/s) = 3.38038 3.99456 3.70023
# Velocity P-wave (km/s) = 5.14763 6.33573 5.77233
#
# Compressibility (1/GPa) = 0.03540279
#
# Stress axis : x y z
#
# Youngs Moduli (GPa) = 64.80492 41.95636 79.53388
#
# Poissons Ratio (x) = 0.18107 0.33637
# Poissons Ratio (y) = 0.27967 -0.02600
# Poissons Ratio (z) = 0.27407 -0.01372
#
# Static dielectric constant tensor:
#      x y z
#    x 2.096140 0.060080 0.050380 
#    y 0.060080 1.989510 -0.013170 
#    z 0.050380 -0.013170 1.994160 
# 
# From -- ./inp_files/144288.got.cif
#   From: 2010.05.17/outbox.cif.g08.bks.cpg/sg2_73_cif.got.tgz:144288.got - 2010.06.03 11:33:40.
