data_PCOD9034411
_publ_section_title
;
Structure prediction by ZEFSAII (Michael W. Deem and Ramdas Pophale) SiO2 
 PCOD9034411
Probable space group: P -1
;
_chemical_formula_sum "Si O2"
_cell_formula_units_Z 10
_cell_length_a 5.347100
_cell_length_b 9.112086
_cell_length_c 12.125968
_cell_angle_alpha 53.552438
_cell_angle_beta 104.668668
_cell_angle_gamma 125.138195
_cell_volume 385.096801
_symmetry_space_group_name_H-M "P -1"
_symmetry_group_IT_number 2
_symmetry_cell_setting 'triclinic'
loop_
_space_group_symop_operation_xyz
x,y,z
-x,-y,-z
loop_
_atom_site_type_symbol
_atom_site_label
_atom_site_fract_x
_atom_site_fract_y
_atom_site_fract_z
Si Si1 0.004807 0.679485 0.279190
Si Si2 0.793302 0.227000 0.970001
Si Si3 0.543179 0.805121 0.572909
Si Si4 0.728335 0.607752 0.872819
Si Si5 0.354141 0.246840 0.622800
O O1 0.972171 0.714339 0.131224
O O2 0.359663 0.766079 0.300629
O O3 0.789570 0.419309 0.390714
O O4 0.892220 0.800112 0.289916
O O5 0.733693 0.421057 0.887825
O O6 0.940594 0.236022 0.100450
O O7 0.500000 0.000000 0.000000
O O8 0.651775 0.739471 0.722295
O O9 0.746805 0.857003 0.462491
O O10 0.500000 0.000000 0.500000
O O11 0.500000 0.500000 0.000000
O O12 0.500000 0.500000 0.500000
#
# Coordination Sequence:
#
# PCOD9034411 Si02
#       5
#     2   2   2   2   2
#     4  11  23  49  76 112 157 206 273 339 393 495
#     4  11  26  50  84 116 156 218 275 336 421 483
#     4  11  24  48  78 115 162 211 261 334 414 483
#     4  11  25  52  79 115 166 206 274 349 396 497
#     4  10  22  44  74 107 151 206 262 328 396 477
#
# _framework density 25.967497000000002
#
# number of rings (size 3 to 8) (size 9 to 14) (size 15 to 20)
#    0.000    1.200    2.000    4.800    0.000    2.400 
#   14.400   12.000    0.000    0.000    0.000    0.000 
#    0.000    0.000    0.000    0.000    0.000    0.000 
#
# Total GULP energy -56090.761711 kJ/mol
# GULP energy per Si atom -5609.076171 kJ/mol
# Density = 2.590839 g / cm^3
# Si number density = 25.967497 Si / 1000 Ang^3
#
#
#
# Elastic Constant Matrix: (Units=GPa)
#
#
# Indices 1 2 3 4 5 6 
#
# 1 180.3707 87.7421 89.2674 21.2860 2.8711 -28.7767
# 2 87.7421 213.3889 80.1980 10.3705 7.6007 -20.8137
# 3 89.2674 80.1980 169.0333 34.0789 10.8606 -19.5470
# 4 21.2860 10.3705 34.0789 54.2997 -0.3367 -4.7344
# 5 2.8711 7.6007 10.8606 -0.3367 61.6158 10.3604
# 6 -28.7767 -20.8137 -19.5470 -4.7344 10.3604 61.4804
#
#
#
# Elastic Compliance Matrix: (Units=1/GPa)
#
#
# Indices 1 2 3 4 5 6 
#
# 1 0.008550 -0.002093 -0.003101 -0.000810 0.000025 0.002241
# 2 -0.002093 0.006326 -0.001972 0.000906 -0.000445 0.000680
# 3 -0.003101 -0.001972 0.009554 -0.004341 -0.001460 0.000830
# 4 -0.000810 0.000906 -0.004341 0.021294 0.000799 0.000053
# 5 0.000025 -0.000445 -0.001460 0.000799 0.017121 -0.003426
# 6 0.002241 0.000680 0.000830 0.000053 -0.003426 0.018390
#
#
# Mechanical properties :
#
#
# Convention : Reuss Voigt Hill
#
# Bulk Modulus (GPa) = 99.02875 119.68977 109.35926
# Shear Modulus (GPa) = 50.53915 55.85155 53.19535
#
# Velocity S-wave (km/s) = 4.41641 4.64273 4.53099
# Velocity P-wave (km/s) = 8.01403 8.65633 8.34137
#
# Compressibility (1/GPa) = 0.01009808
#
# Stress axis : x y z
#
# Youngs Moduli (GPa) = 116.96118 158.07919 104.66588
#
# Poissons Ratio (x) = 0.33085 0.32462
# Poissons Ratio (y) = 0.24479 0.20636
# Poissons Ratio (z) = 0.36275 0.31166
#
# Static dielectric constant tensor:
#      x y z
#    x 2.108980 0.114340 -0.157420 
#    y 0.114340 2.093760 0.016220 
#    z -0.157420 0.016220 2.323150 
# 
# From -- ./inp_files/359311.got.cif
#   From: 2010.05.17/outbox.cif.g08.bks.cpg/sg2_180_cif.got.tgz:359311.got - 2010.06.03 11:33:40.
