data_PCOD9034069
_publ_section_title
;
Structure prediction by ZEFSAII (Michael W. Deem and Ramdas Pophale) SiO2 
 PCOD9034069
Probable space group: P -1
;
_chemical_formula_sum "Si O2"
_cell_formula_units_Z 14
_cell_length_a 17.201332
_cell_length_b 5.267779
_cell_length_c 17.067118
_cell_angle_alpha 127.319041
_cell_angle_beta 148.568836
_cell_angle_gamma 71.253187
_cell_volume 565.281171
_symmetry_space_group_name_H-M "P -1"
_symmetry_group_IT_number 2
_symmetry_cell_setting 'triclinic'
loop_
_space_group_symop_operation_xyz
x,y,z
-x,-y,-z
loop_
_atom_site_type_symbol
_atom_site_label
_atom_site_fract_x
_atom_site_fract_y
_atom_site_fract_z
Si Si1 0.870264 0.575061 0.113349
Si Si2 0.347349 0.719631 0.871614
Si Si3 0.019158 0.394092 0.610574
Si Si4 0.562452 0.713661 0.832994
Si Si5 0.537451 0.662794 0.476688
Si Si6 0.224831 0.286540 0.549646
Si Si7 0.893673 0.176938 0.907707
O O1 0.898090 0.478475 0.207847
O O2 0.713524 0.661311 0.991529
O O3 0.836247 0.312855 0.960963
O O4 0.057676 0.912315 0.321552
O O5 0.155976 0.652878 0.712464
O O6 0.297617 0.347631 0.712827
O O7 0.500000 0.000000 0.000000
O O8 0.424993 0.906154 0.056714
O O9 0.848802 0.427428 0.468968
O O10 0.000000 0.000000 0.500000
O O11 0.564511 0.652188 0.731466
O O12 0.383751 0.396757 0.651362
O O13 0.500000 0.500000 0.500000
O O14 0.500000 0.000000 0.500000
O O15 0.736806 0.854278 0.669352
O O16 0.000000 0.500000 0.000000
O O17 0.000000 0.000000 0.000000
#
# Coordination Sequence:
#
# PCOD9034069 Si02
#       7
#     2   2   2   2   2   2   2
#     4  12  26  46  79 106 148 200 249 313 386 450
#     4  10  22  44  71 102 149 191 236 302 376 452
#     4  12  24  43  74 108 147 193 248 311 371 454
#     4  11  25  47  74 104 148 200 244 311 383 456
#     4  12  27  50  75 110 152 198 256 321 383 455
#     4  11  24  48  72 108 151 192 249 309 379 460
#     4  12  29  51  80 114 154 201 262 322 389 462
#
# _framework density 24.766435999999999
#
# number of rings (size 3 to 8) (size 9 to 14) (size 15 to 20)
#    0.000    0.571    4.286    3.000    6.000    0.000 
#    5.143    4.286    0.000    0.000    0.000    0.000 
#    0.000    0.000    0.000    0.000    0.000    0.000 
#
# Total GULP energy -78120.057640 kJ/mol
# GULP energy per Si atom -5580.004117 kJ/mol
# Density = 2.471007 g / cm^3
# Si number density = 24.766436 Si / 1000 Ang^3
#
#
#
# Elastic Constant Matrix: (Units=GPa)
#
#
# Indices 1 2 3 4 5 6 
#
# 1 140.6471 32.3344 37.5122 -6.7584 -13.0564 16.0929
# 2 32.3344 93.6464 22.3568 -20.5784 0.6110 2.9074
# 3 37.5122 22.3568 143.7693 -7.4132 -2.6910 3.3263
# 4 -6.7584 -20.5784 -7.4132 34.4834 -3.8493 4.6580
# 5 -13.0564 0.6110 -2.6910 -3.8493 84.0662 0.8726
# 6 16.0929 2.9074 3.3263 4.6580 0.8726 37.0243
#
#
#
# Elastic Compliance Matrix: (Units=1/GPa)
#
#
# Indices 1 2 3 4 5 6 
#
# 1 0.008679 -0.002355 -0.001763 0.000546 0.001370 -0.003530
# 2 -0.002355 0.013402 -0.001071 0.007406 -0.000149 -0.000861
# 3 -0.001763 -0.001071 0.007613 0.000641 0.000006 0.000085
# 4 0.000546 0.007406 0.000641 0.034564 0.001689 -0.005265
# 5 0.001370 -0.000149 0.000006 0.001689 0.012198 -0.001084
# 6 -0.003530 -0.000861 0.000085 -0.005265 -0.001084 0.029292
#
#
# Mechanical properties :
#
#
# Convention : Reuss Voigt Hill
#
# Bulk Modulus (GPa) = 51.76669 62.49663 57.13166
# Shear Modulus (GPa) = 40.79502 50.17209 45.48355
#
# Velocity S-wave (km/s) = 4.06296 4.50578 4.29009
# Velocity P-wave (km/s) = 6.55420 7.23593 6.90348
#
# Compressibility (1/GPa) = 0.01931744
#
# Stress axis : x y z
#
# Youngs Moduli (GPa) = 115.22124 74.61382 131.35022
#
# Poissons Ratio (x) = 0.17572 0.23154
# Poissons Ratio (y) = 0.27136 0.14063
# Poissons Ratio (z) = 0.20311 0.07988
#
# Static dielectric constant tensor:
#      x y z
#    x 1.942670 0.033600 0.042180 
#    y 0.033600 1.990020 0.014990 
#    z 0.042180 0.014990 1.928850 
# 
# From -- ./inp_files/574956.got.cif
#   From: 2010.05.17/outbox.cif.g08.bks.cpg/sg2_288_cif.got.tgz:574956.got - 2010.06.03 11:33:40.
