data_PCOD9034742
_publ_section_title
;
Structure prediction by ZEFSAII (Michael W. Deem and Ramdas Pophale) SiO2 
 PCOD9034742
Probable space group: P -1
;
_chemical_formula_sum "Si O2"
_cell_formula_units_Z 16
_cell_length_a 9.199934
_cell_length_b 13.842433
_cell_length_c 8.514185
_cell_angle_alpha 110.240811
_cell_angle_beta 135.830929
_cell_angle_gamma 84.420249
_cell_volume 689.697351
_symmetry_space_group_name_H-M "P -1"
_symmetry_group_IT_number 2
_symmetry_cell_setting 'triclinic'
loop_
_space_group_symop_operation_xyz
x,y,z
-x,-y,-z
loop_
_atom_site_type_symbol
_atom_site_label
_atom_site_fract_x
_atom_site_fract_y
_atom_site_fract_z
Si Si1 0.628299 0.675560 0.031940
Si Si2 0.034715 0.115279 0.171644
Si Si3 0.564443 0.152089 0.842624
Si Si4 0.347263 0.571132 0.489018
Si Si5 0.162734 0.001262 0.483961
Si Si6 0.306132 0.685284 0.213849
Si Si7 0.926491 0.778680 0.037732
Si Si8 0.108482 0.487441 0.747597
O O1 0.520085 0.761743 0.074899
O O2 0.771099 0.610409 0.205441
O O3 0.772070 0.736475 0.035827
O O4 0.439079 0.597620 0.748981
O O5 0.135051 0.097394 0.404037
O O6 0.811006 0.146632 0.051016
O O7 0.160194 0.193863 0.182211
O O8 0.000000 0.000000 0.000000
O O9 0.419043 0.038001 0.718113
O O10 0.570493 0.202927 0.701529
O O11 0.500000 0.500000 0.500000
O O12 0.380071 0.659994 0.428867
O O13 0.092632 0.533588 0.298468
O O14 0.086096 0.887715 0.280415
O O15 0.000000 0.000000 0.500000
O O16 0.064369 0.695481 0.058985
O O17 0.278700 0.589962 0.010171
O O18 0.000000 0.500000 0.500000
#
# Coordination Sequence:
#
# PCOD9034742 Si02
#       8
#     2   2   2   2   2   2   2   2
#     4  12  25  44  68 108 139 184 240 284 359 417
#     4   9  23  44  66  96 134 180 230 289 345 406
#     4  11  26  43  71 102 139 184 237 284 356 425
#     4  12  25  43  73  98 138 190 233 290 349 418
#     4  11  23  45  69 100 142 181 228 294 353 408
#     4  11  24  46  69 103 137 182 241 287 347 420
#     4  10  22  45  67  97 141 178 236 294 336 419
#     4  12  27  47  70 101 150 182 229 298 354 420
#
# _framework density 23.198581000000001
#
# number of rings (size 3 to 8) (size 9 to 14) (size 15 to 20)
#    0.000    1.000    3.750    1.875    3.500   10.000 
#    2.250    0.000    0.000    0.000    0.000    0.000 
#    0.000    0.000    0.000    0.000    0.000    0.000 
#
# Total GULP energy -89242.521798 kJ/mol
# GULP energy per Si atom -5577.657612 kJ/mol
# Density = 2.314578 g / cm^3
# Si number density = 23.198581 Si / 1000 Ang^3
#
#
#
# Elastic Constant Matrix: (Units=GPa)
#
#
# Indices 1 2 3 4 5 6 
#
# 1 126.2911 28.0294 3.5347 1.1515 5.6017 4.5699
# 2 28.0294 80.4926 13.8743 -16.3954 3.4541 -7.8986
# 3 3.5347 13.8743 59.4494 -1.3146 -5.1621 -0.9778
# 4 1.1515 -16.3954 -1.3146 35.2903 14.0079 -0.3734
# 5 5.6017 3.4541 -5.1621 14.0079 37.2469 2.3532
# 6 4.5699 -7.8986 -0.9778 -0.3734 2.3532 51.4946
#
#
#
# Elastic Compliance Matrix: (Units=1/GPa)
#
#
# Indices 1 2 3 4 5 6 
#
# 1 0.008786 -0.003616 0.000244 -0.001913 -0.000148 -0.001337
# 2 -0.003616 0.016974 -0.003955 0.010105 -0.005579 0.003178
# 3 0.000244 -0.003955 0.017998 -0.002719 0.003878 -0.000484
# 4 -0.001913 0.010105 -0.002719 0.039373 -0.016003 0.002685
# 5 -0.000148 -0.005579 0.003878 -0.016003 0.034098 -0.002443
# 6 -0.001337 0.003178 -0.000484 0.002685 -0.002443 0.020147
#
#
# Mechanical properties :
#
#
# Convention : Reuss Voigt Hill
#
# Bulk Modulus (GPa) = 34.35886 39.67888 37.01887
# Shear Modulus (GPa) = 30.91534 39.52601 35.22068
#
# Velocity S-wave (km/s) = 3.65449 4.13220 3.90067
# Velocity P-wave (km/s) = 5.71402 6.31727 6.02320
#
# Compressibility (1/GPa) = 0.02910457
#
# Stress axis : x y z
#
# Youngs Moduli (GPa) = 113.81282 58.91380 55.56119
#
# Poissons Ratio (x) = 0.21304 -0.01358
# Poissons Ratio (y) = 0.41157 0.21975
# Poissons Ratio (z) = -0.02781 0.23301
#
# Static dielectric constant tensor:
#      x y z
#    x 2.155210 0.008660 -0.139180 
#    y 0.008660 1.889580 -0.059780 
#    z -0.139180 -0.059780 2.603080 
# 
# From -- ./inp_files/107434.got.cif
#   From: 2010.05.17/outbox.cif.g08.bks.cpg/sg2_54_cif.got.tgz:107434.got - 2010.06.03 11:33:40.
