data_PCOD9034371
_publ_section_title
;
Structure prediction by ZEFSAII (Michael W. Deem and Ramdas Pophale) SiO2 
 PCOD9034371
Probable space group: P -1
;
_chemical_formula_sum "Si O2"
_cell_formula_units_Z 15
_cell_length_a 9.643432
_cell_length_b 21.549165
_cell_length_c 8.949747
_cell_angle_alpha 61.849139
_cell_angle_beta 81.123125
_cell_angle_gamma 135.948288
_cell_volume 676.733322
_symmetry_space_group_name_H-M "P -1"
_symmetry_group_IT_number 2
_symmetry_cell_setting 'triclinic'
loop_
_space_group_symop_operation_xyz
x,y,z
-x,-y,-z
loop_
_atom_site_type_symbol
_atom_site_label
_atom_site_fract_x
_atom_site_fract_y
_atom_site_fract_z
Si Si1 0.815611 0.108122 0.009790
Si Si2 0.500000 0.000000 0.500000
Si Si3 0.281867 0.682383 0.189519
Si Si4 0.699639 0.517236 0.961525
Si Si5 0.841914 0.248152 0.646892
Si Si6 0.757606 0.834877 0.144253
Si Si7 0.389590 0.667926 0.694273
Si Si8 0.350910 0.779563 0.749567
O O1 0.707697 0.095125 0.196424
O O2 0.474721 0.919424 0.210718
O O3 0.955979 0.229928 0.732881
O O4 0.079168 0.165823 0.908228
O O5 0.429618 0.053041 0.439543
O O6 0.258672 0.741882 0.224499
O O7 0.628714 0.805576 0.042824
O O8 0.000000 0.500000 0.500000
O O9 0.265628 0.696607 0.004834
O O10 0.880242 0.591489 0.688100
O O11 0.012473 0.660151 0.865967
O O12 0.500000 0.500000 0.000000
O O13 0.496880 0.354264 0.224712
O O14 0.459091 0.693561 0.478314
O O15 0.000000 0.000000 0.000000
O O16 0.525365 0.803961 0.579671
O O17 0.000000 0.500000 0.000000
#
# Coordination Sequence:
#
# PCOD9034371 Si02
#       8
#     2   1   2   2   2   2   2   2
#     4  11  24  43  71 100 141 182 245 294 355 422
#     4  12  22  46  68  94 146 186 228 300 360 412
#     4  12  24  44  68 103 144 186 228 294 368 421
#     4  11  22  42  71  99 134 182 246 287 351 438
#     4  11  22  43  69  98 135 196 227 289 367 428
#     4  12  24  45  73 108 137 183 250 292 344 437
#     4  10  22  44  73  99 142 189 230 289 366 435
#     4  11  23  43  66  98 135 187 227 288 364 414
#
# _framework density 22.165303000000002
#
# number of rings (size 3 to 8) (size 9 to 14) (size 15 to 20)
#    0.000    0.800    4.000    5.600    0.000    0.000 
#    7.200    2.667    0.000    0.000    0.000    0.000 
#    0.000    0.000    0.000    0.000    0.000    0.000 
#
# Total GULP energy -83561.201506 kJ/mol
# GULP energy per Si atom -5570.746767 kJ/mol
# Density = 2.211485 g / cm^3
# Si number density = 22.165303 Si / 1000 Ang^3
#
#
#
# Elastic Constant Matrix: (Units=GPa)
#
#
# Indices 1 2 3 4 5 6 
#
# 1 177.4004 44.4157 14.7044 16.1829 10.9288 2.6696
# 2 44.4157 44.3856 19.5262 24.0263 1.6423 6.8086
# 3 14.7044 19.5262 68.0100 26.1084 17.0648 12.2277
# 4 16.1829 24.0263 26.1084 38.2149 -6.7069 3.5602
# 5 10.9288 1.6423 17.0648 -6.7069 43.4395 4.8945
# 6 2.6696 6.8086 12.2277 3.5602 4.8945 41.8066
#
#
#
# Elastic Compliance Matrix: (Units=1/GPa)
#
#
# Indices 1 2 3 4 5 6 
#
# 1 0.007780 -0.008953 0.000549 0.001583 -0.001687 0.000864
# 2 -0.008953 0.045885 -0.000125 -0.025054 -0.002805 -0.004403
# 3 0.000549 -0.000125 0.026436 -0.020097 -0.013114 -0.004500
# 4 0.001583 -0.025054 -0.020097 0.057692 0.017019 0.002952
# 5 -0.001687 -0.002805 -0.013114 0.017019 0.031412 -0.000727
# 6 0.000864 -0.004403 -0.004500 0.002952 -0.000727 0.025731
#
#
# Mechanical properties :
#
#
# Convention : Reuss Voigt Hill
#
# Bulk Modulus (GPa) = 15.86228 49.67653 32.76941
# Shear Modulus (GPa) = 21.45843 38.76884 30.11363
#
# Velocity S-wave (km/s) = 3.11482 4.18673 3.68991
# Velocity P-wave (km/s) = 4.48420 6.76995 5.74196
#
# Compressibility (1/GPa) = 0.06304264
#
# Stress axis : x y z
#
# Youngs Moduli (GPa) = 128.54023 21.79340 37.82775
#
# Poissons Ratio (x) = 0.19513 -0.02076
# Poissons Ratio (y) = 1.15087 0.00471
# Poissons Ratio (z) = -0.07056 0.00272
#
# Static dielectric constant tensor:
#      x y z
#    x 1.783600 -0.004250 0.014550 
#    y -0.004250 1.890770 -0.089310 
#    z 0.014550 -0.089310 1.855570 
# 
# From -- ./inp_files/223423.got.cif
#   From: 2010.05.17/outbox.cif.g08.bks.cpg/sg2_112_cif.got.tgz:223423.got - 2010.06.03 11:33:40.
