data_PCOD9034124
_publ_section_title
;
Structure prediction by ZEFSAII (Michael W. Deem and Ramdas Pophale) SiO2 
 PCOD9034124
Probable space group: P -1
;
_chemical_formula_sum "Si O2"
_cell_formula_units_Z 16
_cell_length_a 10.310134
_cell_length_b 5.804293
_cell_length_c 17.769283
_cell_angle_alpha 106.428309
_cell_angle_beta 50.359100
_cell_angle_gamma 123.064082
_cell_volume 682.733871
_symmetry_space_group_name_H-M "P -1"
_symmetry_group_IT_number 2
_symmetry_cell_setting 'triclinic'
loop_
_space_group_symop_operation_xyz
x,y,z
-x,-y,-z
loop_
_atom_site_type_symbol
_atom_site_label
_atom_site_fract_x
_atom_site_fract_y
_atom_site_fract_z
Si Si1 0.278974 0.116059 0.653119
Si Si2 0.389785 0.672501 0.034672
Si Si3 0.477735 0.147974 0.729170
Si Si4 0.979523 0.548140 0.756746
Si Si5 0.153266 0.225873 0.568663
Si Si6 0.852624 0.615005 0.575583
Si Si7 0.234267 0.579242 0.798107
Si Si8 0.821418 0.708194 0.063108
O O1 0.417664 0.070208 0.655108
O O2 0.304031 0.187055 0.562237
O O3 0.274895 0.368304 0.717976
O O4 0.065058 0.845751 0.713453
O O5 0.244162 0.622739 0.153851
O O6 0.500000 0.500000 0.000000
O O7 0.269734 0.501446 0.990738
O O8 0.500000 0.000000 0.000000
O O9 0.689240 0.406437 0.672771
O O10 0.339168 0.231786 0.833229
O O11 0.434338 0.864515 0.758440
O O12 0.062785 0.386142 0.662464
O O13 0.090168 0.626248 0.803357
O O14 0.234537 0.375539 0.472963
O O15 0.975821 0.925832 0.586999
O O16 0.000000 0.500000 0.500000
O O17 0.133448 0.440590 0.899592
O O18 0.000000 0.000000 0.000000
#
# Coordination Sequence:
#
# PCOD9034124 Si02
#       8
#     2   2   2   2   2   2   2   2
#     4   9  19  41  67  97 122 173 227 287 346 416
#     4  12  31  46  67 110 150 193 244 307 370 444
#     4  10  23  41  68 100 135 173 233 292 352 423
#     4  10  22  44  71  94 138 179 234 293 361 429
#     4  10  23  42  71  92 131 184 225 286 357 426
#     4  11  25  43  63 100 138 180 230 281 358 436
#     4   9  20  40  73  99 126 179 230 294 351 417
#     4  11  25  45  73 101 141 189 246 299 361 437
#
# _framework density 23.435193000000002
#
# number of rings (size 3 to 8) (size 9 to 14) (size 15 to 20)
#    0.000    1.750    0.000    3.000    8.750    6.500 
#    0.000    8.750    0.000    0.000    0.000    0.000 
#    0.000    0.000    0.000    0.000    0.000    0.000 
#
# Total GULP energy -89375.523785 kJ/mol
# GULP energy per Si atom -5585.970237 kJ/mol
# Density = 2.338185 g / cm^3
# Si number density = 23.435193 Si / 1000 Ang^3
#
#
#
# Elastic Constant Matrix: (Units=GPa)
#
#
# Indices 1 2 3 4 5 6 
#
# 1 38.6599 6.1057 11.3545 -3.7460 24.0926 -6.5163
# 2 6.1057 178.9907 62.5754 -22.9391 -4.9556 0.3679
# 3 11.3545 62.5754 101.1755 -13.8293 -2.2047 2.6273
# 4 -3.7460 -22.9391 -13.8293 50.0592 2.9914 6.2600
# 5 24.0926 -4.9556 -2.2047 2.9914 46.7865 -2.3118
# 6 -6.5163 0.3679 2.6273 6.2600 -2.3118 29.8236
#
#
#
# Elastic Compliance Matrix: (Units=1/GPa)
#
#
# Indices 1 2 3 4 5 6 
#
# 1 0.042511 0.000002 -0.005158 0.002115 -0.021893 0.007602
# 2 0.000002 0.007363 -0.004241 0.002195 0.000431 -0.000144
# 3 -0.005158 -0.004241 0.013412 0.001515 0.002625 -0.002371
# 4 0.002115 0.002195 0.001515 0.022275 -0.002435 -0.004563
# 5 -0.021893 0.000431 0.002625 -0.002435 0.032876 -0.001961
# 6 0.007602 -0.000144 -0.002371 -0.004563 -0.001961 0.036208
#
#
# Mechanical properties :
#
#
# Convention : Reuss Voigt Hill
#
# Bulk Modulus (GPa) = 22.47550 53.21080 37.84315
# Shear Modulus (GPa) = 26.55787 41.25321 33.90554
#
# Velocity S-wave (km/s) = 3.37003 4.20016 3.80778
# Velocity P-wave (km/s) = 4.97535 6.80269 5.95947
#
# Compressibility (1/GPa) = 0.04449288
#
# Stress axis : x y z
#
# Youngs Moduli (GPa) = 23.52325 135.81440 74.56281
#
# Poissons Ratio (x) = -0.00031 0.38457
# Poissons Ratio (y) = -0.00005 0.31622
# Poissons Ratio (z) = 0.12132 0.57599
#
# Static dielectric constant tensor:
#      x y z
#    x 2.188690 -0.081050 0.037240 
#    y -0.081050 1.899670 -0.027670 
#    z 0.037240 -0.027670 1.876200 
# 
# From -- ./inp_files/37573.got.cif
#   From: 2010.05.17/outbox.cif.g08.bks.cpg/sg2_19_cif.got.tgz:37573.got - 2010.06.03 11:33:40.
