data_PCOD9034922
_publ_section_title
;
Structure prediction by ZEFSAII (Michael W. Deem and Ramdas Pophale) SiO2 
 PCOD9034922
Probable space group: P -1
;
_chemical_formula_sum "Si O2"
_cell_formula_units_Z 16
_cell_length_a 13.766951
_cell_length_b 9.282404
_cell_length_c 8.672188
_cell_angle_alpha 72.612957
_cell_angle_beta 57.447495
_cell_angle_gamma 107.674231
_cell_volume 727.869567
_symmetry_space_group_name_H-M "P -1"
_symmetry_group_IT_number 2
_symmetry_cell_setting 'triclinic'
loop_
_space_group_symop_operation_xyz
x,y,z
-x,-y,-z
loop_
_atom_site_type_symbol
_atom_site_label
_atom_site_fract_x
_atom_site_fract_y
_atom_site_fract_z
Si Si1 0.313555 0.035147 0.509937
Si Si2 0.845202 0.855418 0.603354
Si Si3 0.480688 0.657653 0.516469
Si Si4 0.980802 0.309185 0.043103
Si Si5 0.485696 0.040494 0.821014
Si Si6 0.808912 0.319119 0.791137
Si Si7 0.209828 0.424723 0.031258
Si Si8 0.905712 0.626278 0.408787
O O1 0.241613 0.073293 0.418343
O O2 0.400536 0.200010 0.506541
O O3 0.419431 0.995670 0.355817
O O4 0.182289 0.856611 0.764318
O O5 0.755706 0.696680 0.859251
O O6 0.863565 0.749656 0.482754
O O7 0.000000 0.000000 0.500000
O O8 0.500000 0.500000 0.500000
O O9 0.485247 0.769923 0.327348
O O10 0.332140 0.558673 0.765191
O O11 0.064497 0.284881 0.111494
O O12 0.061032 0.333727 0.809985
O O13 0.000000 0.500000 0.000000
O O14 0.500000 0.000000 0.000000
O O15 0.321680 0.880044 0.986935
O O16 0.820425 0.458736 0.865412
O O17 0.798571 0.409473 0.613647
O O18 0.946455 0.319820 0.662512
#
# Coordination Sequence:
#
# PCOD9034922 Si02
#       8
#     2   2   2   2   2   2   2   2
#     4  12  28  51  78 107 156 202 252 311 384 452
#     4  11  26  47  70 109 148 199 251 316 379 443
#     4  12  30  51  75 112 155 204 253 312 384 453
#     4  12  24  42  75 111 143 194 248 313 375 447
#     4  12  29  47  79 111 150 197 258 308 378 454
#     4  10  22  45  69 105 142 196 241 315 361 450
#     4  11  24  45  72 103 154 192 251 313 373 448
#     4  10  24  40  71 102 149 184 253 300 380 434
#
# _framework density 21.981959
#
# number of rings (size 3 to 8) (size 9 to 14) (size 15 to 20)
#    0.000    0.750    3.750    1.875    8.750    3.000 
#    0.000    0.000    0.000    0.000    0.000    0.000 
#    0.000    0.000    0.000    0.000    0.000    0.000 
#
# Total GULP energy -89480.099019 kJ/mol
# GULP energy per Si atom -5592.506189 kJ/mol
# Density = 2.193193 g / cm^3
# Si number density = 21.981959 Si / 1000 Ang^3
#
#
#
# Elastic Constant Matrix: (Units=GPa)
#
#
# Indices 1 2 3 4 5 6 
#
# 1 87.3105 26.8757 28.4739 -13.7354 10.9773 -4.7395
# 2 26.8757 86.3519 41.8250 -7.7915 6.2305 -9.8169
# 3 28.4739 41.8250 151.0972 -11.6678 6.0452 -1.5000
# 4 -13.7354 -7.7915 -11.6678 31.2576 2.5302 0.0239
# 5 10.9773 6.2305 6.0452 2.5302 45.9043 -1.9543
# 6 -4.7395 -9.8169 -1.5000 0.0239 -1.9543 38.1666
#
#
#
# Elastic Compliance Matrix: (Units=1/GPa)
#
#
# Indices 1 2 3 4 5 6 
#
# 1 0.014027 -0.002965 -0.001293 0.005187 -0.003035 0.000770
# 2 -0.002965 0.014650 -0.003344 0.001160 -0.000766 0.003229
# 3 -0.001293 -0.003344 0.007919 0.001587 -0.000398 -0.000731
# 4 0.005187 0.001160 0.001587 0.035438 -0.003526 0.000802
# 5 -0.003035 -0.000766 -0.000398 -0.003526 0.022886 0.000585
# 6 0.000770 0.003229 -0.000731 0.000802 0.000585 0.027128
#
#
# Mechanical properties :
#
#
# Convention : Reuss Voigt Hill
#
# Bulk Modulus (GPa) = 46.74732 57.67876 52.21304
# Shear Modulus (GPa) = 34.63027 38.23804 36.43416
#
# Velocity S-wave (km/s) = 3.97343 4.17528 4.07560
# Velocity P-wave (km/s) = 6.50871 7.03847 6.77876
#
# Compressibility (1/GPa) = 0.02139160
#
# Stress axis : x y z
#
# Youngs Moduli (GPa) = 71.29057 68.25903 126.28058
#
# Poissons Ratio (x) = 0.20238 0.16329
# Poissons Ratio (y) = 0.21137 0.42232
# Poissons Ratio (z) = 0.09218 0.22828
#
# Static dielectric constant tensor:
#      x y z
#    x 1.857490 0.023660 0.062640 
#    y 0.023660 1.828570 -0.038700 
#    z 0.062640 -0.038700 1.817190 
# 
# From -- ./inp_files/297806.got.cif
#   From: 2010.05.17/outbox.cif.g08.bks.cpg/sg2_149_cif.got.tgz:297806.got - 2010.06.03 11:33:40.
