data_PCOD9034801
_publ_section_title
;
Structure prediction by ZEFSAII (Michael W. Deem and Ramdas Pophale) SiO2 
 PCOD9034801
Probable space group: P -1
;
_chemical_formula_sum "Si O2"
_cell_formula_units_Z 14
_cell_length_a 8.453901
_cell_length_b 5.118104
_cell_length_c 16.535788
_cell_angle_alpha 66.608097
_cell_angle_beta 122.914435
_cell_angle_gamma 120.599318
_cell_volume 509.757019
_symmetry_space_group_name_H-M "P -1"
_symmetry_group_IT_number 2
_symmetry_cell_setting 'triclinic'
loop_
_space_group_symop_operation_xyz
x,y,z
-x,-y,-z
loop_
_atom_site_type_symbol
_atom_site_label
_atom_site_fract_x
_atom_site_fract_y
_atom_site_fract_z
Si Si1 0.462314 0.598498 0.885781
Si Si2 0.808235 0.309004 0.419700
Si Si3 0.038228 0.653769 0.703353
Si Si4 0.893809 0.829330 0.796668
Si Si5 0.123164 0.840357 0.102589
Si Si6 0.436072 0.736798 0.399180
Si Si7 0.526595 0.610444 0.255427
O O1 0.249667 0.639252 0.802594
O O2 0.480789 0.362300 0.849790
O O3 0.643997 0.933493 0.878554
O O4 0.500000 0.500000 0.000000
O O5 0.888188 0.178533 0.381506
O O6 0.731990 0.560600 0.330232
O O7 0.000000 0.500000 0.500000
O O8 0.612514 0.057178 0.437668
O O9 0.980207 0.851706 0.730069
O O10 0.812800 0.385955 0.651270
O O11 0.916667 0.516705 0.877341
O O12 0.653670 0.724879 0.743425
O O13 0.961006 0.117145 0.837989
O O14 0.000000 0.000000 0.000000
O O15 0.500000 0.500000 0.500000
O O16 0.478105 0.741964 0.311645
#
# Coordination Sequence:
#
# PCOD9034801 Si02
#       7
#     2   2   2   2   2   2   2
#     4  10  22  45  68 109 151 200 264 313 381 452
#     4  11  25  48  73 113 152 195 258 326 396 481
#     4  10  24  44  72 106 153 203 252 319 388 460
#     4  10  23  44  69 105 141 203 248 311 389 453
#     4  11  23  44  72 101 150 197 262 323 380 449
#     4  11  25  47  75 110 152 198 257 316 405 472
#     4   9  23  42  71 101 152 199 243 324 375 463
#
# _framework density 27.464065000000002
#
# number of rings (size 3 to 8) (size 9 to 14) (size 15 to 20)
#    0.000    1.714    0.000    2.143   12.000    5.714 
#   10.286    5.714    0.000    0.000    0.000    0.000 
#    0.000    0.000    0.000    0.000    0.000    0.000 
#
# Total GULP energy -78007.825561 kJ/mol
# GULP energy per Si atom -5571.987540 kJ/mol
# Density = 2.740156 g / cm^3
# Si number density = 27.464065 Si / 1000 Ang^3
#
#
#
# Elastic Constant Matrix: (Units=GPa)
#
#
# Indices 1 2 3 4 5 6 
#
# 1 161.1943 33.3512 66.4943 15.4534 -6.5217 2.7709
# 2 33.3512 93.2275 35.8637 4.1770 13.3060 28.7182
# 3 66.4943 35.8637 192.4735 -5.0816 12.3939 13.9663
# 4 15.4534 4.1770 -5.0816 36.8115 11.3280 3.9728
# 5 -6.5217 13.3060 12.3939 11.3280 44.3359 4.7337
# 6 2.7709 28.7182 13.9663 3.9728 4.7337 60.2925
#
#
#
# Elastic Compliance Matrix: (Units=1/GPa)
#
#
# Indices 1 2 3 4 5 6 
#
# 1 0.008647 -0.002806 -0.002984 -0.005160 0.004091 0.001649
# 2 -0.002806 0.014605 -0.000985 0.001360 -0.004189 -0.006360
# 3 -0.002984 -0.000985 0.006742 0.003246 -0.002756 -0.000953
# 4 -0.005160 0.001360 0.003246 0.033053 -0.010249 -0.002536
# 5 0.004091 -0.004189 -0.002756 -0.010249 0.027702 0.000946
# 6 0.001649 -0.006360 -0.000953 -0.002536 0.000946 0.019853
#
#
# Mechanical properties :
#
#
# Convention : Reuss Voigt Hill
#
# Bulk Modulus (GPa) = 60.80838 79.81262 70.31050
# Shear Modulus (GPa) = 38.57015 49.03374 43.80195
#
# Velocity S-wave (km/s) = 3.75158 4.22996 3.99793
# Velocity P-wave (km/s) = 6.39960 7.27877 6.85330
#
# Compressibility (1/GPa) = 0.01644510
#
# Stress axis : x y z
#
# Youngs Moduli (GPa) = 115.64751 68.46758 148.32180
#
# Poissons Ratio (x) = 0.19214 0.44255
# Poissons Ratio (y) = 0.32454 0.14606
# Poissons Ratio (z) = 0.34506 0.06742
#
# Static dielectric constant tensor:
#      x y z
#    x 1.980670 0.191360 -0.411220 
#    y 0.191360 2.234780 0.058210 
#    z -0.411220 0.058210 2.153240 
# 
# From -- ./inp_files/553386.got.cif
#   From: 2010.05.17/outbox.cif.g08.bks.cpg/sg2_277_cif.got.tgz:553386.got - 2010.06.03 11:33:40.
