data_PCOD9034923
_publ_section_title
;
Structure prediction by ZEFSAII (Michael W. Deem and Ramdas Pophale) SiO2 
 PCOD9034923
Probable space group: P -1
;
_chemical_formula_sum "Si O2"
_cell_formula_units_Z 14
_cell_length_a 8.693395
_cell_length_b 15.736583
_cell_length_c 9.330282
_cell_angle_alpha 65.657477
_cell_angle_beta 148.874012
_cell_angle_gamma 121.930005
_cell_volume 557.580703
_symmetry_space_group_name_H-M "P -1"
_symmetry_group_IT_number 2
_symmetry_cell_setting 'triclinic'
loop_
_space_group_symop_operation_xyz
x,y,z
-x,-y,-z
loop_
_atom_site_type_symbol
_atom_site_label
_atom_site_fract_x
_atom_site_fract_y
_atom_site_fract_z
Si Si1 0.445285 0.833800 0.517745
Si Si2 0.654448 0.561274 0.278320
Si Si3 0.782349 0.116685 0.417085
Si Si4 0.874169 0.017210 0.155172
Si Si5 0.787619 0.215224 0.953910
Si Si6 0.761793 0.699152 0.510363
Si Si7 0.402915 0.634871 0.767255
O O1 0.235727 0.868673 0.437175
O O2 0.257082 0.797862 0.243617
O O3 0.511815 0.743484 0.710360
O O4 0.790641 0.918657 0.700703
O O5 0.648799 0.592263 0.416407
O O6 0.497136 0.444862 0.189132
O O7 0.019739 0.595721 0.494504
O O8 0.510843 0.626510 0.020713
O O9 0.935484 0.225243 0.390730
O O10 0.011343 0.056081 0.607133
O O11 0.420232 0.052527 0.126343
O O12 0.762737 0.104750 0.066716
O O13 0.512510 0.255182 0.750411
O O14 0.110414 0.290717 0.232958
#
# Coordination Sequence:
#
# PCOD9034923 Si02
#       7
#     2   2   2   2   2   2   2
#     4  12  26  46  69 103 137 181 220 288 338 404
#     4  10  22  45  69 110 128 167 226 288 327 401
#     4  12  27  41  74  96 129 183 243 276 326 385
#     4  12  26  45  64 100 138 179 232 281 327 401
#     4  12  27  45  65  96 150 181 218 276 346 401
#     4  12  25  46  69 100 138 180 227 279 333 404
#     4  10  23  41  77 101 134 166 224 285 343 384
#
# _framework density 25.108471000000002
#
# number of rings (size 3 to 8) (size 9 to 14) (size 15 to 20)
#    0.000    0.571    4.286    2.571    6.000    3.429 
#    0.000    1.429    0.000    0.000    0.000    0.000 
#    0.000    0.000    0.000    0.000    0.000    0.000 
#
# Total GULP energy -78430.095935 kJ/mol
# GULP energy per Si atom -5602.149710 kJ/mol
# Density = 2.505132 g / cm^3
# Si number density = 25.108471 Si / 1000 Ang^3
#
#
#
# Elastic Constant Matrix: (Units=GPa)
#
#
# Indices 1 2 3 4 5 6 
#
# 1 113.0347 7.9852 42.0960 -0.7346 -10.0406 -41.9639
# 2 7.9852 86.0322 4.1334 -9.6824 -11.3878 -13.9016
# 3 42.0960 4.1334 189.2011 -11.5927 -8.3426 -27.1897
# 4 -0.7346 -9.6824 -11.5927 33.8549 -7.1521 -4.5001
# 5 -10.0406 -11.3878 -8.3426 -7.1521 40.1846 7.1239
# 6 -41.9639 -13.9016 -27.1897 -4.5001 7.1239 49.8369
#
#
#
# Elastic Compliance Matrix: (Units=1/GPa)
#
#
# Indices 1 2 3 4 5 6 
#
# 1 0.013439 0.001028 -0.001253 0.001982 0.001820 0.010838
# 2 0.001028 0.013512 0.000727 0.005715 0.004382 0.004921
# 3 -0.001253 0.000727 0.006152 0.002890 0.001225 0.002589
# 4 0.001982 0.005715 0.002890 0.034741 0.007679 0.006879
# 5 0.001820 0.004382 0.001225 0.007679 0.028187 0.000088
# 6 0.010838 0.004921 0.002589 0.006879 0.000088 0.032585
#
#
# Mechanical properties :
#
#
# Convention : Reuss Voigt Hill
#
# Bulk Modulus (GPa) = 29.32159 55.18858 42.25509
# Shear Modulus (GPa) = 35.97607 47.04551 41.51079
#
# Velocity S-wave (km/s) = 3.78938 4.33331 4.07044
# Velocity P-wave (km/s) = 5.55420 6.86036 6.24154
#
# Compressibility (1/GPa) = 0.03410456
#
# Stress axis : x y z
#
# Youngs Moduli (GPa) = 74.41008 74.01099 162.55989
#
# Poissons Ratio (x) = -0.07609 0.20376
# Poissons Ratio (y) = -0.07650 -0.11812
# Poissons Ratio (z) = 0.09327 -0.05378
#
# Static dielectric constant tensor:
#      x y z
#    x 2.003040 -0.009140 -0.026430 
#    y -0.009140 2.020370 -0.044420 
#    z -0.026430 -0.044420 1.985480 
# 
# From -- ./inp_files/217216.got.cif
#   From: 2010.05.17/outbox.cif.g08.bks.cpg/sg2_109_cif.got.tgz:217216.got - 2010.06.03 11:33:40.
