data_PCOD9034072
_publ_section_title
;
Structure prediction by ZEFSAII (Michael W. Deem and Ramdas Pophale) SiO2 
 PCOD9034072
Probable space group: P -1
;
_chemical_formula_sum "Si O2"
_cell_formula_units_Z 12
_cell_length_a 7.231307
_cell_length_b 13.362247
_cell_length_c 5.255089
_cell_angle_alpha 90.884719
_cell_angle_beta 103.671084
_cell_angle_gamma 114.406747
_cell_volume 445.616882
_symmetry_space_group_name_H-M "P -1"
_symmetry_group_IT_number 2
_symmetry_cell_setting 'triclinic'
loop_
_space_group_symop_operation_xyz
x,y,z
-x,-y,-z
loop_
_atom_site_type_symbol
_atom_site_label
_atom_site_fract_x
_atom_site_fract_y
_atom_site_fract_z
Si Si1 0.920577 0.245644 0.234111
Si Si2 0.638777 0.806914 0.269308
Si Si3 0.139196 0.544843 0.801328
Si Si4 0.068698 0.916855 0.181427
Si Si5 0.351884 0.411960 0.653034
Si Si6 0.502610 0.890036 0.720870
O O1 0.802658 0.325655 0.166424
O O2 0.745559 0.144514 0.331610
O O3 0.138948 0.326486 0.436725
O O4 0.968686 0.193153 0.996016
O O5 0.567693 0.861205 0.017252
O O6 0.573646 0.676551 0.211358
O O7 0.543512 0.820244 0.506247
O O8 0.292588 0.484805 0.834774
O O9 0.000000 0.500000 0.500000
O O10 0.000000 0.500000 0.000000
O O11 0.321756 0.986768 0.278572
O O12 0.000000 0.000000 0.000000
O O13 0.500000 0.500000 0.500000
O O14 0.105195 0.124725 0.651565
#
# Coordination Sequence:
#
# PCOD9034072 Si02
#       6
#     2   2   2   2   2   2
#     4  11  24  45  69 101 141 182 230 288 345 410
#     4  11  24  46  71 103 141 184 230 284 342 413
#     4  10  23  42  65  95 131 175 224 278 337 398
#     4  10  22  44  71 103 138 182 230 284 345 414
#     4  11  24  45  72 103 139 186 235 287 345 411
#     4  11  25  44  71 105 142 183 229 283 347 412
#
# _framework density 26.928965000000002
#
# number of rings (size 3 to 8) (size 9 to 14) (size 15 to 20)
#    0.000    1.333    0.000    5.000    0.000    9.333 
#    0.000   12.500    0.000    0.000    0.000    0.000 
#    0.000    0.000    0.000    0.000    0.000    0.000 
#
# Total GULP energy -67244.333488 kJ/mol
# GULP energy per Si atom -5603.694457 kJ/mol
# Density = 2.686767 g / cm^3
# Si number density = 26.928965 Si / 1000 Ang^3
#
#
#
# Elastic Constant Matrix: (Units=GPa)
#
#
# Indices 1 2 3 4 5 6 
#
# 1 148.9641 2.6496 42.6339 -1.1384 -2.0388 27.8759
# 2 2.6496 114.6135 12.5260 2.2305 9.2496 4.9306
# 3 42.6339 12.5260 98.7828 6.0283 -25.8913 1.6770
# 4 -1.1384 2.2305 6.0283 62.9074 1.7604 -12.7374
# 5 -2.0388 9.2496 -25.8913 1.7604 60.6380 7.9420
# 6 27.8759 4.9306 1.6770 -12.7374 7.9420 69.4111
#
#
#
# Elastic Compliance Matrix: (Units=1/GPa)
#
#
# Indices 1 2 3 4 5 6 
#
# 1 0.008406 0.000454 -0.003892 -0.000114 -0.001024 -0.003218
# 2 0.000454 0.009118 -0.001880 -0.000194 -0.002097 -0.000580
# 3 -0.003892 -0.001880 0.013688 -0.001397 0.005986 0.000425
# 4 -0.000114 -0.000194 -0.001397 0.016753 -0.001494 0.003338
# 5 -0.001024 -0.002097 0.005986 -0.001494 0.019652 -0.002107
# 6 -0.003218 -0.000580 0.000425 0.003338 -0.002107 0.016584
#
#
# Mechanical properties :
#
#
# Convention : Reuss Voigt Hill
#
# Bulk Modulus (GPa) = 48.60012 53.10882 50.85447
# Shear Modulus (GPa) = 49.16585 58.89470 54.03027
#
# Velocity S-wave (km/s) = 4.27753 4.68165 4.48415
# Velocity P-wave (km/s) = 6.51790 6.99918 6.76282
#
# Compressibility (1/GPa) = 0.02057608
#
# Stress axis : x y z
#
# Youngs Moduli (GPa) = 118.95858 109.67435 73.05410
#
# Poissons Ratio (x) = -0.04983 0.28436
# Poissons Ratio (y) = -0.05405 0.13735
# Poissons Ratio (z) = 0.46305 0.20621
#
# Static dielectric constant tensor:
#      x y z
#    x 2.176860 -0.014730 0.136320 
#    y -0.014730 2.100190 -0.036120 
#    z 0.136320 -0.036120 2.092410 
# 
# From -- ./inp_files/25188.got.cif
#   From: 2010.05.17/outbox.cif.g08.bks.cpg/sg2_13_cif.got.tgz:25188.got - 2010.06.03 11:33:40.
