data_PCOD9034545
_publ_section_title
;
Structure prediction by ZEFSAII (Michael W. Deem and Ramdas Pophale) SiO2 
 PCOD9034545
Probable space group: P -1
;
_chemical_formula_sum "Si O2"
_cell_formula_units_Z 16
_cell_length_a 14.646669
_cell_length_b 11.592314
_cell_length_c 9.350091
_cell_angle_alpha 80.418573
_cell_angle_beta 87.842603
_cell_angle_gamma 28.515633
_cell_volume 727.153410
_symmetry_space_group_name_H-M "P -1"
_symmetry_group_IT_number 2
_symmetry_cell_setting 'triclinic'
loop_
_space_group_symop_operation_xyz
x,y,z
-x,-y,-z
loop_
_atom_site_type_symbol
_atom_site_label
_atom_site_fract_x
_atom_site_fract_y
_atom_site_fract_z
Si Si1 0.064310 0.320429 0.245847
Si Si2 0.297313 0.171093 0.518732
Si Si3 0.562287 0.142363 0.854289
Si Si4 0.598110 0.374092 0.805214
Si Si5 0.746270 0.883206 0.166459
Si Si6 0.790847 0.098758 0.145106
Si Si7 0.878761 0.177146 0.611668
Si Si8 0.785711 0.511961 0.393149
O O1 0.202683 0.210180 0.386974
O O2 0.898156 0.607586 0.173508
O O3 0.958496 0.321585 0.304612
O O4 0.211687 0.131718 0.147632
O O5 0.319073 0.068199 0.678570
O O6 0.168565 0.428308 0.522884
O O7 0.500000 0.000000 0.500000
O O8 0.522502 0.325878 0.808615
O O9 0.412734 0.248236 0.735751
O O10 0.561500 0.097595 0.025332
O O11 0.407574 0.667323 0.794965
O O12 0.718540 0.276493 0.678196
O O13 0.736153 0.217972 0.970913
O O14 0.837665 0.909443 0.153963
O O15 0.963372 0.966167 0.247497
O O16 0.772743 0.413997 0.511364
O O17 0.000000 0.000000 0.500000
#
# Coordination Sequence:
#
# PCOD9034545 Si02
#       8
#     2   2   2   2   2   2   2   2
#     4  11  22  42  64  91 128 159 205 256 312 369
#     4  11  22  40  62  92 120 160 201 251 304 368
#     4  11  23  43  61  92 126 161 211 254 311 366
#     4  10  24  41  66  91 124 170 206 263 309 366
#     4  10  23  41  65  90 125 165 203 259 308 369
#     4  10  22  45  63  91 128 162 216 254 308 378
#     4  12  24  39  65  96 125 166 209 258 318 367
#     4  11  24  39  63  91 126 164 205 255 307 369
#
# _framework density 22.003609999999998
#
# number of rings (size 3 to 8) (size 9 to 14) (size 15 to 20)
#    0.000    1.250    1.250    5.250    1.750    5.000 
#    2.250    2.500    0.000    0.000    0.000    0.000 
#    0.000    0.000    0.000    0.000    0.000    0.000 
#
# Total GULP energy -89412.202306 kJ/mol
# GULP energy per Si atom -5588.262644 kJ/mol
# Density = 2.195353 g / cm^3
# Si number density = 22.003610 Si / 1000 Ang^3
#
#
#
# Elastic Constant Matrix: (Units=GPa)
#
#
# Indices 1 2 3 4 5 6 
#
# 1 41.7242 10.1431 23.8027 -4.7632 -1.3847 -0.8816
# 2 10.1431 51.0111 9.4727 7.6916 -11.9761 -2.0587
# 3 23.8027 9.4727 93.5754 -0.1632 -10.3159 -2.9431
# 4 -4.7632 7.6916 -0.1632 28.0616 1.0143 1.6145
# 5 -1.3847 -11.9761 -10.3159 1.0143 36.4976 0.8378
# 6 -0.8816 -2.0587 -2.9431 1.6145 0.8378 35.3067
#
#
#
# Elastic Compliance Matrix: (Units=1/GPa)
#
#
# Indices 1 2 3 4 5 6 
#
# 1 0.030500 -0.006536 -0.007462 0.007072 -0.003282 -0.000487
# 2 -0.006536 0.023994 0.000130 -0.008051 0.007853 0.001429
# 3 -0.007462 0.000130 0.012977 -0.001402 0.003446 0.000885
# 4 0.007072 -0.008051 -0.001402 0.039295 -0.003813 -0.002116
# 5 -0.003282 0.007853 0.003446 -0.003813 0.030929 0.000104
# 6 -0.000487 0.001429 0.000885 -0.002116 0.000104 0.028562
#
#
# Mechanical properties :
#
#
# Convention : Reuss Voigt Hill
#
# Bulk Modulus (GPa) = 25.16516 30.34975 27.75746
# Shear Modulus (GPa) = 24.12693 29.49932 26.81313
#
# Velocity S-wave (km/s) = 3.31493 3.66547 3.49460
# Velocity P-wave (km/s) = 5.11013 5.63358 5.37823
#
# Compressibility (1/GPa) = 0.03973747
#
# Stress axis : x y z
#
# Youngs Moduli (GPa) = 32.78642 41.67654 77.06127
#
# Poissons Ratio (x) = 0.27238 0.57500
# Poissons Ratio (y) = 0.21428 -0.01003
# Poissons Ratio (z) = 0.24464 -0.00542
#
# Static dielectric constant tensor:
#      x y z
#    x 1.793320 0.000910 -0.025160 
#    y 0.000910 1.909880 0.065560 
#    z -0.025160 0.065560 1.838220 
# 
# From -- ./inp_files/307019.got.cif
#   From: 2010.05.17/outbox.cif.g08.bks.cpg/sg2_154_cif.got.tgz:307019.got - 2010.06.03 11:33:40.
