data_PCOD9034249
_publ_section_title
;
Structure prediction by ZEFSAII (Michael W. Deem and Ramdas Pophale) SiO2 
 PCOD9034249
Probable space group: P -1
;
_chemical_formula_sum "Si O2"
_cell_formula_units_Z 13
_cell_length_a 5.364741
_cell_length_b 9.500870
_cell_length_c 18.809196
_cell_angle_alpha 135.402778
_cell_angle_beta 101.450418
_cell_angle_gamma 105.019555
_cell_volume 536.474853
_symmetry_space_group_name_H-M "P -1"
_symmetry_group_IT_number 2
_symmetry_cell_setting 'triclinic'
loop_
_space_group_symop_operation_xyz
x,y,z
-x,-y,-z
loop_
_atom_site_type_symbol
_atom_site_label
_atom_site_fract_x
_atom_site_fract_y
_atom_site_fract_z
Si Si1 0.705585 0.525390 0.631560
Si Si2 0.500000 0.500000 0.000000
Si Si3 0.572766 0.199232 0.635911
Si Si4 0.583902 0.005745 0.181586
Si Si5 0.236579 0.337249 0.765102
Si Si6 0.635050 0.282657 0.404961
Si Si7 0.643488 0.882393 0.921230
O O1 0.653239 0.429099 0.673259
O O2 0.585235 0.291197 0.488264
O O3 0.523242 0.623699 0.620133
O O4 0.066386 0.755714 0.728438
O O5 0.352346 0.376998 0.867205
O O6 0.473620 0.250245 0.930811
O O7 0.305928 0.163075 0.661443
O O8 0.883327 0.259686 0.714099
O O9 0.500000 0.000000 0.500000
O O10 0.534852 0.033969 0.271838
O O11 0.370331 0.048127 0.135658
O O12 0.437004 0.598641 0.829580
O O13 0.000000 0.500000 0.500000
O O14 0.500000 0.000000 0.000000
O O15 0.000000 0.000000 0.000000
#
# Coordination Sequence:
#
# PCOD9034249 Si02
#       7
#     2   1   2   2   2   2   2
#     4  10  22  44  72 110 138 197 258 312 379 452
#     4  12  30  48  72 114 158 204 248 324 392 462
#     4  12  28  49  81 110 153 202 261 325 387 458
#     4  11  24  46  73 104 151 199 252 312 386 461
#     4  12  28  52  74 114 156 204 258 317 394 464
#     4   9  21  39  71 104 142 187 244 316 371 452
#     4  12  25  47  77 107 143 202 259 309 368 467
#
# _framework density 24.232265999999999
#
# number of rings (size 3 to 8) (size 9 to 14) (size 15 to 20)
#    0.000    0.923    3.077    2.308    6.462    4.308 
#    0.000    0.000    0.000    0.000    0.000    0.000 
#    0.000    0.000    0.000    0.000    0.000    0.000 
#
# Total GULP energy -72418.258681 kJ/mol
# GULP energy per Si atom -5570.635283 kJ/mol
# Density = 2.417711 g / cm^3
# Si number density = 24.232266 Si / 1000 Ang^3
#
#
#
# Elastic Constant Matrix: (Units=GPa)
#
#
# Indices 1 2 3 4 5 6 
#
# 1 103.0374 18.3377 48.3115 -28.3287 14.2971 -16.0125
# 2 18.3377 118.9727 31.2011 -33.6210 17.6767 -16.2408
# 3 48.3115 31.2011 133.2038 -27.6013 -12.7817 -19.9279
# 4 -28.3287 -33.6210 -27.6013 45.9718 2.8678 3.1753
# 5 14.2971 17.6767 -12.7817 2.8678 48.1686 -12.0581
# 6 -16.0125 -16.2408 -19.9279 3.1753 -12.0581 22.1653
#
#
#
# Elastic Compliance Matrix: (Units=1/GPa)
#
#
# Indices 1 2 3 4 5 6 
#
# 1 0.015200 0.002829 -0.004184 0.008971 -0.006008 0.004738
# 2 0.002829 0.012767 -0.001552 0.010066 -0.005086 0.005795
# 3 -0.004184 -0.001552 0.012191 0.002406 0.007547 0.010562
# 4 0.008971 0.010066 0.002406 0.035930 -0.005945 0.007637
# 5 -0.006008 -0.005086 0.007547 -0.005945 0.030862 0.016360
# 6 0.004738 0.005795 0.010562 0.007637 0.016360 0.070085
#
#
# Mechanical properties :
#
#
# Convention : Reuss Voigt Hill
#
# Bulk Modulus (GPa) = 29.11710 61.21273 45.16491
# Shear Modulus (GPa) = 25.73362 40.41871 33.07617
#
# Velocity S-wave (km/s) = 3.26230 4.08851 3.69855
# Velocity P-wave (km/s) = 5.12173 6.89953 6.07600
#
# Compressibility (1/GPa) = 0.03434408
#
# Stress axis : x y z
#
# Youngs Moduli (GPa) = 65.78932 78.32437 82.02628
#
# Poissons Ratio (x) = -0.22159 0.34323
# Poissons Ratio (y) = -0.18612 0.12730
# Poissons Ratio (z) = 0.27529 0.12156
#
# Static dielectric constant tensor:
#      x y z
#    x 1.980080 0.003140 -0.086180 
#    y 0.003140 1.903710 0.003990 
#    z -0.086180 0.003990 1.877470 
# 
# From -- ./inp_files/43653.got.cif
#   From: 2010.05.17/outbox.cif.g08.bks.cpg/sg2_22_cif.got.tgz:43653.got - 2010.06.03 11:33:40.
