data_PCOD9034514
_publ_section_title
;
Structure prediction by ZEFSAII (Michael W. Deem and Ramdas Pophale) SiO2 
 PCOD9034514
Probable space group: P -1
;
_chemical_formula_sum "Si O2"
_cell_formula_units_Z 14
_cell_length_a 10.724975
_cell_length_b 10.160680
_cell_length_c 11.745785
_cell_angle_alpha 116.060027
_cell_angle_beta 37.004275
_cell_angle_gamma 93.027534
_cell_volume 577.446827
_symmetry_space_group_name_H-M "P -1"
_symmetry_group_IT_number 2
_symmetry_cell_setting 'triclinic'
loop_
_space_group_symop_operation_xyz
x,y,z
-x,-y,-z
loop_
_atom_site_type_symbol
_atom_site_label
_atom_site_fract_x
_atom_site_fract_y
_atom_site_fract_z
Si Si1 0.651611 0.324569 0.896747
Si Si2 0.221506 0.557920 0.701903
Si Si3 0.779102 0.699946 0.707157
Si Si4 0.279973 0.133711 0.793555
Si Si5 0.966428 0.841033 0.809945
Si Si6 0.870187 0.733432 0.392107
Si Si7 0.299357 0.892482 0.427845
O O1 0.840351 0.337743 0.842631
O O2 0.773187 0.176486 0.653881
O O3 0.500000 0.500000 0.000000
O O4 0.473459 0.288148 0.082563
O O5 0.500000 0.500000 0.500000
O O6 0.143783 0.649724 0.667843
O O7 0.198794 0.392780 0.661886
O O8 0.988558 0.716489 0.003335
O O9 0.000000 0.500000 0.500000
O O10 0.810882 0.821893 0.817883
O O11 0.798992 0.744631 0.581023
O O12 0.407237 0.224470 0.799413
O O13 0.500000 0.000000 0.500000
O O14 0.255111 0.076644 0.497810
O O15 0.208043 0.048061 0.914365
O O16 0.133443 0.900959 0.656213
#
# Coordination Sequence:
#
# PCOD9034514 Si02
#       7
#     2   2   2   2   2   2   2
#     4  12  22  40  70 105 154 202 247 306 383 462
#     4  10  24  53  80 109 147 204 272 319 375 462
#     4  12  20  41  73 108 152 198 249 310 387 463
#     4  10  24  50  78 105 149 206 260 317 388 452
#     4  10  22  44  78 105 154 200 253 312 394 458
#     4  12  26  43  74 115 151 198 257 317 385 461
#     4  12  25  44  71 115 156 198 251 319 391 461
#
# _framework density 24.244655999999999
#
# number of rings (size 3 to 8) (size 9 to 14) (size 15 to 20)
#    0.857    0.000    5.714    1.286    0.000    3.429 
#    5.143    1.429    0.000    0.857    0.000    0.000 
#    0.000    0.000    0.000    0.000    0.000    0.000 
#
# Total GULP energy -78324.477565 kJ/mol
# GULP energy per Si atom -5594.605540 kJ/mol
# Density = 2.418947 g / cm^3
# Si number density = 24.244656 Si / 1000 Ang^3
#
#
#
# Elastic Constant Matrix: (Units=GPa)
#
#
# Indices 1 2 3 4 5 6 
#
# 1 109.0040 36.7803 36.9964 -4.3611 -40.8406 25.0701
# 2 36.7803 144.4074 59.5504 -18.6302 -12.2421 5.4065
# 3 36.9964 59.5504 163.5535 -28.1898 -18.9184 6.9718
# 4 -4.3611 -18.6302 -28.1898 51.6376 8.0180 -4.2201
# 5 -40.8406 -12.2421 -18.9184 8.0180 45.2387 -12.3899
# 6 25.0701 5.4065 6.9718 -4.2201 -12.3899 34.8745
#
#
#
# Elastic Compliance Matrix: (Units=1/GPa)
#
#
# Indices 1 2 3 4 5 6 
#
# 1 0.016786 -0.002681 -0.001593 -0.002924 0.012274 -0.007326
# 2 -0.002681 0.008712 -0.002419 0.001848 -0.001163 0.000870
# 3 -0.001593 -0.002419 0.007990 0.003275 0.000837 0.000616
# 4 -0.002924 0.001848 0.003275 0.022405 -0.004077 0.002423
# 5 0.012274 -0.001163 0.000837 -0.004077 0.034780 0.003052
# 6 -0.007326 0.000870 0.000616 0.002423 0.003052 0.035060
#
#
# Mechanical properties :
#
#
# Convention : Reuss Voigt Hill
#
# Bulk Modulus (GPa) = 49.74278 75.95770 62.85024
# Shear Modulus (GPa) = 34.28901 45.25933 39.77417
#
# Velocity S-wave (km/s) = 3.76479 4.32531 4.05474
# Velocity P-wave (km/s) = 6.28170 7.50613 6.92105
#
# Compressibility (1/GPa) = 0.02010342
#
# Stress axis : x y z
#
# Youngs Moduli (GPa) = 59.57398 114.77891 125.15160
#
# Poissons Ratio (x) = 0.30771 0.19934
# Poissons Ratio (y) = 0.15971 0.30273
# Poissons Ratio (z) = 0.09489 0.27764
#
# Static dielectric constant tensor:
#      x y z
#    x 1.989030 -0.008710 0.020590 
#    y -0.008710 1.887200 0.048860 
#    z 0.020590 0.048860 1.994550 
# 
# From -- ./inp_files/197744.got.cif
#   From: 2010.05.17/outbox.cif.g08.bks.cpg/sg2_99_cif.got.tgz:197744.got - 2010.06.03 11:33:40.
