data_PCOD9034495
_publ_section_title
;
Structure prediction by ZEFSAII (Michael W. Deem and Ramdas Pophale) SiO2 
 PCOD9034495
Probable space group: P -1
;
_chemical_formula_sum "Si O2"
_cell_formula_units_Z 15
_cell_length_a 13.610806
_cell_length_b 19.147687
_cell_length_c 11.811373
_cell_angle_alpha 30.526260
_cell_angle_beta 41.879314
_cell_angle_gamma 22.840678
_cell_volume 587.637643
_symmetry_space_group_name_H-M "P -1"
_symmetry_group_IT_number 2
_symmetry_cell_setting 'triclinic'
loop_
_space_group_symop_operation_xyz
x,y,z
-x,-y,-z
loop_
_atom_site_type_symbol
_atom_site_label
_atom_site_fract_x
_atom_site_fract_y
_atom_site_fract_z
Si Si1 0.554957 0.848917 0.061850
Si Si2 0.258059 0.501857 0.143300
Si Si3 0.114018 0.492994 0.039111
Si Si4 0.880283 0.769548 0.281217
Si Si5 0.241081 0.843710 0.700950
Si Si6 0.373968 0.466297 0.400692
Si Si7 0.676003 0.415230 0.366454
Si Si8 0.500000 0.000000 0.500000
O O1 0.618309 0.656777 0.338430
O O2 0.812152 0.706646 0.978348
O O3 0.500000 0.000000 0.000000
O O4 0.317555 0.021595 0.936525
O O5 0.141561 0.554944 0.048314
O O6 0.574078 0.238531 0.242712
O O7 0.106302 0.537724 0.323118
O O8 0.223498 0.691497 0.934259
O O9 0.264970 0.238040 0.291117
O O10 0.259852 0.475255 0.849217
O O11 0.081444 0.709940 0.264982
O O12 0.703041 0.842784 0.430714
O O13 0.421260 0.738400 0.585345
O O14 0.955568 0.124632 0.539378
O O15 0.504467 0.503301 0.283162
O O16 0.500000 0.500000 0.500000
#
# Coordination Sequence:
#
# PCOD9034495 Si02
#       8
#     2   2   2   2   2   2   2   1
#     4  12  25  45  83 114 147 196 261 316 378 453
#     4  10  22  45  79 109 144 195 260 312 379 443
#     4  12  27  49  72 113 149 204 255 315 384 455
#     4  11  26  47  77 107 154 200 248 316 378 455
#     4  10  22  44  76 113 146 191 248 323 374 456
#     4  11  24  48  76 113 151 193 257 314 379 450
#     4  12  28  47  76 113 157 200 251 316 396 462
#     4  12  30  50  70 106 166 202 248 310 392 470
#
# _framework density 25.525933999999999
#
# number of rings (size 3 to 8) (size 9 to 14) (size 15 to 20)
#    0.000    0.800    4.000    2.000    3.733    6.933 
#    0.000    1.333    0.000    0.000    0.000    0.000 
#    0.000    0.000    0.000    0.000    0.000    0.000 
#
# Total GULP energy -83666.609494 kJ/mol
# GULP energy per Si atom -5577.773966 kJ/mol
# Density = 2.546784 g / cm^3
# Si number density = 25.525934 Si / 1000 Ang^3
#
#
#
# Elastic Constant Matrix: (Units=GPa)
#
#
# Indices 1 2 3 4 5 6 
#
# 1 136.5255 64.6225 50.5150 -10.7213 25.8223 -41.9865
# 2 64.6225 186.3197 36.2288 8.1848 19.2533 -25.0806
# 3 50.5150 36.2288 84.0047 20.4262 26.3656 -16.3308
# 4 -10.7213 8.1848 20.4262 55.1562 -2.3436 14.9274
# 5 25.8223 19.2533 26.3656 -2.3436 34.0988 -6.0521
# 6 -41.9865 -25.0806 -16.3308 14.9274 -6.0521 49.2592
#
#
#
# Elastic Compliance Matrix: (Units=1/GPa)
#
#
# Indices 1 2 3 4 5 6 
#
# 1 0.013540 -0.002474 -0.005357 0.002888 -0.003233 0.007233
# 2 -0.002474 0.006729 -0.000067 -0.001984 -0.001711 0.001686
# 3 -0.005357 -0.000067 0.023255 -0.011561 -0.013808 0.004916
# 4 0.002888 -0.001984 -0.011561 0.026129 0.008015 -0.009314
# 5 -0.003233 -0.001711 -0.013808 0.008015 0.043019 -0.005348
# 6 0.007233 0.001686 0.004916 -0.009314 -0.005348 0.031120
#
#
# Mechanical properties :
#
#
# Convention : Reuss Voigt Hill
#
# Bulk Modulus (GPa) = 36.06366 78.84249 57.45308
# Shear Modulus (GPa) = 29.61527 44.73508 37.17517
#
# Velocity S-wave (km/s) = 3.40987 4.19087 3.82038
# Velocity P-wave (km/s) = 5.44627 7.37375 6.48205
#
# Compressibility (1/GPa) = 0.02772874
#
# Stress axis : x y z
#
# Youngs Moduli (GPa) = 73.85296 148.60728 43.00137
#
# Poissons Ratio (x) = 0.36763 0.23035
# Poissons Ratio (y) = 0.18270 0.00290
# Poissons Ratio (z) = 0.39561 0.01001
#
# Static dielectric constant tensor:
#      x y z
#    x 2.154310 0.074570 -0.027630 
#    y 0.074570 1.982340 0.012540 
#    z -0.027630 0.012540 2.015300 
# 
# From -- ./inp_files/457617.got.cif
#   From: 2010.05.17/outbox.cif.g08.bks.cpg/sg2_229_cif.got.tgz:457617.got - 2010.06.03 11:33:40.
