data_PCOD9034731
_publ_section_title
;
Structure prediction by ZEFSAII (Michael W. Deem and Ramdas Pophale) SiO2 
 PCOD9034731
Probable space group: P -1
;
_chemical_formula_sum "Si O2"
_cell_formula_units_Z 15
_cell_length_a 8.495673
_cell_length_b 22.926422
_cell_length_c 9.543128
_cell_angle_alpha 51.825960
_cell_angle_beta 83.550252
_cell_angle_gamma 41.139000
_cell_volume 702.364347
_symmetry_space_group_name_H-M "P -1"
_symmetry_group_IT_number 2
_symmetry_cell_setting 'triclinic'
loop_
_space_group_symop_operation_xyz
x,y,z
-x,-y,-z
loop_
_atom_site_type_symbol
_atom_site_label
_atom_site_fract_x
_atom_site_fract_y
_atom_site_fract_z
Si Si1 0.822198 0.287866 0.885662
Si Si2 0.403151 0.864902 0.494376
Si Si3 0.019009 0.911571 0.297469
Si Si4 0.000000 0.500000 0.000000
Si Si5 0.315037 0.002762 0.064570
Si Si6 0.100959 0.580042 0.410996
Si Si7 0.806526 0.929016 0.574532
Si Si8 0.257753 0.396611 0.431536
O O1 0.433056 0.450061 0.662697
O O2 0.967758 0.309674 0.803787
O O3 0.991911 0.163302 0.942029
O O4 0.920026 0.219499 0.131448
O O5 0.088426 0.958610 0.306382
O O6 0.672699 0.691404 0.746115
O O7 0.523873 0.875031 0.351920
O O8 0.300424 0.950860 0.516005
O O9 0.369055 0.749501 0.436230
O O10 0.919036 0.896455 0.453316
O O11 0.777066 0.007083 0.048527
O O12 0.964283 0.503948 0.830091
O O13 0.500000 0.000000 0.000000
O O14 0.180268 0.493647 0.402633
O O15 0.828856 0.646786 0.425080
O O16 0.500000 0.000000 0.500000
#
# Coordination Sequence:
#
# PCOD9034731 Si02
#       8
#     2   2   2   1   2   2   2   2
#     4  10  23  42  67  94 136 188 226 278 347 415
#     4  10  24  44  68  99 137 182 221 288 339 408
#     4  11  22  44  68 103 132 175 236 281 343 405
#     4  10  24  42  66 104 136 164 236 268 358 388
#     4  11  23  43  68  99 140 177 231 283 341 414
#     4  10  22  45  67  96 137 182 235 276 347 409
#     4  11  25  46  66 101 143 184 224 282 355 411
#     4  10  23  42  70  98 134 180 227 294 335 402
#
# _framework density 21.356435999999999
#
# number of rings (size 3 to 8) (size 9 to 14) (size 15 to 20)
#    0.000    1.600    1.333    2.400    9.333    0.000 
#    2.400    0.667    0.000    0.000    0.000    0.000 
#    0.000    0.000    0.000    0.000    0.000    0.000 
#
# Total GULP energy -83559.131533 kJ/mol
# GULP energy per Si atom -5570.608769 kJ/mol
# Density = 2.130783 g / cm^3
# Si number density = 21.356436 Si / 1000 Ang^3
#
#
#
# Elastic Constant Matrix: (Units=GPa)
#
#
# Indices 1 2 3 4 5 6 
#
# 1 87.1173 39.5761 21.9707 3.3764 -8.4923 0.8080
# 2 39.5761 109.4049 49.6855 14.1205 5.5125 -6.9231
# 3 21.9707 49.6855 114.9298 7.2497 -10.1904 -3.2376
# 4 3.3764 14.1205 7.2497 33.9288 8.9831 -6.6594
# 5 -8.4923 5.5125 -10.1904 8.9831 14.3879 5.9734
# 6 0.8080 -6.9231 -3.2376 -6.6594 5.9734 34.1957
#
#
#
# Elastic Compliance Matrix: (Units=1/GPa)
#
#
# Indices 1 2 3 4 5 6 
#
# 1 0.016735 -0.007746 0.002141 -0.005598 0.020530 -0.006437
# 2 -0.007746 0.016465 -0.007386 0.002208 -0.020311 0.006795
# 3 0.002141 -0.007386 0.013461 -0.006126 0.019472 -0.004866
# 4 -0.005598 0.002208 -0.006126 0.045149 -0.043481 0.016387
# 5 0.020530 -0.020311 0.019472 -0.043481 0.145556 -0.036647
# 6 -0.006437 0.006795 -0.004866 0.016387 -0.036647 0.039903
#
#
# Mechanical properties :
#
#
# Convention : Reuss Voigt Hill
#
# Bulk Modulus (GPa) = 48.35476 59.32408 53.83942
# Shear Modulus (GPa) = 16.12158 29.85045 22.98602
#
# Velocity S-wave (km/s) = 2.75049 3.74267 3.28427
# Velocity P-wave (km/s) = 5.72520 6.82020 6.29655
#
# Compressibility (1/GPa) = 0.02068049
#
# Stress axis : x y z
#
# Youngs Moduli (GPa) = 59.75369 60.73516 74.29128
#
# Poissons Ratio (x) = 0.47043 -0.15908
# Poissons Ratio (y) = 0.46282 0.54872
# Poissons Ratio (z) = -0.12795 0.44859
#
# Static dielectric constant tensor:
#      x y z
#    x 1.807140 -0.019060 -0.014880 
#    y -0.019060 1.776690 -0.003900 
#    z -0.014880 -0.003900 1.772740 
# 
# From -- ./inp_files/226112.got.cif
#   From: 2010.05.17/outbox.cif.g08.bks.cpg/sg2_114_cif.got.tgz:226112.got - 2010.06.03 11:33:40.
