data_PCOD9034567
_publ_section_title
;
Structure prediction by ZEFSAII (Michael W. Deem and Ramdas Pophale) SiO2 
 PCOD9034567
Probable space group: P -1
;
_chemical_formula_sum "Si O2"
_cell_formula_units_Z 15
_cell_length_a 22.628785
_cell_length_b 8.809482
_cell_length_c 8.305260
_cell_angle_alpha 130.386402
_cell_angle_beta 147.499365
_cell_angle_gamma 51.512671
_cell_volume 665.844363
_symmetry_space_group_name_H-M "P -1"
_symmetry_group_IT_number 2
_symmetry_cell_setting 'triclinic'
loop_
_space_group_symop_operation_xyz
x,y,z
-x,-y,-z
loop_
_atom_site_type_symbol
_atom_site_label
_atom_site_fract_x
_atom_site_fract_y
_atom_site_fract_z
Si Si1 0.500000 0.500000 0.000000
Si Si2 0.852624 0.078703 0.573052
Si Si3 0.772579 0.455540 0.232361
Si Si4 0.679411 0.899582 0.242524
Si Si5 0.343321 0.842593 0.081604
Si Si6 0.446879 0.104608 0.722406
Si Si7 0.110267 0.492955 0.141173
Si Si8 0.992091 0.689898 0.492970
O O1 0.435239 0.696054 0.088134
O O2 0.544469 0.660798 0.090725
O O3 0.778463 0.020535 0.509974
O O4 0.955517 0.898893 0.647414
O O5 0.887947 0.296968 0.804255
O O6 0.766219 0.094809 0.236249
O O7 0.728103 0.660459 0.173705
O O8 0.795834 0.526913 0.518592
O O9 0.889416 0.340098 0.346487
O O10 0.690657 0.296572 0.948485
O O11 0.627767 0.939962 0.328295
O O12 0.571280 0.970924 0.931758
O O13 0.386581 0.035394 0.381250
O O14 0.101748 0.329061 0.871864
O O15 0.000000 0.500000 0.000000
O O16 0.000000 0.500000 0.500000
#
# Coordination Sequence:
#
# PCOD9034567 Si02
#       8
#     1   2   2   2   2   2   2   2
#     4  12  22  44  66  94 132 170 226 276 318 402
#     4  11  24  43  68 100 133 172 226 270 325 401
#     4  10  22  45  64  96 136 172 218 271 330 401
#     4  11  23  45  64 101 138 166 225 280 328 390
#     4  11  25  44  70  97 128 180 224 269 335 399
#     4  11  26  45  69  96 135 179 220 279 331 395
#     4   9  23  43  64  92 131 178 214 268 325 387
#     4  11  23  42  68  99 134 168 221 272 329 393
#
# _framework density 22.527788999999999
#
# number of rings (size 3 to 8) (size 9 to 14) (size 15 to 20)
#    0.000    1.333    4.000    0.400    1.867    6.933 
#    2.400    0.000    0.000    0.000    0.000    0.000 
#    0.000    0.000    0.000    0.000    0.000    0.000 
#
# Total GULP energy -83583.960073 kJ/mol
# GULP energy per Si atom -5572.264005 kJ/mol
# Density = 2.247651 g / cm^3
# Si number density = 22.527789 Si / 1000 Ang^3
#
#
#
# Elastic Constant Matrix: (Units=GPa)
#
#
# Indices 1 2 3 4 5 6 
#
# 1 109.9805 22.2734 8.7090 4.5073 28.4940 7.4240
# 2 22.2734 101.7869 19.9040 3.0962 15.1767 6.9190
# 3 8.7090 19.9040 46.4329 -1.8468 4.1621 -3.0558
# 4 4.5073 3.0962 -1.8468 19.5559 3.6157 8.5727
# 5 28.4940 15.1767 4.1621 3.6157 34.5572 4.3510
# 6 7.4240 6.9190 -3.0558 8.5727 4.3510 42.5075
#
#
#
# Elastic Compliance Matrix: (Units=1/GPa)
#
#
# Indices 1 2 3 4 5 6 
#
# 1 0.011788 -0.000944 -0.001086 -0.000594 -0.008993 -0.000943
# 2 -0.000944 0.011578 -0.004605 -0.000728 -0.003481 -0.001547
# 3 -0.001086 -0.004605 0.024000 0.002356 -0.000502 0.002241
# 4 -0.000594 -0.000728 0.002356 0.057056 -0.004097 -0.010696
# 5 -0.008993 -0.003481 -0.000502 -0.004097 0.038498 -0.001013
# 6 -0.000943 -0.001547 0.002241 -0.010696 -0.001013 0.026364
#
#
# Mechanical properties :
#
#
# Convention : Reuss Voigt Hill
#
# Bulk Modulus (GPa) = 29.32846 39.99700 34.66273
# Shear Modulus (GPa) = 25.78405 33.14506 29.46455
#
# Velocity S-wave (km/s) = 3.38678 3.83991 3.62044
# Velocity P-wave (km/s) = 5.32361 6.11988 5.73558
#
# Compressibility (1/GPa) = 0.03409657
#
# Stress axis : x y z
#
# Youngs Moduli (GPa) = 84.83443 86.37247 41.66646
#
# Poissons Ratio (x) = 0.08154 0.04524
# Poissons Ratio (y) = 0.08009 0.19186
# Poissons Ratio (z) = 0.09211 0.39772
#
# Static dielectric constant tensor:
#      x y z
#    x 1.891590 0.033190 0.024880 
#    y 0.033190 1.792440 -0.019070 
#    z 0.024880 -0.019070 1.873680 
# 
# From -- ./inp_files/294159.got.cif
#   From: 2010.05.17/outbox.cif.g08.bks.cpg/sg2_148_cif.got.tgz:294159.got - 2010.06.03 11:33:40.
