data_PCOD9034759
_publ_section_title
;
Structure prediction by ZEFSAII (Michael W. Deem and Ramdas Pophale) SiO2 
 PCOD9034759
Probable space group: P -1
;
_chemical_formula_sum "Si O2"
_cell_formula_units_Z 16
_cell_length_a 22.314598
_cell_length_b 8.074476
_cell_length_c 13.578838
_cell_angle_alpha 68.487802
_cell_angle_beta 22.369207
_cell_angle_gamma 58.594127
_cell_volume 743.060175
_symmetry_space_group_name_H-M "P -1"
_symmetry_group_IT_number 2
_symmetry_cell_setting 'triclinic'
loop_
_space_group_symop_operation_xyz
x,y,z
-x,-y,-z
loop_
_atom_site_type_symbol
_atom_site_label
_atom_site_fract_x
_atom_site_fract_y
_atom_site_fract_z
Si Si1 0.540864 0.491100 0.057889
Si Si2 0.934206 0.200058 0.486616
Si Si3 0.872422 0.852936 0.304363
Si Si4 0.518787 0.868457 0.791343
Si Si5 0.270910 0.722438 0.692972
Si Si6 0.306219 0.129981 0.882640
Si Si7 0.545854 0.273743 0.382038
Si Si8 0.736759 0.080105 0.652730
O O1 0.498742 0.315453 0.191293
O O2 0.406308 0.725803 0.239834
O O3 0.500000 0.500000 0.000000
O O4 0.756409 0.395659 0.762224
O O5 0.863488 0.143479 0.507218
O O6 0.000000 0.000000 0.500000
O O7 0.096204 0.242310 0.209807
O O8 0.729977 0.779600 0.513088
O O9 0.789240 0.070405 0.323103
O O10 0.854769 0.897267 0.438314
O O11 0.083707 0.715193 0.983070
O O12 0.434182 0.052545 0.801527
O O13 0.389873 0.944645 0.067983
O O14 0.446832 0.505541 0.437355
O O15 0.329092 0.743978 0.711019
O O16 0.377426 0.250261 0.683114
O O17 0.341684 0.924634 0.814900
#
# Coordination Sequence:
#
# PCOD9034759 Si02
#       8
#     2   2   2   2   2   2   2   2
#     4   8  18  33  53  85 113 145 176 222 281 327
#     4  10  17  32  57  84 114 141 177 228 280 331
#     4  11  22  38  61  80 115 155 190 225 285 337
#     4  10  19  36  57  84 117 144 180 235 278 338
#     4  10  23  42  57  81 113 152 193 239 276 326
#     4  11  20  36  63  85 111 148 189 235 284 330
#     4  10  23  40  60  82 110 150 196 238 281 321
#     4  10  21  36  58  88 114 150 182 226 287 342
#
# _framework density 21.532575999999999
#
# number of rings (size 3 to 8) (size 9 to 14) (size 15 to 20)
#    0.000    2.250    3.750    1.125    1.750    3.000 
#    0.000    0.625    0.000    1.500    0.000    0.000 
#    0.000    0.000    0.000    0.000    0.000    0.000 
#
# Total GULP energy -89258.501525 kJ/mol
# GULP energy per Si atom -5578.656345 kJ/mol
# Density = 2.148357 g / cm^3
# Si number density = 21.532576 Si / 1000 Ang^3
#
#
#
# Elastic Constant Matrix: (Units=GPa)
#
#
# Indices 1 2 3 4 5 6 
#
# 1 58.8024 -0.9332 9.3973 6.7253 -11.2765 -3.5982
# 2 -0.9332 31.0091 -6.9694 9.3471 0.5861 -15.5971
# 3 9.3973 -6.9694 86.1696 -3.3951 -26.1847 11.5238
# 4 6.7253 9.3471 -3.3951 30.0901 -1.1889 -8.5897
# 5 -11.2765 0.5861 -26.1847 -1.1889 26.6028 -4.5119
# 6 -3.5982 -15.5971 11.5238 -8.5897 -4.5119 22.2505
#
#
#
# Elastic Compliance Matrix: (Units=1/GPa)
#
#
# Indices 1 2 3 4 5 6 
#
# 1 0.019735 0.005183 -0.000027 -0.003557 0.009313 0.007354
# 2 0.005183 0.052777 0.000962 -0.006769 0.007837 0.036312
# 3 -0.000027 0.000962 0.017273 0.000983 0.016232 -0.004605
# 4 -0.003557 -0.006769 0.000983 0.039194 0.003043 0.009918
# 5 0.009313 0.007837 0.016232 0.003043 0.059484 0.011830
# 6 0.007354 0.036312 -0.004605 0.009918 0.011830 0.080198
#
#
# Mechanical properties :
#
#
# Convention : Reuss Voigt Hill
#
# Bulk Modulus (GPa) = 9.80178 19.88562 14.84370
# Shear Modulus (GPa) = 17.21575 27.42112 22.31843
#
# Velocity S-wave (km/s) = 2.83065 3.57244 3.22296
# Velocity P-wave (km/s) = 3.90453 5.12559 4.55615
#
# Compressibility (1/GPa) = 0.10202226
#
# Stress axis : x y z
#
# Youngs Moduli (GPa) = 50.67040 18.94752 57.89492
#
# Poissons Ratio (x) = -0.09820 0.00154
# Poissons Ratio (y) = -0.26262 -0.05570
# Poissons Ratio (z) = 0.00135 -0.01823
#
# Static dielectric constant tensor:
#      x y z
#    x 1.929970 -0.213720 0.105470 
#    y -0.213720 2.090920 -0.116500 
#    z 0.105470 -0.116500 1.830360 
# 
# From -- ./inp_files/251637.got.cif
#   From: 2010.05.17/outbox.cif.g08.bks.cpg/sg2_126_cif.got.tgz:251637.got - 2010.06.03 11:33:40.
