data_PCOD9034481
_publ_section_title
;
Structure prediction by ZEFSAII (Michael W. Deem and Ramdas Pophale) SiO2 
 PCOD9034481
Probable space group: P -1
;
_chemical_formula_sum "Si O2"
_cell_formula_units_Z 12
_cell_length_a 7.799186
_cell_length_b 7.493692
_cell_length_c 8.470819
_cell_angle_alpha 76.399825
_cell_angle_beta 104.789454
_cell_angle_gamma 104.900472
_cell_volume 454.901368
_symmetry_space_group_name_H-M "P -1"
_symmetry_group_IT_number 2
_symmetry_cell_setting 'triclinic'
loop_
_space_group_symop_operation_xyz
x,y,z
-x,-y,-z
loop_
_atom_site_type_symbol
_atom_site_label
_atom_site_fract_x
_atom_site_fract_y
_atom_site_fract_z
Si Si1 0.934720 0.634493 0.324671
Si Si2 0.662321 0.084214 0.903925
Si Si3 0.178633 0.936228 0.491099
Si Si4 0.102118 0.696610 0.818095
Si Si5 0.470108 0.393488 0.680782
Si Si6 0.299803 0.240820 0.242448
O O1 0.904270 0.519926 0.179297
O O2 0.742195 0.676598 0.319840
O O3 0.000000 0.500000 0.500000
O O4 0.095292 0.814780 0.342996
O O5 0.813677 0.210100 0.022472
O O6 0.579611 0.229391 0.748651
O O7 0.500000 0.000000 0.000000
O O8 0.711797 0.900625 0.875963
O O9 0.216348 0.809970 0.673083
O O10 0.328546 0.108031 0.426677
O O11 0.000000 0.000000 0.500000
O O12 0.892723 0.711609 0.768328
O O13 0.500000 0.500000 0.500000
O O14 0.556638 0.565319 0.782901
#
# Coordination Sequence:
#
# PCOD9034481 Si02
#       6
#     2   2   2   2   2   2
#     4  10  22  44  76 105 146 193 244 302 369 434
#     4  12  30  48  72 111 155 197 238 309 378 431
#     4   9  20  41  76 105 140 190 246 291 358 431
#     4  10  23  46  74 108 150 194 245 304 368 437
#     4  12  28  48  75 110 149 190 254 304 365 441
#     4  11  26  47  78 110 145 197 250 302 363 444
#
# _framework density 26.379348
#
# number of rings (size 3 to 8) (size 9 to 14) (size 15 to 20)
#    0.000    1.333    0.000    4.500   14.000    4.000 
#    0.000    0.000    0.000    0.000    0.000    0.000 
#    0.000    0.000    0.000    0.000    0.000    0.000 
#
# Total GULP energy -67225.337933 kJ/mol
# GULP energy per Si atom -5602.111494 kJ/mol
# Density = 2.631931 g / cm^3
# Si number density = 26.379348 Si / 1000 Ang^3
#
#
#
# Elastic Constant Matrix: (Units=GPa)
#
#
# Indices 1 2 3 4 5 6 
#
# 1 106.6955 24.6302 8.6025 7.3122 -1.6253 -5.6960
# 2 24.6302 106.3335 16.1113 27.4065 -0.1918 7.7072
# 3 8.6025 16.1113 72.4092 33.1890 4.0734 0.4778
# 4 7.3122 27.4065 33.1890 59.8710 0.9872 -13.0677
# 5 -1.6253 -0.1918 4.0734 0.9872 44.0748 9.3370
# 6 -5.6960 7.7072 0.4778 -13.0677 9.3370 43.0657
#
#
#
# Elastic Compliance Matrix: (Units=1/GPa)
#
#
# Indices 1 2 3 4 5 6 
#
# 1 0.010103 -0.002592 -0.001110 0.001033 -0.000010 0.002128
# 2 -0.002592 0.011937 0.000618 -0.006532 0.001040 -0.004693
# 3 -0.001110 0.000618 0.019194 -0.011612 -0.000740 -0.003834
# 4 0.001033 -0.006532 -0.011612 0.028303 -0.001755 0.010403
# 5 -0.000010 0.001040 -0.000740 -0.001755 0.024056 -0.005927
# 6 0.002128 -0.004693 -0.003834 0.010403 -0.005927 0.028826
#
#
# Mechanical properties :
#
#
# Convention : Reuss Voigt Hill
#
# Bulk Modulus (GPa) = 28.51841 42.68069 35.59955
# Shear Modulus (GPa) = 35.64381 45.14192 40.39286
#
# Velocity S-wave (km/s) = 3.67986 4.14123 3.91734
# Velocity P-wave (km/s) = 5.37489 6.25148 5.82969
#
# Compressibility (1/GPa) = 0.03506507
#
# Stress axis : x y z
#
# Youngs Moduli (GPa) = 98.97931 83.77464 52.09930
#
# Poissons Ratio (x) = 0.21718 0.05785
# Poissons Ratio (y) = 0.25660 -0.03222
# Poissons Ratio (z) = 0.10991 -0.05181
#
# Static dielectric constant tensor:
#      x y z
#    x 0.850450 0.032640 -0.410320 
#    y 0.032640 2.102780 0.011470 
#    z -0.410320 0.011470 2.029730 
# 
# From -- ./inp_files/151467.got.cif
#   From: 2010.05.17/outbox.cif.g08.bks.cpg/sg2_76_cif.got.tgz:151467.got - 2010.06.03 11:33:40.
