data_PCOD9034222
_publ_section_title
;
Structure prediction by ZEFSAII (Michael W. Deem and Ramdas Pophale) SiO2 
 PCOD9034222
Probable space group: P -1
;
_chemical_formula_sum "Si O2"
_cell_formula_units_Z 15
_cell_length_a 8.012250
_cell_length_b 8.123579
_cell_length_c 17.385600
_cell_angle_alpha 114.122346
_cell_angle_beta 118.698823
_cell_angle_gamma 35.677589
_cell_volume 578.516730
_symmetry_space_group_name_H-M "P -1"
_symmetry_group_IT_number 2
_symmetry_cell_setting 'triclinic'
loop_
_space_group_symop_operation_xyz
x,y,z
-x,-y,-z
loop_
_atom_site_type_symbol
_atom_site_label
_atom_site_fract_x
_atom_site_fract_y
_atom_site_fract_z
Si Si1 0.847823 0.298363 0.025162
Si Si2 0.246304 0.539296 0.117882
Si Si3 0.090938 0.651381 0.479870
Si Si4 0.862157 0.017051 0.740885
Si Si5 0.782704 0.596696 0.307692
Si Si6 0.500000 0.000000 0.000000
Si Si7 0.138483 0.367850 0.835743
Si Si8 0.272653 0.793387 0.414361
O O1 0.939230 0.363993 0.124383
O O2 0.500000 0.500000 0.000000
O O3 0.974167 0.310982 0.977433
O O4 0.000000 0.000000 0.000000
O O5 0.223255 0.770938 0.172551
O O6 0.490467 0.223599 0.077589
O O7 0.139704 0.534236 0.172473
O O8 0.182161 0.699792 0.433718
O O9 0.371750 0.463540 0.562510
O O10 0.002484 0.521148 0.404720
O O11 0.820110 0.953836 0.516441
O O12 0.553427 0.136459 0.687897
O O13 0.896179 0.093867 0.682036
O O14 0.125725 0.679381 0.740100
O O15 0.791801 0.705311 0.251235
O O16 0.617088 0.841694 0.082348
#
# Coordination Sequence:
#
# PCOD9034222 Si02
#       8
#     2   2   2   2   2   1   2   2
#     4  11  24  41  66  94 131 167 214 280 347 408
#     4  11  26  44  70  97 134 181 236 284 344 419
#     4  10  22  44  72 104 141 186 235 282 339 413
#     4  12  27  45  69 105 145 186 230 289 353 410
#     4  12  27  45  69 105 145 186 230 289 353 410
#     4  10  24  44  72  96 126 176 236 286 348 400
#     4  11  26  44  70  97 134 181 236 284 344 419
#     4  10  22  44  72 104 141 186 235 282 339 413
#
# _framework density 25.928379
#
# number of rings (size 3 to 8) (size 9 to 14) (size 15 to 20)
#    0.000    1.067    0.000    5.600   11.200    3.200 
#    7.200    0.000    0.000    0.000    0.000    0.000 
#    0.000    0.000    0.000    0.000    0.000    0.000 
#
# Total GULP energy -83538.068460 kJ/mol
# GULP energy per Si atom -5569.204564 kJ/mol
# Density = 2.586936 g / cm^3
# Si number density = 25.928379 Si / 1000 Ang^3
#
#
#
# Elastic Constant Matrix: (Units=GPa)
#
#
# Indices 1 2 3 4 5 6 
#
# 1 57.9627 8.4608 -3.6740 13.3965 -16.5555 13.6415
# 2 8.4608 108.6883 -11.0927 20.9934 9.4613 -3.4803
# 3 -3.6740 -11.0927 63.8828 11.6902 3.8006 9.8156
# 4 13.3965 20.9934 11.6902 38.1062 21.6401 0.7762
# 5 -16.5555 9.4613 3.8006 21.6401 46.9608 4.6534
# 6 13.6415 -3.4803 9.8156 0.7762 4.6534 32.6554
#
#
#
# Elastic Compliance Matrix: (Units=1/GPa)
#
#
# Indices 1 2 3 4 5 6 
#
# 1 0.041337 0.001405 0.011141 -0.036838 0.032768 -0.024261
# 2 0.001405 0.010953 0.003559 -0.008812 0.002119 -0.000582
# 3 0.011141 0.003559 0.021474 -0.018594 0.011219 -0.011886
# 4 -0.036838 -0.008812 -0.018594 0.076066 -0.047233 0.024961
# 5 0.032768 0.002119 0.011219 -0.047233 0.055619 -0.023638
# 6 -0.024261 -0.000582 -0.011886 0.024961 -0.023638 0.047043
#
#
# Mechanical properties :
#
#
# Convention : Reuss Voigt Hill
#
# Bulk Modulus (GPa) = 9.43636 24.21355 16.82496
# Shear Modulus (GPa) = 19.56127 39.33379 29.44753
#
# Velocity S-wave (km/s) = 2.74968 3.89912 3.37371
# Velocity P-wave (km/s) = 3.70517 5.44332 4.65607
#
# Compressibility (1/GPa) = 0.10597308
#
# Stress axis : x y z
#
# Youngs Moduli (GPa) = 24.19163 91.29660 46.56858
#
# Poissons Ratio (x) = -0.12830 -0.51881
# Poissons Ratio (y) = -0.03400 -0.16572
# Poissons Ratio (z) = -0.26951 -0.32489
#
# Static dielectric constant tensor:
#      x y z
#    x 2.066720 -0.006630 -0.028330 
#    y -0.006630 0.675630 -0.201320 
#    z -0.028330 -0.201320 1.947070 
# 
# From -- ./inp_files/557494.got.cif
#   From: 2010.05.17/outbox.cif.g08.bks.cpg/sg2_279_cif.got.tgz:557494.got - 2010.06.03 11:33:40.
