data_PCOD9034363
_publ_section_title
;
Structure prediction by ZEFSAII (Michael W. Deem and Ramdas Pophale) SiO2 
 PCOD9034363
Probable space group: P -1
;
_chemical_formula_sum "Si O2"
_cell_formula_units_Z 16
_cell_length_a 7.530098
_cell_length_b 11.199857
_cell_length_c 16.413777
_cell_angle_alpha 39.437229
_cell_angle_beta 52.410044
_cell_angle_gamma 43.946486
_cell_volume 605.660334
_symmetry_space_group_name_H-M "P -1"
_symmetry_group_IT_number 2
_symmetry_cell_setting 'triclinic'
loop_
_space_group_symop_operation_xyz
x,y,z
-x,-y,-z
loop_
_atom_site_type_symbol
_atom_site_label
_atom_site_fract_x
_atom_site_fract_y
_atom_site_fract_z
Si Si1 0.818960 0.135512 0.243449
Si Si2 0.956901 0.540248 0.788235
Si Si3 0.444780 0.265721 0.572425
Si Si4 0.010020 0.782975 0.262927
Si Si5 0.176751 0.057018 0.479974
Si Si6 0.631141 0.374643 0.906483
Si Si7 0.200610 0.266707 0.103050
Si Si8 0.513218 0.329404 0.694795
O O1 0.589068 0.382342 0.187131
O O2 0.093956 0.128270 0.161838
O O3 0.830526 0.006577 0.390969
O O4 0.801949 0.023516 0.224106
O O5 0.887900 0.696703 0.646223
O O6 0.780842 0.428484 0.906279
O O7 0.880611 0.709619 0.792935
O O8 0.259420 0.368234 0.793893
O O9 0.534093 0.193780 0.678957
O O10 0.548167 0.432212 0.442176
O O11 0.140814 0.350506 0.617027
O O12 0.549486 0.103408 0.552866
O O13 0.140932 0.747071 0.158178
O O14 0.243425 0.720237 0.292382
O O15 0.000000 0.000000 0.500000
O O16 0.481126 0.241721 0.029851
O O17 0.000000 0.500000 0.000000
#
# Coordination Sequence:
#
# PCOD9034363 Si02
#       8
#     2   2   2   2   2   2   2   2
#     4  11  25  45  69 105 135 184 231 281 351 411
#     4  12  23  43  71 101 138 179 232 286 348 413
#     4  11  23  40  60  96 142 181 225 273 338 418
#     4  12  25  42  68  99 140 181 231 284 338 410
#     4  12  22  40  68 102 139 177 222 282 347 415
#     4  11  25  46  69 100 139 185 234 288 336 405
#     4  10  22  44  73  95 132 184 236 284 343 405
#     4  11  23  38  62  95 137 186 222 274 345 406
#
# _framework density 26.417445000000001
#
# number of rings (size 3 to 8) (size 9 to 14) (size 15 to 20)
#    0.000    0.750    3.750    4.500    1.750    3.500 
#    0.000    0.000    0.000    5.250    0.000    0.000 
#    0.000    0.000    0.000    0.000    0.000    0.000 
#
# Total GULP energy -89457.004110 kJ/mol
# GULP energy per Si atom -5591.062757 kJ/mol
# Density = 2.635732 g / cm^3
# Si number density = 26.417445 Si / 1000 Ang^3
#
#
#
# Elastic Constant Matrix: (Units=GPa)
#
#
# Indices 1 2 3 4 5 6 
#
# 1 95.9320 -4.3470 12.6151 6.6604 -31.1365 -13.0279
# 2 -4.3470 85.2524 10.1649 23.5377 -1.5880 18.4801
# 3 12.6151 10.1649 76.5257 10.8807 -30.0173 -18.6434
# 4 6.6604 23.5377 10.8807 29.6692 -11.2715 -6.4708
# 5 -31.1365 -1.5880 -30.0173 -11.2715 51.7238 6.5003
# 6 -13.0279 18.4801 -18.6434 -6.4708 6.5003 36.8642
#
#
#
# Elastic Compliance Matrix: (Units=1/GPa)
#
#
# Indices 1 2 3 4 5 6 
#
# 1 0.013698 -0.000986 0.002636 0.001461 0.009402 0.005267
# 2 -0.000986 0.021686 -0.006232 -0.020641 -0.005912 -0.016952
# 3 0.002636 -0.006232 0.021143 0.004410 0.012963 0.013237
# 4 0.001461 -0.020641 0.004410 0.057533 0.012709 0.020952
# 5 0.009402 -0.005912 0.012963 0.012709 0.033963 0.009085
# 6 0.005267 -0.016952 0.013237 0.020952 0.009085 0.046256
#
#
# Mechanical properties :
#
#
# Convention : Reuss Voigt Hill
#
# Bulk Modulus (GPa) = 21.11287 32.73068 26.92178
# Shear Modulus (GPa) = 22.80702 39.60325 31.20513
#
# Velocity S-wave (km/s) = 2.94144 3.87606 3.44063
# Velocity P-wave (km/s) = 4.42102 5.69636 5.09872
#
# Compressibility (1/GPa) = 0.04736446
#
# Stress axis : x y z
#
# Youngs Moduli (GPa) = 73.00251 46.11257 47.29589
#
# Poissons Ratio (x) = 0.04545 -0.12468
# Poissons Ratio (y) = 0.07196 0.29475
# Poissons Ratio (z) = -0.19245 0.28738
#
# Static dielectric constant tensor:
#      x y z
#    x 2.077110 -0.008660 0.051590 
#    y -0.008660 2.202630 0.016880 
#    z 0.051590 0.016880 2.122040 
# 
# From -- ./inp_files/559627.got.cif
#   From: 2010.05.17/outbox.cif.g08.bks.cpg/sg2_280_cif.got.tgz:559627.got - 2010.06.03 11:33:40.
