data_PCOD9034946
_publ_section_title
;
Structure prediction by ZEFSAII (Michael W. Deem and Ramdas Pophale) SiO2 
 PCOD9034946
Probable space group: P -1
;
_chemical_formula_sum "Si O2"
_cell_formula_units_Z 13
_cell_length_a 10.602730
_cell_length_b 9.070252
_cell_length_c 9.589832
_cell_angle_alpha 82.515323
_cell_angle_beta 131.638728
_cell_angle_gamma 67.845629
_cell_volume 533.056289
_symmetry_space_group_name_H-M "P -1"
_symmetry_group_IT_number 2
_symmetry_cell_setting 'triclinic'
loop_
_space_group_symop_operation_xyz
x,y,z
-x,-y,-z
loop_
_atom_site_type_symbol
_atom_site_label
_atom_site_fract_x
_atom_site_fract_y
_atom_site_fract_z
Si Si1 0.684739 0.015066 0.097161
Si Si2 0.883340 0.459564 0.118374
Si Si3 0.616963 0.567816 0.160487
Si Si4 0.801979 0.972235 0.506885
Si Si5 0.705699 0.574127 0.676732
Si Si6 0.138211 0.728232 0.382261
Si Si7 0.500000 0.000000 0.500000
O O1 0.788967 0.993184 0.328420
O O2 0.562016 0.228881 0.927852
O O3 0.879139 0.858385 0.159630
O O4 0.500000 0.000000 0.000000
O O5 0.748342 0.584904 0.136972
O O6 0.071751 0.467173 0.208251
O O7 0.731166 0.524913 0.864967
O O8 0.998090 0.242114 0.272931
O O9 0.782954 0.413798 0.412672
O O10 0.500000 0.500000 0.000000
O O11 0.821325 0.123359 0.569261
O O12 0.597230 0.001060 0.420072
O O13 0.720409 0.412932 0.622891
O O14 0.536561 0.801084 0.507493
#
# Coordination Sequence:
#
# PCOD9034946 Si02
#       7
#     2   2   2   2   2   2   1
#     4  12  26  42  73 107 143 190 239 287 355 425
#     4  10  22  45  69  94 144 188 231 285 360 415
#     4  12  24  43  72 104 143 190 229 292 362 415
#     4  11  23  46  71 100 147 187 232 300 350 422
#     4  10  24  44  71  99 137 189 232 297 348 419
#     4  12  26  47  70 110 145 179 243 300 351 417
#     4  10  24  44  68  96 138 182 238 278 356 424
#
# _framework density 24.38767
#
# number of rings (size 3 to 8) (size 9 to 14) (size 15 to 20)
#    0.000    0.923    3.077    3.231    4.308    4.923 
#    0.000    0.000    0.000    0.000    0.000    0.000 
#    0.000    0.000    0.000    0.000    0.000    0.000 
#
# Total GULP energy -72511.769759 kJ/mol
# GULP energy per Si atom -5577.828443 kJ/mol
# Density = 2.433216 g / cm^3
# Si number density = 24.387670 Si / 1000 Ang^3
#
#
#
# Elastic Constant Matrix: (Units=GPa)
#
#
# Indices 1 2 3 4 5 6 
#
# 1 79.7941 1.1433 6.8063 -13.9621 2.7689 -17.4477
# 2 1.1433 172.2811 36.8622 -33.4297 1.0728 -3.6717
# 3 6.8063 36.8622 56.9849 -22.9945 -1.9447 0.2001
# 4 -13.9621 -33.4297 -22.9945 33.7775 2.1033 1.4190
# 5 2.7689 1.0728 -1.9447 2.1033 30.6456 1.2583
# 6 -17.4477 -3.6717 0.2001 1.4190 1.2583 41.7359
#
#
#
# Elastic Compliance Matrix: (Units=1/GPa)
#
#
# Indices 1 2 3 4 5 6 
#
# 1 0.015334 0.001522 0.000275 0.007904 -0.002224 0.006341
# 2 0.001522 0.007623 -0.002547 0.006458 -0.001056 0.001131
# 3 0.000275 -0.002547 0.025112 0.014677 0.000681 -0.000749
# 4 0.007904 0.006458 0.014677 0.049379 -0.003489 0.002228
# 5 -0.002224 -0.001056 0.000681 -0.003489 0.033230 -0.001909
# 6 0.006341 0.001131 -0.000749 0.002228 -0.001909 0.026696
#
#
# Mechanical properties :
#
#
# Convention : Reuss Voigt Hill
#
# Bulk Modulus (GPa) = 21.47353 44.29820 32.88587
# Shear Modulus (GPa) = 28.67025 38.84835 33.75930
#
# Velocity S-wave (km/s) = 3.43243 3.99551 3.72462
# Velocity P-wave (km/s) = 4.95307 6.28403 5.65783
#
# Compressibility (1/GPa) = 0.04656895
#
# Stress axis : x y z
#
# Youngs Moduli (GPa) = 65.21569 131.17881 39.82220
#
# Poissons Ratio (x) = -0.19966 -0.01096
# Poissons Ratio (y) = -0.09926 0.10143
# Poissons Ratio (z) = -0.01795 0.33413
#
# Static dielectric constant tensor:
#      x y z
#    x 1.974520 0.005090 0.075160 
#    y 0.005090 1.944450 0.037140 
#    z 0.075160 0.037140 1.905500 
# 
# From -- ./inp_files/155670.got.cif
#   From: 2010.05.17/outbox.cif.g08.bks.cpg/sg2_78_cif.got.tgz:155670.got - 2010.06.03 11:33:40.
