data_PCOD9034966
_publ_section_title
;
Structure prediction by ZEFSAII (Michael W. Deem and Ramdas Pophale) SiO2 
 PCOD9034966
Probable space group: P -1
;
_chemical_formula_sum "Si O2"
_cell_formula_units_Z 15
_cell_length_a 14.548752
_cell_length_b 21.618769
_cell_length_c 11.940740
_cell_angle_alpha 149.370566
_cell_angle_beta 150.720205
_cell_angle_gamma 20.677114
_cell_volume 626.751705
_symmetry_space_group_name_H-M "P -1"
_symmetry_group_IT_number 2
_symmetry_cell_setting 'triclinic'
loop_
_space_group_symop_operation_xyz
x,y,z
-x,-y,-z
loop_
_atom_site_type_symbol
_atom_site_label
_atom_site_fract_x
_atom_site_fract_y
_atom_site_fract_z
Si Si1 0.824780 0.761656 0.805951
Si Si2 0.869910 0.723478 0.541085
Si Si3 0.808162 0.059963 0.282951
Si Si4 0.750832 0.020521 0.754036
Si Si5 0.919632 0.394600 0.930170
Si Si6 0.799075 0.954672 0.445826
Si Si7 0.217494 0.478132 0.331408
Si Si8 0.500000 0.500000 0.500000
O O1 0.934941 0.676821 0.667832
O O2 0.511274 0.856524 0.627317
O O3 0.007004 0.632285 0.902614
O O4 0.799540 0.920967 0.035481
O O5 0.786168 0.903153 0.704962
O O6 0.139035 0.573207 0.514991
O O7 0.582807 0.786797 0.302525
O O8 0.504519 0.263474 0.297824
O O9 0.952387 0.068057 0.348844
O O10 0.000000 0.000000 0.500000
O O11 0.784080 0.943965 0.546500
O O12 0.000000 0.000000 0.000000
O O13 0.615966 0.488326 0.727606
O O14 0.131230 0.192165 0.788491
O O15 0.970325 0.499859 0.093545
O O16 0.240990 0.556887 0.375581
#
# Coordination Sequence:
#
# PCOD9034966 Si02
#       8
#     2   2   2   2   2   2   2   1
#     4  11  23  45  72 101 141 183 235 293 355 419
#     4  10  25  44  67 103 142 187 234 288 359 424
#     4  12  22  41  71 104 137 183 233 291 349 414
#     4  10  22  45  69  96 143 192 236 285 350 429
#     4  12  24  43  69 102 138 182 233 295 349 415
#     4  11  21  39  71 101 132 184 239 285 344 414
#     4  12  26  44  70 104 143 182 236 295 352 418
#     4  12  26  46  62 102 142 182 228 294 356 412
#
# _framework density 23.932922999999999
#
# number of rings (size 3 to 8) (size 9 to 14) (size 15 to 20)
#    0.000    0.800    4.000    3.200    0.000    2.667 
#    4.800    2.667    0.000    0.000    0.000    0.000 
#    0.000    0.000    0.000    0.000    0.000    0.000 
#
# Total GULP energy -83644.360668 kJ/mol
# GULP energy per Si atom -5576.290711 kJ/mol
# Density = 2.387845 g / cm^3
# Si number density = 23.932923 Si / 1000 Ang^3
#
#
#
# Elastic Constant Matrix: (Units=GPa)
#
#
# Indices 1 2 3 4 5 6 
#
# 1 151.8712 37.5120 41.5482 0.0330 -20.4088 -19.4636
# 2 37.5120 67.9051 31.5530 -5.4529 -10.1058 -18.1172
# 3 41.5482 31.5530 85.6249 -25.6467 -12.0885 -12.9801
# 4 0.0330 -5.4529 -25.6467 39.2454 7.7427 -4.1929
# 5 -20.4088 -10.1058 -12.0885 7.7427 39.8840 -10.8671
# 6 -19.4636 -18.1172 -12.9801 -4.1929 -10.8671 33.3319
#
#
#
# Elastic Compliance Matrix: (Units=1/GPa)
#
#
# Indices 1 2 3 4 5 6 
#
# 1 0.009166 -0.001892 -0.003277 -0.002931 0.004956 0.004294
# 2 -0.001892 0.021718 -0.004567 -0.000008 0.006126 0.010917
# 3 -0.003277 -0.004567 0.019887 0.012515 0.002310 0.005676
# 4 -0.002931 -0.000008 0.012515 0.034900 -0.002664 0.006679
# 5 0.004956 0.006126 0.002310 -0.002664 0.035370 0.018320
# 6 0.004294 0.010917 0.005676 0.006679 0.018320 0.047466
#
#
# Mechanical properties :
#
#
# Convention : Reuss Voigt Hill
#
# Bulk Modulus (GPa) = 31.95227 58.51419 45.23323
# Shear Modulus (GPa) = 25.19985 35.47812 30.33899
#
# Velocity S-wave (km/s) = 3.24842 3.85437 3.56429
# Velocity P-wave (km/s) = 5.23922 6.65662 5.98999
#
# Compressibility (1/GPa) = 0.03129668
#
# Stress axis : x y z
#
# Youngs Moduli (GPa) = 109.10331 46.04491 50.28317
#
# Poissons Ratio (x) = 0.08713 0.16480
# Poissons Ratio (y) = 0.20647 0.22966
# Poissons Ratio (z) = 0.35758 0.21030
#
# Static dielectric constant tensor:
#      x y z
#    x 1.947270 0.041900 0.007820 
#    y 0.041900 1.949740 0.066330 
#    z 0.007820 0.066330 1.917060 
# 
# From -- ./inp_files/458155.got.cif
#   From: 2010.05.17/outbox.cif.g08.bks.cpg/sg2_230_cif.got.tgz:458155.got - 2010.06.03 11:33:40.
