data_PCOD9034690
_publ_section_title
;
Structure prediction by ZEFSAII (Michael W. Deem and Ramdas Pophale) SiO2 
 PCOD9034690
Probable space group: P -1
;
_chemical_formula_sum "Si O2"
_cell_formula_units_Z 16
_cell_length_a 15.794868
_cell_length_b 8.351780
_cell_length_c 12.080456
_cell_angle_alpha 51.743788
_cell_angle_beta 40.715329
_cell_angle_gamma 75.272454
_cell_volume 740.816784
_symmetry_space_group_name_H-M "P -1"
_symmetry_group_IT_number 2
_symmetry_cell_setting 'triclinic'
loop_
_space_group_symop_operation_xyz
x,y,z
-x,-y,-z
loop_
_atom_site_type_symbol
_atom_site_label
_atom_site_fract_x
_atom_site_fract_y
_atom_site_fract_z
Si Si1 0.650483 0.121099 0.243676
Si Si2 0.857927 0.915063 0.106846
Si Si3 0.296320 0.251117 0.249751
Si Si4 0.426372 0.779312 0.952497
Si Si5 0.144840 0.512439 0.977488
Si Si6 0.726302 0.070796 0.770654
Si Si7 0.174902 0.563973 0.675332
Si Si8 0.045983 0.982153 0.279182
O O1 0.740045 0.371142 0.092455
O O2 0.500000 0.000000 0.500000
O O3 0.747538 0.996284 0.233391
O O4 0.622210 0.111812 0.146218
O O5 0.786897 0.646113 0.288713
O O6 0.904970 0.024955 0.891997
O O7 0.000000 0.000000 0.000000
O O8 0.344486 0.509883 0.127363
O O9 0.125888 0.128123 0.492089
O O10 0.319731 0.175956 0.133645
O O11 0.407062 0.175230 0.236922
O O12 0.380534 0.874152 0.067077
O O13 0.201503 0.621937 0.754096
O O14 0.996182 0.533133 0.131822
O O15 0.100543 0.247692 0.132508
O O16 0.757942 0.238939 0.563316
O O17 0.870905 0.114113 0.678548
#
# Coordination Sequence:
#
# PCOD9034690 Si02
#       8
#     2   2   2   2   2   2   2   2
#     4  12  27  45  71  96 144 186 229 287 355 418
#     4  11  24  42  67 103 137 177 235 288 335 416
#     4  11  26  45  72 101 144 189 222 290 364 411
#     4  11  28  46  66 108 146 184 236 285 350 437
#     4  10  22  45  67 103 133 181 234 283 344 418
#     4  12  24  45  74 106 140 184 234 298 350 406
#     4  10  23  39  72 100 135 179 233 286 345 406
#     4  11  24  44  76 101 134 178 241 291 345 411
#
# _framework density 21.597783
#
# number of rings (size 3 to 8) (size 9 to 14) (size 15 to 20)
#    0.000    1.000    3.750    1.500    7.000    1.500 
#    0.000    3.750    0.000    0.000    0.000    0.000 
#    0.000    0.000    0.000    0.000    0.000    0.000 
#
# Total GULP energy -89374.717157 kJ/mol
# GULP energy per Si atom -5585.919822 kJ/mol
# Density = 2.154863 g / cm^3
# Si number density = 21.597783 Si / 1000 Ang^3
#
#
#
# Elastic Constant Matrix: (Units=GPa)
#
#
# Indices 1 2 3 4 5 6 
#
# 1 84.3940 11.2752 17.7414 5.9757 -5.1888 -8.0241
# 2 11.2752 98.2459 41.2721 14.1946 -8.3046 -0.4348
# 3 17.7414 41.2721 55.5828 9.7105 1.8553 -6.2976
# 4 5.9757 14.1946 9.7105 22.8562 -9.0766 -5.1884
# 5 -5.1888 -8.3046 1.8553 -9.0766 38.5731 3.9443
# 6 -8.0241 -0.4348 -6.2976 -5.1884 3.9443 41.9556
#
#
#
# Elastic Compliance Matrix: (Units=1/GPa)
#
#
# Indices 1 2 3 4 5 6 
#
# 1 0.012995 0.000605 -0.004319 -0.000901 0.001713 0.001571
# 2 0.000605 0.015869 -0.011593 -0.004309 0.003277 -0.002301
# 3 -0.004319 -0.011593 0.029609 -0.005972 -0.006249 0.003347
# 4 -0.000901 -0.004309 -0.005972 0.054879 0.011684 0.004575
# 5 0.001713 0.003277 -0.006249 0.011684 0.030111 -0.001962
# 6 0.001571 -0.002301 0.003347 0.004575 -0.001962 0.025364
#
#
# Mechanical properties :
#
#
# Convention : Reuss Voigt Hill
#
# Bulk Modulus (GPa) = 35.89587 42.08888 38.99238
# Shear Modulus (GPa) = 23.95463 31.87258 27.91361
#
# Velocity S-wave (km/s) = 3.33397 3.84570 3.59894
# Velocity P-wave (km/s) = 5.61041 6.26491 5.94667
#
# Compressibility (1/GPa) = 0.02785836
#
# Stress axis : x y z
#
# Youngs Moduli (GPa) = 76.95411 63.01690 33.77312
#
# Poissons Ratio (x) = -0.03812 0.14585
# Poissons Ratio (y) = -0.04655 0.39155
# Poissons Ratio (z) = 0.33234 0.73059
#
# Static dielectric constant tensor:
#      x y z
#    x 1.787910 0.023170 0.015440 
#    y 0.023170 1.772520 0.012510 
#    z 0.015440 0.012510 1.755300 
# 
# From -- ./inp_files/446755.got.cif
#   From: 2010.05.17/outbox.cif.g08.bks.cpg/sg2_224_cif.got.tgz:446755.got - 2010.06.03 11:33:40.
