data_PCOD9034718
_publ_section_title
;
Structure prediction by ZEFSAII (Michael W. Deem and Ramdas Pophale) SiO2 
 PCOD9034718
Probable space group: P -1
;
_chemical_formula_sum "Si O2"
_cell_formula_units_Z 16
_cell_length_a 27.255077
_cell_length_b 9.032745
_cell_length_c 8.712558
_cell_angle_alpha 109.643842
_cell_angle_beta 43.275767
_cell_angle_gamma 142.841612
_cell_volume 717.436115
_symmetry_space_group_name_H-M "P -1"
_symmetry_group_IT_number 2
_symmetry_cell_setting 'triclinic'
loop_
_space_group_symop_operation_xyz
x,y,z
-x,-y,-z
loop_
_atom_site_type_symbol
_atom_site_label
_atom_site_fract_x
_atom_site_fract_y
_atom_site_fract_z
Si Si1 0.368254 0.589090 0.496859
Si Si2 0.293861 0.235844 0.136573
Si Si3 0.720265 0.053915 0.193158
Si Si4 0.336349 0.649508 0.257637
Si Si5 0.669847 0.226473 0.136681
Si Si6 0.401661 0.279457 0.323022
Si Si7 0.197990 0.667581 0.412617
Si Si8 0.024233 0.594566 0.655468
O O1 0.310186 0.541035 0.451832
O O2 0.297268 0.543553 0.785788
O O3 0.371093 0.407106 0.436137
O O4 0.525871 0.949202 0.276851
O O5 0.308908 0.447885 0.141551
O O6 0.160621 0.956607 0.450386
O O7 0.436863 0.454351 0.967573
O O8 0.283689 0.105083 0.965465
O O9 0.653998 0.073489 0.258927
O O10 0.643633 0.870968 0.459728
O O11 0.881504 0.398003 0.970853
O O12 0.233085 0.594124 0.424473
O O13 0.500000 0.000000 0.000000
O O14 0.780707 0.365090 0.816102
O O15 0.316476 0.015894 0.305306
O O16 0.061519 0.516719 0.653032
O O17 0.000000 0.500000 0.500000
#
# Coordination Sequence:
#
# PCOD9034718 Si02
#       8
#     2   2   2   2   2   2   2   2
#     4  11  24  37  59 101 138 167 212 286 335 389
#     4  11  22  40  69  99 133 173 224 276 327 396
#     4  11  24  42  68  99 135 179 221 274 330 403
#     4  12  24  38  63 101 139 169 219 281 341 388
#     4  11  22  38  64  93 135 175 218 270 340 390
#     4  12  24  40  70 104 134 168 229 283 333 385
#     4  12  23  42  68  96 133 178 220 272 339 394
#     4  10  22  45  67  95 130 184 222 268 327 407
#
# _framework density 22.301638000000001
#
# number of rings (size 3 to 8) (size 9 to 14) (size 15 to 20)
#    0.000    0.750    6.250    1.875    1.750    2.000 
#    0.000    3.750    0.000    3.000    0.000    0.000 
#    0.000    0.000    0.000    0.000    0.000    0.000 
#
# Total GULP energy -89456.794255 kJ/mol
# GULP energy per Si atom -5591.049641 kJ/mol
# Density = 2.225088 g / cm^3
# Si number density = 22.301638 Si / 1000 Ang^3
#
#
#
# Elastic Constant Matrix: (Units=GPa)
#
#
# Indices 1 2 3 4 5 6 
#
# 1 146.1543 21.8918 23.2999 -10.7405 -0.3286 -12.4596
# 2 21.8918 109.6909 28.2753 9.4400 -12.9003 -19.5074
# 3 23.2999 28.2753 37.2951 2.3426 -0.3952 0.3254
# 4 -10.7405 9.4400 2.3426 25.5560 3.0536 -2.0177
# 5 -0.3286 -12.9003 -0.3952 3.0536 22.7398 -3.4688
# 6 -12.4596 -19.5074 0.3254 -2.0177 -3.4688 31.1525
#
#
#
# Elastic Compliance Matrix: (Units=1/GPa)
#
#
# Indices 1 2 3 4 5 6 
#
# 1 0.008352 0.000070 -0.005572 0.004282 0.000057 0.003727
# 2 0.000070 0.015826 -0.011693 -0.005211 0.011148 0.010964
# 3 -0.005572 -0.011693 0.039275 -0.001589 -0.007480 -0.010897
# 4 0.004282 -0.005211 -0.001589 0.044077 -0.008789 0.000343
# 5 0.000057 0.011148 -0.007480 -0.008789 0.053249 0.012442
# 6 0.003727 0.010964 -0.010897 0.000343 0.012442 0.041978
#
#
# Mechanical properties :
#
#
# Convention : Reuss Voigt Hill
#
# Bulk Modulus (GPa) = 34.40681 48.89714 41.65198
# Shear Modulus (GPa) = 20.25647 30.53454 25.39550
#
# Velocity S-wave (km/s) = 3.01706 3.70423 3.37817
# Velocity P-wave (km/s) = 5.25341 6.34571 5.82522
#
# Compressibility (1/GPa) = 0.02906401
#
# Stress axis : x y z
#
# Youngs Moduli (GPa) = 119.72587 63.18743 25.46153
#
# Poissons Ratio (x) = -0.00445 0.14188
# Poissons Ratio (y) = -0.00842 0.29771
# Poissons Ratio (z) = 0.66716 0.73883
#
# Static dielectric constant tensor:
#      x y z
#    x 1.861620 0.003260 0.017140 
#    y 0.003260 1.841610 0.026860 
#    z 0.017140 0.026860 1.852320 
# 
# From -- ./inp_files/356455.got.cif
#   From: 2010.05.17/outbox.cif.g08.bks.cpg/sg2_179_cif.got.tgz:356455.got - 2010.06.03 11:33:40.
