data_PCOD9034895
_publ_section_title
;
Structure prediction by ZEFSAII (Michael W. Deem and Ramdas Pophale) SiO2 
 PCOD9034895
Probable space group: P -1
;
_chemical_formula_sum "Si O2"
_cell_formula_units_Z 14
_cell_length_a 10.781226
_cell_length_b 13.063069
_cell_length_c 9.995981
_cell_angle_alpha 47.052954
_cell_angle_beta 140.556425
_cell_angle_gamma 109.342476
_cell_volume 594.388556
_symmetry_space_group_name_H-M "P -1"
_symmetry_group_IT_number 2
_symmetry_cell_setting 'triclinic'
loop_
_space_group_symop_operation_xyz
x,y,z
-x,-y,-z
loop_
_atom_site_type_symbol
_atom_site_label
_atom_site_fract_x
_atom_site_fract_y
_atom_site_fract_z
Si Si1 0.429174 0.163830 0.869615
Si Si2 0.142018 0.853157 0.611618
Si Si3 0.981888 0.202788 0.163411
Si Si4 0.634138 0.396146 0.494320
Si Si5 0.784011 0.633011 0.266996
Si Si6 0.593394 0.316058 0.257482
Si Si7 0.232893 0.372780 0.270367
O O1 0.242943 0.230606 0.770665
O O2 0.358960 0.286385 0.582975
O O3 0.643212 0.153467 0.130561
O O4 0.500000 0.000000 0.000000
O O5 0.029960 0.797193 0.684274
O O6 0.220296 0.755507 0.631156
O O7 0.011766 0.031495 0.306898
O O8 0.177700 0.248782 0.250900
O O9 0.774066 0.320114 0.808166
O O10 0.693659 0.531567 0.372304
O O11 0.680822 0.278117 0.513717
O O12 0.617774 0.555818 0.735721
O O13 0.000000 0.500000 0.500000
O O14 0.611748 0.713455 0.933325
O O15 0.500000 0.500000 0.000000
O O16 0.000000 0.500000 0.000000
#
# Coordination Sequence:
#
# PCOD9034895 Si02
#       7
#     2   2   2   2   2   2   2
#     4  11  22  45  70 104 144 186 239 296 356 428
#     4  10  22  45  69 102 138 187 230 300 345 429
#     4  11  24  42  72 101 139 180 241 286 362 410
#     4  11  25  46  68 104 145 181 237 297 351 424
#     4  10  24  44  74 102 141 189 241 291 361 430
#     4   9  22  42  66  93 141 179 231 281 353 418
#     4  12  27  39  70 104 143 184 236 296 356 417
#
# _framework density 23.553616000000002
#
# number of rings (size 3 to 8) (size 9 to 14) (size 15 to 20)
#    0.000    1.429    2.857    0.857   10.000    2.857 
#    0.000    2.143    0.000    0.000    0.000    0.000 
#    0.000    0.000    0.000    0.000    0.000    0.000 
#
# Total GULP energy -78192.049327 kJ/mol
# GULP energy per Si atom -5585.146380 kJ/mol
# Density = 2.350001 g / cm^3
# Si number density = 23.553616 Si / 1000 Ang^3
#
#
#
# Elastic Constant Matrix: (Units=GPa)
#
#
# Indices 1 2 3 4 5 6 
#
# 1 126.7061 48.7261 24.4107 -9.9325 19.1783 -1.9878
# 2 48.7261 110.0063 14.5054 -7.5064 1.4737 -31.9077
# 3 24.4107 14.5054 71.2622 -5.6497 -1.1999 5.4039
# 4 -9.9325 -7.5064 -5.6497 39.5689 -0.7376 6.1412
# 5 19.1783 1.4737 -1.1999 -0.7376 27.6942 -0.1902
# 6 -1.9878 -31.9077 5.4039 6.1412 -0.1902 42.9398
#
#
#
# Elastic Compliance Matrix: (Units=1/GPa)
#
#
# Indices 1 2 3 4 5 6 
#
# 1 0.011929 -0.005781 -0.002607 0.001955 -0.008040 -0.003731
# 2 -0.005781 0.015102 -0.001940 -0.000557 0.003179 0.011292
# 3 -0.002607 -0.001940 0.015802 0.001873 0.002617 -0.003808
# 4 0.001955 -0.000557 0.001873 0.026592 -0.000565 -0.004365
# 5 -0.008040 0.003179 0.002617 -0.000565 0.041619 0.001925
# 6 -0.003731 0.011292 -0.003808 -0.004365 0.001925 0.032619
#
#
# Mechanical properties :
#
#
# Convention : Reuss Voigt Hill
#
# Bulk Modulus (GPa) = 45.09491 53.69544 49.39517
# Shear Modulus (GPa) = 29.11850 36.72939 32.92395
#
# Velocity S-wave (km/s) = 3.51987 3.95320 3.74281
# Velocity P-wave (km/s) = 5.97549 6.60936 6.30040
#
# Compressibility (1/GPa) = 0.02217545
#
# Stress axis : x y z
#
# Youngs Moduli (GPa) = 83.82618 66.21751 63.28281
#
# Poissons Ratio (x) = 0.38282 0.16499
# Poissons Ratio (y) = 0.48462 0.12280
# Poissons Ratio (z) = 0.21855 0.12850
#
# Static dielectric constant tensor:
#      x y z
#    x 1.958700 0.008730 0.031000 
#    y 0.008730 2.061660 0.018580 
#    z 0.031000 0.018580 1.884190 
# 
# From -- ./inp_files/262129.got.cif
#   From: 2010.05.17/outbox.cif.g08.bks.cpg/sg2_132_cif.got.tgz:262129.got - 2010.06.03 11:33:40.
