data_PCOD9034876
_publ_section_title
;
Structure prediction by ZEFSAII (Michael W. Deem and Ramdas Pophale) SiO2 
 PCOD9034876
Probable space group: P -1
;
_chemical_formula_sum "Si O2"
_cell_formula_units_Z 14
_cell_length_a 8.534893
_cell_length_b 9.676567
_cell_length_c 8.942043
_cell_angle_alpha 125.488815
_cell_angle_beta 86.563007
_cell_angle_gamma 96.222951
_cell_volume 597.768603
_symmetry_space_group_name_H-M "P -1"
_symmetry_group_IT_number 2
_symmetry_cell_setting 'triclinic'
loop_
_space_group_symop_operation_xyz
x,y,z
-x,-y,-z
loop_
_atom_site_type_symbol
_atom_site_label
_atom_site_fract_x
_atom_site_fract_y
_atom_site_fract_z
Si Si1 0.077504 0.051475 0.687882
Si Si2 0.675400 0.016499 0.553319
Si Si3 0.204383 0.753556 0.674415
Si Si4 0.084068 0.655964 0.943055
Si Si5 0.644748 0.544036 0.637023
Si Si6 0.558585 0.894476 0.792042
Si Si7 0.772852 0.409158 0.817095
O O1 0.247188 0.110856 0.644889
O O2 0.097814 0.886992 0.686865
O O3 0.000000 0.000000 0.500000
O O4 0.998671 0.197100 0.870831
O O5 0.750098 0.210197 0.649936
O O6 0.500000 0.000000 0.500000
O O7 0.666572 0.978953 0.706808
O O8 0.211707 0.560552 0.492793
O O9 0.388176 0.825209 0.689751
O O10 0.158000 0.733111 0.836467
O O11 0.217855 0.590395 0.002901
O O12 0.944525 0.506107 0.829852
O O13 0.500000 0.500000 0.500000
O O14 0.658191 0.746363 0.756020
O O15 0.639981 0.492209 0.779874
O O16 0.500000 0.000000 0.000000
#
# Coordination Sequence:
#
# PCOD9034876 Si02
#       7
#     2   2   2   2   2   2   2
#     4  12  24  45  76 108 146 199 249 302 376 445
#     4  12  23  47  73 100 151 192 248 303 364 448
#     4  11  23  47  69 104 149 188 254 298 366 444
#     4  11  26  44  74 110 150 192 249 316 368 441
#     4  10  22  45  69 100 144 192 242 298 370 437
#     4  11  25  41  72 107 139 187 244 305 365 431
#     4  11  24  47  68 105 151 191 249 301 373 441
#
# _framework density 23.420434
#
# number of rings (size 3 to 8) (size 9 to 14) (size 15 to 20)
#    0.000    0.857    4.286    2.143    2.000    4.000 
#    0.000   10.000    0.000    0.000    0.000    0.000 
#    0.000    0.000    0.000    0.000    0.000    0.000 
#
# Total GULP energy -78073.093763 kJ/mol
# GULP energy per Si atom -5576.649554 kJ/mol
# Density = 2.336713 g / cm^3
# Si number density = 23.420434 Si / 1000 Ang^3
#
#
#
# Elastic Constant Matrix: (Units=GPa)
#
#
# Indices 1 2 3 4 5 6 
#
# 1 74.2877 48.8012 38.4173 -4.3871 -0.2173 -15.7045
# 2 48.8012 187.1645 71.5872 -26.0314 -6.2167 -28.2473
# 3 38.4173 71.5872 127.1464 -14.5304 -10.5309 -13.7045
# 4 -4.3871 -26.0314 -14.5304 51.9793 -5.8446 2.0924
# 5 -0.2173 -6.2167 -10.5309 -5.8446 47.2196 -9.6119
# 6 -15.7045 -28.2473 -13.7045 2.0924 -9.6119 47.7225
#
#
#
# Elastic Compliance Matrix: (Units=1/GPa)
#
#
# Indices 1 2 3 4 5 6 
#
# 1 0.017849 -0.003033 -0.003556 -0.001200 -0.000652 0.002979
# 2 -0.003033 0.008192 -0.002881 0.003076 0.001450 0.003180
# 3 -0.003556 -0.002881 0.011016 0.001578 0.002399 0.000702
# 4 -0.001200 0.003076 0.001578 0.021473 0.003754 0.001694
# 5 -0.000652 0.001450 0.002399 0.003754 0.023569 0.005915
# 6 0.002979 0.003180 0.000702 0.001694 0.005915 0.025136
#
#
# Mechanical properties :
#
#
# Convention : Reuss Voigt Hill
#
# Bulk Modulus (GPa) = 55.19520 78.46777 66.83149
# Shear Modulus (GPa) = 37.81732 44.70379 41.26056
#
# Velocity S-wave (km/s) = 4.02271 4.37367 4.20185
# Velocity P-wave (km/s) = 6.72269 7.68648 7.22068
#
# Compressibility (1/GPa) = 0.01811752
#
# Stress axis : x y z
#
# Youngs Moduli (GPa) = 56.02447 122.07354 90.77478
#
# Poissons Ratio (x) = 0.37026 0.32275
# Poissons Ratio (y) = 0.16993 0.26155
# Poissons Ratio (z) = 0.19920 0.35174
#
# Static dielectric constant tensor:
#      x y z
#    x 1.834760 0.010130 0.111540 
#    y 0.010130 1.943630 -0.025160 
#    z 0.111540 -0.025160 1.958590 
# 
# From -- ./inp_files/160185.got.cif
#   From: 2010.05.17/outbox.cif.g08.bks.cpg/sg2_81_cif.got.tgz:160185.got - 2010.06.03 11:33:40.
