data_PCOD9034357
_publ_section_title
;
Structure prediction by ZEFSAII (Michael W. Deem and Ramdas Pophale) SiO2 
 PCOD9034357
Probable space group: P -1
;
_chemical_formula_sum "Si O2"
_cell_formula_units_Z 13
_cell_length_a 5.559287
_cell_length_b 24.366839
_cell_length_c 12.578426
_cell_angle_alpha 23.467301
_cell_angle_beta 70.383063
_cell_angle_gamma 57.299333
_cell_volume 501.858269
_symmetry_space_group_name_H-M "P -1"
_symmetry_group_IT_number 2
_symmetry_cell_setting 'triclinic'
loop_
_space_group_symop_operation_xyz
x,y,z
-x,-y,-z
loop_
_atom_site_type_symbol
_atom_site_label
_atom_site_fract_x
_atom_site_fract_y
_atom_site_fract_z
Si Si1 0.215528 0.311081 0.534033
Si Si2 0.226022 0.828500 0.842753
Si Si3 0.000000 0.500000 0.000000
Si Si4 0.201048 0.302493 0.155528
Si Si5 0.883435 0.232785 0.569243
Si Si6 0.208021 0.997457 0.745935
Si Si7 0.951243 0.669161 0.246161
O O1 0.554618 0.267294 0.595849
O O2 0.000231 0.357263 0.587883
O O3 0.152187 0.194085 0.683955
O O4 0.074548 0.483428 0.171912
O O5 0.580859 0.738394 0.904836
O O6 0.141694 0.896687 0.854761
O O7 0.000000 0.000000 0.500000
O O8 0.170994 0.685732 0.105838
O O9 0.331251 0.297167 0.262808
O O10 0.813970 0.403622 0.218856
O O11 0.126444 0.168452 0.395521
O O12 0.029510 0.075293 0.744492
O O13 0.594926 0.855518 0.956109
O O14 0.000000 0.500000 0.500000
#
# Coordination Sequence:
#
# PCOD9034357 Si02
#       7
#     2   2   1   2   2   2   2
#     4  11  27  47  78 113 159 200 252 317 391 451
#     4  12  27  46  79 108 149 203 258 320 380 457
#     4   8  20  40  72 106 144 190 252 300 366 442
#     4  10  22  44  73 110 149 193 254 312 381 443
#     4  10  25  47  76 115 154 202 252 319 381 455
#     4  11  26  47  75 111 149 201 260 316 378 464
#     4  12  30  48  74 111 154 203 259 312 389 463
#
# _framework density 25.903728000000001
#
# number of rings (size 3 to 8) (size 9 to 14) (size 15 to 20)
#    0.000    1.231    1.538    1.385   10.769    9.231 
#    0.000    0.000    0.000    0.000    0.000    0.000 
#    0.000    0.000    0.000    0.000    0.000    0.000 
#
# Total GULP energy -72404.728626 kJ/mol
# GULP energy per Si atom -5569.594510 kJ/mol
# Density = 2.584477 g / cm^3
# Si number density = 25.903728 Si / 1000 Ang^3
#
#
#
# Elastic Constant Matrix: (Units=GPa)
#
#
# Indices 1 2 3 4 5 6 
#
# 1 77.6014 7.9616 36.0914 7.7217 -15.3367 -1.4158
# 2 7.9616 92.8943 15.1404 6.0132 -16.2521 9.8019
# 3 36.0914 15.1404 89.9511 14.1204 -26.8612 -8.8567
# 4 7.7217 6.0132 14.1204 49.0427 2.7216 -13.0557
# 5 -15.3367 -16.2521 -26.8612 2.7216 35.9883 1.9761
# 6 -1.4158 9.8019 -8.8567 -13.0557 1.9761 39.5014
#
#
#
# Elastic Compliance Matrix: (Units=1/GPa)
#
#
# Indices 1 2 3 4 5 6 
#
# 1 0.016156 0.000303 -0.005500 -0.001541 0.003110 -0.001394
# 2 0.000303 0.012511 -0.000430 -0.002977 0.005929 -0.004470
# 3 -0.005500 -0.000430 0.017431 -0.004188 0.010685 0.001899
# 4 -0.001541 -0.002977 -0.004188 0.024834 -0.007462 0.008326
# 5 0.003110 0.005929 0.010685 -0.007462 0.040519 -0.003457
# 6 -0.001394 -0.004470 0.001899 0.008326 -0.003457 0.029726
#
#
# Mechanical properties :
#
#
# Convention : Reuss Voigt Hill
#
# Bulk Modulus (GPa) = 28.69948 42.09263 35.39605
# Shear Modulus (GPa) = 30.47948 38.32336 34.40142
#
# Velocity S-wave (km/s) = 3.43395 3.85054 3.64819
# Velocity P-wave (km/s) = 5.17938 6.00448 5.60713
#
# Compressibility (1/GPa) = 0.03484383
#
# Stress axis : x y z
#
# Youngs Moduli (GPa) = 61.89753 79.93189 57.36778
#
# Poissons Ratio (x) = -0.02419 0.31552
# Poissons Ratio (y) = -0.01873 0.02465
# Poissons Ratio (z) = 0.34043 0.03434
#
# Static dielectric constant tensor:
#      x y z
#    x 2.267210 0.097690 0.140430 
#    y 0.097690 2.226960 0.100960 
#    z 0.140430 0.100960 2.104140 
# 
# From -- ./inp_files/483509.got.cif
#   From: 2010.05.17/outbox.cif.g08.bks.cpg/sg2_242_cif.got.tgz:483509.got - 2010.06.03 11:33:40.
