data_PCOD9034079
_publ_section_title
;
Structure prediction by ZEFSAII (Michael W. Deem and Ramdas Pophale) SiO2 
 PCOD9034079
Probable space group: P -1
;
_chemical_formula_sum "Si O2"
_cell_formula_units_Z 12
_cell_length_a 7.345780
_cell_length_b 8.174589
_cell_length_c 10.286024
_cell_angle_alpha 85.394870
_cell_angle_beta 60.874754
_cell_angle_gamma 72.942802
_cell_volume 514.384359
_symmetry_space_group_name_H-M "P -1"
_symmetry_group_IT_number 2
_symmetry_cell_setting 'triclinic'
loop_
_space_group_symop_operation_xyz
x,y,z
-x,-y,-z
loop_
_atom_site_type_symbol
_atom_site_label
_atom_site_fract_x
_atom_site_fract_y
_atom_site_fract_z
Si Si1 0.073587 0.311641 0.421051
Si Si2 0.470791 0.081257 0.192850
Si Si3 0.461827 0.337329 0.960381
Si Si4 0.912557 0.778078 0.119013
Si Si5 0.839877 0.150809 0.716624
Si Si6 0.956933 0.394049 0.165561
O O1 0.988975 0.183789 0.548673
O O2 0.000000 0.500000 0.500000
O O3 0.338530 0.239187 0.320911
O O4 0.962133 0.330238 0.315022
O O5 0.688152 0.930924 0.164279
O O6 0.267173 0.003306 0.246521
O O7 0.528499 0.170166 0.039113
O O8 0.614598 0.305939 0.784905
O O9 0.500000 0.500000 0.000000
O O10 0.207317 0.372968 0.042314
O O11 0.037092 0.834599 0.192486
O O12 0.859961 0.600602 0.189189
O O13 0.075861 0.724418 0.937582
#
# Coordination Sequence:
#
# PCOD9034079 Si02
#       6
#     2   2   2   2   2   2
#     4  11  23  47  71  97 144 197 223 283 359 416
#     4  11  26  44  72 104 142 179 240 289 347 418
#     4  11  21  44  70  97 135 192 225 280 348 418
#     4  11  23  43  74 108 141 177 242 290 338 410
#     4  12  23  43  74 102 141 184 230 288 357 400
#     4  10  22  44  71 103 148 180 236 285 339 420
#
# _framework density 23.328856999999999
#
# number of rings (size 3 to 8) (size 9 to 14) (size 15 to 20)
#    0.000    1.000    5.000    2.000    2.333    1.333 
#    0.000    0.833    3.667    0.000    0.000    0.000 
#    0.000    0.000    0.000    0.000    0.000    0.000 
#
# Total GULP energy -66857.987882 kJ/mol
# GULP energy per Si atom -5571.498990 kJ/mol
# Density = 2.327576 g / cm^3
# Si number density = 23.328857 Si / 1000 Ang^3
#
#
#
# Elastic Constant Matrix: (Units=GPa)
#
#
# Indices 1 2 3 4 5 6 
#
# 1 108.9848 37.7323 30.6389 -13.2699 16.2556 -7.5836
# 2 37.7323 138.4957 28.3020 11.0256 2.7112 -20.8439
# 3 30.6389 28.3020 130.5292 2.8319 6.2763 -1.2656
# 4 -13.2699 11.0256 2.8319 44.6720 -6.1793 -5.0860
# 5 16.2556 2.7112 6.2763 -6.1793 37.4247 8.3023
# 6 -7.5836 -20.8439 -1.2656 -5.0860 8.3023 36.4633
#
#
#
# Elastic Compliance Matrix: (Units=1/GPa)
#
#
# Indices 1 2 3 4 5 6 
#
# 1 0.012046 -0.002714 -0.002083 0.004031 -0.004572 0.002485
# 2 -0.002714 0.009082 -0.001202 -0.002566 -0.000673 0.004381
# 3 -0.002083 -0.001202 0.008443 -0.001012 -0.000397 -0.000878
# 4 0.004031 -0.002566 -0.001012 0.024846 0.002197 0.002302
# 5 -0.004572 -0.000673 -0.000397 0.002197 0.030980 -0.008097
# 6 0.002485 0.004381 -0.000878 0.002302 -0.008097 0.032580
#
#
# Mechanical properties :
#
#
# Convention : Reuss Voigt Hill
#
# Bulk Modulus (GPa) = 56.89825 63.48401 60.19113
# Shear Modulus (GPa) = 36.80990 42.46776 39.63883
#
# Velocity S-wave (km/s) = 3.97655 4.27124 4.12653
# Velocity P-wave (km/s) = 6.74733 7.18306 6.96860
#
# Compressibility (1/GPa) = 0.01757523
#
# Stress axis : x y z
#
# Youngs Moduli (GPa) = 83.01315 110.10606 118.44024
#
# Poissons Ratio (x) = 0.29879 0.24668
# Poissons Ratio (y) = 0.22527 0.14233
# Poissons Ratio (z) = 0.17289 0.13232
#
# Static dielectric constant tensor:
#      x y z
#    x 1.714220 -0.158960 -0.044940 
#    y -0.158960 1.947340 0.022960 
#    z -0.044940 0.022960 1.843810 
# 
# From -- ./inp_files/378532.got.cif
#   From: 2010.05.17/outbox.cif.g08.bks.cpg/sg2_190_cif.got.tgz:378532.got - 2010.06.03 11:33:40.
