data_PCOD9034172
_publ_section_title
;
Structure prediction by ZEFSAII (Michael W. Deem and Ramdas Pophale) SiO2 
 PCOD9034172
Probable space group: P -1
;
_chemical_formula_sum "Si O2"
_cell_formula_units_Z 16
_cell_length_a 13.898232
_cell_length_b 9.148658
_cell_length_c 8.514738
_cell_angle_alpha 123.478670
_cell_angle_beta 113.517557
_cell_angle_gamma 105.399572
_cell_volume 639.647666
_symmetry_space_group_name_H-M "P -1"
_symmetry_group_IT_number 2
_symmetry_cell_setting 'triclinic'
loop_
_space_group_symop_operation_xyz
x,y,z
-x,-y,-z
loop_
_atom_site_type_symbol
_atom_site_label
_atom_site_fract_x
_atom_site_fract_y
_atom_site_fract_z
Si Si1 0.279163 0.068470 0.726297
Si Si2 0.323083 0.215920 0.357714
Si Si3 0.591548 0.097494 0.463015
Si Si4 0.352464 0.461437 0.202861
Si Si5 0.651775 0.070583 0.004796
Si Si6 0.104025 0.470016 0.624238
Si Si7 0.017271 0.342564 0.819944
Si Si8 0.943870 0.963205 0.768333
O O1 0.346691 0.027883 0.604831
O O2 0.341314 0.041595 0.905031
O O3 0.122479 0.853415 0.478612
O O4 0.297337 0.292606 0.916713
O O5 0.311994 0.331427 0.266390
O O6 0.482086 0.381911 0.605718
O O7 0.213787 0.148780 0.378297
O O8 0.287844 0.987681 0.129459
O O9 0.681686 0.368059 0.704202
O O10 0.500000 0.000000 0.500000
O O11 0.496281 0.038618 0.216105
O O12 0.750259 0.339397 0.246355
O O13 0.051503 0.221719 0.411115
O O14 0.000000 0.500000 0.500000
O O15 0.118374 0.492956 0.834073
O O16 0.027689 0.190642 0.855338
O O17 0.000000 0.500000 0.000000
O O18 0.000000 0.000000 0.000000
#
# Coordination Sequence:
#
# PCOD9034172 Si02
#       8
#     2   2   2   2   2   2   2   2
#     4  11  25  45  73 100 139 188 239 287 362 432
#     4   9  20  43  69 100 131 181 228 284 350 414
#     4  11  26  41  68 109 143 183 230 289 359 424
#     4   9  22  42  70  97 143 177 228 288 343 427
#     4  10  22  44  71  99 142 183 236 289 344 438
#     4  12  25  47  73 104 139 187 243 301 363 427
#     4  12  28  49  71 101 145 187 243 307 360 426
#     4  12  28  44  74 104 140 190 240 298 368 436
#
# _framework density 25.013770999999998
#
# number of rings (size 3 to 8) (size 9 to 14) (size 15 to 20)
#    0.000    1.250    1.250    3.750   10.500    1.500 
#    0.000    0.000    0.000    0.000    0.000    0.000 
#    0.000    0.000    0.000    0.000    0.000    0.000 
#
# Total GULP energy -89576.464645 kJ/mol
# GULP energy per Si atom -5598.529040 kJ/mol
# Density = 2.495684 g / cm^3
# Si number density = 25.013771 Si / 1000 Ang^3
#
#
#
# Elastic Constant Matrix: (Units=GPa)
#
#
# Indices 1 2 3 4 5 6 
#
# 1 88.5242 29.1893 28.8883 -1.3943 -19.9201 -0.4751
# 2 29.1893 138.7759 34.7904 15.4270 -12.6120 -14.2488
# 3 28.8883 34.7904 127.8742 15.2734 -20.0807 -18.7136
# 4 -1.3943 15.4270 15.2734 50.4202 -10.6180 3.3056
# 5 -19.9201 -12.6120 -20.0807 -10.6180 52.8494 0.3862
# 6 -0.4751 -14.2488 -18.7136 3.3056 0.3862 39.3921
#
#
#
# Elastic Compliance Matrix: (Units=1/GPa)
#
#
# Indices 1 2 3 4 5 6 
#
# 1 0.013924 -0.002469 -0.002465 0.002942 0.004329 -0.002186
# 2 -0.002469 0.008568 -0.001034 -0.002518 0.000195 0.002788
# 3 -0.002465 -0.001034 0.009957 -0.002634 0.002045 0.004527
# 4 0.002942 -0.002518 -0.002634 0.022609 0.004079 -0.004064
# 5 0.004329 0.000195 0.002045 0.004079 0.022193 0.000534
# 6 -0.002186 0.002788 0.004527 -0.004064 0.000534 0.028854
#
#
# Mechanical properties :
#
#
# Convention : Reuss Voigt Hill
#
# Bulk Modulus (GPa) = 48.75022 60.10114 54.42568
# Shear Modulus (GPa) = 40.03920 46.01943 43.02931
#
# Velocity S-wave (km/s) = 4.00520 4.29390 4.15206
# Velocity P-wave (km/s) = 6.39691 6.97587 6.69266
#
# Compressibility (1/GPa) = 0.02051273
#
# Stress axis : x y z
#
# Youngs Moduli (GPa) = 71.82025 116.71034 100.43452
#
# Poissons Ratio (x) = 0.28811 0.24760
# Poissons Ratio (y) = 0.17729 0.10386
# Poissons Ratio (z) = 0.17706 0.12069
#
# Static dielectric constant tensor:
#      x y z
#    x 2.049720 -0.069340 -0.007590 
#    y -0.069340 2.000660 0.046730 
#    z -0.007590 0.046730 1.989480 
# 
# From -- ./inp_files/299785.got.cif
#   From: 2010.05.17/outbox.cif.g08.bks.cpg/sg2_150_cif.got.tgz:299785.got - 2010.06.03 11:33:40.
