data_PCOD9034255
_publ_section_title
;
Structure prediction by ZEFSAII (Michael W. Deem and Ramdas Pophale) SiO2 
 PCOD9034255
Probable space group: P -1
;
_chemical_formula_sum "Si O2"
_cell_formula_units_Z 13
_cell_length_a 17.123923
_cell_length_b 12.715905
_cell_length_c 5.135164
_cell_angle_alpha 65.940916
_cell_angle_beta 82.890278
_cell_angle_gamma 31.808972
_cell_volume 477.105498
_symmetry_space_group_name_H-M "P -1"
_symmetry_group_IT_number 2
_symmetry_cell_setting 'triclinic'
loop_
_space_group_symop_operation_xyz
x,y,z
-x,-y,-z
loop_
_atom_site_type_symbol
_atom_site_label
_atom_site_fract_x
_atom_site_fract_y
_atom_site_fract_z
Si Si1 0.783375 0.112460 0.835811
Si Si2 0.000000 0.000000 0.500000
Si Si3 0.479258 0.385644 0.399713
Si Si4 0.432731 0.290430 0.027806
Si Si5 0.099604 0.643194 0.655183
Si Si6 0.258175 0.244712 0.687472
Si Si7 0.063387 0.304523 0.934734
O O1 0.642559 0.243487 0.562536
O O2 0.671732 0.329019 0.863152
O O3 0.901231 0.041671 0.692151
O O4 0.882836 0.867437 0.112877
O O5 0.985664 0.126295 0.600179
O O6 0.498697 0.285074 0.237312
O O7 0.433614 0.364303 0.688212
O O8 0.557896 0.021809 0.214066
O O9 0.241160 0.504343 0.948624
O O10 0.221947 0.417788 0.636250
O O11 0.978271 0.707665 0.772442
O O12 0.206471 0.215273 0.953261
O O13 0.113117 0.414249 0.363354
#
# Coordination Sequence:
#
# PCOD9034255 Si02
#       7
#     2   1   2   2   2   2   2
#     4  10  22  47  77 105 150 183 248 299 368 422
#     4  10  22  44  72 112 138 190 236 308 360 434
#     4  11  26  48  76 108 144 197 242 300 361 435
#     4  12  27  48  75 106 149 193 249 294 362 436
#     4  11  25  44  71 103 148 187 243 303 364 425
#     4  11  25  45  70 104 145 194 247 289 372 428
#     4  10  24  44  70 107 136 199 233 310 352 444
#
# _framework density 27.247641000000002
#
# number of rings (size 3 to 8) (size 9 to 14) (size 15 to 20)
#    0.000    1.231    3.077    0.923    4.308    9.231 
#    0.000    3.077    0.000    0.000    0.000    0.000 
#    0.000    0.000    0.000    0.000    0.000    0.000 
#
# Total GULP energy -72626.243407 kJ/mol
# GULP energy per Si atom -5586.634108 kJ/mol
# Density = 2.718562 g / cm^3
# Si number density = 27.247641 Si / 1000 Ang^3
#
#
#
# Elastic Constant Matrix: (Units=GPa)
#
#
# Indices 1 2 3 4 5 6 
#
# 1 113.5862 13.4666 18.4516 9.1048 -35.2032 1.0513
# 2 13.4666 81.2701 19.5730 -11.2154 -6.6699 8.8612
# 3 18.4516 19.5730 88.7834 1.3581 -13.6453 -14.1970
# 4 9.1048 -11.2154 1.3581 45.4775 -6.2232 9.9222
# 5 -35.2032 -6.6699 -13.6453 -6.2232 27.0784 -4.0320
# 6 1.0513 8.8612 -14.1970 9.9222 -4.0320 66.8013
#
#
#
# Elastic Compliance Matrix: (Units=1/GPa)
#
#
# Indices 1 2 3 4 5 6 
#
# 1 0.014925 -0.001255 0.000358 -0.000960 0.019249 0.001312
# 2 -0.001255 0.014402 -0.003384 0.004727 0.000811 -0.003263
# 3 0.000358 -0.003384 0.013628 -0.001241 0.006800 0.003934
# 4 -0.000960 0.004727 -0.001241 0.024924 0.004376 -0.004314
# 5 0.019249 0.000811 0.006800 0.004376 0.067248 0.004444
# 6 0.001312 -0.003263 0.003934 -0.004314 0.004444 0.017127
#
#
# Mechanical properties :
#
#
# Convention : Reuss Voigt Hill
#
# Bulk Modulus (GPa) = 29.07508 42.95801 36.01654
# Shear Modulus (GPa) = 29.02229 43.34802 36.18515
#
# Velocity S-wave (km/s) = 3.26717 3.99292 3.64814
# Velocity P-wave (km/s) = 4.99264 6.08752 5.56706
#
# Compressibility (1/GPa) = 0.03439371
#
# Stress axis : x y z
#
# Youngs Moduli (GPa) = 67.00062 69.43374 73.37768
#
# Poissons Ratio (x) = 0.08715 -0.02625
# Poissons Ratio (y) = 0.08409 0.24828
# Poissons Ratio (z) = -0.02397 0.23494
#
# Static dielectric constant tensor:
#      x y z
#    x 2.067680 0.045290 -0.066590 
#    y 0.045290 2.156070 -0.105790 
#    z -0.066590 -0.105790 2.014850 
# 
# From -- ./inp_files/59146.got.cif
#   From: 2010.05.17/outbox.cif.g08.bks.cpg/sg2_30_cif.got.tgz:59146.got - 2010.06.03 11:33:40.
