data_PCOD9034813
_publ_section_title
;
Structure prediction by ZEFSAII (Michael W. Deem and Ramdas Pophale) SiO2 
 PCOD9034813
Probable space group: P -1
;
_chemical_formula_sum "Si O2"
_cell_formula_units_Z 14
_cell_length_a 14.398799
_cell_length_b 10.084872
_cell_length_c 7.481513
_cell_angle_alpha 51.556923
_cell_angle_beta 45.738691
_cell_angle_gamma 64.776592
_cell_volume 609.318184
_symmetry_space_group_name_H-M "P -1"
_symmetry_group_IT_number 2
_symmetry_cell_setting 'triclinic'
loop_
_space_group_symop_operation_xyz
x,y,z
-x,-y,-z
loop_
_atom_site_type_symbol
_atom_site_label
_atom_site_fract_x
_atom_site_fract_y
_atom_site_fract_z
Si Si1 0.338213 0.805904 0.810036
Si Si2 0.577941 0.859440 0.704609
Si Si3 0.094941 0.263542 0.179841
Si Si4 0.713561 0.646555 0.417254
Si Si5 0.011854 0.397000 0.829838
Si Si6 0.457927 0.476647 0.778310
Si Si7 0.039555 0.850868 0.203606
O O1 0.439575 0.840609 0.805804
O O2 0.356881 0.617977 0.862249
O O3 0.384350 0.945178 0.481705
O O4 0.193149 0.844275 0.032402
O O5 0.682118 0.791094 0.478973
O O6 0.958459 0.853221 0.493804
O O7 0.238973 0.261561 0.906052
O O8 0.007968 0.264426 0.113819
O O9 0.418241 0.283319 0.030143
O O10 0.080074 0.451348 0.124888
O O11 0.838017 0.543640 0.402021
O O12 0.588678 0.528465 0.667162
O O13 0.991003 0.314194 0.737521
O O14 0.500000 0.500000 0.500000
O O15 0.000000 0.000000 0.000000
#
# Coordination Sequence:
#
# PCOD9034813 Si02
#       7
#     2   2   2   2   2   2   2
#     4  10  24  43  66  98 131 176 226 271 339 390
#     4  10  22  45  68  93 133 174 221 283 327 397
#     4   9  22  39  66  94 128 171 219 268 328 395
#     4   9  19  40  65  94 125 166 219 270 330 388
#     4   9  21  39  64  94 126 170 216 270 331 384
#     4  11  25  39  72 100 128 178 221 276 342 397
#     4  12  25  41  63 101 135 179 217 270 340 400
#
# _framework density 22.976500000000001
#
# number of rings (size 3 to 8) (size 9 to 14) (size 15 to 20)
#    0.857    1.143    0.000    3.000    6.000    3.429 
#    0.000    1.429    0.000    0.000    0.000    0.000 
#    0.000    0.000    0.000    0.000    0.000    0.000 
#
# Total GULP energy -78143.414196 kJ/mol
# GULP energy per Si atom -5581.672443 kJ/mol
# Density = 2.292420 g / cm^3
# Si number density = 22.976500 Si / 1000 Ang^3
#
#
#
# Elastic Constant Matrix: (Units=GPa)
#
#
# Indices 1 2 3 4 5 6 
#
# 1 58.9107 18.1025 45.6591 -1.9065 36.4947 -5.0337
# 2 18.1025 36.2603 19.3966 -6.0879 13.6883 -11.2506
# 3 45.6591 19.3966 114.7384 11.9293 33.4681 -15.4284
# 4 -1.9065 -6.0879 11.9293 41.4967 -5.7558 6.7676
# 5 36.4947 13.6883 33.4681 -5.7558 43.5799 -7.0478
# 6 -5.0337 -11.2506 -15.4284 6.7676 -7.0478 30.5752
#
#
#
# Elastic Compliance Matrix: (Units=1/GPa)
#
#
# Indices 1 2 3 4 5 6 
#
# 1 0.042658 -0.008373 -0.008457 0.000437 -0.027639 -0.006793
# 2 -0.008373 0.036853 -0.001518 0.003600 -0.001251 0.010331
# 3 -0.008457 -0.001518 0.014928 -0.006425 -0.003762 0.006137
# 4 0.000437 0.003600 -0.006425 0.028439 0.006105 -0.006733
# 5 -0.027639 -0.001251 -0.003762 0.006105 0.050736 0.003435
# 6 -0.006793 0.010331 0.006137 -0.006733 0.003435 0.040768
#
#
# Mechanical properties :
#
#
# Convention : Reuss Voigt Hill
#
# Bulk Modulus (GPa) = 17.31821 41.80287 29.56054
# Shear Modulus (GPa) = 18.49624 31.58042 25.03833
#
# Velocity S-wave (km/s) = 2.84034 3.71140 3.30470
# Velocity P-wave (km/s) = 4.27907 6.04973 5.23974
#
# Compressibility (1/GPa) = 0.05774270
#
# Stress axis : x y z
#
# Youngs Moduli (GPa) = 23.44216 27.13486 66.98882
#
# Poissons Ratio (x) = 0.22721 0.56650
# Poissons Ratio (y) = 0.19629 0.10169
# Poissons Ratio (z) = 0.19824 0.04119
#
# Static dielectric constant tensor:
#      x y z
#    x 1.917130 -0.040260 0.000790 
#    y -0.040260 1.886350 -0.042290 
#    z 0.000790 -0.042290 1.943940 
# 
# From -- ./inp_files/275677.got.cif
#   From: 2010.05.17/outbox.cif.g08.bks.cpg/sg2_138_cif.got.tgz:275677.got - 2010.06.03 11:33:40.
