data_PCOD9034877
_publ_section_title
;
Structure prediction by ZEFSAII (Michael W. Deem and Ramdas Pophale) SiO2 
 PCOD9034877
Probable space group: P -1
;
_chemical_formula_sum "Si O2"
_cell_formula_units_Z 14
_cell_length_a 10.982149
_cell_length_b 5.120861
_cell_length_c 12.527901
_cell_angle_alpha 81.104830
_cell_angle_beta 131.989017
_cell_angle_gamma 98.782391
_cell_volume 516.206637
_symmetry_space_group_name_H-M "P -1"
_symmetry_group_IT_number 2
_symmetry_cell_setting 'triclinic'
loop_
_space_group_symop_operation_xyz
x,y,z
-x,-y,-z
loop_
_atom_site_type_symbol
_atom_site_label
_atom_site_fract_x
_atom_site_fract_y
_atom_site_fract_z
Si Si1 0.069944 0.988035 0.182812
Si Si2 0.201014 0.598843 0.764546
Si Si3 0.637074 0.843265 0.531936
Si Si4 0.593726 0.973064 0.257402
Si Si5 0.708223 0.713444 0.970734
Si Si6 0.771936 0.477116 0.800235
Si Si7 0.094400 0.108438 0.652975
O O1 0.886795 0.152618 0.249873
O O2 0.076373 0.296333 0.133340
O O3 0.946020 0.612572 0.342259
O O4 0.893438 0.839281 0.084258
O O5 0.298824 0.745753 0.715074
O O6 0.821626 0.183684 0.823981
O O7 0.310923 0.482022 0.927770
O O8 0.597913 0.848549 0.384315
O O9 0.814764 0.003897 0.644663
O O10 0.500000 0.000000 0.500000
O O11 0.662852 0.575958 0.630812
O O12 0.416562 0.055266 0.114858
O O13 0.710692 0.806858 0.262998
O O14 0.690662 0.549415 0.860215
O O15 0.000000 0.000000 0.500000
#
# Coordination Sequence:
#
# PCOD9034877 Si02
#       7
#     2   2   2   2   2   2   2
#     4  10  25  43  69 100 135 177 229 275 342 394
#     4  10  26  43  68 102 133 180 225 275 342 398
#     4  10  22  45  69 101 131 178 227 280 331 399
#     4  10  24  46  67 101 139 176 227 282 336 400
#     4  12  23  46  70 100 139 182 222 282 335 411
#     4  10  24  45  67 101 133 179 227 276 337 394
#     4  10  24  46  70  99 138 176 229 277 336 400
#
# _framework density 27.120925
#
# number of rings (size 3 to 8) (size 9 to 14) (size 15 to 20)
#    1.714    0.000    1.429    1.714    2.000    5.714 
#    7.714    0.000    0.000    0.000    0.000    0.000 
#    0.000    0.000    0.000    0.000    0.000    0.000 
#
# Total GULP energy -78210.020691 kJ/mol
# GULP energy per Si atom -5586.430049 kJ/mol
# Density = 2.705920 g / cm^3
# Si number density = 27.120925 Si / 1000 Ang^3
#
#
#
# Elastic Constant Matrix: (Units=GPa)
#
#
# Indices 1 2 3 4 5 6 
#
# 1 76.2841 0.1410 25.9755 -4.7106 11.1507 10.2788
# 2 0.1410 123.3837 16.5827 3.3931 -7.6804 13.3245
# 3 25.9755 16.5827 163.4067 -10.5857 -8.9494 9.1469
# 4 -4.7106 3.3931 -10.5857 37.7438 4.9935 -5.1258
# 5 11.1507 -7.6804 -8.9494 4.9935 61.7404 -7.0553
# 6 10.2788 13.3245 9.1469 -5.1258 -7.0553 24.9490
#
#
#
# Elastic Compliance Matrix: (Units=1/GPa)
#
#
# Indices 1 2 3 4 5 6 
#
# 1 0.015432 0.000770 -0.002308 0.000791 -0.003873 -0.006856
# 2 0.000770 0.008820 -0.000825 -0.001654 0.000407 -0.004950
# 3 -0.002308 -0.000825 0.006753 0.001469 0.001121 -0.000465
# 4 0.000791 -0.001654 0.001469 0.028110 -0.001805 0.005284
# 5 -0.003873 0.000407 0.001121 -0.001805 0.017902 0.005659
# 6 -0.006856 -0.004950 -0.000465 0.005284 0.005659 0.048407
#
#
# Mechanical properties :
#
#
# Convention : Reuss Voigt Hill
#
# Bulk Modulus (GPa) = 38.05425 49.83034 43.94230
# Shear Modulus (GPa) = 35.99421 46.24499 41.11960
#
# Velocity S-wave (km/s) = 3.64699 4.13381 3.89801
# Velocity P-wave (km/s) = 5.63878 6.41855 6.04126
#
# Compressibility (1/GPa) = 0.02627827
#
# Stress axis : x y z
#
# Youngs Moduli (GPa) = 64.79902 113.37576 148.08252
#
# Poissons Ratio (x) = -0.08732 0.34184
# Poissons Ratio (y) = -0.04990 0.12222
# Poissons Ratio (z) = 0.14959 0.09357
#
# Static dielectric constant tensor:
#      x y z
#    x 2.347370 -0.013360 -0.005200 
#    y -0.013360 2.114520 -0.003720 
#    z -0.005200 -0.003720 2.137960 
# 
# From -- ./inp_files/378868.got.cif
#   From: 2010.05.17/outbox.cif.g08.bks.cpg/sg2_190_cif.got.tgz:378868.got - 2010.06.03 11:33:40.
