data_PCOD9034666
_publ_section_title
;
Structure prediction by ZEFSAII (Michael W. Deem and Ramdas Pophale) SiO2 
 PCOD9034666
Probable space group: P -1
;
_chemical_formula_sum "Si O2"
_cell_formula_units_Z 16
_cell_length_a 20.611477
_cell_length_b 6.858403
_cell_length_c 8.185358
_cell_angle_alpha 97.100634
_cell_angle_beta 127.262160
_cell_angle_gamma 57.817816
_cell_volume 744.672965
_symmetry_space_group_name_H-M "P -1"
_symmetry_group_IT_number 2
_symmetry_cell_setting 'triclinic'
loop_
_space_group_symop_operation_xyz
x,y,z
-x,-y,-z
loop_
_atom_site_type_symbol
_atom_site_label
_atom_site_fract_x
_atom_site_fract_y
_atom_site_fract_z
Si Si1 0.074490 0.513854 0.233279
Si Si2 0.919041 0.754881 0.486261
Si Si3 0.563801 0.645747 0.434024
Si Si4 0.431950 0.505702 0.214680
Si Si5 0.969555 0.043325 0.151585
Si Si6 0.777223 0.517397 0.808127
Si Si7 0.274104 0.056982 0.977060
Si Si8 0.428262 0.096329 0.054947
O O1 0.115700 0.311466 0.410943
O O2 0.161050 0.484940 0.251288
O O3 0.006435 0.779462 0.237321
O O4 0.000000 0.500000 0.000000
O O5 0.825982 0.900982 0.238964
O O6 0.000000 0.500000 0.500000
O O7 0.970948 0.878976 0.644675
O O8 0.525004 0.496276 0.277317
O O9 0.538964 0.631279 0.582436
O O10 0.679442 0.540624 0.599437
O O11 0.498908 0.912600 0.288901
O O12 0.394311 0.368645 0.047387
O O13 0.345890 0.788489 0.129850
O O14 0.853393 0.266786 0.994942
O O15 0.000000 0.000000 0.000000
O O16 0.747882 0.740432 0.903922
O O17 0.334289 0.082270 0.924684
O O18 0.500000 0.000000 0.000000
#
# Coordination Sequence:
#
# PCOD9034666 Si02
#       8
#     2   2   2   2   2   2   2   2
#     4  11  23  44  68  95 138 182 226 282 338 403
#     4  12  24  45  67 101 143 179 226 284 350 406
#     4  10  23  41  71  96 126 173 227 276 331 402
#     4  10  23  45  69  94 130 177 226 281 338 402
#     4  10  22  45  66  98 136 176 231 280 330 409
#     4  11  22  43  67 101 133 172 236 281 329 414
#     4  11  25  43  68 101 137 177 229 281 343 412
#     4  11  25  47  64  97 142 172 223 287 342 409
#
# _framework density 21.485939999999999
#
# number of rings (size 3 to 8) (size 9 to 14) (size 15 to 20)
#    0.000    1.250    5.000    0.375    5.250    5.500 
#    6.750    0.000    0.000    0.000    0.000    0.000 
#    0.000    0.000    0.000    0.000    0.000    0.000 
#
# Total GULP energy -89326.851891 kJ/mol
# GULP energy per Si atom -5582.928243 kJ/mol
# Density = 2.143704 g / cm^3
# Si number density = 21.485940 Si / 1000 Ang^3
#
#
#
# Elastic Constant Matrix: (Units=GPa)
#
#
# Indices 1 2 3 4 5 6 
#
# 1 90.9325 28.4257 32.4119 -0.6480 20.9423 5.6117
# 2 28.4257 137.0970 39.2437 -2.2958 9.6722 7.4166
# 3 32.4119 39.2437 108.5869 -8.3324 35.3748 2.9884
# 4 -0.6480 -2.2958 -8.3324 30.4735 0.4556 1.9017
# 5 20.9423 9.6722 35.3748 0.4556 43.6425 2.6345
# 6 5.6117 7.4166 2.9884 1.9017 2.6345 28.4979
#
#
#
# Elastic Compliance Matrix: (Units=1/GPa)
#
#
# Indices 1 2 3 4 5 6 
#
# 1 0.013341 -0.001845 -0.001858 -0.000202 -0.004392 -0.001533
# 2 -0.001845 0.008512 -0.002985 -0.000133 0.001521 -0.001671
# 3 -0.001858 -0.002985 0.014458 0.003822 -0.010225 0.000317
# 4 -0.000202 -0.000133 0.003822 0.034038 -0.003188 -0.002303
# 5 -0.004392 0.001521 -0.010225 -0.003188 0.033084 -0.001304
# 6 -0.001533 -0.001671 0.000317 -0.002303 -0.001304 0.036068
#
#
# Mechanical properties :
#
#
# Convention : Reuss Voigt Hill
#
# Bulk Modulus (GPa) = 43.60067 59.64213 51.62140
# Shear Modulus (GPa) = 31.14843 36.29178 33.72011
#
# Velocity S-wave (km/s) = 3.81164 4.11432 3.96587
# Velocity P-wave (km/s) = 6.30144 7.09853 6.71183
#
# Compressibility (1/GPa) = 0.02293543
#
# Stress axis : x y z
#
# Youngs Moduli (GPa) = 74.95809 117.48112 69.16460
#
# Poissons Ratio (x) = 0.21674 0.12849
# Poissons Ratio (y) = 0.13829 0.20647
# Poissons Ratio (z) = 0.13925 0.35071
#
# Static dielectric constant tensor:
#      x y z
#    x 1.843430 0.007740 -0.000540 
#    y 0.007740 1.805520 0.046940 
#    z -0.000540 0.046940 1.843460 
# 
# From -- ./inp_files/340502.got.cif
#   From: 2010.05.17/outbox.cif.g08.bks.cpg/sg2_171_cif.got.tgz:340502.got - 2010.06.03 11:33:40.
