data_PCOD9034252
_publ_section_title
;
Structure prediction by ZEFSAII (Michael W. Deem and Ramdas Pophale) SiO2 
 PCOD9034252
Probable space group: P -1
;
_chemical_formula_sum "Si O2"
_cell_formula_units_Z 15
_cell_length_a 21.825182
_cell_length_b 14.547832
_cell_length_c 5.325869
_cell_angle_alpha 93.481895
_cell_angle_beta 83.248366
_cell_angle_gamma 157.289507
_cell_volume 643.288898
_symmetry_space_group_name_H-M "P -1"
_symmetry_group_IT_number 2
_symmetry_cell_setting 'triclinic'
loop_
_space_group_symop_operation_xyz
x,y,z
-x,-y,-z
loop_
_atom_site_type_symbol
_atom_site_label
_atom_site_fract_x
_atom_site_fract_y
_atom_site_fract_z
Si Si1 0.377143 0.748384 0.045335
Si Si2 0.074542 0.194943 0.404385
Si Si3 0.973021 0.402269 0.747141
Si Si4 0.824950 0.499031 0.389942
Si Si5 0.201688 0.153276 0.857771
Si Si6 0.609503 0.433326 0.857368
Si Si7 0.317976 0.134964 0.091179
Si Si8 0.500000 0.500000 0.500000
O O1 0.270948 0.604701 0.825057
O O2 0.275179 0.632868 0.324537
O O3 0.448902 0.743829 0.023029
O O4 0.500000 0.000000 0.000000
O O5 0.039162 0.237056 0.586445
O O6 0.264463 0.434902 0.378110
O O7 0.000000 0.000000 0.500000
O O8 0.983945 0.090122 0.168926
O O9 0.105628 0.505389 0.686393
O O10 0.000000 0.500000 0.500000
O O11 0.804282 0.113084 0.802713
O O12 0.000000 0.500000 0.000000
O O13 0.320041 0.301990 0.587232
O O14 0.270888 0.337090 0.000990
O O15 0.233094 0.101169 0.980856
O O16 0.452990 0.279305 0.855749
O O17 0.423310 0.324287 0.293587
#
# Coordination Sequence:
#
# PCOD9034252 Si02
#       8
#     2   2   2   2   2   2   2   1
#     4  11  25  48  74 107 144 202 246 325 373 463
#     4  11  25  42  76 109 153 198 249 313 391 476
#     4  12  30  51  79 114 152 209 268 326 389 477
#     4  11  26  48  76 105 149 191 263 306 387 451
#     4  11  24  43  72 109 148 198 244 322 391 467
#     4  10  24  44  69 109 146 195 254 310 388 465
#     4  11  27  47  77 106 157 196 262 329 400 468
#     4  10  22  44  72 110 144 194 248 310 404 450
#
# _framework density 23.317672000000002
#
# number of rings (size 3 to 8) (size 9 to 14) (size 15 to 20)
#    0.000    1.067    0.000    4.800   16.800    0.000 
#    4.800    0.000    0.000    0.000    0.000    0.000 
#    0.000    0.000    0.000    0.000    0.000    0.000 
#
# Total GULP energy -83559.648065 kJ/mol
# GULP energy per Si atom -5570.643204 kJ/mol
# Density = 2.326460 g / cm^3
# Si number density = 23.317672 Si / 1000 Ang^3
#
#
#
# Elastic Constant Matrix: (Units=GPa)
#
#
# Indices 1 2 3 4 5 6 
#
# 1 156.0847 45.9524 50.3976 0.8077 -9.7528 -16.5307
# 2 45.9524 118.2865 42.1227 2.1190 13.0695 -24.3841
# 3 50.3976 42.1227 121.5912 8.9085 -6.0161 -4.9913
# 4 0.8077 2.1190 8.9085 47.6154 10.6588 -9.9340
# 5 -9.7528 13.0695 -6.0161 10.6588 48.8006 0.0113
# 6 -16.5307 -24.3841 -4.9913 -9.9340 0.0113 50.0331
#
#
#
# Elastic Compliance Matrix: (Units=1/GPa)
#
#
# Indices 1 2 3 4 5 6 
#
# 1 0.008115 -0.002182 -0.002481 0.000312 0.001832 0.001432
# 2 -0.002182 0.012090 -0.003462 0.002278 -0.004599 0.005279
# 3 -0.002481 -0.003462 0.010688 -0.002743 0.002349 -0.001986
# 4 0.000312 0.002278 -0.002743 0.023968 -0.006122 0.005700
# 5 0.001832 -0.004599 0.002349 -0.006122 0.023717 -0.002623
# 6 0.001432 0.005279 -0.001986 0.005700 -0.002623 0.023967
#
#
# Mechanical properties :
#
#
# Convention : Reuss Voigt Hill
#
# Bulk Modulus (GPa) = 68.29113 74.76751 71.52932
# Shear Modulus (GPa) = 40.42891 46.45579 43.44235
#
# Velocity S-wave (km/s) = 4.16845 4.46836 4.32101
# Velocity P-wave (km/s) = 7.24699 7.66525 7.45905
#
# Compressibility (1/GPa) = 0.01464319
#
# Stress axis : x y z
#
# Youngs Moduli (GPa) = 123.23374 82.71265 93.56638
#
# Poissons Ratio (x) = 0.18045 0.23215
# Poissons Ratio (y) = 0.26886 0.32391
# Poissons Ratio (z) = 0.30575 0.28633
#
# Static dielectric constant tensor:
#      x y z
#    x 1.829220 0.072220 -0.069020 
#    y 0.072220 1.902240 -0.055660 
#    z -0.069020 -0.055660 1.910860 
# 
# From -- ./inp_files/124308.got.cif
#   From: 2010.05.17/outbox.cif.g08.bks.cpg/sg2_63_cif.got.tgz:124308.got - 2010.06.03 11:33:40.
