data_PCOD9034848
_publ_section_title
;
Structure prediction by ZEFSAII (Michael W. Deem and Ramdas Pophale) SiO2 
 PCOD9034848
Probable space group: P -1
;
_chemical_formula_sum "Si O2"
_cell_formula_units_Z 15
_cell_length_a 10.510927
_cell_length_b 8.271842
_cell_length_c 16.080647
_cell_angle_alpha 137.626859
_cell_angle_beta 73.479847
_cell_angle_gamma 76.066147
_cell_volume 647.083852
_symmetry_space_group_name_H-M "P -1"
_symmetry_group_IT_number 2
_symmetry_cell_setting 'triclinic'
loop_
_space_group_symop_operation_xyz
x,y,z
-x,-y,-z
loop_
_atom_site_type_symbol
_atom_site_label
_atom_site_fract_x
_atom_site_fract_y
_atom_site_fract_z
Si Si1 0.500000 0.000000 0.000000
Si Si2 0.081864 0.651808 0.075582
Si Si3 0.861315 0.053666 0.429501
Si Si4 0.478762 0.915505 0.228160
Si Si5 0.486451 0.665994 0.709015
Si Si6 0.187453 0.319174 0.299261
Si Si7 0.122167 0.821181 0.828101
Si Si8 0.815296 0.758958 0.465869
O O1 0.507403 0.172423 0.147822
O O2 0.293703 0.172381 0.135457
O O3 0.304068 0.408079 0.943127
O O4 0.005508 0.782284 0.232292
O O5 0.997634 0.954052 0.144197
O O6 0.000000 0.500000 0.000000
O O7 0.647863 0.265164 0.527150
O O8 0.852475 0.352141 0.545800
O O9 0.885752 0.898595 0.454703
O O10 0.475639 0.207758 0.328550
O O11 0.336207 0.012676 0.218458
O O12 0.378698 0.951362 0.342833
O O13 0.290349 0.792831 0.788321
O O14 0.979190 0.484530 0.395700
O O15 0.197856 0.456342 0.670669
O O16 0.000000 0.000000 0.000000
#
# Coordination Sequence:
#
# PCOD9034848 Si02
#       8
#     1   2   2   2   2   2   2   2
#     4   8  18  38  74  92 124 172 226 272 322 404
#     4  12  25  45  68 100 139 177 229 281 347 407
#     4  10  25  43  71  98 132 183 231 277 341 413
#     4  10  24  43  69  97 136 180 224 281 341 404
#     4  10  22  45  68  98 137 185 224 272 355 404
#     4  10  22  46  71  94 140 181 232 273 354 398
#     4  12  26  41  70 101 139 175 234 282 347 400
#     4  12  25  43  69 102 140 177 232 286 336 407
#
# _framework density 23.180921999999999
#
# number of rings (size 3 to 8) (size 9 to 14) (size 15 to 20)
#    0.000    1.600    1.333    4.000    7.467    1.600 
#    0.000    1.333    0.000    0.000    0.000    0.000 
#    0.000    0.000    0.000    0.000    0.000    0.000 
#
# Total GULP energy -83517.840714 kJ/mol
# GULP energy per Si atom -5567.856048 kJ/mol
# Density = 2.312816 g / cm^3
# Si number density = 23.180922 Si / 1000 Ang^3
#
#
#
# Elastic Constant Matrix: (Units=GPa)
#
#
# Indices 1 2 3 4 5 6 
#
# 1 85.7608 29.1593 44.4081 -1.6503 -24.5798 -9.4956
# 2 29.1593 77.2723 38.4185 -9.1916 -12.0920 4.2910
# 3 44.4081 38.4185 142.4771 -32.3453 -30.0369 -3.6421
# 4 -1.6503 -9.1916 -32.3453 40.2244 5.4026 -10.9104
# 5 -24.5798 -12.0920 -30.0369 5.4026 49.8688 11.6781
# 6 -9.4956 4.2910 -3.6421 -10.9104 11.6781 24.5588
#
#
#
# Elastic Compliance Matrix: (Units=1/GPa)
#
#
# Indices 1 2 3 4 5 6 
#
# 1 0.016596 -0.004260 -0.003672 -0.003005 0.004529 0.003128
# 2 -0.004260 0.016605 -0.003159 -0.000779 0.001535 -0.006093
# 3 -0.003672 -0.003159 0.011765 0.009246 0.002635 0.003732
# 4 -0.003005 -0.000779 0.009246 0.037910 -0.004763 0.019452
# 5 0.004529 0.001535 0.002635 -0.004763 0.027927 -0.013522
# 6 0.003128 -0.006093 0.003732 0.019452 -0.013522 0.058618
#
#
# Mechanical properties :
#
#
# Convention : Reuss Voigt Hill
#
# Bulk Modulus (GPa) = 43.88664 58.83132 51.35898
# Shear Modulus (GPa) = 25.10076 35.83203 30.46640
#
# Velocity S-wave (km/s) = 3.29419 3.93587 3.62924
# Velocity P-wave (km/s) = 5.78293 6.78890 6.30600
#
# Compressibility (1/GPa) = 0.02278598
#
# Stress axis : x y z
#
# Youngs Moduli (GPa) = 60.25382 60.22230 84.99937
#
# Poissons Ratio (x) = 0.25653 0.31209
# Poissons Ratio (y) = 0.25667 0.26850
# Poissons Ratio (z) = 0.22123 0.19023
#
# Static dielectric constant tensor:
#      x y z
#    x 1.954300 -0.052140 -0.029480 
#    y -0.052140 1.941510 0.031580 
#    z -0.029480 0.031580 1.865020 
# 
# From -- ./inp_files/565583.got.cif
#   From: 2010.05.17/outbox.cif.g08.bks.cpg/sg2_283_cif.got.tgz:565583.got - 2010.06.03 11:33:40.
