data_PCOD9034115
_publ_section_title
;
Structure prediction by ZEFSAII (Michael W. Deem and Ramdas Pophale) SiO2 
 PCOD9034115
Probable space group: P -1
;
_chemical_formula_sum "Si O2"
_cell_formula_units_Z 16
_cell_length_a 5.933579
_cell_length_b 11.262228
_cell_length_c 12.675361
_cell_angle_alpha 61.710960
_cell_angle_beta 104.189654
_cell_angle_gamma 119.953279
_cell_volume 646.207798
_symmetry_space_group_name_H-M "P -1"
_symmetry_group_IT_number 2
_symmetry_cell_setting 'triclinic'
loop_
_space_group_symop_operation_xyz
x,y,z
-x,-y,-z
loop_
_atom_site_type_symbol
_atom_site_label
_atom_site_fract_x
_atom_site_fract_y
_atom_site_fract_z
Si Si1 0.167995 0.313690 0.616351
Si Si2 0.396227 0.625649 0.948292
Si Si3 0.920607 0.854779 0.979354
Si Si4 0.900394 0.531504 0.814065
Si Si5 0.619624 0.634378 0.604104
Si Si6 0.316202 0.046119 0.533894
Si Si7 0.311831 0.035509 0.779515
Si Si8 0.154247 0.727474 0.217348
O O1 0.379290 0.472574 0.621801
O O2 0.180768 0.331491 0.485457
O O3 0.224505 0.171164 0.708303
O O4 0.910047 0.280143 0.664308
O O5 0.635770 0.786372 0.926821
O O6 0.203912 0.616891 0.836525
O O7 0.500000 0.500000 0.000000
O O8 0.229807 0.577386 0.056696
O O9 0.117758 0.899104 0.885765
O O10 0.937723 0.733590 0.112499
O O11 0.000000 0.000000 0.000000
O O12 0.761052 0.634701 0.729146
O O13 0.828595 0.421112 0.752587
O O14 0.550297 0.772304 0.535198
O O15 0.329080 0.996681 0.676598
O O16 0.500000 0.000000 0.500000
O O17 0.000000 0.000000 0.500000
O O18 0.588304 0.118573 0.833973
#
# Coordination Sequence:
#
# PCOD9034115 Si02
#       8
#     2   2   2   2   2   2   2   2
#     4  10  22  44  71 110 141 184 252 321 386 462
#     4  11  25  47  70 104 157 197 256 317 385 472
#     4  12  24  45  74 106 150 205 256 321 405 456
#     4  11  24  45  73 111 148 194 255 320 392 467
#     4  10  23  47  75 108 144 195 255 318 394 463
#     4  11  29  55  76 111 162 212 264 324 395 479
#     4  11  25  46  73 109 152 194 264 322 388 472
#     4  12  23  43  76 106 148 191 249 330 390 465
#
# _framework density 24.759834999999999
#
# number of rings (size 3 to 8) (size 9 to 14) (size 15 to 20)
#    0.000    1.000    3.750    1.875    3.500    2.500 
#    4.500    0.000    0.000    0.000    0.000    0.000 
#    0.000    0.000    0.000    0.000    0.000    0.000 
#
# Total GULP energy -89558.568987 kJ/mol
# GULP energy per Si atom -5597.410562 kJ/mol
# Density = 2.470348 g / cm^3
# Si number density = 24.759835 Si / 1000 Ang^3
#
#
#
# Elastic Constant Matrix: (Units=GPa)
#
#
# Indices 1 2 3 4 5 6 
#
# 1 90.3631 46.1527 31.4253 18.3212 -12.7850 14.2033
# 2 46.1527 101.6981 27.1809 10.8437 -5.5738 2.4236
# 3 31.4253 27.1809 98.2924 3.7226 -6.7317 0.7340
# 4 18.3212 10.8437 3.7226 33.7334 -1.3242 1.4631
# 5 -12.7850 -5.5738 -6.7317 -1.3242 38.6950 6.6855
# 6 14.2033 2.4236 0.7340 1.4631 6.6855 52.6016
#
#
#
# Elastic Compliance Matrix: (Units=1/GPa)
#
#
# Indices 1 2 3 4 5 6 
#
# 1 0.018504 -0.006281 -0.003509 -0.007216 0.005237 -0.005123
# 2 -0.006281 0.013133 -0.001654 -0.000709 -0.000707 0.001224
# 3 -0.003509 -0.001654 0.011742 0.001131 0.000553 0.000758
# 4 -0.007216 -0.000709 0.001131 0.033561 -0.001349 0.001203
# 5 0.005237 -0.000707 0.000553 -0.001349 0.028378 -0.004958
# 6 -0.005123 0.001224 0.000758 0.001203 -0.004958 0.020924
#
#
# Mechanical properties :
#
#
# Convention : Reuss Voigt Hill
#
# Bulk Modulus (GPa) = 48.80178 55.54124 52.17151
# Shear Modulus (GPa) = 32.05911 37.37899 34.71905
#
# Velocity S-wave (km/s) = 3.60224 3.88965 3.74870
# Velocity P-wave (km/s) = 6.08723 6.53094 6.31299
#
# Compressibility (1/GPa) = 0.02049106
#
# Stress axis : x y z
#
# Youngs Moduli (GPa) = 54.04252 76.14204 85.16148
#
# Poissons Ratio (x) = 0.47826 0.29882
# Poissons Ratio (y) = 0.33945 0.14088
# Poissons Ratio (z) = 0.18963 0.12596
#
# Static dielectric constant tensor:
#      x y z
#    x 2.035990 -0.032950 0.010840 
#    y -0.032950 1.973060 -0.014110 
#    z 0.010840 -0.014110 1.913130 
# 
# From -- ./inp_files/364078.got.cif
#   From: 2010.05.17/outbox.cif.g08.bks.cpg/sg2_183_cif.got.tgz:364078.got - 2010.06.03 11:33:40.
