data_PCOD9034379
_publ_section_title
;
Structure prediction by ZEFSAII (Michael W. Deem and Ramdas Pophale) SiO2 
 PCOD9034379
Probable space group: P -1
;
_chemical_formula_sum "Si O2"
_cell_formula_units_Z 13
_cell_length_a 9.424254
_cell_length_b 8.240198
_cell_length_c 13.343627
_cell_angle_alpha 146.304039
_cell_angle_beta 64.040416
_cell_angle_gamma 105.696455
_cell_volume 507.692064
_symmetry_space_group_name_H-M "P -1"
_symmetry_group_IT_number 2
_symmetry_cell_setting 'triclinic'
loop_
_space_group_symop_operation_xyz
x,y,z
-x,-y,-z
loop_
_atom_site_type_symbol
_atom_site_label
_atom_site_fract_x
_atom_site_fract_y
_atom_site_fract_z
Si Si1 0.124039 0.292689 0.542865
Si Si2 0.266146 0.239378 0.794456
Si Si3 0.500000 0.500000 0.000000
Si Si4 0.590899 0.878738 0.757570
Si Si5 0.284410 0.132768 0.061156
Si Si6 0.792458 0.209426 0.576522
Si Si7 0.056992 0.730966 0.969973
O O1 0.278703 0.342754 0.459822
O O2 0.060419 0.536189 0.769949
O O3 0.970197 0.243521 0.500113
O O4 0.176431 0.001071 0.445620
O O5 0.417455 0.282517 0.834877
O O6 0.186275 0.525693 0.898014
O O7 0.294554 0.952337 0.563918
O O8 0.118294 0.209387 0.897760
O O9 0.593791 0.204708 0.880816
O O10 0.650531 0.848963 0.837630
O O11 0.401114 0.887138 0.833333
O O12 0.288763 0.464599 0.189427
O O13 0.119160 0.027494 0.075138
#
# Coordination Sequence:
#
# PCOD9034379 Si02
#       7
#     2   2   1   2   2   2   2
#     4  10  23  43  72 104 136 188 243 277 335 434
#     4  10  23  44  75 103 136 186 237 286 346 418
#     4  12  24  46  74 102 134 196 230 290 340 438
#     4  11  25  43  68  98 149 181 228 289 354 408
#     4  11  24  46  69 102 147 183 225 296 355 403
#     4  10  23  44  73 104 139 182 241 287 343 416
#     4  10  22  44  74 102 140 186 234 287 344 416
#
# _framework density 25.606071
#
# number of rings (size 3 to 8) (size 9 to 14) (size 15 to 20)
#    0.000    1.538    1.538    1.846    8.615    3.692 
#    8.308    2.308    0.000    0.000    0.000    0.000 
#    0.000    0.000    0.000    0.000    0.000    0.000 
#
# Total GULP energy -72530.668619 kJ/mol
# GULP energy per Si atom -5579.282201 kJ/mol
# Density = 2.554779 g / cm^3
# Si number density = 25.606071 Si / 1000 Ang^3
#
#
#
# Elastic Constant Matrix: (Units=GPa)
#
#
# Indices 1 2 3 4 5 6 
#
# 1 133.7398 15.1126 43.3824 5.4093 32.8612 -0.5421
# 2 15.1126 32.1032 3.5229 -4.6008 -1.3503 12.9572
# 3 43.3824 3.5229 84.7220 -22.4914 9.8456 17.3045
# 4 5.4093 -4.6008 -22.4914 47.4911 4.7026 -7.5080
# 5 32.8612 -1.3503 9.8456 4.7026 32.8076 2.4924
# 6 -0.5421 12.9572 17.3045 -7.5080 2.4924 29.2003
#
#
#
# Elastic Compliance Matrix: (Units=1/GPa)
#
#
# Indices 1 2 3 4 5 6 
#
# 1 0.015220 -0.011735 -0.009103 -0.004140 -0.013234 0.010949
# 2 -0.011735 0.047638 0.009375 0.004964 0.012216 -0.026679
# 3 -0.009103 0.009375 0.021242 0.009385 0.002904 -0.014752
# 4 -0.004140 0.004964 0.009385 0.026541 -0.002207 -0.000829
# 5 -0.013234 0.012216 0.002904 -0.002207 0.044577 -0.011760
# 6 0.010949 -0.026679 -0.014752 -0.000829 -0.011760 0.055821
#
#
# Mechanical properties :
#
#
# Convention : Reuss Voigt Hill
#
# Bulk Modulus (GPa) = 16.34665 41.62232 28.98448
# Shear Modulus (GPa) = 19.65763 34.46961 27.06362
#
# Velocity S-wave (km/s) = 2.77374 3.67297 3.25456
# Velocity P-wave (km/s) = 4.08116 5.85472 5.04647
#
# Compressibility (1/GPa) = 0.06117463
#
# Stress axis : x y z
#
# Youngs Moduli (GPa) = 65.70509 20.99172 47.07720
#
# Poissons Ratio (x) = 0.24633 0.42853
# Poissons Ratio (y) = 0.77104 -0.44137
# Poissons Ratio (z) = 0.59810 -0.19680
#
# Static dielectric constant tensor:
#      x y z
#    x 2.394780 0.497840 -0.409640 
#    y 0.497840 2.725420 -0.516260 
#    z -0.409640 -0.516260 2.370940 
# 
# From -- ./inp_files/495951.got.cif
#   From: 2010.05.17/outbox.cif.g08.bks.cpg/sg2_248_cif.got.tgz:495951.got - 2010.06.03 11:33:40.
