data_PCOD9034963
_publ_section_title
;
Structure prediction by ZEFSAII (Michael W. Deem and Ramdas Pophale) SiO2 
 PCOD9034963
Probable space group: P -1
;
_chemical_formula_sum "Si O2"
_cell_formula_units_Z 14
_cell_length_a 10.385405
_cell_length_b 23.268650
_cell_length_c 5.623036
_cell_angle_alpha 80.895719
_cell_angle_beta 116.211421
_cell_angle_gamma 149.297141
_cell_volume 544.820709
_symmetry_space_group_name_H-M "P -1"
_symmetry_group_IT_number 2
_symmetry_cell_setting 'triclinic'
loop_
_space_group_symop_operation_xyz
x,y,z
-x,-y,-z
loop_
_atom_site_type_symbol
_atom_site_label
_atom_site_fract_x
_atom_site_fract_y
_atom_site_fract_z
Si Si1 0.845941 0.625182 0.803704
Si Si2 0.094665 0.613416 0.699154
Si Si3 0.898468 0.896854 0.926251
Si Si4 0.519639 0.351462 0.109952
Si Si5 0.272942 0.778873 0.426132
Si Si6 0.790446 0.015406 0.382785
Si Si7 0.927666 0.191835 0.451894
O O1 0.500000 0.500000 0.500000
O O2 0.985402 0.736323 0.746886
O O3 0.004851 0.624092 0.830166
O O4 0.914448 0.647995 0.122591
O O5 0.273874 0.618652 0.904224
O O6 0.321553 0.737454 0.638753
O O7 0.780307 0.483430 0.378575
O O8 0.637073 0.750610 0.763710
O O9 0.086813 0.958430 0.789644
O O10 0.972777 0.902826 0.254235
O O11 0.000000 0.000000 0.000000
O O12 0.253342 0.292659 0.792937
O O13 0.293033 0.844940 0.549132
O O14 0.503992 0.870764 0.332410
O O15 0.741012 0.066685 0.312041
#
# Coordination Sequence:
#
# PCOD9034963 Si02
#       7
#     2   2   2   2   2   2   2
#     4  11  24  40  70  96 139 179 234 286 355 415
#     4  10  23  44  66 100 134 186 229 297 343 426
#     4  11  25  45  71 103 144 190 230 295 356 427
#     4  10  22  45  69  96 141 177 241 283 359 411
#     4  11  24  43  69 101 140 183 236 288 353 421
#     4  11  26  42  73 103 142 185 241 291 353 419
#     4  10  24  43  66 102 137 185 227 294 349 422
#
# _framework density 25.696524
#
# number of rings (size 3 to 8) (size 9 to 14) (size 15 to 20)
#    0.000    1.429    0.000    3.429   12.000    2.857 
#    2.571    2.143    0.000    0.000    0.000    0.000 
#    0.000    0.000    0.000    0.000    0.000    0.000 
#
# Total GULP energy -78085.709860 kJ/mol
# GULP energy per Si atom -5577.550704 kJ/mol
# Density = 2.563804 g / cm^3
# Si number density = 25.696524 Si / 1000 Ang^3
#
#
#
# Elastic Constant Matrix: (Units=GPa)
#
#
# Indices 1 2 3 4 5 6 
#
# 1 11.0351 55.1058 -66.3747 -50.2152 -47.5349 -69.9049
# 2 55.1058 110.4385 26.7226 22.2361 -15.4600 -13.1955
# 3 -66.3747 26.7226 -24.3795 -25.4634 -28.0944 -34.3218
# 4 -50.2152 22.2361 -25.4634 21.7772 -11.2127 -8.4288
# 5 -47.5349 -15.4600 -28.0944 -11.2127 30.0632 -1.9568
# 6 -69.9049 -13.1955 -34.3218 -8.4288 -1.9568 30.0546
#
#
#
# Elastic Compliance Matrix: (Units=1/GPa)
#
#
# Indices 1 2 3 4 5 6 
#
# 1 0.005699 -0.000184 -0.011388 -0.001256 -0.002217 -0.000328
# 2 -0.000184 0.011061 0.001895 -0.004169 0.005991 0.005812
# 3 -0.011388 0.001895 0.018866 -0.011112 -0.004034 -0.007491
# 4 -0.001256 -0.004169 -0.011112 0.028043 -0.004699 -0.009883
# 5 -0.002217 0.005991 -0.004034 -0.004699 0.026880 -0.006700
# 6 -0.000328 0.005812 -0.007491 -0.009883 -0.006700 0.023298
#
#
# Mechanical properties :
#
#
# Convention : Reuss Voigt Hill
#
# Bulk Modulus (GPa) = 61.46360 14.22239 37.84299
# Shear Modulus (GPa) = 36.06855 21.82168 28.94512
#
# Velocity S-wave (km/s) = 3.75058 2.91728 3.35986
# Velocity P-wave (km/s) = 6.53657 4.11025 5.45989
#
# Compressibility (1/GPa) = 0.01626979
#
# Stress axis : x y z
#
# Youngs Moduli (GPa) = 175.48416 90.40902 53.00670
#
# Poissons Ratio (x) = 0.01668 0.60365
# Poissons Ratio (y) = 0.03238 -0.10046
# Poissons Ratio (z) = 1.99845 -0.17134
#
# Static dielectric constant tensor:
#      x y z
#    x 2.184780 0.074660 0.083170 
#    y 0.074660 2.159350 0.033510 
#    z 0.083170 0.033510 2.103600 
# 
# From -- ./inp_files/27805.got.cif
#   From: 2010.05.17/outbox.cif.g08.bks.cpg/sg2_14_cif.got.tgz:27805.got - 2010.06.03 11:33:40.
