data_PCOD9034637
_publ_section_title
;
Structure prediction by ZEFSAII (Michael W. Deem and Ramdas Pophale) SiO2 
 PCOD9034637
Probable space group: P -1
;
_chemical_formula_sum "Si O2"
_cell_formula_units_Z 14
_cell_length_a 9.433617
_cell_length_b 11.816129
_cell_length_c 18.140295
_cell_angle_alpha 139.327891
_cell_angle_beta 153.300484
_cell_angle_gamma 49.226298
_cell_volume 590.046218
_symmetry_space_group_name_H-M "P -1"
_symmetry_group_IT_number 2
_symmetry_cell_setting 'triclinic'
loop_
_space_group_symop_operation_xyz
x,y,z
-x,-y,-z
loop_
_atom_site_type_symbol
_atom_site_label
_atom_site_fract_x
_atom_site_fract_y
_atom_site_fract_z
Si Si1 0.639794 0.646947 0.693409
Si Si2 0.181793 0.988581 0.894147
Si Si3 0.192144 0.369764 0.071982
Si Si4 0.767752 0.487789 0.315384
Si Si5 0.350240 0.997284 0.757726
Si Si6 0.330638 0.658764 0.963624
Si Si7 0.240197 0.122405 0.470037
O O1 0.500000 0.500000 0.500000
O O2 0.659861 0.577803 0.753422
O O3 0.413835 0.807141 0.661988
O O4 0.008682 0.703395 0.876354
O O5 0.037049 0.175176 0.914502
O O6 0.317414 0.966110 0.025456
O O7 0.940321 0.848047 0.676487
O O8 0.500000 0.000000 0.000000
O O9 0.483383 0.356560 0.146666
O O10 0.000000 0.500000 0.000000
O O11 0.809425 0.417201 0.217789
O O12 0.665558 0.687091 0.359726
O O13 0.000000 0.500000 0.500000
O O14 0.030284 0.971603 0.646688
O O15 0.392887 0.178697 0.823498
O O16 0.500000 0.500000 0.000000
O O17 0.500000 0.000000 0.500000
#
# Coordination Sequence:
#
# PCOD9034637 Si02
#       7
#     2   2   2   2   2   2   2
#     4  11  24  45  71 101 138 183 229 276 340 411
#     4   9  18  36  60  87 124 169 212 257 325 401
#     4  11  22  39  64  95 130 169 215 272 328 392
#     4  12  23  41  67  98 131 171 223 277 330 400
#     4  10  22  45  66  90 134 187 227 268 334 423
#     4  12  26  45  69 101 137 181 229 283 344 405
#     4  11  22  37  63 100 133 166 219 287 341 384
#
# _framework density 23.726953000000002
#
# number of rings (size 3 to 8) (size 9 to 14) (size 15 to 20)
#    0.000    1.143    0.000    9.000    0.000    2.286 
#    0.000    7.143    0.000    0.000    0.000    0.000 
#    0.000    0.000    0.000    0.000    0.000    0.000 
#
# Total GULP energy -77948.851227 kJ/mol
# GULP energy per Si atom -5567.775088 kJ/mol
# Density = 2.367295 g / cm^3
# Si number density = 23.726953 Si / 1000 Ang^3
#
#
#
# Elastic Constant Matrix: (Units=GPa)
#
#
# Indices 1 2 3 4 5 6 
#
# 1 109.6996 46.6676 15.9134 3.4586 9.7969 -15.8645
# 2 46.6676 170.3705 41.2779 22.8920 4.1547 -12.5867
# 3 15.9134 41.2779 68.8187 24.0619 -0.6323 -10.3019
# 4 3.4586 22.8920 24.0619 46.8449 -3.2878 -2.2079
# 5 9.7969 4.1547 -0.6323 -3.2878 45.2323 -1.8013
# 6 -15.8645 -12.5867 -10.3019 -2.2079 -1.8013 42.6740
#
#
#
# Elastic Compliance Matrix: (Units=1/GPa)
#
#
# Indices 1 2 3 4 5 6 
#
# 1 0.010950 -0.002650 -0.000824 0.000917 -0.001951 0.003055
# 2 -0.002650 0.007678 -0.003284 -0.001873 -0.000298 0.000377
# 3 -0.000824 -0.003284 0.020143 -0.008513 0.000269 0.003159
# 4 0.000917 -0.001873 -0.008513 0.026652 0.001759 -0.000813
# 5 -0.001951 -0.000298 0.000269 0.001759 0.022702 0.000301
# 6 0.003055 0.000377 0.003159 -0.000813 0.000301 0.025414
#
#
# Mechanical properties :
#
#
# Convention : Reuss Voigt Hill
#
# Bulk Modulus (GPa) = 39.59480 61.84517 50.71999
# Shear Modulus (GPa) = 36.90808 43.28555 40.09682
#
# Velocity S-wave (km/s) = 3.94830 4.27584 4.11533
# Velocity P-wave (km/s) = 6.12449 7.10627 6.63357
#
# Compressibility (1/GPa) = 0.02525584
#
# Stress axis : x y z
#
# Youngs Moduli (GPa) = 91.32667 130.24644 49.64498
#
# Poissons Ratio (x) = 0.34510 0.04090
# Poissons Ratio (y) = 0.24198 0.16303
# Poissons Ratio (z) = 0.07523 0.42773
#
# Static dielectric constant tensor:
#      x y z
#    x 1.987230 0.089750 -0.031030 
#    y 0.089750 1.999200 -0.101640 
#    z -0.031030 -0.101640 1.942050 
# 
# From -- ./inp_files/329396.got.cif
#   From: 2010.05.17/outbox.cif.g08.bks.cpg/sg2_165_cif.got.tgz:329396.got - 2010.06.03 11:33:40.
