data_PCOD9034183
_publ_section_title
;
Structure prediction by ZEFSAII (Michael W. Deem and Ramdas Pophale) SiO2 
 PCOD9034183
Probable space group: P -1
;
_chemical_formula_sum "Si O2"
_cell_formula_units_Z 13
_cell_length_a 9.046823
_cell_length_b 11.236076
_cell_length_c 9.070073
_cell_angle_alpha 63.238990
_cell_angle_beta 48.133520
_cell_angle_gamma 54.890064
_cell_volume 558.325413
_symmetry_space_group_name_H-M "P -1"
_symmetry_group_IT_number 2
_symmetry_cell_setting 'triclinic'
loop_
_space_group_symop_operation_xyz
x,y,z
-x,-y,-z
loop_
_atom_site_type_symbol
_atom_site_label
_atom_site_fract_x
_atom_site_fract_y
_atom_site_fract_z
Si Si1 0.000000 0.500000 0.500000
Si Si2 0.035447 0.745490 0.133830
Si Si3 0.772703 0.139183 0.581779
Si Si4 0.159513 0.567009 0.659002
Si Si5 0.736376 0.532340 0.052539
Si Si6 0.539244 0.956022 0.328974
Si Si7 0.389891 0.807574 0.013170
O O1 0.976327 0.356522 0.666566
O O2 0.842162 0.501319 0.461037
O O3 0.179564 0.828843 0.045659
O O4 0.792455 0.852431 0.191450
O O5 0.160976 0.632891 0.982985
O O6 0.812889 0.284224 0.455265
O O7 0.610775 0.122927 0.578613
O O8 0.673349 0.139647 0.808531
O O9 0.000000 0.000000 0.500000
O O10 0.314451 0.466438 0.741369
O O11 0.920551 0.593481 0.867829
O O12 0.538794 0.634669 0.025390
O O13 0.500000 0.000000 0.500000
O O14 0.483856 0.105315 0.192423
#
# Coordination Sequence:
#
# PCOD9034183 Si02
#       7
#     1   2   2   2   2   2   2
#     4  10  22  44  72 100 146 184 238 294 366 414
#     4  11  25  46  73 105 145 189 239 309 358 430
#     4  12  27  46  74 104 147 193 242 300 367 434
#     4  10  23  45  73 104 150 183 246 291 370 422
#     4  10  25  43  74 108 144 189 238 304 360 438
#     4  12  30  47  73 104 145 196 249 298 363 434
#     4  12  26  48  72 105 146 194 244 300 364 428
#
# _framework density 23.283912999999998
#
# number of rings (size 3 to 8) (size 9 to 14) (size 15 to 20)
#    0.000    0.923    1.538    3.231   15.077    1.846 
#    0.000    0.000    0.000    0.000    0.000    0.000 
#    0.000    0.000    0.000    0.000    0.000    0.000 
#
# Total GULP energy -72555.231317 kJ/mol
# GULP energy per Si atom -5581.171640 kJ/mol
# Density = 2.323092 g / cm^3
# Si number density = 23.283913 Si / 1000 Ang^3
#
#
#
# Elastic Constant Matrix: (Units=GPa)
#
#
# Indices 1 2 3 4 5 6 
#
# 1 139.8973 33.2940 13.0442 4.2163 5.0508 16.9863
# 2 33.2940 75.6505 13.6025 9.8176 3.6577 -3.7740
# 3 13.0442 13.6025 65.3535 -15.0301 16.1250 16.7280
# 4 4.2163 9.8176 -15.0301 42.4532 2.5347 -6.5102
# 5 5.0508 3.6577 16.1250 2.5347 40.3313 -3.5781
# 6 16.9863 -3.7740 16.7280 -6.5102 -3.5781 47.7447
#
#
#
# Elastic Compliance Matrix: (Units=1/GPa)
#
#
# Indices 1 2 3 4 5 6 
#
# 1 0.008530 -0.003865 0.000192 -0.000363 -0.001086 -0.003538
# 2 -0.003865 0.016600 -0.005237 -0.004799 0.001729 0.003997
# 3 0.000192 -0.005237 0.022857 0.008643 -0.009946 -0.008057
# 4 -0.000363 -0.004799 0.008643 0.028073 -0.004722 0.000196
# 5 -0.001086 0.001729 -0.009946 -0.004722 0.029542 0.005578
# 6 -0.003538 0.003997 -0.008057 0.000196 0.005578 0.025787
#
#
# Mechanical properties :
#
#
# Convention : Reuss Voigt Hill
#
# Bulk Modulus (GPa) = 33.14964 44.53140 38.84052
# Shear Modulus (GPa) = 31.39405 40.83654 36.11529
#
# Velocity S-wave (km/s) = 3.67592 4.19245 3.94265
# Velocity P-wave (km/s) = 5.68196 6.52705 6.11911
#
# Compressibility (1/GPa) = 0.03016624
#
# Stress axis : x y z
#
# Youngs Moduli (GPa) = 117.23463 60.24007 43.75008
#
# Poissons Ratio (x) = 0.23286 -0.00840
# Poissons Ratio (y) = 0.45317 0.22912
# Poissons Ratio (z) = -0.02252 0.31548
#
# Static dielectric constant tensor:
#      x y z
#    x 1.880810 -0.001420 -0.015590 
#    y -0.001420 2.038900 -0.027060 
#    z -0.015590 -0.027060 1.898370 
# 
# From -- ./inp_files/174684.got.cif
#   From: 2010.05.17/outbox.cif.g08.bks.cpg/sg2_88_cif.got.tgz:174684.got - 2010.06.03 11:33:40.
