data_PCOD9034141
_publ_section_title
;
Structure prediction by ZEFSAII (Michael W. Deem and Ramdas Pophale) SiO2 
 PCOD9034141
Probable space group: P -1
;
_chemical_formula_sum "Si O2"
_cell_formula_units_Z 15
_cell_length_a 12.643053
_cell_length_b 6.846818
_cell_length_c 11.174751
_cell_angle_alpha 93.476939
_cell_angle_beta 83.286564
_cell_angle_gamma 140.363592
_cell_volume 612.187878
_symmetry_space_group_name_H-M "P -1"
_symmetry_group_IT_number 2
_symmetry_cell_setting 'triclinic'
loop_
_space_group_symop_operation_xyz
x,y,z
-x,-y,-z
loop_
_atom_site_type_symbol
_atom_site_label
_atom_site_fract_x
_atom_site_fract_y
_atom_site_fract_z
Si Si1 0.498718 0.716399 0.677875
Si Si2 0.848061 0.023199 0.587183
Si Si3 0.615062 0.158404 0.871468
Si Si4 0.105101 0.160243 0.217703
Si Si5 0.500000 0.000000 0.500000
Si Si6 0.775618 0.928102 0.183610
Si Si7 0.168071 0.737825 0.609781
Si Si8 0.142601 0.822655 0.061630
O O1 0.446421 0.709504 0.552918
O O2 0.363278 0.406419 0.756211
O O3 0.668203 0.833455 0.653889
O O4 0.525731 0.960606 0.753886
O O5 0.840293 0.063609 0.449167
O O6 0.991729 0.381795 0.618981
O O7 0.888615 0.877107 0.642286
O O8 0.721603 0.501568 0.839209
O O9 0.748333 0.175815 0.880147
O O10 0.500000 0.000000 0.000000
O O11 0.956143 0.087655 0.190547
O O12 0.077395 0.910066 0.151352
O O13 0.306027 0.804467 0.527803
O O14 0.773137 0.130645 0.260135
O O15 0.748780 0.925790 0.048153
O O16 0.000000 0.500000 0.000000
#
# Coordination Sequence:
#
# PCOD9034141 Si02
#       8
#     2   2   2   2   1   2   2   2
#     4  11  25  44  66 103 139 179 227 289 339 408
#     4  10  22  44  71  96 141 174 229 285 343 407
#     4  12  28  44  70 103 140 182 230 286 345 401
#     4  12  25  46  71 102 135 186 230 281 346 412
#     4  10  24  44  70  98 142 178 226 284 342 408
#     4  12  26  41  72 100 136 185 234 275 348 413
#     4  10  23  45  70 103 136 185 224 288 346 407
#     4  12  26  47  71 100 143 182 230 289 335 414
#
# _framework density 24.502281
#
# number of rings (size 3 to 8) (size 9 to 14) (size 15 to 20)
#    0.000    0.800    2.667    3.600    5.600    4.800 
#    0.000    0.000    0.000    0.000    0.000    0.000 
#    0.000    0.000    0.000    0.000    0.000    0.000 
#
# Total GULP energy -83718.462398 kJ/mol
# GULP energy per Si atom -5581.230827 kJ/mol
# Density = 2.444651 g / cm^3
# Si number density = 24.502281 Si / 1000 Ang^3
#
#
#
# Elastic Constant Matrix: (Units=GPa)
#
#
# Indices 1 2 3 4 5 6 
#
# 1 100.0976 15.8111 1.8417 -8.7977 8.2911 -9.8504
# 2 15.8111 105.7829 10.5340 -26.9395 -15.8418 5.0545
# 3 1.8417 10.5340 57.2732 -22.3069 -0.4109 -2.7511
# 4 -8.7977 -26.9395 -22.3069 56.2791 -9.4827 -0.2258
# 5 8.2911 -15.8418 -0.4109 -9.4827 33.5475 -12.1139
# 6 -9.8504 5.0545 -2.7511 -0.2258 -12.1139 23.6167
#
#
#
# Elastic Compliance Matrix: (Units=1/GPa)
#
#
# Indices 1 2 3 4 5 6 
#
# 1 0.010915 -0.002023 0.000423 0.000577 -0.002043 0.003992
# 2 -0.002023 0.012999 0.000853 0.007824 0.009345 0.001342
# 3 0.000423 0.000853 0.021427 0.009875 0.005259 0.005282
# 4 0.000577 0.007824 0.009875 0.027939 0.014193 0.007264
# 5 -0.002043 0.009345 0.005259 0.014193 0.046691 0.021846
# 6 0.003992 0.001342 0.005282 0.007264 0.021846 0.055611
#
#
# Mechanical properties :
#
#
# Convention : Reuss Voigt Hill
#
# Bulk Modulus (GPa) = 22.80690 35.50305 29.15498
# Shear Modulus (GPa) = 26.08364 38.35313 32.21838
#
# Velocity S-wave (km/s) = 3.26627 3.96066 3.63011
# Velocity P-wave (km/s) = 4.85314 5.95290 5.43093
#
# Compressibility (1/GPa) = 0.04384637
#
# Stress axis : x y z
#
# Youngs Moduli (GPa) = 91.61787 76.93128 46.66974
#
# Poissons Ratio (x) = 0.15565 -0.01975
# Poissons Ratio (y) = 0.18537 -0.03981
# Poissons Ratio (z) = -0.03876 -0.06562
#
# Static dielectric constant tensor:
#      x y z
#    x 1.881400 0.016580 0.052400 
#    y 0.016580 1.914360 0.008380 
#    z 0.052400 0.008380 2.033640 
# 
# From -- ./inp_files/36106.got.cif
#   From: 2010.05.17/outbox.cif.g08.bks.cpg/sg2_19_cif.got.tgz:36106.got - 2010.06.03 11:33:40.
