data_PCOD9034792
_publ_section_title
;
Structure prediction by ZEFSAII (Michael W. Deem and Ramdas Pophale) SiO2 
 PCOD9034792
Probable space group: P -1
;
_chemical_formula_sum "Si O2"
_cell_formula_units_Z 14
_cell_length_a 21.698792
_cell_length_b 5.146173
_cell_length_c 5.320519
_cell_angle_alpha 81.512943
_cell_angle_beta 98.906358
_cell_angle_gamma 70.451970
_cell_volume 540.290827
_symmetry_space_group_name_H-M "P -1"
_symmetry_group_IT_number 2
_symmetry_cell_setting 'triclinic'
loop_
_space_group_symop_operation_xyz
x,y,z
-x,-y,-z
loop_
_atom_site_type_symbol
_atom_site_label
_atom_site_fract_x
_atom_site_fract_y
_atom_site_fract_z
Si Si1 0.126947 0.362641 0.240330
Si Si2 0.621102 0.071720 0.187251
Si Si3 0.244633 0.929563 0.638158
Si Si4 0.788461 0.546437 0.094542
Si Si5 0.485324 0.303229 0.316027
Si Si6 0.955455 0.048425 0.713918
Si Si7 0.349651 0.288568 0.243007
O O1 0.094689 0.625390 0.365327
O O2 0.202622 0.141502 0.368075
O O3 0.082100 0.173003 0.250188
O O4 0.140274 0.511917 0.978109
O O5 0.674931 0.204391 0.299816
O O6 0.542031 0.238180 0.147713
O O7 0.638529 0.824514 0.448649
O O8 0.634541 0.949192 0.932333
O O9 0.213177 0.693589 0.681657
O O10 0.230602 0.151104 0.827821
O O11 0.728624 0.535483 0.872897
O O12 0.500000 0.500000 0.500000
O O13 0.405996 0.419203 0.196213
O O14 0.500000 0.000000 0.500000
O O15 0.000000 0.000000 0.500000
O O16 0.000000 0.000000 0.000000
#
# Coordination Sequence:
#
# PCOD9034792 Si02
#       7
#     2   2   2   2   2   2   2
#     4  12  26  50  80 111 154 196 244 302 364 441
#     4  10  22  45  68 104 144 192 249 310 370 438
#     4  11  25  44  73 109 149 196 248 306 369 437
#     4  11  25  44  73 109 149 196 248 306 369 437
#     4  10  23  42  68  96 140 195 247 307 374 432
#     4  12  30  52  82 114 154 197 244 297 362 440
#     4  10  22  45  68 104 144 192 249 310 370 438
#
# _framework density 25.911968000000002
#
# number of rings (size 3 to 8) (size 9 to 14) (size 15 to 20)
#    0.000    1.143    1.429    3.000    6.000    9.143 
#    2.571    6.429    0.000    0.000    0.000    0.000 
#    0.000    0.000    0.000    0.000    0.000    0.000 
#
# Total GULP energy -78330.182722 kJ/mol
# GULP energy per Si atom -5595.013052 kJ/mol
# Density = 2.585299 g / cm^3
# Si number density = 25.911968 Si / 1000 Ang^3
#
#
#
# Elastic Constant Matrix: (Units=GPa)
#
#
# Indices 1 2 3 4 5 6 
#
# 1 165.1025 57.6408 36.4816 -5.4392 -18.5874 50.4052
# 2 57.6408 137.0189 23.3280 2.1733 -7.8999 16.2757
# 3 36.4816 23.3280 83.2758 -2.3847 2.8720 -4.9135
# 4 -5.4392 2.1733 -2.3847 31.2748 -2.9471 8.7505
# 5 -18.5874 -7.8999 2.8720 -2.9471 52.2447 -2.9064
# 6 50.4052 16.2757 -4.9135 8.7505 -2.9064 40.2961
#
#
#
# Elastic Compliance Matrix: (Units=1/GPa)
#
#
# Indices 1 2 3 4 5 6 
#
# 1 0.016105 -0.002804 -0.007456 0.008915 0.005023 -0.021495
# 2 -0.002804 0.008715 -0.001251 -0.001191 0.000328 0.000117
# 3 -0.007456 -0.001251 0.016362 -0.003740 -0.003262 0.012404
# 4 0.008915 -0.001191 -0.003740 0.039134 0.004330 -0.019312
# 5 0.005023 0.000328 -0.003262 0.004330 0.021054 -0.006235
# 6 -0.021495 0.000117 0.012404 -0.019312 -0.006235 0.056913
#
#
# Mechanical properties :
#
#
# Convention : Reuss Voigt Hill
#
# Bulk Modulus (GPa) = 55.06810 68.92200 61.99505
# Shear Modulus (GPa) = 26.68667 42.62624 34.65646
#
# Velocity S-wave (km/s) = 3.21268 4.06031 3.66111
# Velocity P-wave (km/s) = 5.92114 6.97408 6.46907
#
# Compressibility (1/GPa) = 0.01815933
#
# Stress axis : x y z
#
# Youngs Moduli (GPa) = 62.09294 114.74716 61.11564
#
# Poissons Ratio (x) = 0.32176 0.45568
# Poissons Ratio (y) = 0.17411 0.07648
# Poissons Ratio (z) = 0.46296 0.14359
#
# Static dielectric constant tensor:
#      x y z
#    x 2.090350 -0.043760 0.022810 
#    y -0.043760 1.967800 -0.065040 
#    z 0.022810 -0.065040 2.080580 
# 
# From -- ./inp_files/114005.got.cif
#   From: 2010.05.17/outbox.cif.g08.bks.cpg/sg2_58_cif.got.tgz:114005.got - 2010.06.03 11:33:40.
