data_PCOD9034820
_publ_section_title
;
Structure prediction by ZEFSAII (Michael W. Deem and Ramdas Pophale) SiO2 
 PCOD9034820
Probable space group: P -1
;
_chemical_formula_sum "Si O2"
_cell_formula_units_Z 16
_cell_length_a 12.338100
_cell_length_b 10.312668
_cell_length_c 19.363741
_cell_angle_alpha 154.930890
_cell_angle_beta 132.010103
_cell_angle_gamma 50.322113
_cell_volume 771.598846
_symmetry_space_group_name_H-M "P -1"
_symmetry_group_IT_number 2
_symmetry_cell_setting 'triclinic'
loop_
_space_group_symop_operation_xyz
x,y,z
-x,-y,-z
loop_
_atom_site_type_symbol
_atom_site_label
_atom_site_fract_x
_atom_site_fract_y
_atom_site_fract_z
Si Si1 0.106742 0.245311 0.381661
Si Si2 0.297685 0.423748 0.423487
Si Si3 0.557487 0.306386 0.143235
Si Si4 0.597162 0.519765 0.117578
Si Si5 0.707540 0.298251 0.722937
Si Si6 0.829554 0.022564 0.953218
Si Si7 0.161154 0.084089 0.936390
Si Si8 0.372409 0.786611 0.506507
O O1 0.190690 0.411473 0.436994
O O2 0.000000 0.500000 0.500000
O O3 0.222215 0.019184 0.366476
O O4 0.000524 0.005985 0.188864
O O5 0.284671 0.700693 0.496106
O O6 0.465381 0.397967 0.508981
O O7 0.261628 0.140510 0.222094
O O8 0.537192 0.331911 0.064715
O O9 0.460276 0.595903 0.274024
O O10 0.730727 0.219317 0.187069
O O11 0.500000 0.000000 0.000000
O O12 0.599538 0.861618 0.308789
O O13 0.500000 0.500000 0.000000
O O14 0.759639 0.371636 0.097866
O O15 0.704573 0.267093 0.624193
O O16 0.795563 0.595519 0.922542
O O17 0.812128 0.884802 0.955361
O O18 0.000000 0.000000 0.000000
#
# Coordination Sequence:
#
# PCOD9034820 Si02
#       8
#     2   2   2   2   2   2   2   2
#     4  12  28  45  65 102 142 177 219 275 344 402
#     4  11  24  45  68  99 136 176 220 279 335 391
#     4   9  22  40  70  98 127 172 225 276 331 390
#     4  11  23  41  64 100 131 165 226 272 324 394
#     4  11  24  44  70  98 132 179 228 272 335 399
#     4  11  21  41  69  92 129 173 217 265 331 392
#     4  10  22  45  68  95 134 174 223 272 334 403
#     4  11  25  43  71 101 131 174 231 280 327 389
#
# _framework density 20.736163000000001
#
# number of rings (size 3 to 8) (size 9 to 14) (size 15 to 20)
#    0.000    1.250    3.750    1.125    5.250    1.000 
#    4.500    1.250    0.000    0.000    0.000    0.000 
#    0.000    0.000    0.000    0.000    0.000    0.000 
#
# Total GULP energy -89279.883603 kJ/mol
# GULP energy per Si atom -5579.992725 kJ/mol
# Density = 2.068897 g / cm^3
# Si number density = 20.736163 Si / 1000 Ang^3
#
#
#
# Elastic Constant Matrix: (Units=GPa)
#
#
# Indices 1 2 3 4 5 6 
#
# 1 126.6699 64.1448 22.2520 15.7293 1.0816 15.8232
# 2 64.1448 128.0165 33.4472 7.4567 -7.0872 12.2190
# 3 22.2520 33.4472 60.1424 -1.0169 -2.2042 10.7154
# 4 15.7293 7.4567 -1.0169 26.6442 -8.0126 -2.5932
# 5 1.0816 -7.0872 -2.2042 -8.0126 28.5746 2.2385
# 6 15.8232 12.2190 10.7154 -2.5932 2.2385 29.9595
#
#
#
# Elastic Compliance Matrix: (Units=1/GPa)
#
#
# Indices 1 2 3 4 5 6 
#
# 1 0.012178 -0.005173 -0.001117 -0.007263 -0.003531 -0.004287
# 2 -0.005173 0.011753 -0.004387 0.000416 0.002942 -0.000676
# 3 -0.001117 -0.004387 0.020446 0.002699 0.001666 -0.004825
# 4 -0.007263 0.000416 0.002699 0.046310 0.013123 0.005729
# 5 -0.003531 0.002942 0.001666 0.013123 0.039807 -0.001769
# 6 -0.004287 -0.000676 -0.004825 0.005729 -0.001769 0.038272
#
#
# Mechanical properties :
#
#
# Convention : Reuss Voigt Hill
#
# Bulk Modulus (GPa) = 43.43473 61.61298 52.52385
# Shear Modulus (GPa) = 25.27863 30.03464 27.65663
#
# Velocity S-wave (km/s) = 3.49529 3.80994 3.65600
# Velocity P-wave (km/s) = 6.10584 7.00939 6.57316
#
# Compressibility (1/GPa) = 0.02302305
#
# Stress axis : x y z
#
# Youngs Moduli (GPa) = 82.11395 85.08445 48.90813
#
# Poissons Ratio (x) = 0.44018 0.05463
# Poissons Ratio (y) = 0.42481 0.21455
# Poissons Ratio (z) = 0.09173 0.37325
#
# Static dielectric constant tensor:
#      x y z
#    x 1.781070 0.020340 -0.020990 
#    y 0.020340 1.877200 0.052170 
#    z -0.020990 0.052170 1.820390 
# 
# From -- ./inp_files/567132.got.cif
#   From: 2010.05.17/outbox.cif.g08.bks.cpg/sg2_284_cif.got.tgz:567132.got - 2010.06.03 11:33:40.
