data_PCOD9034833
_publ_section_title
;
Structure prediction by ZEFSAII (Michael W. Deem and Ramdas Pophale) SiO2 
 PCOD9034833
Probable space group: P -1
;
_chemical_formula_sum "Si O2"
_cell_formula_units_Z 16
_cell_length_a 9.245569
_cell_length_b 24.525922
_cell_length_c 9.009190
_cell_angle_alpha 29.394986
_cell_angle_beta 46.726376
_cell_angle_gamma 45.891575
_cell_volume 701.611305
_symmetry_space_group_name_H-M "P -1"
_symmetry_group_IT_number 2
_symmetry_cell_setting 'triclinic'
loop_
_space_group_symop_operation_xyz
x,y,z
-x,-y,-z
loop_
_atom_site_type_symbol
_atom_site_label
_atom_site_fract_x
_atom_site_fract_y
_atom_site_fract_z
Si Si1 0.641985 0.935432 0.420020
Si Si2 0.267441 0.021598 0.054334
Si Si3 0.733820 0.513406 0.291543
Si Si4 0.953361 0.264351 0.704206
Si Si5 0.346292 0.834869 0.657391
Si Si6 0.049018 0.297433 0.221109
Si Si7 0.569604 0.600637 0.902371
Si Si8 0.793932 0.479622 0.760370
O O1 0.499222 0.882124 0.540374
O O2 0.820416 0.830563 0.610959
O O3 0.500000 0.000000 0.500000
O O4 0.736879 0.000256 0.068964
O O5 0.201030 0.930487 0.423932
O O6 0.151048 0.155500 0.850121
O O7 0.500000 0.000000 0.000000
O O8 0.500000 0.500000 0.500000
O O9 0.901974 0.393930 0.497350
O O10 0.793935 0.620977 0.069132
O O11 0.737545 0.540133 0.049864
O O12 0.955326 0.283078 0.481954
O O13 0.776103 0.218288 0.011031
O O14 0.476074 0.731428 0.708287
O O15 0.871820 0.362677 0.079620
O O16 0.674690 0.580497 0.716107
O O17 0.381341 0.540885 0.175874
O O18 0.000000 0.500000 0.500000
#
# Coordination Sequence:
#
# PCOD9034833 Si02
#       8
#     2   2   2   2   2   2   2   2
#     4  10  22  45  68  97 131 180 231 290 346 405
#     4   9  22  42  64  95 134 173 232 286 341 415
#     4  12  21  39  71 101 134 176 230 287 343 424
#     4  11  22  38  70  98 130 177 230 283 348 412
#     4  11  22  44  69 101 134 180 234 287 349 415
#     4  11  23  41  64 100 135 176 235 284 343 423
#     4  11  24  43  65 102 143 178 233 283 349 427
#     4  11  26  43  63 101 147 186 223 283 363 414
#
# _framework density 22.804649999999999
#
# number of rings (size 3 to 8) (size 9 to 14) (size 15 to 20)
#    0.000    1.250    3.750    1.500    0.000    1.000 
#    9.000    1.250    0.000    0.000    0.000    0.000 
#    0.000    0.000    0.000    0.000    0.000    0.000 
#
# Total GULP energy -89331.627529 kJ/mol
# GULP energy per Si atom -5583.226721 kJ/mol
# Density = 2.275275 g / cm^3
# Si number density = 22.804650 Si / 1000 Ang^3
#
#
#
# Elastic Constant Matrix: (Units=GPa)
#
#
# Indices 1 2 3 4 5 6 
#
# 1 78.6246 18.5412 12.7341 -7.7470 7.9910 -3.8932
# 2 18.5412 164.4075 30.2405 -8.9136 8.7844 -4.5485
# 3 12.7341 30.2405 102.5505 9.1379 10.8741 -16.8487
# 4 -7.7470 -8.9136 9.1379 40.7957 -20.9216 5.3614
# 5 7.9910 8.7844 10.8741 -20.9216 34.6534 -10.2654
# 6 -3.8932 -4.5485 -16.8487 5.3614 -10.2654 27.3444
#
#
#
# Elastic Compliance Matrix: (Units=1/GPa)
#
#
# Indices 1 2 3 4 5 6 
#
# 1 0.013526 -0.001092 -0.001412 0.002052 -0.001148 0.000041
# 2 -0.001092 0.006673 -0.002131 0.001910 0.000186 -0.000663
# 3 -0.001412 -0.002131 0.012925 -0.007426 -0.005679 0.006733
# 4 0.002052 0.001910 -0.007426 0.040030 0.024798 -0.002505
# 5 -0.001148 0.000186 -0.005679 0.024798 0.048732 0.009800
# 6 0.000041 -0.000663 0.006733 -0.002505 0.009800 0.044785
#
#
# Mechanical properties :
#
#
# Convention : Reuss Voigt Hill
#
# Bulk Modulus (GPa) = 41.92209 52.06824 46.99516
# Shear Modulus (GPa) = 27.19007 39.49650 33.34328
#
# Velocity S-wave (km/s) = 3.45672 4.16618 3.82792
# Velocity P-wave (km/s) = 5.86131 6.78415 6.33954
#
# Compressibility (1/GPa) = 0.02385377
#
# Stress axis : x y z
#
# Youngs Moduli (GPa) = 73.93302 149.86063 77.36900
#
# Poissons Ratio (x) = 0.16364 0.10924
# Poissons Ratio (y) = 0.08073 0.16488
# Poissons Ratio (z) = 0.10439 0.31936
#
# Static dielectric constant tensor:
#      x y z
#    x 1.834230 -0.006820 -0.008880 
#    y -0.006820 1.881800 0.039820 
#    z -0.008880 0.039820 2.002620 
# 
# From -- ./inp_files/225816.got.cif
#   From: 2010.05.17/outbox.cif.g08.bks.cpg/sg2_113_cif.got.tgz:225816.got - 2010.06.03 11:33:40.
