data_PCOD9034136
_publ_section_title
;
Structure prediction by ZEFSAII (Michael W. Deem and Ramdas Pophale) SiO2 
 PCOD9034136
Probable space group: P -1
;
_chemical_formula_sum "Si O2"
_cell_formula_units_Z 16
_cell_length_a 17.185717
_cell_length_b 20.104517
_cell_length_c 13.869165
_cell_angle_alpha 39.708515
_cell_angle_beta 155.544881
_cell_angle_gamma 156.354456
_cell_volume 733.041828
_symmetry_space_group_name_H-M "P -1"
_symmetry_group_IT_number 2
_symmetry_cell_setting 'triclinic'
loop_
_space_group_symop_operation_xyz
x,y,z
-x,-y,-z
loop_
_atom_site_type_symbol
_atom_site_label
_atom_site_fract_x
_atom_site_fract_y
_atom_site_fract_z
Si Si1 0.346128 0.563868 0.902828
Si Si2 0.968124 0.898345 0.335419
Si Si3 0.586282 0.320050 0.539536
Si Si4 0.341519 0.165880 0.755920
Si Si5 0.124101 0.453196 0.568413
Si Si6 0.350716 0.884389 0.726446
Si Si7 0.043187 0.719809 0.054029
Si Si8 0.518718 0.602068 0.485338
O O1 0.280594 0.491487 0.803067
O O2 0.125914 0.566657 0.666554
O O3 0.208177 0.424103 0.985000
O O4 0.717126 0.766413 0.112509
O O5 0.739941 0.804895 0.274198
O O6 0.183941 0.894256 0.594174
O O7 0.224193 0.108891 0.382426
O O8 0.618677 0.385669 0.397779
O O9 0.832268 0.330968 0.800681
O O10 0.659567 0.441175 0.568160
O O11 0.540257 0.322549 0.729658
O O12 0.510002 0.141580 0.017842
O O13 0.000000 0.000000 0.500000
O O14 0.907624 0.274704 0.463706
O O15 0.633167 0.074366 0.776730
O O16 0.870617 0.727154 0.784126
O O17 0.500000 0.500000 0.500000
#
# Coordination Sequence:
#
# PCOD9034136 Si02
#       8
#     2   2   2   2   2   2   2   2
#     4  10  22  44  71  96 133 177 220 273 336 392
#     4  11  23  43  69  96 136 175 220 275 326 396
#     4  10  24  44  63  97 139 167 221 278 320 396
#     4  12  23  44  67  95 133 175 222 271 329 388
#     4  10  23  43  69  99 133 177 218 275 336 388
#     4  11  24  42  68  98 137 174 218 275 326 392
#     4  10  23  45  65  97 135 171 224 272 325 398
#     4  12  26  41  67  97 129 179 220 273 333 386
#
# _framework density 21.826858000000001
#
# number of rings (size 3 to 8) (size 9 to 14) (size 15 to 20)
#    0.000    1.250    3.750    0.750    5.250    3.500 
#    0.000    0.000    0.000    0.000    0.000    0.000 
#    0.000    0.000    0.000    0.000    0.000    0.000 
#
# Total GULP energy -89220.517438 kJ/mol
# GULP energy per Si atom -5576.282340 kJ/mol
# Density = 2.177718 g / cm^3
# Si number density = 21.826858 Si / 1000 Ang^3
#
#
#
# Elastic Constant Matrix: (Units=GPa)
#
#
# Indices 1 2 3 4 5 6 
#
# 1 -3068.0978 1173.2361 3622.4234-1517.6289 1190.5313 1042.0863
# 2 1173.2361 -337.1469-1253.0069 533.7466 -434.9127 -379.9285
# 3 3622.4234-1253.0069-3951.1529 1697.0867-1352.4545-1187.9329
# 4 -1517.6289 533.7466 1697.0867 -695.9355 555.3015 498.2642
# 5 1190.5313 -434.9127-1352.4545 555.3015 -417.8279 -388.3174
# 6 1042.0863 -379.9285-1187.9329 498.2642 -388.3174 -316.7947
#
#
#
# Elastic Compliance Matrix: (Units=1/GPa)
#
#
# Indices 1 2 3 4 5 6 
#
# 1 0.006080 -0.002290 0.002434 -0.003935 0.002198 0.004735
# 2 -0.002290 0.018718 -0.005718 0.009147 0.005586 -0.001000
# 3 0.002434 -0.005718 0.008218 0.008735 0.000340 -0.002631
# 4 -0.003935 0.009147 0.008735 0.060224 0.031135 -0.000112
# 5 0.002198 0.005586 0.000340 0.031135 0.046599 -0.008893
# 6 0.004735 -0.001000 -0.002631 -0.000112 -0.008893 0.034211
#
#
# Mechanical properties :
#
#
# Convention : Reuss Voigt Hill
#
# Bulk Modulus (GPa) = 45.72946 -30.12136 7.80405
# Shear Modulus (GPa) = 25.97553 -1012.71496 -493.36972
#
# Velocity S-wave (km/s) = 3.45348 -21.56348 -15.05087
# Velocity P-wave (km/s) = 6.07442 25.17555 17.27585
#
# Compressibility (1/GPa) = 0.02186774
#
# Stress axis : x y z
#
# Youngs Moduli (GPa) = 164.48280 53.42348 121.68020
#
# Poissons Ratio (x) = 0.12234 -0.29614
# Poissons Ratio (y) = 0.37667 0.69577
# Poissons Ratio (z) = -0.40031 0.30548
#
# Static dielectric constant tensor:
#      x y z
#    x 1.829050 -0.043640 -0.026470 
#    y -0.043640 1.862820 0.055530 
#    z -0.026470 0.055530 1.866530 
# 
# From -- ./inp_files/456954.got.cif
#   From: 2010.05.17/outbox.cif.g08.bks.cpg/sg2_229_cif.got.tgz:456954.got - 2010.06.03 11:33:40.
