data_PCOD9034980
_publ_section_title
;
Structure prediction by ZEFSAII (Michael W. Deem and Ramdas Pophale) SiO2 
 PCOD9034980
Probable space group: P -1
;
_chemical_formula_sum "Si O2"
_cell_formula_units_Z 16
_cell_length_a 14.694336
_cell_length_b 26.941452
_cell_length_c 9.861732
_cell_angle_alpha 128.361263
_cell_angle_beta 140.284205
_cell_angle_gamma 21.403901
_cell_volume 830.459980
_symmetry_space_group_name_H-M "P -1"
_symmetry_group_IT_number 2
_symmetry_cell_setting 'triclinic'
loop_
_space_group_symop_operation_xyz
x,y,z
-x,-y,-z
loop_
_atom_site_type_symbol
_atom_site_label
_atom_site_fract_x
_atom_site_fract_y
_atom_site_fract_z
Si Si1 0.177785 0.220163 0.803312
Si Si2 0.825816 0.576225 0.283327
Si Si3 0.765416 0.234326 0.925886
Si Si4 0.216254 0.734147 0.437073
Si Si5 0.068088 0.719835 0.657615
Si Si6 0.715149 0.497169 0.367254
Si Si7 0.321354 0.473804 0.148352
Si Si8 0.915140 0.962858 0.297033
O O1 0.053540 0.208691 0.724560
O O2 0.174758 0.203609 0.612762
O O3 0.895767 0.386776 0.787565
O O4 0.525486 0.106978 0.064899
O O5 0.433067 0.726902 0.124015
O O6 0.000000 0.500000 0.500000
O O7 0.973063 0.579915 0.392300
O O8 0.902864 0.485119 0.122676
O O9 0.499773 0.390109 0.814752
O O10 0.024722 0.178397 0.197822
O O11 0.898665 0.135649 0.793526
O O12 0.461506 0.605795 0.386873
O O13 0.451309 0.654386 0.699522
O O14 0.042163 0.864659 0.393503
O O15 0.142784 0.630697 0.690030
O O16 0.417566 0.596838 0.772698
O O17 0.000000 0.000000 0.500000
#
# Coordination Sequence:
#
# PCOD9034980 Si02
#       8
#     2   2   2   2   2   2   2   2
#     4  11  21  37  63  89 119 154 191 239 298 344
#     4   9  20  33  53  86 119 155 188 237 295 335
#     4   9  21  38  54  79 121 159 191 240 284 344
#     4  10  20  39  58  90 121 146 196 241 291 346
#     4  10  18  36  60  91 115 144 196 249 290 341
#     4  10  17  32  57  91 118 143 191 241 298 337
#     4  10  19  35  63  90 119 149 189 249 294 341
#     4  11  26  41  58  83 120 163 198 232 287 356
#
# _framework density 19.266428999999999
#
# number of rings (size 3 to 8) (size 9 to 14) (size 15 to 20)
#    0.000    2.000    2.500    1.500    5.250    2.000 
#    0.000    1.250    0.000    7.500    0.000    0.000 
#    0.000    0.000    0.000    0.000    0.000    0.000 
#
# Total GULP energy -89232.782562 kJ/mol
# GULP energy per Si atom -5577.048910 kJ/mol
# Density = 1.922258 g / cm^3
# Si number density = 19.266429 Si / 1000 Ang^3
#
#
#
# Elastic Constant Matrix: (Units=GPa)
#
#
# Indices 1 2 3 4 5 6 
#
# 1 59.0422 30.2408 31.3151 1.6417 10.5284 4.9877
# 2 30.2408 74.4734 50.0050 11.9691 6.0484 12.7242
# 3 31.3151 50.0050 132.0162 23.0762 11.2195 14.2210
# 4 1.6417 11.9691 23.0762 29.7428 1.4071 1.2388
# 5 10.5284 6.0484 11.2195 1.4071 28.2249 7.1762
# 6 4.9877 12.7242 14.2210 1.2388 7.1762 15.5766
#
#
#
# Elastic Compliance Matrix: (Units=1/GPa)
#
#
# Indices 1 2 3 4 5 6 
#
# 1 0.023738 -0.008593 -0.003147 0.004716 -0.007345 0.005300
# 2 -0.008593 0.022703 -0.004673 -0.004676 0.003701 -0.012861
# 3 -0.003147 -0.004673 0.011933 -0.006948 -0.000928 -0.005090
# 4 0.004716 -0.004676 -0.006948 0.040452 -0.001579 0.006163
# 5 -0.007345 0.003701 -0.000928 -0.001579 0.042756 -0.019396
# 6 0.005300 -0.012861 -0.005090 0.006163 -0.019396 0.086100
#
#
# Mechanical properties :
#
#
# Convention : Reuss Voigt Hill
#
# Bulk Modulus (GPa) = 39.14207 54.29485 46.71846
# Shear Modulus (GPa) = 18.58573 24.97358 21.77966
#
# Velocity S-wave (km/s) = 3.10928 3.60421 3.36586
# Velocity P-wave (km/s) = 5.76632 6.75002 6.27747
#
# Compressibility (1/GPa) = 0.02554796
#
# Stress axis : x y z
#
# Youngs Moduli (GPa) = 42.12572 44.04748 83.80159
#
# Poissons Ratio (x) = 0.37851 0.26373
# Poissons Ratio (y) = 0.36199 0.39159
# Poissons Ratio (z) = 0.13257 0.20583
#
# Static dielectric constant tensor:
#      x y z
#    x 1.678840 -0.012120 0.003350 
#    y -0.012120 1.671390 -0.000590 
#    z 0.003350 -0.000590 1.729300 
# 
# From -- ./inp_files/205251.got.cif
#   From: 2010.05.17/outbox.cif.g08.bks.cpg/sg2_103_cif.got.tgz:205251.got - 2010.06.03 11:33:40.
