data_PCOD9034817
_publ_section_title
;
Structure prediction by ZEFSAII (Michael W. Deem and Ramdas Pophale) SiO2 
 PCOD9034817
Probable space group: P -1
;
_chemical_formula_sum "Si O2"
_cell_formula_units_Z 16
_cell_length_a 12.641354
_cell_length_b 23.089512
_cell_length_c 15.082467
_cell_angle_alpha 25.602484
_cell_angle_beta 154.883469
_cell_angle_gamma 156.656444
_cell_volume 672.272758
_symmetry_space_group_name_H-M "P -1"
_symmetry_group_IT_number 2
_symmetry_cell_setting 'triclinic'
loop_
_space_group_symop_operation_xyz
x,y,z
-x,-y,-z
loop_
_atom_site_type_symbol
_atom_site_label
_atom_site_fract_x
_atom_site_fract_y
_atom_site_fract_z
Si Si1 0.617051 0.637785 0.471717
Si Si2 0.688658 0.171266 0.049811
Si Si3 0.720614 0.196640 0.771041
Si Si4 0.624555 0.639898 0.678115
Si Si5 0.788109 0.821058 0.048226
Si Si6 0.268788 0.771702 0.478147
Si Si7 0.697616 0.142356 0.308331
Si Si8 0.345161 0.335238 0.012942
O O1 0.500000 0.500000 0.500000
O O2 0.632739 0.591405 0.649446
O O3 0.961309 0.774572 0.520105
O O4 0.416905 0.711634 0.215393
O O5 0.674807 0.152915 0.170958
O O6 0.034017 0.244315 0.189337
O O7 0.460309 0.992764 0.085494
O O8 0.546675 0.270155 0.577238
O O9 0.719520 0.220083 0.631062
O O10 0.071884 0.290839 0.931016
O O11 0.453487 0.490465 0.821249
O O12 0.796927 0.812765 0.960534
O O13 0.947305 0.730072 0.324398
O O14 0.456226 0.769850 0.890552
O O15 0.000000 0.000000 0.000000
O O16 0.501814 0.952249 0.442140
O O17 0.374981 0.657244 0.743584
#
# Coordination Sequence:
#
# PCOD9034817 Si02
#       8
#     2   2   2   2   2   2   2   2
#     4  11  26  42  65  94 132 176 217 265 330 385
#     4  10  23  42  68  93 127 174 220 271 321 383
#     4  10  22  45  68  94 132 166 221 275 319 387
#     4  11  26  43  64  99 131 171 219 272 323 387
#     4   9  20  36  59  91 130 168 215 258 311 384
#     4   9  20  39  63  97 126 170 212 265 327 387
#     4   9  20  39  63  91 127 168 222 266 310 384
#     4  11  23  38  64  97 136 166 214 264 328 387
#
# _framework density 23.799863999999999
#
# number of rings (size 3 to 8) (size 9 to 14) (size 15 to 20)
#    0.000    2.000    0.000    2.250    3.500    8.000 
#    0.000    0.000    0.000    0.000    0.000    0.000 
#    0.000    0.000    0.000    0.000    0.000    0.000 
#
# Total GULP energy -89490.941246 kJ/mol
# GULP energy per Si atom -5593.183828 kJ/mol
# Density = 2.374569 g / cm^3
# Si number density = 23.799864 Si / 1000 Ang^3
#
#
#
# Elastic Constant Matrix: (Units=GPa)
#
#
# Indices 1 2 3 4 5 6 
#
# 1 78.1076 29.0733 30.0140 -0.9918 24.5951 -1.1564
# 2 29.0733 69.7365 31.6943 -10.7120 13.4890 22.5873
# 3 30.0140 31.6943 136.9699 0.9315 30.3977 9.8667
# 4 -0.9918 -10.7120 0.9315 29.1686 12.8573 12.2395
# 5 24.5951 13.4890 30.3977 12.8573 39.4863 10.1252
# 6 -1.1564 22.5873 9.8667 12.2395 10.1252 29.9036
#
#
#
# Elastic Compliance Matrix: (Units=1/GPa)
#
#
# Indices 1 2 3 4 5 6 
#
# 1 0.021533 -0.013418 -0.000439 -0.006791 -0.010777 0.017541
# 2 -0.013418 0.041680 -0.002934 0.035113 -0.003737 -0.044140
# 3 -0.000439 -0.002934 0.009476 0.001170 -0.006614 0.000833
# 4 -0.006791 0.035113 0.001170 0.077859 -0.020674 -0.052038
# 5 -0.010777 -0.003737 -0.006614 -0.020674 0.045765 -0.002446
# 6 0.017541 -0.044140 0.000833 -0.052038 -0.002446 0.089312
#
#
# Mechanical properties :
#
#
# Convention : Reuss Voigt Hill
#
# Bulk Modulus (GPa) = 25.57115 51.81969 38.69542
# Shear Modulus (GPa) = 15.04919 32.64719 23.84819
#
# Velocity S-wave (km/s) = 2.51733 3.70772 3.16892
# Velocity P-wave (km/s) = 4.38370 6.33640 5.44825
#
# Compressibility (1/GPa) = 0.03910658
#
# Stress axis : x y z
#
# Youngs Moduli (GPa) = 46.44003 23.99219 105.53085
#
# Poissons Ratio (x) = 0.32192 0.04636
# Poissons Ratio (y) = 0.62312 0.30966
# Poissons Ratio (z) = 0.02040 0.07040
#
# Static dielectric constant tensor:
#      x y z
#    x 1.910110 0.001230 0.009610 
#    y 0.001230 1.915780 0.016030 
#    z 0.009610 0.016030 1.896910 
# 
# From -- ./inp_files/574529.got.cif
#   From: 2010.05.17/outbox.cif.g08.bks.cpg/sg2_288_cif.got.tgz:574529.got - 2010.06.03 11:33:40.
