data_PCOD9034541
_publ_section_title
;
Structure prediction by ZEFSAII (Michael W. Deem and Ramdas Pophale) SiO2 
 PCOD9034541
Probable space group: P -1
;
_chemical_formula_sum "Si O2"
_cell_formula_units_Z 16
_cell_length_a 9.612526
_cell_length_b 13.764371
_cell_length_c 8.940999
_cell_angle_alpha 100.206523
_cell_angle_beta 131.813165
_cell_angle_gamma 105.523846
_cell_volume 738.054842
_symmetry_space_group_name_H-M "P -1"
_symmetry_group_IT_number 2
_symmetry_cell_setting 'triclinic'
loop_
_space_group_symop_operation_xyz
x,y,z
-x,-y,-z
loop_
_atom_site_type_symbol
_atom_site_label
_atom_site_fract_x
_atom_site_fract_y
_atom_site_fract_z
Si Si1 0.900324 0.421123 0.763905
Si Si2 0.802001 0.978042 0.961291
Si Si3 0.527653 0.181400 0.551906
Si Si4 0.345732 0.284415 0.651275
Si Si5 0.224547 0.107085 0.756816
Si Si6 0.288350 0.501636 0.898289
Si Si7 0.090578 0.408361 0.425843
Si Si8 0.689957 0.164865 0.981658
O O1 0.687218 0.300292 0.613476
O O2 0.861698 0.500860 0.644988
O O3 0.095270 0.405663 0.835703
O O4 0.000000 0.500000 0.000000
O O5 0.588563 0.916009 0.683240
O O6 0.785483 0.901334 0.072802
O O7 0.800534 0.088233 0.059173
O O8 0.000000 0.000000 0.000000
O O9 0.342432 0.194080 0.508401
O O10 0.658806 0.169717 0.781133
O O11 0.246658 0.219303 0.719676
O O12 0.241655 0.352110 0.523594
O O13 0.599940 0.378919 0.897485
O O14 0.447158 0.111020 0.865039
O O15 0.000000 0.000000 0.500000
O O16 0.162451 0.483362 0.649491
O O17 0.500000 0.500000 0.000000
O O18 0.850597 0.292353 0.202780
#
# Coordination Sequence:
#
# PCOD9034541 Si02
#       8
#     2   2   2   2   2   2   2   2
#     4  12  22  42  66 100 131 172 217 268 332 379
#     4  12  26  45  68 100 132 171 222 277 331 388
#     4  11  24  41  68  96 137 168 218 274 328 388
#     4  10  22  45  62  97 135 177 212 272 328 388
#     4  11  24  44  70  92 130 175 225 271 326 397
#     4  10  23  43  63  94 135 173 215 265 323 396
#     4  11  23  40  72  92 136 173 218 266 326 396
#     4  11  23  46  67  95 133 177 219 269 333 392
#
# _framework density 21.678609000000002
#
# number of rings (size 3 to 8) (size 9 to 14) (size 15 to 20)
#    0.000    1.000    2.500    4.875    3.500    0.500 
#    6.750    0.000    0.000    0.000    0.000    0.000 
#    0.000    0.000    0.000    0.000    0.000    0.000 
#
# Total GULP energy -89238.414970 kJ/mol
# GULP energy per Si atom -5577.400936 kJ/mol
# Density = 2.162927 g / cm^3
# Si number density = 21.678609 Si / 1000 Ang^3
#
#
#
# Elastic Constant Matrix: (Units=GPa)
#
#
# Indices 1 2 3 4 5 6 
#
# 1 92.6874 46.1463 25.9744 -16.4881 9.2835 17.1796
# 2 46.1463 92.9947 20.3277 0.2152 12.2175 21.7790
# 3 25.9744 20.3277 131.2879 8.4134 -2.1456 14.9415
# 4 -16.4881 0.2152 8.4134 35.3343 -2.0786 -0.1540
# 5 9.2835 12.2175 -2.1456 -2.0786 40.2582 -7.4420
# 6 17.1796 21.7790 14.9415 -0.1540 -7.4420 41.6694
#
#
#
# Elastic Compliance Matrix: (Units=1/GPa)
#
#
# Indices 1 2 3 4 5 6 
#
# 1 0.017318 -0.007116 -0.002588 0.008608 -0.002050 -0.002827
# 2 -0.007116 0.016485 -0.000253 -0.003669 -0.004758 -0.006455
# 3 -0.002588 -0.000253 0.008587 -0.003221 0.000636 -0.001779
# 4 0.008608 -0.003669 -0.003221 0.033143 0.000623 -0.000242
# 5 -0.002050 -0.004758 0.000636 0.000623 0.028332 0.008166
# 6 -0.002827 -0.006455 -0.001779 -0.000242 0.008166 0.030633
#
#
# Mechanical properties :
#
#
# Convention : Reuss Voigt Hill
#
# Bulk Modulus (GPa) = 44.49076 55.76297 50.12687
# Shear Modulus (GPa) = 30.88273 38.42050 34.65162
#
# Velocity S-wave (km/s) = 3.77844 4.21441 4.00237
# Velocity P-wave (km/s) = 6.29309 7.03279 6.67319
#
# Compressibility (1/GPa) = 0.02247658
#
# Stress axis : x y z
#
# Youngs Moduli (GPa) = 57.74474 60.66055 116.45341
#
# Poissons Ratio (x) = 0.43169 0.30135
# Poissons Ratio (y) = 0.41094 0.02941
# Poissons Ratio (z) = 0.14943 0.01532
#
# Static dielectric constant tensor:
#      x y z
#    x 1.888790 -0.031030 -0.020990 
#    y -0.031030 1.821940 0.000660 
#    z -0.020990 0.000660 1.826710 
# 
# From -- ./inp_files/208058.got.cif
#   From: 2010.05.17/outbox.cif.g08.bks.cpg/sg2_105_cif.got.tgz:208058.got - 2010.06.03 11:33:40.
