data_PCOD9034861
_publ_section_title
;
Structure prediction by ZEFSAII (Michael W. Deem and Ramdas Pophale) SiO2 
 PCOD9034861
Probable space group: P -1
;
_chemical_formula_sum "Si O2"
_cell_formula_units_Z 14
_cell_length_a 11.995581
_cell_length_b 8.815477
_cell_length_c 6.862482
_cell_angle_alpha 108.013721
_cell_angle_beta 124.427454
_cell_angle_gamma 69.463777
_cell_volume 554.727984
_symmetry_space_group_name_H-M "P -1"
_symmetry_group_IT_number 2
_symmetry_cell_setting 'triclinic'
loop_
_space_group_symop_operation_xyz
x,y,z
-x,-y,-z
loop_
_atom_site_type_symbol
_atom_site_label
_atom_site_fract_x
_atom_site_fract_y
_atom_site_fract_z
Si Si1 0.460383 0.797042 0.407311
Si Si2 0.524232 0.555695 0.825253
Si Si3 0.610458 0.100771 0.077432
Si Si4 0.940907 0.287039 0.499194
Si Si5 0.731877 0.887464 0.631650
Si Si6 0.911584 0.965901 0.173889
Si Si7 0.205466 0.405258 0.726202
O O1 0.609403 0.834215 0.613901
O O2 0.340051 0.931676 0.442143
O O3 0.471710 0.605912 0.359714
O O4 0.427594 0.840675 0.161583
O O5 0.676730 0.593077 0.000124
O O6 0.500000 0.500000 0.000000
O O7 0.417312 0.728524 0.763128
O O8 0.770160 0.001096 0.182231
O O9 0.500000 0.000000 0.000000
O O10 0.062361 0.386717 0.671705
O O11 0.951230 0.142383 0.290559
O O12 0.814608 0.431430 0.362376
O O13 0.966244 0.173989 0.671354
O O14 0.759343 0.751739 0.440174
O O15 0.859346 0.906398 0.897595
#
# Coordination Sequence:
#
# PCOD9034861 Si02
#       7
#     2   2   2   2   2   2   2
#     4   9  19  33  54  88 114 141 175 222 292 337
#     4  10  17  32  57  86 103 140 182 226 271 335
#     4  10  18  31  59  85 106 139 182 231 275 322
#     4  10  23  39  55  79 109 153 196 221 257 331
#     4  10  19  33  58  83 113 145 176 234 282 326
#     4  10  22  38  54  79 116 147 184 227 277 326
#     4  11  20  35  62  82 106 145 192 230 264 325
#
# _framework density 25.237594000000001
#
# number of rings (size 3 to 8) (size 9 to 14) (size 15 to 20)
#    0.000    2.000    2.857    3.429    0.000    1.143 
#    0.000    0.000    0.000   22.286    0.000    0.000 
#    0.000    0.000    0.000    0.000    0.000    0.000 
#
# Total GULP energy -78251.255053 kJ/mol
# GULP energy per Si atom -5589.375361 kJ/mol
# Density = 2.518015 g / cm^3
# Si number density = 25.237594 Si / 1000 Ang^3
#
#
#
# Elastic Constant Matrix: (Units=GPa)
#
#
# Indices 1 2 3 4 5 6 
#
# 1 46.7558 14.9826 0.2031 -3.9031 8.7376 7.0898
# 2 14.9826 203.7787 44.0496 10.5258 -27.3386 6.9224
# 3 0.2031 44.0496 102.3332 13.0285 10.6831 16.9658
# 4 -3.9031 10.5258 13.0285 54.2260 -0.2714 0.8619
# 5 8.7376 -27.3386 10.6831 -0.2714 31.4284 14.6961
# 6 7.0898 6.9224 16.9658 0.8619 14.6961 25.3961
#
#
#
# Elastic Compliance Matrix: (Units=1/GPa)
#
#
# Indices 1 2 3 4 5 6 
#
# 1 0.024983 -0.003858 0.002760 0.001861 -0.010368 -0.001830
# 2 -0.003858 0.007706 -0.003532 -0.000784 0.011423 -0.005247
# 3 0.002760 -0.003532 0.013014 -0.002193 -0.005952 -0.004983
# 4 0.001861 -0.000784 -0.002193 0.019236 -0.000720 0.000923
# 5 -0.010368 0.011423 -0.005952 -0.000720 0.061538 -0.031829
# 6 -0.001830 -0.005247 -0.004983 0.000923 -0.031829 0.063033
#
#
# Mechanical properties :
#
#
# Convention : Reuss Voigt Hill
#
# Bulk Modulus (GPa) = 27.44150 52.37091 39.90620
# Shear Modulus (GPa) = 23.70595 41.78557 32.74576
#
# Velocity S-wave (km/s) = 3.06814 4.07343 3.60599
# Velocity P-wave (km/s) = 4.84233 6.55133 5.76056
#
# Compressibility (1/GPa) = 0.03644116
#
# Stress axis : x y z
#
# Youngs Moduli (GPa) = 40.02788 129.77306 76.84307
#
# Poissons Ratio (x) = 0.50072 -0.21209
# Poissons Ratio (y) = 0.15444 0.27141
# Poissons Ratio (z) = -0.11048 0.45836
#
# Static dielectric constant tensor:
#      x y z
#    x 2.081510 -0.002160 -0.031350 
#    y -0.002160 1.998120 -0.028470 
#    z -0.031350 -0.028470 2.022170 
# 
# From -- ./inp_files/245839.got.cif
#   From: 2010.05.17/outbox.cif.g08.bks.cpg/sg2_123_cif.got.tgz:245839.got - 2010.06.03 11:33:40.
