data_PCOD9034706
_publ_section_title
;
Structure prediction by ZEFSAII (Michael W. Deem and Ramdas Pophale) SiO2 
 PCOD9034706
Probable space group: P -1
;
_chemical_formula_sum "Si O2"
_cell_formula_units_Z 16
_cell_length_a 7.064310
_cell_length_b 11.480244
_cell_length_c 9.244457
_cell_angle_alpha 65.408905
_cell_angle_beta 79.175969
_cell_angle_gamma 77.939140
_cell_volume 662.377058
_symmetry_space_group_name_H-M "P -1"
_symmetry_group_IT_number 2
_symmetry_cell_setting 'triclinic'
loop_
_space_group_symop_operation_xyz
x,y,z
-x,-y,-z
loop_
_atom_site_type_symbol
_atom_site_label
_atom_site_fract_x
_atom_site_fract_y
_atom_site_fract_z
Si Si1 0.414403 0.648314 0.579841
Si Si2 0.339365 0.758341 0.240349
Si Si3 0.055066 0.176413 0.899559
Si Si4 0.322580 0.156928 0.468600
Si Si5 0.600560 0.560578 0.090422
Si Si6 0.237739 0.196550 0.143975
Si Si7 0.160554 0.379398 0.573273
Si Si8 0.417793 0.017930 0.803396
O O1 0.289349 0.698410 0.433137
O O2 0.491344 0.763781 0.601619
O O3 0.322791 0.555993 0.750428
O O4 0.377374 0.412293 0.493886
O O5 0.452951 0.652483 0.169894
O O6 0.148344 0.815968 0.152637
O O7 0.465281 0.867139 0.220436
O O8 0.133126 0.310529 0.766345
O O9 0.208165 0.056623 0.883809
O O10 0.069021 0.171509 0.072568
O O11 0.228440 0.145498 0.333372
O O12 0.166039 0.256836 0.528824
O O13 0.382354 0.035423 0.627629
O O14 0.500000 0.500000 0.000000
O O15 0.740244 0.653129 0.951285
O O16 0.445971 0.113701 0.108997
O O17 0.000000 0.500000 0.500000
#
# Coordination Sequence:
#
# PCOD9034706 Si02
#       8
#     2   2   2   2   2   2   2   2
#     4   9  19  39  62  91 126 166 207 252 306 376
#     4  11  23  42  66  93 126 166 214 255 306 383
#     4  11  23  38  65  98 120 165 212 262 314 364
#     4   8  19  38  67  89 122 168 204 259 321 365
#     4  12  22  38  63  96 132 161 203 260 322 371
#     4  12  22  40  65  91 132 164 206 267 320 368
#     4   9  17  37  63  91 122 161 213 250 302 378
#     4  10  22  45  67  91 121 169 217 259 309 373
#
# _framework density 24.155425999999999
#
# number of rings (size 3 to 8) (size 9 to 14) (size 15 to 20)
#    0.750    1.000    3.750    1.875    0.000    1.500 
#    0.000    6.250    0.000    6.000    0.000    0.000 
#    0.000    0.000    0.000    0.000    0.000    0.000 
#
# Total GULP energy -89370.282080 kJ/mol
# GULP energy per Si atom -5585.642630 kJ/mol
# Density = 2.410045 g / cm^3
# Si number density = 24.155426 Si / 1000 Ang^3
#
#
#
# Elastic Constant Matrix: (Units=GPa)
#
#
# Indices 1 2 3 4 5 6 
#
# 1 83.2968 7.9255 22.6717 4.0681 37.0402 3.3743
# 2 7.9255 66.6472 29.8481 -1.8036 15.0216 12.5059
# 3 22.6717 29.8481 187.0847 7.8178 45.7444 20.3228
# 4 4.0681 -1.8036 7.8178 52.5124 10.1032 8.9943
# 5 37.0402 15.0216 45.7444 10.1032 42.4686 -2.4531
# 6 3.3743 12.5059 20.3228 8.9943 -2.4531 19.1585
#
#
#
# Elastic Compliance Matrix: (Units=1/GPa)
#
#
# Indices 1 2 3 4 5 6 
#
# 1 0.026143 0.006854 0.006946 0.008419 -0.036156 -0.025029
# 2 0.006854 0.022501 0.003078 0.008151 -0.020672 -0.025633
# 3 0.006946 0.003078 0.011414 0.005665 -0.021991 -0.020815
# 4 0.008419 0.008151 0.005665 0.027491 -0.024535 -0.028860
# 5 -0.036156 -0.020672 -0.021991 -0.024535 0.095786 0.066972
# 6 -0.025029 -0.025633 -0.020815 -0.028860 0.066972 0.117541
#
#
# Mechanical properties :
#
#
# Convention : Reuss Voigt Hill
#
# Bulk Modulus (GPa) = 10.65948 50.87993 30.76971
# Shear Modulus (GPa) = 16.75655 41.26679 29.01167
#
# Velocity S-wave (km/s) = 2.63667 4.13775 3.46936
# Velocity P-wave (km/s) = 3.70025 6.62852 5.36792
#
# Compressibility (1/GPa) = 0.09381318
#
# Stress axis : x y z
#
# Youngs Moduli (GPa) = 38.25104 44.44333 87.61290
#
# Poissons Ratio (x) = -0.30461 -0.60856
# Poissons Ratio (y) = -0.26217 -0.26967
# Poissons Ratio (z) = -0.26569 -0.13679
#
# Static dielectric constant tensor:
#      x y z
#    x 1.937170 0.016840 -0.056860 
#    y 0.016840 1.967350 0.001040 
#    z -0.056860 0.001040 1.990680 
# 
# From -- ./inp_files/175123.got.cif
#   From: 2010.05.17/outbox.cif.g08.bks.cpg/sg2_88_cif.got.tgz:175123.got - 2010.06.03 11:33:40.
