data_PCOD9034652
_publ_section_title
;
Structure prediction by ZEFSAII (Michael W. Deem and Ramdas Pophale) SiO2 
 PCOD9034652
Probable space group: P -1
;
_chemical_formula_sum "Si O2"
_cell_formula_units_Z 16
_cell_length_a 9.622206
_cell_length_b 5.232448
_cell_length_c 28.594996
_cell_angle_alpha 103.078842
_cell_angle_beta 31.203325
_cell_angle_gamma 95.379493
_cell_volume 712.172464
_symmetry_space_group_name_H-M "P -1"
_symmetry_group_IT_number 2
_symmetry_cell_setting 'triclinic'
loop_
_space_group_symop_operation_xyz
x,y,z
-x,-y,-z
loop_
_atom_site_type_symbol
_atom_site_label
_atom_site_fract_x
_atom_site_fract_y
_atom_site_fract_z
Si Si1 0.263737 0.193738 0.692165
Si Si2 0.932889 0.002213 0.885084
Si Si3 0.470460 0.835624 0.062430
Si Si4 0.356577 0.538495 0.764858
Si Si5 0.934655 0.713246 0.755861
Si Si6 0.286103 0.999600 0.519287
Si Si7 0.061453 0.412046 0.360062
Si Si8 0.066025 0.531070 0.035579
O O1 0.338847 0.290164 0.725929
O O2 0.054600 0.441931 0.738199
O O3 0.541154 0.138725 0.579773
O O4 0.138255 0.925609 0.710771
O O5 0.794621 0.204555 0.892697
O O6 0.950308 0.162480 0.933767
O O7 0.212113 0.799630 0.788121
O O8 0.701414 0.833515 0.956411
O O9 0.347258 0.117750 0.134482
O O10 0.632162 0.632540 0.044826
O O11 0.164443 0.541446 0.866096
O O12 0.655237 0.560581 0.696335
O O13 0.901926 0.643756 0.708317
O O14 0.063912 0.828003 0.591982
O O15 0.500000 0.000000 0.500000
O O16 0.146826 0.305719 0.562211
O O17 0.000000 0.500000 0.000000
#
# Coordination Sequence:
#
# PCOD9034652 Si02
#       8
#     2   2   2   2   2   2   2   2
#     4  12  26  46  76 103 146 190 238 310 355 441
#     4  10  22  45  66  95 146 182 239 295 350 428
#     4  10  23  39  69 100 132 192 243 288 346 423
#     4  11  28  45  68 110 145 191 240 300 372 426
#     4  12  24  42  74 108 139 191 250 290 358 431
#     4  12  24  49  74 109 143 185 248 300 375 426
#     4  12  27  44  77 108 147 189 238 309 364 448
#     4  11  26  42  68  99 151 190 236 300 360 424
#
# _framework density 22.466467999999999
#
# number of rings (size 3 to 8) (size 9 to 14) (size 15 to 20)
#    0.000    0.750    3.750    2.250    7.000    2.000 
#    0.000    0.000    0.000    0.000    0.000    0.000 
#    0.000    0.000    0.000    0.000    0.000    0.000 
#
# Total GULP energy -89455.629997 kJ/mol
# GULP energy per Si atom -5590.976875 kJ/mol
# Density = 2.241533 g / cm^3
# Si number density = 22.466468 Si / 1000 Ang^3
#
#
#
# Elastic Constant Matrix: (Units=GPa)
#
#
# Indices 1 2 3 4 5 6 
#
# 1 162.9238 37.5548 43.7778 4.1524 -0.7901 20.6116
# 2 37.5548 90.4966 14.3521 6.0672 2.6072 9.9507
# 3 43.7778 14.3521 93.2382 12.0296 1.2885 10.3792
# 4 4.1524 6.0672 12.0296 45.5035 8.3325 0.8665
# 5 -0.7901 2.6072 1.2885 8.3325 37.4478 -8.9293
# 6 20.6116 9.9507 10.3792 0.8665 -8.9293 26.9563
#
#
#
# Elastic Compliance Matrix: (Units=1/GPa)
#
#
# Indices 1 2 3 4 5 6 
#
# 1 0.008024 -0.002396 -0.002979 0.000592 -0.000734 -0.004366
# 2 -0.002396 0.012547 -0.000303 -0.001054 -0.001423 -0.003120
# 3 -0.002979 -0.000303 0.012848 -0.002952 -0.000450 -0.002611
# 4 0.000592 -0.001054 -0.002952 0.023877 -0.005486 -0.001512
# 5 -0.000734 -0.001423 -0.000450 -0.005486 0.030799 0.011638
# 6 -0.004366 -0.003120 -0.002611 -0.001512 0.011638 0.046497
#
#
# Mechanical properties :
#
#
# Convention : Reuss Voigt Hill
#
# Bulk Modulus (GPa) = 45.32411 59.78089 52.55250
# Shear Modulus (GPa) = 32.61498 38.71311 35.66404
#
# Velocity S-wave (km/s) = 3.81428 4.15559 3.98858
# Velocity P-wave (km/s) = 6.29414 7.04925 6.68237
#
# Compressibility (1/GPa) = 0.02206331
#
# Stress axis : x y z
#
# Youngs Moduli (GPa) = 124.62093 79.69821 77.83027
#
# Poissons Ratio (x) = 0.19095 0.23186
# Poissons Ratio (y) = 0.29859 0.02361
# Poissons Ratio (z) = 0.37125 0.02418
#
# Static dielectric constant tensor:
#      x y z
#    x 1.828020 -0.038310 0.026580 
#    y -0.038310 1.891040 -0.044160 
#    z 0.026580 -0.044160 1.853760 
# 
# From -- ./inp_files/289075.got.cif
#   From: 2010.05.17/outbox.cif.g08.bks.cpg/sg2_145_cif.got.tgz:289075.got - 2010.06.03 11:33:40.
