data_PCOD9034188
_publ_section_title
;
Structure prediction by ZEFSAII (Michael W. Deem and Ramdas Pophale) SiO2 
 PCOD9034188
Probable space group: P -1
;
_chemical_formula_sum "Si O2"
_cell_formula_units_Z 16
_cell_length_a 18.488249
_cell_length_b 8.346476
_cell_length_c 6.718354
_cell_angle_alpha 58.801871
_cell_angle_beta 50.313645
_cell_angle_gamma 72.432035
_cell_volume 681.771568
_symmetry_space_group_name_H-M "P -1"
_symmetry_group_IT_number 2
_symmetry_cell_setting 'triclinic'
loop_
_space_group_symop_operation_xyz
x,y,z
-x,-y,-z
loop_
_atom_site_type_symbol
_atom_site_label
_atom_site_fract_x
_atom_site_fract_y
_atom_site_fract_z
Si Si1 0.861887 0.747440 0.519368
Si Si2 0.099303 0.538069 0.694211
Si Si3 0.605715 0.694877 0.220028
Si Si4 0.390076 0.957998 0.767943
Si Si5 0.438954 0.560414 0.880858
Si Si6 0.953262 0.111753 0.688119
Si Si7 0.237128 0.968097 0.707723
Si Si8 0.229443 0.551378 0.824700
O O1 0.868873 0.636864 0.373346
O O2 0.963298 0.840905 0.334601
O O3 0.784504 0.901741 0.526191
O O4 0.833872 0.594344 0.835656
O O5 0.082961 0.699393 0.462603
O O6 0.175453 0.589280 0.693360
O O7 0.000000 0.500000 0.000000
O O8 0.505102 0.650211 0.531046
O O9 0.607130 0.619615 0.038469
O O10 0.676401 0.560385 0.295551
O O11 0.628602 0.912354 0.091687
O O12 0.376325 0.731824 0.952381
O O13 0.324198 0.023431 0.661719
O O14 0.500000 0.000000 0.500000
O O15 0.500000 0.500000 0.000000
O O16 0.860239 0.018434 0.007054
O O17 0.000000 0.000000 0.500000
O O18 0.247550 0.751544 0.768264
#
# Coordination Sequence:
#
# PCOD9034188 Si02
#       8
#     2   2   2   2   2   2   2   2
#     4  12  26  46  69 101 145 186 236 298 359 423
#     4  12  23  43  71  96 139 187 230 294 356 420
#     4  10  23  43  69  99 141 181 229 292 356 426
#     4  10  23  45  71 100 141 182 232 298 355 423
#     4  10  22  44  72 101 137 179 233 295 356 426
#     4  12  25  44  70 103 142 190 241 293 360 428
#     4  12  25  46  72 103 145 186 242 300 355 433
#     4  12  25  45  71 105 142 187 239 290 360 433
#
# _framework density 23.46827
#
# number of rings (size 3 to 8) (size 9 to 14) (size 15 to 20)
#    0.000    0.750    3.750    3.750    1.750    4.500 
#    2.250    0.000    0.000    0.000    0.000    0.000 
#    0.000    0.000    0.000    0.000    0.000    0.000 
#
# Total GULP energy -89525.168517 kJ/mol
# GULP energy per Si atom -5595.323032 kJ/mol
# Density = 2.341486 g / cm^3
# Si number density = 23.468270 Si / 1000 Ang^3
#
#
#
# Elastic Constant Matrix: (Units=GPa)
#
#
# Indices 1 2 3 4 5 6 
#
# 1 164.3457 43.7319 15.1685 -6.0209 13.2122 10.8201
# 2 43.7319 184.1637 23.5968 1.6349 11.0102 5.6530
# 3 15.1685 23.5968 57.9465 -2.7303 -5.0240 0.7094
# 4 -6.0209 1.6349 -2.7303 30.1358 -14.1901 10.3525
# 5 13.2122 11.0102 -5.0240 -14.1901 35.7967 2.4962
# 6 10.8201 5.6530 0.7094 10.3525 2.4962 40.0938
#
#
#
# Elastic Compliance Matrix: (Units=1/GPa)
#
#
# Indices 1 2 3 4 5 6 
#
# 1 0.006858 -0.001307 -0.001339 0.001125 -0.001744 -0.001825
# 2 -0.001307 0.006236 -0.002534 -0.002170 -0.002669 0.000245
# 3 -0.001339 -0.002534 0.019409 0.004902 0.006029 -0.001266
# 4 0.001125 -0.002170 0.004902 0.048791 0.021258 -0.014006
# 5 -0.001744 -0.002669 0.006029 0.021258 0.039174 -0.007188
# 6 -0.001825 0.000245 -0.001266 -0.014006 -0.007188 0.029486
#
#
# Mechanical properties :
#
#
# Convention : Reuss Voigt Hill
#
# Bulk Modulus (GPa) = 45.15955 63.49449 54.32702
# Shear Modulus (GPa) = 29.81621 42.80250 36.30935
#
# Velocity S-wave (km/s) = 3.56826 4.27528 3.93767
# Velocity P-wave (km/s) = 6.02173 7.17530 6.62368
#
# Compressibility (1/GPa) = 0.02214371
#
# Stress axis : x y z
#
# Youngs Moduli (GPa) = 145.82505 160.35400 51.52273
#
# Poissons Ratio (x) = 0.20952 0.06898
# Poissons Ratio (y) = 0.19053 0.13056
# Poissons Ratio (z) = 0.19523 0.40635
#
# Static dielectric constant tensor:
#      x y z
#    x 1.824680 -0.008480 0.042300 
#    y -0.008480 1.900020 0.053130 
#    z 0.042300 0.053130 1.792720 
# 
# From -- ./inp_files/106205.got.cif
#   From: 2010.05.17/outbox.cif.g08.bks.cpg/sg2_54_cif.got.tgz:106205.got - 2010.06.03 11:33:40.
