data_PCOD9034203
_publ_section_title
;
Structure prediction by ZEFSAII (Michael W. Deem and Ramdas Pophale) SiO2 
 PCOD9034203
Probable space group: P -1
;
_chemical_formula_sum "Si O2"
_cell_formula_units_Z 14
_cell_length_a 14.946149
_cell_length_b 12.210560
_cell_length_c 10.840580
_cell_angle_alpha 36.324753
_cell_angle_beta 41.769273
_cell_angle_gamma 28.889057
_cell_volume 560.504155
_symmetry_space_group_name_H-M "P -1"
_symmetry_group_IT_number 2
_symmetry_cell_setting 'triclinic'
loop_
_space_group_symop_operation_xyz
x,y,z
-x,-y,-z
loop_
_atom_site_type_symbol
_atom_site_label
_atom_site_fract_x
_atom_site_fract_y
_atom_site_fract_z
Si Si1 0.575007 0.284347 0.281701
Si Si2 0.500000 0.000000 0.000000
Si Si3 0.990450 0.005733 0.676499
Si Si4 0.828461 0.546616 0.083334
Si Si5 0.202889 0.686939 0.157203
Si Si6 0.000000 0.500000 0.500000
Si Si7 0.803476 0.822872 0.637703
Si Si8 0.401142 0.679425 0.320204
O O1 0.395948 0.419674 0.258063
O O2 0.512510 0.492962 0.257682
O O3 0.658508 0.025564 0.498414
O O4 0.734470 0.226602 0.087876
O O5 0.353265 0.273437 0.809915
O O6 0.585385 0.114202 0.872617
O O7 0.903081 0.106388 0.811387
O O8 0.814044 0.175217 0.612274
O O9 0.115438 0.070161 0.480310
O O10 0.102143 0.710226 0.809428
O O11 0.725005 0.768375 0.877431
O O12 0.000000 0.500000 0.000000
O O13 0.086316 0.625910 0.285077
O O14 0.034793 0.430650 0.375911
O O15 0.500000 0.500000 0.500000
#
# Coordination Sequence:
#
# PCOD9034203 Si02
#       8
#     2   1   2   2   2   1   2   2
#     4  10  22  44  72 102 143 190 244 293 362 435
#     4  12  26  44  66 102 136 190 236 296 348 420
#     4  10  24  46  70 101 146 187 230 302 366 426
#     4  12  27  47  70 106 140 190 243 295 359 427
#     4   9  22  45  72 106 141 192 233 300 369 430
#     4  10  24  42  68 110 138 180 236 292 362 434
#     4  11  26  43  71 103 139 187 236 297 355 433
#     4  11  24  43  71 102 142 192 240 296 359 429
#
# _framework density 24.977513999999999
#
# number of rings (size 3 to 8) (size 9 to 14) (size 15 to 20)
#    0.000    1.429    1.429    1.714    8.000    2.286 
#    2.571    0.000    0.000    0.000    0.000    0.000 
#    0.000    0.000    0.000    0.000    0.000    0.000 
#
# Total GULP energy -78062.132667 kJ/mol
# GULP energy per Si atom -5575.866619 kJ/mol
# Density = 2.492066 g / cm^3
# Si number density = 24.977514 Si / 1000 Ang^3
#
#
#
# Elastic Constant Matrix: (Units=GPa)
#
#
# Indices 1 2 3 4 5 6 
#
# 1 133.4669 51.3959 50.7367 -25.9700 -19.6262 -8.1954
# 2 51.3959 104.3039 59.0125 -5.8333 -9.8650 -9.0855
# 3 50.7367 59.0125 141.9811 -4.1021 -0.2864 -0.0036
# 4 -25.9700 -5.8333 -4.1021 48.3671 3.9338 8.1964
# 5 -19.6262 -9.8650 -0.2864 3.9338 47.4283 -7.1638
# 6 -8.1954 -9.0855 -0.0036 8.1964 -7.1638 54.3728
#
#
#
# Elastic Compliance Matrix: (Units=1/GPa)
#
#
# Indices 1 2 3 4 5 6 
#
# 1 0.011336 -0.003503 -0.002443 0.005016 0.003660 0.000849
# 2 -0.003503 0.014305 -0.004722 -0.001100 0.001933 0.002283
# 3 -0.002443 -0.004722 0.009856 -0.000650 -0.002081 -0.001333
# 4 0.005016 -0.001100 -0.000650 0.023752 -0.000594 -0.003087
# 5 0.003660 0.001933 -0.002081 -0.000594 0.023654 0.004080
# 6 0.000849 0.002283 -0.001333 -0.003087 0.004080 0.019904
#
#
# Mechanical properties :
#
#
# Convention : Reuss Voigt Hill
#
# Bulk Modulus (GPa) = 70.61249 78.00470 74.30860
# Shear Modulus (GPa) = 38.80095 44.60741 41.70418
#
# Velocity S-wave (km/s) = 3.94564 4.23058 4.09059
# Velocity P-wave (km/s) = 7.00637 7.42708 7.21979
#
# Compressibility (1/GPa) = 0.01416180
#
# Stress axis : x y z
#
# Youngs Moduli (GPa) = 88.21120 69.90449 101.46596
#
# Poissons Ratio (x) = 0.24491 0.24784
# Poissons Ratio (y) = 0.30905 0.47909
# Poissons Ratio (z) = 0.21546 0.33006
#
# Static dielectric constant tensor:
#      x y z
#    x 1.927800 -0.107290 0.026340 
#    y -0.107290 2.224820 0.003230 
#    z 0.026340 0.003230 2.016860 
# 
# From -- ./inp_files/450976.got.cif
#   From: 2010.05.17/outbox.cif.g08.bks.cpg/sg2_226_cif.got.tgz:450976.got - 2010.06.03 11:33:40.
