data_PCOD9034609
_publ_section_title
;
Structure prediction by ZEFSAII (Michael W. Deem and Ramdas Pophale) SiO2 
 PCOD9034609
Probable space group: P -1
;
_chemical_formula_sum "Si O2"
_cell_formula_units_Z 14
_cell_length_a 12.247766
_cell_length_b 8.713580
_cell_length_c 9.061199
_cell_angle_alpha 98.164207
_cell_angle_beta 81.876182
_cell_angle_gamma 142.736159
_cell_volume 578.942010
_symmetry_space_group_name_H-M "P -1"
_symmetry_group_IT_number 2
_symmetry_cell_setting 'triclinic'
loop_
_space_group_symop_operation_xyz
x,y,z
-x,-y,-z
loop_
_atom_site_type_symbol
_atom_site_label
_atom_site_fract_x
_atom_site_fract_y
_atom_site_fract_z
Si Si1 0.182054 0.756898 0.298166
Si Si2 0.435902 0.835102 0.846911
Si Si3 0.085015 0.904933 0.545743
Si Si4 0.826370 0.198709 0.217829
Si Si5 0.343777 0.462847 0.658234
Si Si6 0.309690 0.587516 0.384565
Si Si7 0.452911 0.344503 0.848622
O O1 0.089703 0.812202 0.381444
O O2 0.256463 0.709120 0.393791
O O3 0.028120 0.492190 0.198195
O O4 0.369046 0.009434 0.221533
O O5 0.315628 0.822314 0.776900
O O6 0.311548 0.543734 0.812709
O O7 0.500000 0.000000 0.000000
O O8 0.174444 0.874661 0.629499
O O9 0.886634 0.707271 0.618495
O O10 0.187850 0.179144 0.585019
O O11 0.739224 0.953136 0.118514
O O12 0.397311 0.630018 0.529746
O O13 0.462785 0.464756 0.716935
O O14 0.415264 0.646806 0.228254
O O15 0.500000 0.500000 0.000000
#
# Coordination Sequence:
#
# PCOD9034609 Si02
#       7
#     2   2   2   2   2   2   2
#     4  11  24  43  70  98 136 172 229 283 331 404
#     4  12  26  44  68  97 138 183 226 273 340 407
#     4  10  23  43  67 103 132 170 227 285 336 395
#     4  10  22  45  65  97 129 177 226 270 336 399
#     4  11  25  41  66 101 134 175 226 281 334 391
#     4  11  22  43  70 101 132 176 231 283 332 400
#     4  11  24  44  67  98 143 182 224 277 339 405
#
# _framework density 24.182041000000002
#
# number of rings (size 3 to 8) (size 9 to 14) (size 15 to 20)
#    0.000    1.143    1.429    5.143    6.000    1.714 
#    2.571    2.143    0.000    0.000    0.000    0.000 
#    0.000    0.000    0.000    0.000    0.000    0.000 
#
# Total GULP energy -77936.461611 kJ/mol
# GULP energy per Si atom -5566.890115 kJ/mol
# Density = 2.412700 g / cm^3
# Si number density = 24.182041 Si / 1000 Ang^3
#
#
#
# Elastic Constant Matrix: (Units=GPa)
#
#
# Indices 1 2 3 4 5 6 
#
# 1 80.9487 51.4392 11.7358 10.1552 5.6786 -10.9571
# 2 51.4392 91.9722 40.5584 35.9925 -5.7179 1.5032
# 3 11.7358 40.5584 61.1817 34.2404 -6.8149 3.1678
# 4 10.1552 35.9925 34.2404 37.1740 -10.7793 -8.3052
# 5 5.6786 -5.7179 -6.8149 -10.7793 18.2137 5.3429
# 6 -10.9571 1.5032 3.1678 -8.3052 5.3429 34.4060
#
#
#
# Elastic Compliance Matrix: (Units=1/GPa)
#
#
# Indices 1 2 3 4 5 6 
#
# 1 0.026865 -0.020938 -0.001092 0.013907 -0.011441 0.014704
# 2 -0.020938 0.035259 -0.001855 -0.028950 0.004377 -0.015705
# 3 -0.001092 -0.001855 0.039281 -0.038159 -0.004491 -0.012397
# 4 0.013907 -0.028950 -0.038159 0.099420 0.022418 0.029725
# 5 -0.011441 0.004377 -0.004491 0.022418 0.074229 -0.009537
# 6 0.014704 -0.015705 -0.012397 0.029725 -0.009537 0.044231
#
#
# Mechanical properties :
#
#
# Convention : Reuss Voigt Hill
#
# Bulk Modulus (GPa) = 18.64429 49.06326 33.85377
# Shear Modulus (GPa) = 12.98923 26.65003 19.81963
#
# Velocity S-wave (km/s) = 2.32015 3.32333 2.86597
# Velocity P-wave (km/s) = 3.86059 5.92108 4.99817
#
# Compressibility (1/GPa) = 0.05363574
#
# Stress axis : x y z
#
# Youngs Moduli (GPa) = 37.22301 28.36132 25.45741
#
# Poissons Ratio (x) = 0.59382 0.02780
# Poissons Ratio (y) = 0.77937 0.04723
# Poissons Ratio (z) = 0.04064 0.05262
#
# Static dielectric constant tensor:
#      x y z
#    x 1.972930 -0.055900 0.048890 
#    y -0.055900 2.014000 0.033200 
#    z 0.048890 0.033200 2.024170 
# 
# From -- ./inp_files/244549.got.cif
#   From: 2010.05.17/outbox.cif.g08.bks.cpg/sg2_123_cif.got.tgz:244549.got - 2010.06.03 11:33:40.
