data_PCOD9034623
_publ_section_title
;
Structure prediction by ZEFSAII (Michael W. Deem and Ramdas Pophale) SiO2 
 PCOD9034623
Probable space group: P -1
;
_chemical_formula_sum "Si O2"
_cell_formula_units_Z 14
_cell_length_a 8.685009
_cell_length_b 17.182235
_cell_length_c 9.540876
_cell_angle_alpha 144.806283
_cell_angle_beta 126.689445
_cell_angle_gamma 41.027036
_cell_volume 537.957208
_symmetry_space_group_name_H-M "P -1"
_symmetry_group_IT_number 2
_symmetry_cell_setting 'triclinic'
loop_
_space_group_symop_operation_xyz
x,y,z
-x,-y,-z
loop_
_atom_site_type_symbol
_atom_site_label
_atom_site_fract_x
_atom_site_fract_y
_atom_site_fract_z
Si Si1 0.944004 0.021106 0.687371
Si Si2 0.707217 0.700721 0.779958
Si Si3 0.236985 0.490352 0.090058
Si Si4 0.546813 0.845542 0.380439
Si Si5 0.934071 0.697332 0.612907
Si Si6 0.943142 0.254280 0.847503
Si Si7 0.211245 0.764109 0.675300
O O1 0.698337 0.079341 0.570879
O O2 0.952222 0.175606 0.885667
O O3 0.103960 0.851840 0.437104
O O4 0.003483 0.938561 0.749952
O O5 0.754093 0.750076 0.724709
O O6 0.449541 0.753753 0.762266
O O7 0.887840 0.501684 0.581484
O O8 0.811721 0.763192 0.042589
O O9 0.252362 0.606103 0.378351
O O10 0.232417 0.561062 0.036459
O O11 0.429413 0.296661 0.913118
O O12 0.000000 0.500000 0.000000
O O13 0.762202 0.764662 0.483587
O O14 0.500000 0.000000 0.500000
O O15 0.111098 0.749304 0.746339
#
# Coordination Sequence:
#
# PCOD9034623 Si02
#       7
#     2   2   2   2   2   2   2
#     4  10  24  41  70 104 136 180 237 299 348 399
#     4  11  25  44  74 100 146 192 228 281 356 431
#     4  11  21  41  71 100 132 188 240 285 348 405
#     4  12  22  41  71 104 142 173 239 306 339 403
#     4  11  24  43  69 108 140 182 238 289 343 428
#     4  10  22  45  66 101 137 183 239 278 350 426
#     4  11  23  47  72 102 141 189 234 288 350 416
#
# _framework density 26.024376
#
# number of rings (size 3 to 8) (size 9 to 14) (size 15 to 20)
#    0.000    1.143    4.286    1.286    6.000    3.429 
#    0.000    2.143    0.000    0.000    0.000    0.000 
#    0.000    0.000    0.000    0.000    0.000    0.000 
#
# Total GULP energy -78043.933507 kJ/mol
# GULP energy per Si atom -5574.566679 kJ/mol
# Density = 2.596514 g / cm^3
# Si number density = 26.024376 Si / 1000 Ang^3
#
#
#
# Elastic Constant Matrix: (Units=GPa)
#
#
# Indices 1 2 3 4 5 6 
#
# 1 167.9035 62.7939 45.6915 1.7522 42.5277 28.4951
# 2 62.7939 101.1785 27.6900 8.9908 11.2829 14.8497
# 3 45.6915 27.6900 114.5301 13.6501 21.5128 23.8475
# 4 1.7522 8.9908 13.6501 40.9856 -3.1642 12.8171
# 5 42.5277 11.2829 21.5128 -3.1642 37.0249 -8.4390
# 6 28.4951 14.8497 23.8475 12.8171 -8.4390 46.0014
#
#
#
# Elastic Compliance Matrix: (Units=1/GPa)
#
#
# Indices 1 2 3 4 5 6 
#
# 1 0.014116 -0.005657 0.001103 0.002481 -0.017515 -0.011394
# 2 -0.005657 0.013477 -0.001638 -0.002302 0.003437 0.001275
# 3 0.001103 -0.001638 0.012449 -0.002153 -0.009971 -0.007838
# 4 0.002481 -0.002302 -0.002153 0.027835 -0.000222 -0.007474
# 5 -0.017515 0.003437 -0.009971 -0.000222 0.057679 0.025553
# 6 -0.011394 0.001275 -0.007838 -0.007474 0.025553 0.039218
#
#
# Mechanical properties :
#
#
# Convention : Reuss Voigt Hill
#
# Bulk Modulus (GPa) = 36.15728 72.88477 54.52102
# Shear Modulus (GPa) = 26.82747 41.29817 34.06282
#
# Velocity S-wave (km/s) = 3.21418 3.98792 3.62177
# Velocity P-wave (km/s) = 5.26293 7.01939 6.20364
#
# Compressibility (1/GPa) = 0.02765695
#
# Stress axis : x y z
#
# Youngs Moduli (GPa) = 70.84393 74.19980 80.32940
#
# Poissons Ratio (x) = 0.41978 -0.08861
# Poissons Ratio (y) = 0.40079 0.13158
# Poissons Ratio (z) = -0.07815 0.12154
#
# Static dielectric constant tensor:
#      x y z
#    x 2.168710 0.059200 -0.060010 
#    y 0.059200 2.061970 0.040050 
#    z -0.060010 0.040050 2.259050 
# 
# From -- ./inp_files/403603.got.cif
#   From: 2010.05.17/outbox.cif.g08.bks.cpg/sg2_202_cif.got.tgz:403603.got - 2010.06.03 11:33:40.
