data_PCOD9034860
_publ_section_title
;
Structure prediction by ZEFSAII (Michael W. Deem and Ramdas Pophale) SiO2 
 PCOD9034860
Probable space group: P -1
;
_chemical_formula_sum "Si O2"
_cell_formula_units_Z 13
_cell_length_a 21.452073
_cell_length_b 14.956645
_cell_length_c 11.228160
_cell_angle_alpha 26.912119
_cell_angle_beta 155.472870
_cell_angle_gamma 159.590962
_cell_volume 502.186416
_symmetry_space_group_name_H-M "P -1"
_symmetry_group_IT_number 2
_symmetry_cell_setting 'triclinic'
loop_
_space_group_symop_operation_xyz
x,y,z
-x,-y,-z
loop_
_atom_site_type_symbol
_atom_site_label
_atom_site_fract_x
_atom_site_fract_y
_atom_site_fract_z
Si Si1 0.458940 0.241984 0.561745
Si Si2 0.725557 0.606105 0.252585
Si Si3 0.615162 0.950821 0.088480
Si Si4 0.124092 0.913950 0.181563
Si Si5 0.127004 0.304877 0.339860
Si Si6 0.000000 0.500000 0.000000
Si Si7 0.244554 0.580025 0.721079
O O1 0.366651 0.162264 0.626709
O O2 0.672241 0.542574 0.567976
O O3 0.295085 0.151812 0.285244
O O4 0.520241 0.073368 0.828218
O O5 0.794012 0.553718 0.555386
O O6 0.732299 0.469204 0.314997
O O7 0.500000 0.500000 0.000000
O O8 0.881204 0.923697 0.121657
O O9 0.450957 0.726024 0.977935
O O10 0.820425 0.183638 0.104002
O O11 0.196349 0.770200 0.423559
O O12 0.931221 0.690975 0.190904
O O13 0.009701 0.400439 0.997395
O O14 0.000000 0.000000 0.500000
#
# Coordination Sequence:
#
# PCOD9034860 Si02
#       7
#     2   2   2   2   2   1   2
#     4   9  19  42  65  96 132 171 221 276 332 397
#     4  12  26  44  65 101 143 175 223 287 328 408
#     4   9  20  40  69  95 128 172 225 274 330 401
#     4  10  22  45  68  99 137 173 227 279 338 401
#     4  11  26  44  66  98 134 180 226 272 338 399
#     4  10  24  44  68  96 132 170 224 280 330 398
#     4  10  24  43  70 100 128 184 225 273 347 391
#
# _framework density 25.886803
#
# number of rings (size 3 to 8) (size 9 to 14) (size 15 to 20)
#    0.000    1.846    1.538    0.462    6.462    1.846 
#    0.000    1.538    0.000    0.000    0.000    0.000 
#    0.000    0.000    0.000    0.000    0.000    0.000 
#
# Total GULP energy -72657.863549 kJ/mol
# GULP energy per Si atom -5589.066427 kJ/mol
# Density = 2.582788 g / cm^3
# Si number density = 25.886803 Si / 1000 Ang^3
#
#
#
# Elastic Constant Matrix: (Units=GPa)
#
#
# Indices 1 2 3 4 5 6 
#
# 1 156.4818 48.3491 48.3313 4.4306 1.1510 12.0372
# 2 48.3491 156.1577 15.1653 -13.3398 -7.4346 30.4729
# 3 48.3313 15.1653 85.8465 -3.4045 1.6800 -1.6987
# 4 4.4306 -13.3398 -3.4045 32.8876 -0.0669 6.3925
# 5 1.1510 -7.4346 1.6800 -0.0669 59.7764 -7.6141
# 6 12.0372 30.4729 -1.6987 6.3925 -7.6141 35.7230
#
#
#
# Elastic Compliance Matrix: (Units=1/GPa)
#
#
# Indices 1 2 3 4 5 6 
#
# 1 0.008646 -0.002298 -0.004565 -0.002409 -0.000433 -0.000832
# 2 -0.002298 0.009196 -0.000272 0.005575 0.000177 -0.008043
# 3 -0.004565 -0.000272 0.014374 0.001573 -0.000073 0.002157
# 4 -0.002409 0.005575 0.001573 0.035153 -0.000575 -0.010282
# 5 -0.000433 0.000177 -0.000073 -0.000575 0.017241 0.003769
# 6 -0.000832 -0.008043 0.002157 -0.010282 0.003769 0.037880
#
#
# Mechanical properties :
#
#
# Convention : Reuss Voigt Hill
#
# Bulk Modulus (GPa) = 55.72703 69.13083 62.42893
# Shear Modulus (GPa) = 35.02852 44.78673 39.90763
#
# Velocity S-wave (km/s) = 3.68250 4.16396 3.93061
# Velocity P-wave (km/s) = 6.29722 7.06265 6.69089
#
# Compressibility (1/GPa) = 0.01794461
#
# Stress axis : x y z
#
# Youngs Moduli (GPa) = 115.66340 108.74499 69.57234
#
# Poissons Ratio (x) = 0.24985 0.31761
# Poissons Ratio (y) = 0.26575 0.01896
# Poissons Ratio (z) = 0.52802 0.02963
#
# Static dielectric constant tensor:
#      x y z
#    x 1.959300 -0.072870 -0.172040 
#    y -0.072870 1.983700 -0.104170 
#    z -0.172040 -0.104170 1.629540 
# 
# From -- ./inp_files/183522.got.cif
#   From: 2010.05.17/outbox.cif.g08.bks.cpg/sg2_92_cif.got.tgz:183522.got - 2010.06.03 11:33:40.
