data_PCOD9034384
_publ_section_title
;
Structure prediction by ZEFSAII (Michael W. Deem and Ramdas Pophale) SiO2 
 PCOD9034384
Probable space group: P -1
;
_chemical_formula_sum "Si O2"
_cell_formula_units_Z 13
_cell_length_a 7.880983
_cell_length_b 9.669392
_cell_length_c 11.947437
_cell_angle_alpha 125.990841
_cell_angle_beta 104.661627
_cell_angle_gamma 114.321772
_cell_volume 497.377837
_symmetry_space_group_name_H-M "P -1"
_symmetry_group_IT_number 2
_symmetry_cell_setting 'triclinic'
loop_
_space_group_symop_operation_xyz
x,y,z
-x,-y,-z
loop_
_atom_site_type_symbol
_atom_site_label
_atom_site_fract_x
_atom_site_fract_y
_atom_site_fract_z
Si Si1 0.644646 0.040498 0.377776
Si Si2 0.814253 0.755228 0.782950
Si Si3 0.178802 0.745298 0.720034
Si Si4 0.000000 0.500000 0.000000
Si Si5 0.230787 0.025518 0.317953
Si Si6 0.180797 0.509729 0.798233
Si Si7 0.410431 0.334015 0.689086
O O1 0.516888 0.778730 0.277753
O O2 0.658487 0.048693 0.249661
O O3 0.474185 0.078418 0.406247
O O4 0.915673 0.260874 0.581612
O O5 0.707519 0.804675 0.692366
O O6 0.616332 0.535510 0.729575
O O7 0.987834 0.737090 0.744800
O O8 0.000000 0.000000 0.000000
O O9 0.306357 0.716059 0.821074
O O10 0.000000 0.500000 0.500000
O O11 0.109777 0.566524 0.922296
O O12 0.968694 0.261543 0.878375
O O13 0.187423 0.109873 0.461727
O O14 0.340066 0.448004 0.805155
#
# Coordination Sequence:
#
# PCOD9034384 Si02
#       7
#     2   2   2   1   2   2   2
#     4  11  24  44  78 108 145 195 252 299 358 444
#     4  12  28  48  75 109 154 192 247 310 376 438
#     4  10  22  44  74 102 146 192 242 296 364 432
#     4  12  28  42  74 108 152 190 242 310 370 428
#     4  12  26  45  76 107 152 193 250 298 379 432
#     4  11  24  47  74 110 152 193 249 304 370 439
#     4  12  25  47  78 109 146 199 252 299 366 449
#
# _framework density 26.137072
#
# number of rings (size 3 to 8) (size 9 to 14) (size 15 to 20)
#    0.000    0.615    1.538    6.923    6.462    1.231 
#    0.000    4.615    0.000    0.000    0.000    0.000 
#    0.000    0.000    0.000    0.000    0.000    0.000 
#
# Total GULP energy -72691.524850 kJ/mol
# GULP energy per Si atom -5591.655758 kJ/mol
# Density = 2.607758 g / cm^3
# Si number density = 26.137072 Si / 1000 Ang^3
#
#
#
# Elastic Constant Matrix: (Units=GPa)
#
#
# Indices 1 2 3 4 5 6 
#
# 1 87.3911 19.9457 33.7953 1.4152 -42.6221 -8.5155
# 2 19.9457 224.8443 43.6539 8.2906 -10.6279 1.9125
# 3 33.7953 43.6539 127.6048 0.9842 -46.0026 14.1944
# 4 1.4152 8.2906 0.9842 49.1501 10.5446 -7.7792
# 5 -42.6221 -10.6279 -46.0026 10.5446 54.4031 0.1809
# 6 -8.5155 1.9125 14.1944 -7.7792 0.1809 48.8494
#
#
#
# Elastic Compliance Matrix: (Units=1/GPa)
#
#
# Indices 1 2 3 4 5 6 
#
# 1 0.019826 -0.001027 0.000884 -0.003601 0.016769 0.002604
# 2 -0.001027 0.004857 -0.001894 -0.000439 -0.001373 0.000116
# 3 0.000884 -0.001894 0.013058 -0.003193 0.011997 -0.004119
# 4 -0.003601 -0.000439 -0.003193 0.023413 -0.010159 0.004084
# 5 0.016769 -0.001373 0.011997 -0.010159 0.043372 -0.002288
# 6 0.002604 0.000116 -0.004119 0.004084 -0.002288 0.022776
#
#
# Mechanical properties :
#
#
# Convention : Reuss Voigt Hill
#
# Bulk Modulus (GPa) = 29.70278 70.51443 50.10860
# Shear Modulus (GPa) = 35.06353 53.31019 44.18686
#
# Velocity S-wave (km/s) = 3.66666 4.52114 4.11613
# Velocity P-wave (km/s) = 5.41431 7.36828 6.46553
#
# Compressibility (1/GPa) = 0.03366688
#
# Stress axis : x y z
#
# Youngs Moduli (GPa) = 50.43942 205.90362 76.57882
#
# Poissons Ratio (x) = 0.21149 -0.06770
# Poissons Ratio (y) = 0.05181 0.14503
# Poissons Ratio (z) = -0.04459 0.38995
#
# Static dielectric constant tensor:
#      x y z
#    x 2.069250 0.009230 0.128840 
#    y 0.009230 2.071790 0.010750 
#    z 0.128840 0.010750 2.102150 
# 
# From -- ./inp_files/380677.got.cif
#   From: 2010.05.17/outbox.cif.g08.bks.cpg/sg2_191_cif.got.tgz:380677.got - 2010.06.03 11:33:40.
