data_PCOD9034900
_publ_section_title
;
Structure prediction by ZEFSAII (Michael W. Deem and Ramdas Pophale) SiO2 
 PCOD9034900
Probable space group: P -1
;
_chemical_formula_sum "Si O2"
_cell_formula_units_Z 12
_cell_length_a 14.465238
_cell_length_b 6.617914
_cell_length_c 11.098013
_cell_angle_alpha 94.150446
_cell_angle_beta 150.053724
_cell_angle_gamma 73.292173
_cell_volume 471.975085
_symmetry_space_group_name_H-M "P -1"
_symmetry_group_IT_number 2
_symmetry_cell_setting 'triclinic'
loop_
_space_group_symop_operation_xyz
x,y,z
-x,-y,-z
loop_
_atom_site_type_symbol
_atom_site_label
_atom_site_fract_x
_atom_site_fract_y
_atom_site_fract_z
Si Si1 0.779184 0.005824 0.284195
Si Si2 0.408493 0.297930 0.024738
Si Si3 0.917995 0.648391 0.035450
Si Si4 0.078172 0.695458 0.774096
Si Si5 0.657966 0.151487 0.761173
Si Si6 0.674483 0.362422 0.534565
O O1 0.691279 0.876864 0.090907
O O2 0.847680 0.851505 0.476692
O O3 0.000000 0.000000 0.500000
O O4 0.576401 0.229177 0.104833
O O5 0.213796 0.544721 0.809440
O O6 0.528916 0.304344 0.281302
O O7 0.905836 0.483901 0.114677
O O8 0.106790 0.704851 0.282418
O O9 0.000000 0.500000 0.000000
O O10 0.711928 0.887537 0.801436
O O11 0.190979 0.831939 0.964959
O O12 0.709551 0.229170 0.694000
O O13 0.439669 0.365446 0.557860
#
# Coordination Sequence:
#
# PCOD9034900 Si02
#       6
#     2   2   2   2   2   2
#     4  11  26  49  75 102 138 190 241 308 354 418
#     4  10  25  47  71 104 141 180 245 295 358 417
#     4  12  25  40  71 110 146 195 229 286 361 428
#     4  11  25  46  71 105 143 188 241 294 352 433
#     4  10  23  44  66 103 150 182 241 288 355 429
#     4  10  22  45  69 102 146 193 231 299 350 427
#
# _framework density 25.425070999999999
#
# number of rings (size 3 to 8) (size 9 to 14) (size 15 to 20)
#    0.000    1.333    1.667    2.000    7.000    2.667 
#    9.000    0.000    0.000    0.000    0.000    0.000 
#    0.000    0.000    0.000    0.000    0.000    0.000 
#
# Total GULP energy -67159.616804 kJ/mol
# GULP energy per Si atom -5596.634734 kJ/mol
# Density = 2.536720 g / cm^3
# Si number density = 25.425071 Si / 1000 Ang^3
#
#
#
# Elastic Constant Matrix: (Units=GPa)
#
#
# Indices 1 2 3 4 5 6 
#
# 1 73.1723 57.0136 11.1635 -2.4147 29.4163 1.3440
# 2 57.0136 147.3524 46.5233 -21.1981 6.6315 -24.0118
# 3 11.1635 46.5233 93.4351 8.1985 14.1439 2.2902
# 4 -2.4147 -21.1981 8.1985 60.3281 1.1226 -1.3877
# 5 29.4163 6.6315 14.1439 1.1226 41.0093 2.9521
# 6 1.3440 -24.0118 2.2902 -1.3877 2.9521 38.0247
#
#
#
# Elastic Compliance Matrix: (Units=1/GPa)
#
#
# Indices 1 2 3 4 5 6 
#
# 1 0.038412 -0.019939 0.010289 -0.006661 -0.026778 -0.012732
# 2 -0.019939 0.020784 -0.011062 0.008072 0.013547 0.013739
# 3 0.010289 -0.011062 0.017323 -0.005806 -0.010848 -0.007762
# 4 -0.006661 0.008072 -0.005806 0.019991 0.004492 0.006064
# 5 -0.026778 0.013547 -0.010848 0.004492 0.044527 0.006861
# 6 -0.012732 0.013739 -0.007762 0.006064 0.006861 0.035581
#
#
# Mechanical properties :
#
#
# Convention : Reuss Voigt Hill
#
# Bulk Modulus (GPa) = 28.49435 60.37340 44.43387
# Shear Modulus (GPa) = 21.76370 41.15638 31.46004
#
# Velocity S-wave (km/s) = 2.92891 4.02771 3.52143
# Velocity P-wave (km/s) = 4.76125 6.73996 5.83509
#
# Compressibility (1/GPa) = 0.03509468
#
# Stress axis : x y z
#
# Youngs Moduli (GPa) = 26.03387 48.11343 57.72525
#
# Poissons Ratio (x) = 0.95931 -0.59392
# Poissons Ratio (y) = 0.51908 0.63858
# Poissons Ratio (z) = -0.26785 0.53225
#
# Static dielectric constant tensor:
#      x y z
#    x 2.025590 0.008100 0.006770 
#    y 0.008100 2.039470 0.018380 
#    z 0.006770 0.018380 1.956060 
# 
# From -- ./inp_files/442022.got.cif
#   From: 2010.05.17/outbox.cif.g08.bks.cpg/sg2_222_cif.got.tgz:442022.got - 2010.06.03 11:33:40.
