data_PCOD9034916
_publ_section_title
;
Structure prediction by ZEFSAII (Michael W. Deem and Ramdas Pophale) SiO2 
 PCOD9034916
Probable space group: P -1
;
_chemical_formula_sum "Si O2"
_cell_formula_units_Z 16
_cell_length_a 5.445392
_cell_length_b 20.632099
_cell_length_c 8.846441
_cell_angle_alpha 124.866029
_cell_angle_beta 94.031896
_cell_angle_gamma 115.590598
_cell_volume 664.476453
_symmetry_space_group_name_H-M "P -1"
_symmetry_group_IT_number 2
_symmetry_cell_setting 'triclinic'
loop_
_space_group_symop_operation_xyz
x,y,z
-x,-y,-z
loop_
_atom_site_type_symbol
_atom_site_label
_atom_site_fract_x
_atom_site_fract_y
_atom_site_fract_z
Si Si1 0.473784 0.461052 0.781159
Si Si2 0.122223 0.934622 0.046452
Si Si3 0.326008 0.046703 0.503849
Si Si4 0.144251 0.709679 0.461059
Si Si5 0.235926 0.578325 0.494576
Si Si6 0.404111 0.360720 0.129584
Si Si7 0.471047 0.110201 0.094453
Si Si8 0.266006 0.723858 0.137088
O O1 0.750455 0.473928 0.722944
O O2 0.215297 0.347111 0.626266
O O3 0.500000 0.500000 0.000000
O O4 0.413159 0.528126 0.770987
O O5 0.244257 0.015359 0.285493
O O6 0.245527 0.996269 0.978009
O O7 0.285570 0.880956 0.996887
O O8 0.762806 0.867977 0.944866
O O9 0.530012 0.160072 0.695093
O O10 0.500000 0.000000 0.500000
O O11 0.000000 0.000000 0.500000
O O12 0.197768 0.657224 0.527960
O O13 0.335632 0.820365 0.666004
O O14 0.220762 0.694449 0.274764
O O15 0.000000 0.500000 0.500000
O O16 0.544721 0.632767 0.679398
O O17 0.556440 0.312264 0.993077
O O18 0.060171 0.313403 0.998333
#
# Coordination Sequence:
#
# PCOD9034916 Si02
#       8
#     2   2   2   2   2   2   2   2
#     4  12  26  48  77 110 152 206 255 316 382 454
#     4  10  22  45  69 104 139 184 235 302 377 428
#     4  12  26  48  75 107 150 196 245 308 385 454
#     4  12  27  45  78 111 149 199 265 310 371 462
#     4  12  28  48  74 111 155 204 256 320 388 446
#     4  12  27  48  77 109 160 198 257 310 388 447
#     4  10  23  42  73 101 139 183 240 307 359 438
#     4  12  28  50  77 115 150 207 258 315 371 473
#
# _framework density 24.079107
#
# number of rings (size 3 to 8) (size 9 to 14) (size 15 to 20)
#    0.000    0.500    3.750    3.375    3.500    4.000 
#    0.000    0.000    0.000    0.000    0.000    0.000 
#    0.000    0.000    0.000    0.000    0.000    0.000 
#
# Total GULP energy -89432.797062 kJ/mol
# GULP energy per Si atom -5589.549816 kJ/mol
# Density = 2.402430 g / cm^3
# Si number density = 24.079107 Si / 1000 Ang^3
#
#
#
# Elastic Constant Matrix: (Units=GPa)
#
#
# Indices 1 2 3 4 5 6 
#
# 1 156.0548 24.1197 23.1260 14.7992 0.7612 28.4828
# 2 24.1197 85.4454 7.0145 0.7308 8.1741 12.1319
# 3 23.1260 7.0145 83.6957 13.0630 8.4765 25.9623
# 4 14.7992 0.7308 13.0630 39.3928 3.9749 2.7962
# 5 0.7612 8.1741 8.4765 3.9749 49.8833 -3.9647
# 6 28.4828 12.1319 25.9623 2.7962 -3.9647 25.8577
#
#
#
# Elastic Compliance Matrix: (Units=1/GPa)
#
#
# Indices 1 2 3 4 5 6 
#
# 1 0.008463 -0.000974 0.001388 -0.002828 -0.000781 -0.010074
# 2 -0.000974 0.013164 0.001675 0.000390 -0.003038 -0.007293
# 3 0.001388 0.001675 0.019599 -0.004970 -0.004996 -0.022222
# 4 -0.002828 0.000390 -0.004970 0.027854 -0.001018 0.004754
# 5 -0.000781 -0.003038 -0.004996 -0.001018 0.022348 0.010838
# 6 -0.010074 -0.007293 -0.022222 0.004754 0.010838 0.076650
#
#
# Mechanical properties :
#
#
# Convention : Reuss Voigt Hill
#
# Bulk Modulus (GPa) = 22.02426 48.19072 35.10749
# Shear Modulus (GPa) = 27.92756 41.08915 34.50835
#
# Velocity S-wave (km/s) = 3.40932 4.13537 3.78977
# Velocity P-wave (km/s) = 4.96633 6.54665 5.81047
#
# Compressibility (1/GPa) = 0.04540447
#
# Stress axis : x y z
#
# Youngs Moduli (GPa) = 118.15593 75.96764 51.02292
#
# Poissons Ratio (x) = 0.07398 -0.07084
# Poissons Ratio (y) = 0.11507 -0.08545
# Poissons Ratio (z) = -0.16404 -0.12723
#
# Static dielectric constant tensor:
#      x y z
#    x 2.034510 0.006880 0.028790 
#    y 0.006880 1.945480 -0.018320 
#    z 0.028790 -0.018320 1.934240 
# 
# From -- ./inp_files/142681.got.cif
#   From: 2010.05.17/outbox.cif.g08.bks.cpg/sg2_72_cif.got.tgz:142681.got - 2010.06.03 11:33:40.
