data_PCOD9034125
_publ_section_title
;
Structure prediction by ZEFSAII (Michael W. Deem and Ramdas Pophale) SiO2 
 PCOD9034125
Probable space group: P -1
;
_chemical_formula_sum "Si O2"
_cell_formula_units_Z 16
_cell_length_a 8.548029
_cell_length_b 21.548066
_cell_length_c 8.582732
_cell_angle_alpha 146.022413
_cell_angle_beta 53.098405
_cell_angle_gamma 125.152396
_cell_volume 695.714424
_symmetry_space_group_name_H-M "P -1"
_symmetry_group_IT_number 2
_symmetry_cell_setting 'triclinic'
loop_
_space_group_symop_operation_xyz
x,y,z
-x,-y,-z
loop_
_atom_site_type_symbol
_atom_site_label
_atom_site_fract_x
_atom_site_fract_y
_atom_site_fract_z
Si Si1 0.652843 0.114389 0.117233
Si Si2 0.991076 0.663734 0.182777
Si Si3 0.036701 0.053194 0.920327
Si Si4 0.071515 0.847755 0.249217
Si Si5 0.244069 0.239288 0.005346
Si Si6 0.431604 0.463276 0.789612
Si Si7 0.157273 0.490426 0.524946
Si Si8 0.342680 0.703924 0.269104
O O1 0.605640 0.228175 0.459883
O O2 0.731473 0.139938 0.948832
O O3 0.837944 0.088763 0.051210
O O4 0.500000 0.000000 0.000000
O O5 0.757420 0.635966 0.299840
O O6 0.034322 0.744067 0.174267
O O7 0.131587 0.715075 0.346208
O O8 0.071697 0.551028 0.846206
O O9 0.083921 0.958011 0.575820
O O10 0.196166 0.166206 0.036994
O O11 0.000000 0.000000 0.000000
O O12 0.885953 0.828293 0.198565
O O13 0.180080 0.362657 0.290783
O O14 0.475702 0.249216 0.854843
O O15 0.624540 0.451124 0.546183
O O16 0.500000 0.500000 0.000000
O O17 0.351608 0.573252 0.007113
O O18 0.000000 0.500000 0.500000
#
# Coordination Sequence:
#
# PCOD9034125 Si02
#       8
#     2   2   2   2   2   2   2   2
#     4  11  24  44  74  95 129 185 236 286 344 425
#     4  12  25  44  68 106 149 182 227 296 349 414
#     4  11  24  43  67 100 135 174 229 296 349 403
#     4  11  23  44  67  99 135 181 233 284 346 419
#     4  10  22  44  71  94 139 184 231 286 338 425
#     4  11  24  41  70 100 143 186 236 281 337 434
#     4  11  22  44  72 103 137 190 234 280 348 419
#     4  11  25  44  65 107 137 176 233 293 355 404
#
# _framework density 22.997944
#
# number of rings (size 3 to 8) (size 9 to 14) (size 15 to 20)
#    0.000    1.000    2.500    4.875    5.250    3.000 
#    9.000    2.500    0.000    0.000    0.000    0.000 
#    0.000    0.000    0.000    0.000    0.000    0.000 
#
# Total GULP energy -89521.238168 kJ/mol
# GULP energy per Si atom -5595.077386 kJ/mol
# Density = 2.294560 g / cm^3
# Si number density = 22.997944 Si / 1000 Ang^3
#
#
#
# Elastic Constant Matrix: (Units=GPa)
#
#
# Indices 1 2 3 4 5 6 
#
# 1 73.6842 52.2839 11.2723 -4.2053 2.4896 11.9351
# 2 52.2839 185.9530 34.2632 -6.9727 -2.8892 18.9600
# 3 11.2723 34.2632 113.0447 -4.0097 4.8884 15.6392
# 4 -4.2053 -6.9727 -4.0097 20.2106 2.7380 -2.3083
# 5 2.4896 -2.8892 4.8884 2.7380 28.4159 0.0498
# 6 11.9351 18.9600 15.6392 -2.3083 0.0498 36.3941
#
#
#
# Elastic Compliance Matrix: (Units=1/GPa)
#
#
# Indices 1 2 3 4 5 6 
#
# 1 0.017523 -0.004596 0.000277 0.002038 -0.002241 -0.003339
# 2 -0.004596 0.007158 -0.001528 0.000859 0.001313 -0.001513
# 3 0.000277 -0.001528 0.009895 0.001371 -0.002008 -0.003457
# 4 0.002038 0.000859 0.001371 0.051365 -0.005279 0.001560
# 5 -0.002241 0.001313 -0.002008 -0.005279 0.036375 0.000529
# 6 -0.003339 -0.001513 -0.003457 0.001560 0.000529 0.030944
#
#
# Mechanical properties :
#
#
# Convention : Reuss Voigt Hill
#
# Bulk Modulus (GPa) = 43.70303 63.14675 53.42489
# Shear Modulus (GPa) = 28.97171 35.32829 32.15000
#
# Velocity S-wave (km/s) = 3.55315 3.92363 3.74297
# Velocity P-wave (km/s) = 5.98978 6.93135 6.47769
#
# Compressibility (1/GPa) = 0.02288171
#
# Stress axis : x y z
#
# Youngs Moduli (GPa) = 57.06798 139.69624 101.05662
#
# Poissons Ratio (x) = 0.64202 -0.02797
# Poissons Ratio (y) = 0.26228 0.15446
# Poissons Ratio (z) = -0.01579 0.21352
#
# Static dielectric constant tensor:
#      x y z
#    x 1.861630 -0.009710 0.007800 
#    y -0.009710 2.028880 0.087230 
#    z 0.007800 0.087230 1.995950 
# 
# From -- ./inp_files/226731.got.cif
#   From: 2010.05.17/outbox.cif.g08.bks.cpg/sg2_114_cif.got.tgz:226731.got - 2010.06.03 11:33:40.
