data_PCOD9034129
_publ_section_title
;
Structure prediction by ZEFSAII (Michael W. Deem and Ramdas Pophale) SiO2 
 PCOD9034129
Probable space group: P -1
;
_chemical_formula_sum "Si O2"
_cell_formula_units_Z 14
_cell_length_a 13.333838
_cell_length_b 10.837528
_cell_length_c 8.940241
_cell_angle_alpha 115.103924
_cell_angle_beta 119.469650
_cell_angle_gamma 31.039753
_cell_volume 579.954340
_symmetry_space_group_name_H-M "P -1"
_symmetry_group_IT_number 2
_symmetry_cell_setting 'triclinic'
loop_
_space_group_symop_operation_xyz
x,y,z
-x,-y,-z
loop_
_atom_site_type_symbol
_atom_site_label
_atom_site_fract_x
_atom_site_fract_y
_atom_site_fract_z
Si Si1 0.975537 0.592087 0.690982
Si Si2 0.884872 0.035665 0.072044
Si Si3 0.412480 0.902468 0.236997
Si Si4 0.364049 0.116057 0.816591
Si Si5 0.019683 0.804300 0.640070
Si Si6 0.557743 0.235792 0.490767
Si Si7 0.877749 0.248791 0.612760
O O1 0.129911 0.375111 0.806576
O O2 0.000000 0.500000 0.500000
O O3 0.751432 0.820019 0.705568
O O4 0.019532 0.704550 0.729707
O O5 0.029085 0.819851 0.189453
O O6 0.822104 0.230401 0.221398
O O7 0.707138 0.106395 0.933004
O O8 0.000000 0.000000 0.000000
O O9 0.576863 0.818146 0.216737
O O10 0.492206 0.772604 0.386164
O O11 0.401333 0.933880 0.673615
O O12 0.500000 0.000000 0.000000
O O13 0.069363 0.698138 0.457595
O O14 0.782087 0.083462 0.598841
O O15 0.365678 0.508689 0.435393
O O16 0.000000 0.000000 0.500000
#
# Coordination Sequence:
#
# PCOD9034129 Si02
#       7
#     2   2   2   2   2   2   2
#     4  11  22  42  71  98 138 179 225 276 338 406
#     4  11  22  45  66  98 131 177 223 272 332 398
#     4  11  25  45  71  97 139 183 222 278 343 397
#     4  12  28  42  65 110 137 174 232 277 337 406
#     4  10  22  44  71  95 133 177 226 272 340 395
#     4  11  23  44  71  96 134 177 224 281 334 404
#     4  10  25  42  67  97 131 176 225 271 339 396
#
# _framework density 24.139831000000001
#
# number of rings (size 3 to 8) (size 9 to 14) (size 15 to 20)
#    0.000    1.143    5.714    1.286    6.000    2.857 
#    0.000    9.286    0.000    0.000    0.000    0.000 
#    0.000    0.000    0.000    0.000    0.000    0.000 
#
# Total GULP energy -78107.763319 kJ/mol
# GULP energy per Si atom -5579.125951 kJ/mol
# Density = 2.408489 g / cm^3
# Si number density = 24.139831 Si / 1000 Ang^3
#
#
#
# Elastic Constant Matrix: (Units=GPa)
#
#
# Indices 1 2 3 4 5 6 
#
# 1 42.7103 6.0650 -3.4243 7.6396 2.4803 -10.9365
# 2 6.0650 154.2729 38.0768 -37.0846 9.4728 2.6342
# 3 -3.4243 38.0768 117.7128 -14.8319 6.7613 13.3541
# 4 7.6396 -37.0846 -14.8319 37.2393 12.6986 -0.0448
# 5 2.4803 9.4728 6.7613 12.6986 50.3191 3.3808
# 6 -10.9365 2.6342 13.3541 -0.0448 3.3808 18.5117
#
#
#
# Elastic Compliance Matrix: (Units=1/GPa)
#
#
# Indices 1 2 3 4 5 6 
#
# 1 0.030810 -0.003890 -0.001524 -0.011082 0.000894 0.019665
# 2 -0.003890 0.010127 -0.001438 0.011799 -0.004373 -0.001874
# 3 -0.001524 -0.001438 0.010325 0.003455 -0.001384 -0.007883
# 4 -0.011082 0.011799 0.003455 0.046814 -0.013405 -0.008157
# 5 0.000894 -0.004373 -0.001384 -0.013405 0.024378 -0.002336
# 6 0.019665 -0.001874 -0.007883 -0.008157 -0.002336 0.071998
#
#
# Mechanical properties :
#
#
# Convention : Reuss Voigt Hill
#
# Bulk Modulus (GPa) = 26.62625 44.01456 35.32040
# Shear Modulus (GPa) = 22.65772 39.47925 31.06848
#
# Velocity S-wave (km/s) = 3.06699 4.04844 3.59140
# Velocity P-wave (km/s) = 4.85755 6.33451 5.64455
#
# Compressibility (1/GPa) = 0.03755692
#
# Stress axis : x y z
#
# Youngs Moduli (GPa) = 32.45749 98.74935 96.84899
#
# Poissons Ratio (x) = 0.38411 0.14761
# Poissons Ratio (y) = 0.12625 0.13931
# Poissons Ratio (z) = 0.04947 0.14204
#
# Static dielectric constant tensor:
#      x y z
#    x 2.060610 0.144770 0.005550 
#    y 0.144770 2.228930 0.045130 
#    z 0.005550 0.045130 1.935920 
# 
# From -- ./inp_files/308391.got.cif
#   From: 2010.05.17/outbox.cif.g08.bks.cpg/sg2_155_cif.got.tgz:308391.got - 2010.06.03 11:33:40.
