data_PCOD9034399
_publ_section_title
;
Structure prediction by ZEFSAII (Michael W. Deem and Ramdas Pophale) SiO2 
 PCOD9034399
Probable space group: P -1
;
_chemical_formula_sum "Si O2"
_cell_formula_units_Z 14
_cell_length_a 14.832807
_cell_length_b 9.206133
_cell_length_c 12.101679
_cell_angle_alpha 131.975309
_cell_angle_beta 149.290560
_cell_angle_gamma 66.712844
_cell_volume 552.682436
_symmetry_space_group_name_H-M "P -1"
_symmetry_group_IT_number 2
_symmetry_cell_setting 'triclinic'
loop_
_space_group_symop_operation_xyz
x,y,z
-x,-y,-z
loop_
_atom_site_type_symbol
_atom_site_label
_atom_site_fract_x
_atom_site_fract_y
_atom_site_fract_z
Si Si1 0.690036 0.470942 0.267075
Si Si2 0.615410 0.185343 0.625735
Si Si3 0.030091 0.054782 0.702091
Si Si4 0.526426 0.722921 0.693678
Si Si5 0.713678 0.558574 0.096526
Si Si6 0.277451 0.788464 0.638205
Si Si7 0.092335 0.000000 0.214288
O O1 0.711280 0.423081 0.136621
O O2 0.786276 0.367728 0.400141
O O3 0.771563 0.735873 0.489401
O O4 0.466316 0.384320 0.035036
O O5 0.484698 0.144605 0.357451
O O6 0.500000 0.000000 0.500000
O O7 0.798531 0.148839 0.760313
O O8 0.674459 0.412470 0.870779
O O9 0.910738 0.793078 0.420243
O O10 0.042577 0.085367 0.863135
O O11 0.891245 0.154530 0.557946
O O12 0.740222 0.844005 0.041447
O O13 0.500000 0.500000 0.500000
O O14 0.338319 0.668802 0.545453
O O15 0.500000 0.000000 0.000000
O O16 0.000000 0.000000 0.000000
#
# Coordination Sequence:
#
# PCOD9034399 Si02
#       7
#     2   2   2   2   2   2   2
#     4  10  22  44  74 104 149 193 245 300 376 433
#     4  12  24  45  77 109 149 190 248 308 374 427
#     4  11  26  52  75 110 150 197 257 298 373 457
#     4  12  30  50  74 112 154 196 245 314 374 444
#     4  10  22  45  77 106 143 198 249 309 363 441
#     4  12  26  48  79 107 152 203 239 304 382 446
#     4  11  24  46  75 110 146 195 250 313 364 437
#
# _framework density 25.331002000000002
#
# number of rings (size 3 to 8) (size 9 to 14) (size 15 to 20)
#    0.000    0.857    4.286    1.714    4.000    2.286 
#    2.571    2.143    0.000    0.000    0.000    0.000 
#    0.000    0.000    0.000    0.000    0.000    0.000 
#
# Total GULP energy -78426.050325 kJ/mol
# GULP energy per Si atom -5601.860738 kJ/mol
# Density = 2.527335 g / cm^3
# Si number density = 25.331002 Si / 1000 Ang^3
#
#
#
# Elastic Constant Matrix: (Units=GPa)
#
#
# Indices 1 2 3 4 5 6 
#
# 1 125.1308 45.7017 25.5267 -24.1694 -9.9370 -11.0829
# 2 45.7017 135.7158 44.2648 -35.7701 -0.5474 1.0067
# 3 25.5267 44.2648 108.0408 -21.8711 -4.2281 -9.7307
# 4 -24.1694 -35.7701 -21.8711 58.0387 5.8436 -7.0888
# 5 -9.9370 -0.5474 -4.2281 5.8436 46.7639 -7.4209
# 6 -11.0829 1.0067 -9.7307 -7.0888 -7.4209 39.3760
#
#
#
# Elastic Compliance Matrix: (Units=1/GPa)
#
#
# Indices 1 2 3 4 5 6 
#
# 1 0.010037 -0.002579 -0.000345 0.002681 0.002328 0.003727
# 2 -0.002579 0.010292 -0.002932 0.004156 -0.001407 -0.001231
# 3 -0.000345 -0.002932 0.011440 0.002672 0.001148 0.003502
# 4 0.002681 0.004156 0.002672 0.022662 -0.001151 0.005172
# 5 0.002328 -0.001407 0.001148 -0.001151 0.022917 0.005087
# 6 0.003727 -0.001231 0.003502 0.005172 0.005087 0.029232
#
#
# Mechanical properties :
#
#
# Convention : Reuss Voigt Hill
#
# Bulk Modulus (GPa) = 49.85988 66.65262 58.25625
# Shear Modulus (GPa) = 40.00735 45.72866 42.86801
#
# Velocity S-wave (km/s) = 3.97846 4.25343 4.11824
# Velocity P-wave (km/s) = 6.38985 7.10577 6.75730
#
# Compressibility (1/GPa) = 0.02005621
#
# Stress axis : x y z
#
# Youngs Moduli (GPa) = 99.63389 97.16524 87.41299
#
# Poissons Ratio (x) = 0.25057 0.03019
# Poissons Ratio (y) = 0.25694 0.25629
# Poissons Ratio (z) = 0.03441 0.28488
#
# Static dielectric constant tensor:
#      x y z
#    x 1.906040 0.098330 -0.061510 
#    y 0.098330 2.085250 -0.047490 
#    z -0.061510 -0.047490 2.119270 
# 
# From -- ./inp_files/281099.got.cif
#   From: 2010.05.17/outbox.cif.g08.bks.cpg/sg2_141_cif.got.tgz:281099.got - 2010.06.03 11:33:40.
