data_PCOD9034297
_publ_section_title
;
Structure prediction by ZEFSAII (Michael W. Deem and Ramdas Pophale) SiO2 
 PCOD9034297
Probable space group: P -1
;
_chemical_formula_sum "Si O2"
_cell_formula_units_Z 15
_cell_length_a 8.649546
_cell_length_b 8.483270
_cell_length_c 12.159796
_cell_angle_alpha 55.201037
_cell_angle_beta 102.060300
_cell_angle_gamma 124.704481
_cell_volume 593.374156
_symmetry_space_group_name_H-M "P -1"
_symmetry_group_IT_number 2
_symmetry_cell_setting 'triclinic'
loop_
_space_group_symop_operation_xyz
x,y,z
-x,-y,-z
loop_
_atom_site_type_symbol
_atom_site_label
_atom_site_fract_x
_atom_site_fract_y
_atom_site_fract_z
Si Si1 0.744543 0.642133 0.780593
Si Si2 0.774941 0.045221 0.745584
Si Si3 0.950130 0.745796 0.563884
Si Si4 0.301760 0.758578 0.539996
Si Si5 0.329304 0.376917 0.612941
Si Si6 0.451916 0.820642 0.966574
Si Si7 0.000000 0.000000 0.000000
Si Si8 0.139561 0.873684 0.872098
O O1 0.729203 0.855195 0.720460
O O2 0.776513 0.586586 0.684856
O O3 0.570824 0.410519 0.901522
O O4 0.949850 0.739891 0.826123
O O5 0.597445 0.933054 0.845607
O O6 0.770303 0.235943 0.597202
O O7 0.938865 0.074651 0.840742
O O8 0.866390 0.705362 0.446569
O O9 0.130059 0.725743 0.602866
O O10 0.000000 0.000000 0.500000
O O11 0.346264 0.561824 0.628559
O O12 0.500000 0.000000 0.500000
O O13 0.500000 0.500000 0.500000
O O14 0.289888 0.139290 0.748718
O O15 0.245165 0.745248 0.926160
O O16 0.500000 0.000000 0.000000
O O17 0.086855 0.886949 0.984399
#
# Coordination Sequence:
#
# PCOD9034297 Si02
#       8
#     2   2   2   2   2   2   1   2
#     4  11  26  45  73  99 145 189 234 300 370 437
#     4  11  24  47  73 103 150 186 244 299 367 439
#     4  12  23  47  73 105 147 191 247 307 373 444
#     4  12  28  48  75 112 148 197 249 305 375 447
#     4  12  27  45  75 107 147 195 248 306 374 438
#     4  12  26  44  72 106 137 186 248 297 358 432
#     4  10  22  44  72  98 144 186 236 296 364 418
#     4  11  24  46  67 102 144 186 238 298 363 432
#
# _framework density 25.279159
#
# number of rings (size 3 to 8) (size 9 to 14) (size 15 to 20)
#    0.000    0.533    4.000    3.600    5.600    1.067 
#    4.800    0.000    0.000    0.000    0.000    0.000 
#    0.000    0.000    0.000    0.000    0.000    0.000 
#
# Total GULP energy -83676.307001 kJ/mol
# GULP energy per Si atom -5578.420467 kJ/mol
# Density = 2.522162 g / cm^3
# Si number density = 25.279159 Si / 1000 Ang^3
#
#
#
# Elastic Constant Matrix: (Units=GPa)
#
#
# Indices 1 2 3 4 5 6 
#
# 1 104.8298 1.4339 4.7638 7.6036 -4.5475 -16.8266
# 2 1.4339 84.5207 21.0743 -6.8042 8.6763 0.7182
# 3 4.7638 21.0743 103.8252 3.0022 -2.1598 -10.1486
# 4 7.6036 -6.8042 3.0022 49.2447 -5.6938 12.3186
# 5 -4.5475 8.6763 -2.1598 -5.6938 49.4376 10.2290
# 6 -16.8266 0.7182 -10.1486 12.3186 10.2290 35.2317
#
#
#
# Elastic Compliance Matrix: (Units=1/GPa)
#
#
# Indices 1 2 3 4 5 6 
#
# 1 0.010836 -0.000544 0.000358 -0.003532 -0.000690 0.006725
# 2 -0.000544 0.012937 -0.002859 0.002227 -0.001861 -0.001586
# 3 0.000358 -0.002859 0.010653 -0.002127 -0.000086 0.004067
# 4 -0.003532 0.002227 -0.002127 0.024928 0.004629 -0.012405
# 5 -0.000690 -0.001861 -0.000086 0.004629 0.022789 -0.008552
# 6 0.006725 -0.001586 0.004067 -0.012405 -0.008552 0.039619
#
#
# Mechanical properties :
#
#
# Convention : Reuss Voigt Hill
#
# Bulk Modulus (GPa) = 35.28966 38.63554 36.96260
# Shear Modulus (GPa) = 36.41718 44.50971 40.46344
#
# Velocity S-wave (km/s) = 3.79964 4.20065 4.00517
# Velocity P-wave (km/s) = 5.76541 6.23250 6.00350
#
# Compressibility (1/GPa) = 0.02833691
#
# Stress axis : x y z
#
# Youngs Moduli (GPa) = 92.28363 77.29554 93.87287
#
# Poissons Ratio (x) = 0.04203 -0.03364
# Poissons Ratio (y) = 0.05019 0.26840
# Poissons Ratio (z) = -0.03307 0.22100
#
# Static dielectric constant tensor:
#      x y z
#    x 1.985490 0.015300 -0.020100 
#    y 0.015300 1.944000 -0.035600 
#    z -0.020100 -0.035600 1.999590 
# 
# From -- ./inp_files/190418.got.cif
#   From: 2010.05.17/outbox.cif.g08.bks.cpg/sg2_96_cif.got.tgz:190418.got - 2010.06.03 11:33:40.
