data_PCOD9034753
_publ_section_title
;
Structure prediction by ZEFSAII (Michael W. Deem and Ramdas Pophale) SiO2 
 PCOD9034753
Probable space group: P -1
;
_chemical_formula_sum "Si O2"
_cell_formula_units_Z 14
_cell_length_a 7.923456
_cell_length_b 5.427612
_cell_length_c 13.801714
_cell_angle_alpha 90.271534
_cell_angle_beta 110.067986
_cell_angle_gamma 84.063255
_cell_volume 554.221611
_symmetry_space_group_name_H-M "P -1"
_symmetry_group_IT_number 2
_symmetry_cell_setting 'triclinic'
loop_
_space_group_symop_operation_xyz
x,y,z
-x,-y,-z
loop_
_atom_site_type_symbol
_atom_site_label
_atom_site_fract_x
_atom_site_fract_y
_atom_site_fract_z
Si Si1 0.429273 0.079609 0.591027
Si Si2 0.398017 0.401104 0.888168
Si Si3 0.580930 0.083784 0.212325
Si Si4 0.973375 0.043579 0.252795
Si Si5 0.994262 0.438602 0.112389
Si Si6 0.111754 0.332890 0.445828
Si Si7 0.716879 0.400691 0.683612
O O1 0.216544 0.117669 0.530031
O O2 0.515293 0.324068 0.645499
O O3 0.500000 0.000000 0.500000
O O4 0.485565 0.900195 0.690761
O O5 0.413510 0.637543 0.821985
O O6 0.187432 0.405648 0.880818
O O7 0.494909 0.133123 0.868659
O O8 0.500000 0.500000 0.000000
O O9 0.787145 0.954816 0.249756
O O10 0.967742 0.160240 0.143928
O O11 0.990369 0.259528 0.334094
O O12 0.150562 0.856468 0.300860
O O13 0.181066 0.488428 0.204179
O O14 0.000000 0.500000 0.000000
O O15 0.259763 0.460097 0.412766
O O16 0.000000 0.500000 0.500000
#
# Coordination Sequence:
#
# PCOD9034753 Si02
#       7
#     2   2   2   2   2   2   2
#     4  12  27  43  67 107 144 190 238 301 361 423
#     4  11  25  48  73 103 140 190 246 297 364 434
#     4  11  26  46  72 103 145 189 241 299 358 440
#     4  10  22  45  67  99 136 184 239 286 357 439
#     4  10  24  43  68 100 135 182 232 302 365 422
#     4  11  25  42  72  97 137 192 236 290 357 433
#     4  11  23  44  65  97 140 174 241 291 358 428
#
# _framework density 25.260653999999999
#
# number of rings (size 3 to 8) (size 9 to 14) (size 15 to 20)
#    0.000    1.143    2.857    1.714    8.000    4.000 
#    0.000    0.000    0.000    0.000    0.000    0.000 
#    0.000    0.000    0.000    0.000    0.000    0.000 
#
# Total GULP energy -78139.876294 kJ/mol
# GULP energy per Si atom -5581.419735 kJ/mol
# Density = 2.520316 g / cm^3
# Si number density = 25.260654 Si / 1000 Ang^3
#
#
#
# Elastic Constant Matrix: (Units=GPa)
#
#
# Indices 1 2 3 4 5 6 
#
# 1 42.6984 -7.7335 27.6678 5.8041 7.7549 0.8350
# 2 -7.7335 45.0106 24.0724 4.9975 -22.5069 -3.6807
# 3 27.6678 24.0724 164.7019 -12.3838 -21.9246 9.0846
# 4 5.8041 4.9975 -12.3838 31.3483 3.5000 -3.7707
# 5 7.7549 -22.5069 -21.9246 3.5000 42.5777 -2.8291
# 6 0.8350 -3.6807 9.0846 -3.7707 -2.8291 39.2247
#
#
#
# Elastic Compliance Matrix: (Units=1/GPa)
#
#
# Indices 1 2 3 4 5 6 
#
# 1 0.032482 0.008829 -0.008151 -0.010043 -0.004572 0.000730
# 2 0.008829 0.036323 -0.005761 -0.010910 0.015832 0.004648
# 3 -0.008151 -0.005761 0.009139 0.005538 0.002573 -0.001766
# 4 -0.010043 -0.010910 0.005538 0.038305 -0.004149 0.001290
# 5 -0.004572 0.015832 0.002573 -0.004149 0.034558 0.003081
# 6 0.000730 0.004648 -0.001766 0.001290 0.003081 0.026670
#
#
# Mechanical properties :
#
#
# Convention : Reuss Voigt Hill
#
# Bulk Modulus (GPa) = 14.75426 37.82493 26.28960
# Shear Modulus (GPa) = 23.78275 36.52374 30.15325
#
# Velocity S-wave (km/s) = 3.07171 3.80659 3.45872
# Velocity P-wave (km/s) = 4.29348 5.85889 5.13617
#
# Compressibility (1/GPa) = 0.06777702
#
# Stress axis : x y z
#
# Youngs Moduli (GPa) = 30.78610 27.53099 109.41941
#
# Poissons Ratio (x) = -0.24306 0.89188
# Poissons Ratio (y) = -0.27180 0.63038
# Poissons Ratio (z) = 0.25094 0.15861
#
# Static dielectric constant tensor:
#      x y z
#    x 2.067830 -0.022100 0.040100 
#    y -0.022100 2.458220 -0.107170 
#    z 0.040100 -0.107170 2.013720 
# 
# From -- ./inp_files/47827.got.cif
#   From: 2010.05.17/outbox.cif.g08.bks.cpg/sg2_24_cif.got.tgz:47827.got - 2010.06.03 11:33:40.
