data_PCOD9034471
_publ_section_title
;
Structure prediction by ZEFSAII (Michael W. Deem and Ramdas Pophale) SiO2 
 PCOD9034471
Probable space group: P -1
;
_chemical_formula_sum "Si O2"
_cell_formula_units_Z 14
_cell_length_a 5.064929
_cell_length_b 18.105579
_cell_length_c 15.286949
_cell_angle_alpha 151.362377
_cell_angle_beta 113.969842
_cell_angle_gamma 76.143515
_cell_volume 591.586163
_symmetry_space_group_name_H-M "P -1"
_symmetry_group_IT_number 2
_symmetry_cell_setting 'triclinic'
loop_
_space_group_symop_operation_xyz
x,y,z
-x,-y,-z
loop_
_atom_site_type_symbol
_atom_site_label
_atom_site_fract_x
_atom_site_fract_y
_atom_site_fract_z
Si Si1 0.184507 0.435735 0.531451
Si Si2 0.422176 0.052255 0.244696
Si Si3 0.434244 0.757096 0.707255
Si Si4 0.819669 0.392340 0.116973
Si Si5 0.315966 0.380998 0.924891
Si Si6 0.808524 0.842451 0.021959
Si Si7 0.847224 0.350517 0.700604
O O1 0.460899 0.385882 0.474646
O O2 0.271159 0.562840 0.752575
O O3 0.000000 0.500000 0.500000
O O4 0.923970 0.283966 0.374375
O O5 0.437486 0.096710 0.189636
O O6 0.570642 0.214426 0.485962
O O7 0.096932 0.966696 0.147136
O O8 0.635683 0.933482 0.157199
O O9 0.411354 0.224082 0.158043
O O10 0.956598 0.562978 0.264889
O O11 0.540865 0.302937 0.925691
O O12 0.057625 0.290730 0.054277
O O13 0.033452 0.282766 0.728866
O O14 0.500000 0.500000 0.000000
O O15 0.226414 0.499280 0.105323
#
# Coordination Sequence:
#
# PCOD9034471 Si02
#       7
#     2   2   2   2   2   2   2
#     4  12  24  39  71 103 136 174 238 284 328 382
#     4  12  26  45  66  98 136 186 225 275 333 410
#     4  12  24  44  65  94 135 192 232 274 325 405
#     4  11  24  42  69 100 137 175 225 286 338 393
#     4   9  21  41  75 103 125 167 227 289 335 401
#     4  12  28  42  65  98 144 180 224 275 344 395
#     4  10  22  44  75  98 130 172 235 274 340 405
#
# _framework density 23.665194
#
# number of rings (size 3 to 8) (size 9 to 14) (size 15 to 20)
#    0.000    0.857    2.857    3.857    6.000    0.000 
#    0.000    1.429    0.000    0.000    0.000    0.000 
#    0.000    0.000    0.000    0.000    0.000    0.000 
#
# Total GULP energy -78404.322788 kJ/mol
# GULP energy per Si atom -5600.308771 kJ/mol
# Density = 2.361133 g / cm^3
# Si number density = 23.665194 Si / 1000 Ang^3
#
#
#
# Elastic Constant Matrix: (Units=GPa)
#
#
# Indices 1 2 3 4 5 6 
#
# 1 77.3806 7.6059 10.0334 -4.8852 10.8831 1.0202
# 2 7.6059 141.0818 33.4720 -17.5596 6.1823 -22.2367
# 3 10.0334 33.4720 57.5986 -1.8325 0.0152 -4.4616
# 4 -4.8852 -17.5596 -1.8325 35.5313 -4.5727 -2.8879
# 5 10.8831 6.1823 0.0152 -4.5727 44.9690 -3.4103
# 6 1.0202 -22.2367 -4.4616 -2.8879 -3.4103 39.0085
#
#
#
# Elastic Compliance Matrix: (Units=1/GPa)
#
#
# Indices 1 2 3 4 5 6 
#
# 1 0.013789 0.000006 -0.002427 0.001286 -0.003269 -0.000826
# 2 0.000006 0.009772 -0.005111 0.004942 -0.000438 0.005313
# 3 -0.002427 -0.005111 0.020660 -0.001698 0.001071 -0.000519
# 4 0.001286 0.004942 -0.001698 0.031428 0.002596 0.005143
# 5 -0.003269 -0.000438 0.001071 0.002596 0.023520 0.002207
# 6 -0.000826 0.005313 -0.000519 0.005143 0.002207 0.029200
#
#
# Mechanical properties :
#
#
# Convention : Reuss Voigt Hill
#
# Bulk Modulus (GPa) = 34.29850 42.03153 38.16501
# Shear Modulus (GPa) = 32.64706 38.89841 35.77273
#
# Velocity S-wave (km/s) = 3.71824 4.05865 3.89217
# Velocity P-wave (km/s) = 5.74095 6.30579 6.02999
#
# Compressibility (1/GPa) = 0.02915580
#
# Stress axis : x y z
#
# Youngs Moduli (GPa) = 72.52079 102.33179 48.40287
#
# Poissons Ratio (x) = -0.00058 0.11750
# Poissons Ratio (y) = -0.00041 0.24738
# Poissons Ratio (z) = 0.17604 0.52301
#
# Static dielectric constant tensor:
#      x y z
#    x 1.985090 0.030530 0.014450 
#    y 0.030530 1.965330 0.033240 
#    z 0.014450 0.033240 1.895580 
# 
# From -- ./inp_files/551038.got.cif
#   From: 2010.05.17/outbox.cif.g08.bks.cpg/sg2_276_cif.got.tgz:551038.got - 2010.06.03 11:33:40.
