data_PCOD9034449
_publ_section_title
;
Structure prediction by ZEFSAII (Michael W. Deem and Ramdas Pophale) SiO2 
 PCOD9034449
Probable space group: P -1
;
_chemical_formula_sum "Si O2"
_cell_formula_units_Z 16
_cell_length_a 18.621902
_cell_length_b 11.535310
_cell_length_c 16.336924
_cell_angle_alpha 29.770796
_cell_angle_beta 23.025138
_cell_angle_gamma 40.187153
_cell_volume 670.437694
_symmetry_space_group_name_H-M "P -1"
_symmetry_group_IT_number 2
_symmetry_cell_setting 'triclinic'
loop_
_space_group_symop_operation_xyz
x,y,z
-x,-y,-z
loop_
_atom_site_type_symbol
_atom_site_label
_atom_site_fract_x
_atom_site_fract_y
_atom_site_fract_z
Si Si1 0.119436 0.961240 0.734879
Si Si2 0.960963 0.639874 0.542753
Si Si3 0.890754 0.769738 0.711264
Si Si4 0.503994 0.684967 0.260145
Si Si5 0.484327 0.830726 0.365769
Si Si6 0.312988 0.714714 0.034773
Si Si7 0.374312 0.172545 0.479617
Si Si8 0.175392 0.442308 0.657673
O O1 0.270635 0.849973 0.593606
O O2 0.100376 0.203677 0.562199
O O3 0.205900 0.015233 0.701735
O O4 0.922429 0.785850 0.048542
O O5 0.912618 0.782167 0.584042
O O6 0.833733 0.380608 0.825853
O O7 0.177585 0.629148 0.307232
O O8 0.996306 0.550174 0.752348
O O9 0.680047 0.727877 0.989539
O O10 0.000000 0.000000 0.500000
O O11 0.528266 0.859539 0.205549
O O12 0.491066 0.424971 0.472316
O O13 0.311327 0.653140 0.432527
O O14 0.605445 0.022592 0.179705
O O15 0.500440 0.668714 0.819555
O O16 0.293859 0.337480 0.527948
O O17 0.500000 0.000000 0.500000
#
# Coordination Sequence:
#
# PCOD9034449 Si02
#       8
#     2   2   2   2   2   2   2   2
#     4  11  24  44  72 106 139 189 243 293 373 429
#     4  11  25  43  70 103 150 185 237 301 358 440
#     4  12  29  50  71 108 151 190 245 302 359 435
#     4  11  24  48  72 106 141 190 244 301 356 427
#     4  10  22  44  75 103 142 181 246 304 352 430
#     4  10  23  43  68  99 147 183 226 296 371 409
#     4  11  24  42  74 109 147 183 245 307 354 433
#     4  12  26  45  79 105 141 196 242 294 369 429
#
# _framework density 23.865006999999999
#
# number of rings (size 3 to 8) (size 9 to 14) (size 15 to 20)
#    0.000    1.000    1.250    4.875    7.000    4.000 
#    6.750    0.000    0.000    0.000    0.000    0.000 
#    0.000    0.000    0.000    0.000    0.000    0.000 
#
# Total GULP energy -89320.737210 kJ/mol
# GULP energy per Si atom -5582.546076 kJ/mol
# Density = 2.381069 g / cm^3
# Si number density = 23.865007 Si / 1000 Ang^3
#
#
#
# Elastic Constant Matrix: (Units=GPa)
#
#
# Indices 1 2 3 4 5 6 
#
# 1 76.6514 43.1712 27.4913 -18.4935 -3.1179 0.2375
# 2 43.1712 73.7980 15.4749 19.3573 -3.7276 30.3220
# 3 27.4913 15.4749 134.2548 19.4356 -17.0440 18.5293
# 4 -18.4935 19.3573 19.4356 3.5995 4.5889 -22.5071
# 5 -3.1179 -3.7276 -17.0440 4.5889 28.8393 4.3528
# 6 0.2375 30.3220 18.5293 -22.5071 4.3528 39.3668
#
#
#
# Elastic Compliance Matrix: (Units=1/GPa)
#
#
# Indices 1 2 3 4 5 6 
#
# 1 0.009988 0.000256 0.001218 -0.011171 0.004780 -0.007746
# 2 0.000256 0.008311 -0.004364 0.014797 -0.004528 0.004612
# 3 0.001218 -0.004364 0.006971 0.004832 0.002533 0.002555
# 4 -0.011171 0.014797 0.004832 -0.006021 0.007212 -0.017845
# 5 0.004780 -0.004528 0.002533 0.007212 0.034568 0.002567
# 6 -0.007746 0.004612 0.002555 -0.017845 0.002567 0.010208
#
#
# Mechanical properties :
#
#
# Convention : Reuss Voigt Hill
#
# Bulk Modulus (GPa) = 51.30472 50.77544 51.04008
# Shear Modulus (GPa) = 65.53012 27.59893 46.56453
#
# Velocity S-wave (km/s) = 5.24579 3.40437 4.42199
# Velocity P-wave (km/s) = 7.63122 6.06426 6.89242
#
# Compressibility (1/GPa) = 0.01949138
#
# Stress axis : x y z
#
# Youngs Moduli (GPa) = 100.12053 120.32780 143.44125
#
# Poissons Ratio (x) = -0.03082 -0.17477
# Poissons Ratio (y) = -0.02565 0.62597
# Poissons Ratio (z) = -0.12199 0.52510
#
# Static dielectric constant tensor:
#      x y z
#    x 2.023290 -0.105180 0.039500 
#    y -0.105180 1.948970 0.000260 
#    z 0.039500 0.000260 1.931100 
# 
# From -- ./inp_files/577915.got.cif
#   From: 2010.05.17/outbox.cif.g08.bks.cpg/sg2_289_cif.got.tgz:577915.got - 2010.06.03 11:33:40.
