data_PCOD9034790
_publ_section_title
;
Structure prediction by ZEFSAII (Michael W. Deem and Ramdas Pophale) SiO2 
 PCOD9034790
Probable space group: P -1
;
_chemical_formula_sum "Si O2"
_cell_formula_units_Z 16
_cell_length_a 8.358149
_cell_length_b 22.040736
_cell_length_c 7.954810
_cell_angle_alpha 34.723303
_cell_angle_beta 60.155760
_cell_angle_gamma 54.051451
_cell_volume 675.387915
_symmetry_space_group_name_H-M "P -1"
_symmetry_group_IT_number 2
_symmetry_cell_setting 'triclinic'
loop_
_space_group_symop_operation_xyz
x,y,z
-x,-y,-z
loop_
_atom_site_type_symbol
_atom_site_label
_atom_site_fract_x
_atom_site_fract_y
_atom_site_fract_z
Si Si1 0.778482 0.952323 0.382584
Si Si2 0.205607 0.823693 0.306869
Si Si3 0.003902 0.453843 0.413471
Si Si4 0.414618 0.401646 0.729657
Si Si5 0.052423 0.242060 0.681170
Si Si6 0.426364 0.192536 0.389801
Si Si7 0.554546 0.605790 0.671865
Si Si8 0.206703 0.013071 0.323762
O O1 0.669101 0.876619 0.525726
O O2 0.729571 0.960389 0.585825
O O3 0.014630 0.887670 0.376438
O O4 0.732440 0.077365 0.038313
O O5 0.385044 0.726849 0.527268
O O6 0.116786 0.761755 0.350771
O O7 0.974386 0.334793 0.659128
O O8 0.224544 0.428898 0.295965
O O9 0.000000 0.500000 0.500000
O O10 0.817245 0.548828 0.211327
O O11 0.500000 0.500000 0.500000
O O12 0.430196 0.385655 0.557617
O O13 0.502074 0.281784 0.051016
O O14 0.238114 0.256629 0.457118
O O15 0.153110 0.116946 0.989418
O O16 0.617580 0.096387 0.588600
O O17 0.500000 0.500000 0.000000
O O18 0.000000 0.000000 0.500000
#
# Coordination Sequence:
#
# PCOD9034790 Si02
#       8
#     2   2   2   2   2   2   2   2
#     4  10  23  42  71 100 144 184 225 285 348 427
#     4  10  22  45  68 104 139 185 228 282 357 416
#     4  10  26  45  69 101 136 181 238 290 350 411
#     4  11  26  48  69  96 142 185 240 287 355 414
#     4  11  25  45  73  99 145 183 235 289 345 432
#     4  11  27  45  71 101 141 191 230 288 354 425
#     4  11  26  43  71 100 135 178 235 295 351 416
#     4  12  25  42  70 108 141 179 234 286 354 411
#
# _framework density 23.690087999999999
#
# number of rings (size 3 to 8) (size 9 to 14) (size 15 to 20)
#    0.000    1.250    1.250    2.250   12.250    2.500 
#    0.000    0.000    0.000    0.000    0.000    0.000 
#    0.000    0.000    0.000    0.000    0.000    0.000 
#
# Total GULP energy -89469.217322 kJ/mol
# GULP energy per Si atom -5591.826083 kJ/mol
# Density = 2.363617 g / cm^3
# Si number density = 23.690088 Si / 1000 Ang^3
#
#
#
# Elastic Constant Matrix: (Units=GPa)
#
#
# Indices 1 2 3 4 5 6 
#
# 1 60.9671 50.4312 12.5753 -11.0819 -12.7759 -14.0759
# 2 50.4312 96.7329 26.4546 -20.4801 -2.2988 0.2838
# 3 12.5753 26.4546 109.1579 -8.0328 -1.9893 -19.6652
# 4 -11.0819 -20.4801 -8.0328 38.0744 -6.9753 4.0587
# 5 -12.7759 -2.2988 -1.9893 -6.9753 36.0179 -15.9833
# 6 -14.0759 0.2838 -19.6652 4.0587 -15.9833 46.0548
#
#
#
# Elastic Compliance Matrix: (Units=1/GPa)
#
#
# Indices 1 2 3 4 5 6 
#
# 1 0.051088 -0.026918 0.006698 0.004300 0.030390 0.028808
# 2 -0.026918 0.026699 -0.006309 0.004265 -0.014720 -0.016570
# 3 0.006698 -0.006309 0.011858 0.001347 0.007103 0.009496
# 4 0.004300 0.004265 0.001347 0.031499 0.008945 0.002191
# 5 0.030390 -0.014720 0.007103 0.008945 0.053058 0.030037
# 6 0.028808 -0.016570 0.009496 0.002191 0.030037 0.044906
#
#
# Mechanical properties :
#
#
# Convention : Reuss Voigt Hill
#
# Bulk Modulus (GPa) = 27.33234 49.53113 38.43174
# Shear Modulus (GPa) = 17.58326 35.85588 26.71957
#
# Velocity S-wave (km/s) = 2.72733 3.89464 3.36204
# Velocity P-wave (km/s) = 4.63468 6.41698 5.59723
#
# Compressibility (1/GPa) = 0.03658669
#
# Stress axis : x y z
#
# Youngs Moduli (GPa) = 19.57392 37.45509 84.33449
#
# Poissons Ratio (x) = 1.00823 -0.56490
# Poissons Ratio (y) = 0.52690 0.53206
# Poissons Ratio (z) = -0.13111 0.23630
#
# Static dielectric constant tensor:
#      x y z
#    x 1.942450 0.052290 -0.038720 
#    y 0.052290 1.900600 -0.011400 
#    z -0.038720 -0.011400 1.826530 
# 
# From -- ./inp_files/225827.got.cif
#   From: 2010.05.17/outbox.cif.g08.bks.cpg/sg2_113_cif.got.tgz:225827.got - 2010.06.03 11:33:40.
