data_PCOD9034334
_publ_section_title
;
Structure prediction by ZEFSAII (Michael W. Deem and Ramdas Pophale) SiO2 
 PCOD9034334
Probable space group: P -1
;
_chemical_formula_sum "Si O2"
_cell_formula_units_Z 15
_cell_length_a 8.433266
_cell_length_b 10.640282
_cell_length_c 12.393521
_cell_angle_alpha 117.762563
_cell_angle_beta 60.338888
_cell_angle_gamma 73.409570
_cell_volume 633.959143
_symmetry_space_group_name_H-M "P -1"
_symmetry_group_IT_number 2
_symmetry_cell_setting 'triclinic'
loop_
_space_group_symop_operation_xyz
x,y,z
-x,-y,-z
loop_
_atom_site_type_symbol
_atom_site_label
_atom_site_fract_x
_atom_site_fract_y
_atom_site_fract_z
Si Si1 0.145541 0.564251 0.006667
Si Si2 0.757042 0.222936 0.372963
Si Si3 0.557121 0.210242 0.864332
Si Si4 0.797401 0.387281 0.230852
Si Si5 0.000000 0.000000 0.500000
Si Si6 0.844441 0.791086 0.640416
Si Si7 0.244683 0.049248 0.603745
Si Si8 0.850413 0.576458 0.747909
O O1 0.975040 0.726697 0.216703
O O2 0.394637 0.377142 0.898115
O O3 0.177333 0.636522 0.915218
O O4 0.000000 0.500000 0.000000
O O5 0.821042 0.233288 0.233416
O O6 0.478517 0.414714 0.571337
O O7 0.943888 0.218303 0.382297
O O8 0.765291 0.055416 0.335089
O O9 0.829414 0.122263 0.712591
O O10 0.609747 0.012241 0.781150
O O11 0.404789 0.330078 0.071572
O O12 0.992048 0.401005 0.218305
O O13 0.776379 0.028429 0.530421
O O14 0.789490 0.698654 0.709482
O O15 0.977679 0.644363 0.436190
O O16 0.500000 0.000000 0.500000
#
# Coordination Sequence:
#
# PCOD9034334 Si02
#       8
#     2   2   2   2   1   2   2   2
#     4  12  26  44  70 113 149 199 260 315 387 473
#     4  10  22  47  72 102 146 192 252 318 381 460
#     4  12  25  43  71 104 154 196 253 323 379 458
#     4  10  22  44  73 104 146 192 252 315 380 465
#     4  12  28  48  72 114 152 202 256 322 382 462
#     4  10  23  46  73 109 151 195 252 317 387 463
#     4  12  28  49  78 109 155 205 259 325 399 461
#     4  10  23  44  77 108 145 204 253 311 391 458
#
# _framework density 23.660830000000001
#
# number of rings (size 3 to 8) (size 9 to 14) (size 15 to 20)
#    0.000    1.067    2.667    2.800    1.867    3.200 
#    0.000    0.667    0.000    0.000    0.000    0.000 
#    0.000    0.000    0.000    0.000    0.000    0.000 
#
# Total GULP energy -83611.167816 kJ/mol
# GULP energy per Si atom -5574.077854 kJ/mol
# Density = 2.360698 g / cm^3
# Si number density = 23.660830 Si / 1000 Ang^3
#
#
#
# Elastic Constant Matrix: (Units=GPa)
#
#
# Indices 1 2 3 4 5 6 
#
# 1 63.7154 40.3150 32.4169 -12.5711 -3.8150 1.5799
# 2 40.3150 140.1101 51.4488 -3.1514 11.6372 -2.8098
# 3 32.4169 51.4488 160.0232 -6.1304 5.6437 -4.2258
# 4 -12.5711 -3.1514 -6.1304 47.2400 6.5399 0.4380
# 5 -3.8150 11.6372 5.6437 6.5399 30.2180 -0.7145
# 6 1.5799 -2.8098 -4.2258 0.4380 -0.7145 25.8876
#
#
#
# Elastic Compliance Matrix: (Units=1/GPa)
#
#
# Indices 1 2 3 4 5 6 
#
# 1 0.021802 -0.005607 -0.002658 0.004498 0.004379 -0.002328
# 2 -0.005607 0.009772 -0.001860 -0.000539 -0.003983 0.000998
# 3 -0.002658 -0.001860 0.007463 0.000271 -0.001045 0.001145
# 4 0.004498 -0.000539 0.000271 0.022962 -0.004263 -0.000795
# 5 0.004379 -0.003983 -0.001045 -0.004263 0.036302 0.000204
# 6 -0.002328 0.000998 0.001145 -0.000795 0.000204 0.039085
#
#
# Mechanical properties :
#
#
# Convention : Reuss Voigt Hill
#
# Bulk Modulus (GPa) = 53.22319 68.02336 60.62328
# Shear Modulus (GPa) = 30.50683 36.64699 33.57691
#
# Velocity S-wave (km/s) = 3.59463 3.93981 3.77117
# Velocity P-wave (km/s) = 6.30647 7.03618 6.68130
#
# Compressibility (1/GPa) = 0.01878880
#
# Stress axis : x y z
#
# Youngs Moduli (GPa) = 45.86768 102.33126 133.99625
#
# Poissons Ratio (x) = 0.57373 0.35611
# Poissons Ratio (y) = 0.25716 0.24922
# Poissons Ratio (z) = 0.12190 0.19032
#
# Static dielectric constant tensor:
#      x y z
#    x 1.742670 0.148150 -0.091800 
#    y 0.148150 1.878960 0.023760 
#    z -0.091800 0.023760 1.752430 
# 
# From -- ./inp_files/425913.got.cif
#   From: 2010.05.17/outbox.cif.g08.bks.cpg/sg2_213_cif.got.tgz:425913.got - 2010.06.03 11:33:40.
