data_PCOD9034901
_publ_section_title
;
Structure prediction by ZEFSAII (Michael W. Deem and Ramdas Pophale) SiO2 
 PCOD9034901
Probable space group: P -1
;
_chemical_formula_sum "Si O2"
_cell_formula_units_Z 16
_cell_length_a 11.559281
_cell_length_b 18.134829
_cell_length_c 23.630864
_cell_angle_alpha 159.081704
_cell_angle_beta 28.025110
_cell_angle_gamma 153.799814
_cell_volume 748.925039
_symmetry_space_group_name_H-M "P -1"
_symmetry_group_IT_number 2
_symmetry_cell_setting 'triclinic'
loop_
_space_group_symop_operation_xyz
x,y,z
-x,-y,-z
loop_
_atom_site_type_symbol
_atom_site_label
_atom_site_fract_x
_atom_site_fract_y
_atom_site_fract_z
Si Si1 0.703208 0.456591 0.045270
Si Si2 0.340610 0.224594 0.864766
Si Si3 0.776036 0.472472 0.350202
Si Si4 0.891274 0.764890 0.912892
Si Si5 0.494566 0.224572 0.189774
Si Si6 0.754238 0.043302 0.529784
Si Si7 0.110202 0.050606 0.715188
Si Si8 0.215263 0.411938 0.770975
O O1 0.415235 0.387796 0.089012
O O2 0.669297 0.435481 0.112313
O O3 0.906319 0.725008 0.141632
O O4 0.890102 0.342054 0.858196
O O5 0.538150 0.102607 0.698610
O O6 0.229790 0.140319 0.789635
O O7 0.500000 0.500000 0.000000
O O8 0.130753 0.160441 0.960115
O O9 0.500000 0.500000 0.500000
O O10 0.690726 0.291654 0.206825
O O11 0.927731 0.380540 0.265225
O O12 0.978764 0.718654 0.415004
O O13 0.000000 0.000000 0.000000
O O14 0.616644 0.435537 0.244617
O O15 0.185328 0.157371 0.296077
O O16 0.500000 0.000000 0.000000
O O17 0.719970 0.998502 0.443811
O O18 0.760034 0.822508 0.397347
#
# Coordination Sequence:
#
# PCOD9034901 Si02
#       8
#     2   2   2   2   2   2   2   2
#     4  10  22  45  69 102 147 191 247 291 370 429
#     4  12  24  46  73 103 140 192 249 296 366 437
#     4  12  27  48  72 108 149 190 241 303 374 432
#     4  12  29  44  73 107 147 191 243 310 365 433
#     4  12  25  42  74 106 146 190 245 296 365 442
#     4  11  25  47  72 103 146 195 244 300 364 439
#     4  11  22  44  73 101 142 195 240 297 362 442
#     4  10  25  42  72 109 143 196 241 304 359 437
#
# _framework density 21.363952999999999
#
# number of rings (size 3 to 8) (size 9 to 14) (size 15 to 20)
#    0.000    0.750    5.000    1.125    7.000    2.500 
#    0.000    0.625    0.000    0.000    0.000    0.000 
#    0.000    0.000    0.000    0.000    0.000    0.000 
#
# Total GULP energy -89238.220938 kJ/mol
# GULP energy per Si atom -5577.388809 kJ/mol
# Density = 2.131533 g / cm^3
# Si number density = 21.363953 Si / 1000 Ang^3
#
#
#
# Elastic Constant Matrix: (Units=GPa)
#
#
# Indices 1 2 3 4 5 6 
#
# 1 108.8228 42.1900 43.3098 2.5313 -12.0895 14.1605
# 2 42.1900 98.5681 45.6354 10.5759 -29.9266 -11.2637
# 3 43.3098 45.6354 141.7593 -3.4649 -23.2583 1.8092
# 4 2.5313 10.5759 -3.4649 34.3926 4.1087 5.0880
# 5 -12.0895 -29.9266 -23.2583 4.1087 40.0076 4.6076
# 6 14.1605 -11.2637 1.8092 5.0880 4.6076 28.0697
#
#
#
# Elastic Compliance Matrix: (Units=1/GPa)
#
#
# Indices 1 2 3 4 5 6 
#
# 1 0.013630 -0.006584 -0.002049 0.002375 -0.001133 -0.009630
# 2 -0.006584 0.019848 -0.002978 -0.008876 0.010733 0.011325
# 3 -0.002049 -0.002978 0.009102 0.001915 0.002419 -0.001492
# 4 0.002375 -0.008876 0.001915 0.034145 -0.007175 -0.009895
# 5 -0.001133 0.010733 0.002419 -0.007175 0.034789 0.000313
# 6 -0.009630 0.011325 -0.001492 -0.009895 0.000313 0.046867
#
#
# Mechanical properties :
#
#
# Convention : Reuss Voigt Hill
#
# Bulk Modulus (GPa) = 51.66601 67.93562 59.80082
# Shear Modulus (GPa) = 26.58791 35.02831 30.80811
#
# Velocity S-wave (km/s) = 3.53161 4.05359 3.80157
# Velocity P-wave (km/s) = 6.39264 7.33328 6.87906
#
# Compressibility (1/GPa) = 0.01935509
#
# Stress axis : x y z
#
# Youngs Moduli (GPa) = 73.36951 50.38388 109.86697
#
# Poissons Ratio (x) = 0.33175 0.22515
# Poissons Ratio (y) = 0.48309 0.32722
# Poissons Ratio (z) = 0.15036 0.15006
#
# Static dielectric constant tensor:
#      x y z
#    x 1.849030 -0.002370 -0.019890 
#    y -0.002370 1.816960 -0.001860 
#    z -0.019890 -0.001860 1.838200 
# 
# From -- ./inp_files/610788.got.cif
#   From: 2010.05.17/outbox.cif.g08.bks.cpg/sg2_306_cif.got.tgz:610788.got - 2010.06.03 11:33:40.
