data_PCOD9034962
_publ_section_title
;
Structure prediction by ZEFSAII (Michael W. Deem and Ramdas Pophale) SiO2 
 PCOD9034962
Probable space group: P -1
;
_chemical_formula_sum "Si O2"
_cell_formula_units_Z 14
_cell_length_a 12.539972
_cell_length_b 8.950159
_cell_length_c 22.235745
_cell_angle_alpha 38.850644
_cell_angle_beta 154.852231
_cell_angle_gamma 124.495060
_cell_volume 568.220021
_symmetry_space_group_name_H-M "P -1"
_symmetry_group_IT_number 2
_symmetry_cell_setting 'triclinic'
loop_
_space_group_symop_operation_xyz
x,y,z
-x,-y,-z
loop_
_atom_site_type_symbol
_atom_site_label
_atom_site_fract_x
_atom_site_fract_y
_atom_site_fract_z
Si Si1 0.435895 0.763050 0.021365
Si Si2 0.206823 0.670643 0.336707
Si Si3 0.919369 0.712986 0.540619
Si Si4 0.771479 0.184291 0.231574
Si Si5 0.046303 0.260676 0.931387
Si Si6 0.263439 0.399074 0.116569
Si Si7 0.534576 0.908692 0.478783
O O1 0.300334 0.653182 0.035786
O O2 0.753450 0.492675 0.252601
O O3 0.230613 0.863126 0.825682
O O4 0.500000 0.000000 0.000000
O O5 0.500000 0.500000 0.500000
O O6 0.219315 0.472460 0.457752
O O7 0.245482 0.912596 0.306266
O O8 0.933726 0.751357 0.127875
O O9 0.967107 0.819959 0.595594
O O10 0.738810 0.959677 0.324319
O O11 0.500000 0.500000 0.000000
O O12 0.791995 0.587853 0.707218
O O13 0.246444 0.256550 0.089472
O O14 0.000000 0.000000 0.000000
O O15 0.544456 0.147125 0.372064
O O16 0.000000 0.500000 0.000000
O O17 0.500000 0.000000 0.500000
#
# Coordination Sequence:
#
# PCOD9034962 Si02
#       7
#     2   2   2   2   2   2   2
#     4  11  27  44  70 103 141 186 234 279 353 423
#     4  10  23  41  67 104 136 177 231 286 346 413
#     4  10  22  45  69  96 141 176 228 289 341 410
#     4   9  21  45  70  97 129 184 228 281 344 415
#     4  11  23  43  68 104 142 184 233 294 349 418
#     4  12  26  46  71 101 140 187 238 296 352 413
#     4  11  24  43  66 103 142 182 229 287 358 416
#
# _framework density 24.638344
#
# number of rings (size 3 to 8) (size 9 to 14) (size 15 to 20)
#    0.000    1.429    2.857    0.857    2.000    9.714 
#   10.286    0.000    0.000    0.000    0.000    0.000 
#    0.000    0.000    0.000    0.000    0.000    0.000 
#
# Total GULP energy -78168.670957 kJ/mol
# GULP energy per Si atom -5583.476497 kJ/mol
# Density = 2.458227 g / cm^3
# Si number density = 24.638344 Si / 1000 Ang^3
#
#
#
# Elastic Constant Matrix: (Units=GPa)
#
#
# Indices 1 2 3 4 5 6 
#
# 1 132.2129 48.9597 58.8534 -8.1757 -25.7248 11.3889
# 2 48.9597 132.6470 35.4621 -12.9647 -20.4399 -9.1492
# 3 58.8534 35.4621 154.2543 -11.8077 -32.6104 -2.2364
# 4 -8.1757 -12.9647 -11.8077 43.2571 8.7965 -16.3897
# 5 -25.7248 -20.4399 -32.6104 8.7965 58.6769 -6.7248
# 6 11.3889 -9.1492 -2.2364 -16.3897 -6.7248 54.6726
#
#
#
# Elastic Compliance Matrix: (Units=1/GPa)
#
#
# Indices 1 2 3 4 5 6 
#
# 1 0.010634 -0.003171 -0.003119 -0.001288 0.001667 -0.003054
# 2 -0.003171 0.009603 -0.000354 0.003128 0.001678 0.003397
# 3 -0.003119 -0.000354 0.008596 0.001691 0.003245 0.001848
# 4 -0.001288 0.003128 0.001691 0.028053 -0.001702 0.009061
# 5 0.001667 0.001678 0.003245 -0.001702 0.020657 0.002097
# 6 -0.003054 0.003397 0.001848 0.009061 0.002097 0.022545
#
#
# Mechanical properties :
#
#
# Convention : Reuss Voigt Hill
#
# Bulk Modulus (GPa) = 64.32823 78.40720 71.36771
# Shear Modulus (GPa) = 42.17380 49.71060 45.94220
#
# Velocity S-wave (km/s) = 4.14178 4.49666 4.32286
# Velocity P-wave (km/s) = 7.00272 7.67152 7.34474
#
# Compressibility (1/GPa) = 0.01554527
#
# Stress axis : x y z
#
# Youngs Moduli (GPa) = 94.03940 104.13944 116.32756
#
# Poissons Ratio (x) = 0.33021 0.36278
# Poissons Ratio (y) = 0.29818 0.04121
# Poissons Ratio (z) = 0.29327 0.03689
#
# Static dielectric constant tensor:
#      x y z
#    x 2.005880 0.053790 0.034560 
#    y 0.053790 2.012000 0.059090 
#    z 0.034560 0.059090 2.060570 
# 
# From -- ./inp_files/593984.got.cif
#   From: 2010.05.17/outbox.cif.g08.bks.cpg/sg2_297_cif.got.tgz:593984.got - 2010.06.03 11:33:40.
