data_PCOD9034484
_publ_section_title
;
Structure prediction by ZEFSAII (Michael W. Deem and Ramdas Pophale) SiO2 
 PCOD9034484
Probable space group: P -1
;
_chemical_formula_sum "Si O2"
_cell_formula_units_Z 15
_cell_length_a 7.184119
_cell_length_b 7.799584
_cell_length_c 12.096588
_cell_angle_alpha 86.507345
_cell_angle_beta 79.116010
_cell_angle_gamma 53.316163
_cell_volume 532.628129
_symmetry_space_group_name_H-M "P -1"
_symmetry_group_IT_number 2
_symmetry_cell_setting 'triclinic'
loop_
_space_group_symop_operation_xyz
x,y,z
-x,-y,-z
loop_
_atom_site_type_symbol
_atom_site_label
_atom_site_fract_x
_atom_site_fract_y
_atom_site_fract_z
Si Si1 0.500000 0.000000 0.500000
Si Si2 0.769605 0.048788 0.746532
Si Si3 0.396705 0.185928 0.095506
Si Si4 0.378546 0.419015 0.375572
Si Si5 0.856940 0.294494 0.406738
Si Si6 0.272094 0.415418 0.879850
Si Si7 0.086715 0.347755 0.701005
Si Si8 0.143364 0.879276 0.878350
O O1 0.615069 0.772857 0.562348
O O2 0.714834 0.862931 0.382751
O O3 0.527818 0.273579 0.794082
O O4 0.730945 0.877103 0.806276
O O5 0.892074 0.941634 0.619171
O O6 0.973334 0.031366 0.793455
O O7 0.192033 0.532391 0.292624
O O8 0.278217 0.374806 0.011612
O O9 0.500000 0.000000 0.000000
O O10 0.653125 0.321785 0.352212
O O11 0.255363 0.624125 0.464125
O O12 0.603241 0.170637 0.137581
O O13 0.884892 0.472391 0.354553
O O14 0.145479 0.336629 0.824375
O O15 0.169514 0.660572 0.875428
O O16 0.000000 0.000000 0.000000
#
# Coordination Sequence:
#
# PCOD9034484 Si02
#       8
#     1   2   2   2   2   2   2   2
#     4  10  22  44  76 106 136 192 238 294 370 428
#     4  11  25  47  71 104 150 187 254 309 353 446
#     4  10  23  46  70 103 142 191 245 308 361 428
#     4  10  24  47  76 103 150 186 241 303 372 432
#     4  10  22  49  70 104 144 193 232 309 363 429
#     4  11  25  44  72 107 147 194 246 296 370 443
#     4  11  24  45  68 111 148 186 240 302 361 447
#     4  12  23  46  69 101 144 194 240 309 367 428
#
# _framework density 28.162234999999999
#
# number of rings (size 3 to 8) (size 9 to 14) (size 15 to 20)
#    0.000    1.333    4.000    2.000    3.733    1.600 
#    4.800    6.667    0.000    0.000    0.000    0.000 
#    0.000    0.000    0.000    0.000    0.000    0.000 
#
# Total GULP energy -83779.862750 kJ/mol
# GULP energy per Si atom -5585.324183 kJ/mol
# Density = 2.809814 g / cm^3
# Si number density = 28.162235 Si / 1000 Ang^3
#
#
#
# Elastic Constant Matrix: (Units=GPa)
#
#
# Indices 1 2 3 4 5 6 
#
# 1 172.1986 35.4268 28.5240 9.6645 9.8099 -18.9276
# 2 35.4268 177.7671 47.0687 27.8323 -3.5965 -17.7822
# 3 28.5240 47.0687 110.1872 56.8280 -24.8078 -13.4807
# 4 9.6645 27.8323 56.8280 68.0566 -10.5809 -15.8529
# 5 9.8099 -3.5965 -24.8078 -10.5809 41.5334 7.0979
# 6 -18.9276 -17.7822 -13.4807 -15.8529 7.0979 33.4315
#
#
#
# Elastic Compliance Matrix: (Units=1/GPa)
#
#
# Indices 1 2 3 4 5 6 
#
# 1 0.006971 -0.000592 -0.002959 0.002141 -0.003642 0.004227
# 2 -0.000592 0.006671 -0.002662 -0.000068 -0.001297 0.002383
# 3 -0.002959 -0.002662 0.020315 -0.014908 0.009485 -0.003982
# 4 0.002141 -0.000068 -0.014908 0.028485 -0.003778 0.009474
# 5 -0.003642 -0.001297 0.009485 -0.003778 0.030767 -0.007251
# 6 0.004227 0.002383 -0.003982 0.009474 -0.007251 0.037999
#
#
# Mechanical properties :
#
#
# Convention : Reuss Voigt Hill
#
# Bulk Modulus (GPa) = 46.44216 75.79911 61.12063
# Shear Modulus (GPa) = 33.15408 51.87986 42.51697
#
# Velocity S-wave (km/s) = 3.43483 4.29672 3.88972
# Velocity P-wave (km/s) = 5.67957 7.18257 6.47483
#
# Compressibility (1/GPa) = 0.02153216
#
# Stress axis : x y z
#
# Youngs Moduli (GPa) = 143.44882 149.90623 49.22395
#
# Poissons Ratio (x) = 0.08872 0.14565
# Poissons Ratio (y) = 0.08490 0.13102
# Poissons Ratio (z) = 0.42446 0.39901
#
# Static dielectric constant tensor:
#      x y z
#    x 2.346130 -0.007510 0.113300 
#    y -0.007510 2.186510 -0.026810 
#    z 0.113300 -0.026810 2.400220 
# 
# From -- ./inp_files/513114.got.cif
#   From: 2010.05.17/outbox.cif.g08.bks.cpg/sg2_257_cif.got.tgz:513114.got - 2010.06.03 11:33:40.
