data_PCOD9034229
_publ_section_title
;
Structure prediction by ZEFSAII (Michael W. Deem and Ramdas Pophale) SiO2 
 PCOD9034229
Probable space group: P -1
;
_chemical_formula_sum "Si O2"
_cell_formula_units_Z 16
_cell_length_a 12.116652
_cell_length_b 9.548127
_cell_length_c 13.132697
_cell_angle_alpha 107.764204
_cell_angle_beta 64.837637
_cell_angle_gamma 53.162224
_cell_volume 698.098330
_symmetry_space_group_name_H-M "P -1"
_symmetry_group_IT_number 2
_symmetry_cell_setting 'triclinic'
loop_
_space_group_symop_operation_xyz
x,y,z
-x,-y,-z
loop_
_atom_site_type_symbol
_atom_site_label
_atom_site_fract_x
_atom_site_fract_y
_atom_site_fract_z
Si Si1 0.264535 0.208277 0.802039
Si Si2 0.208541 0.402435 0.224107
Si Si3 0.760219 0.288149 0.366947
Si Si4 0.196407 0.043587 0.617775
Si Si5 0.522592 0.697560 0.236759
Si Si6 0.552441 0.698234 0.704715
Si Si7 0.343587 0.965789 0.150299
Si Si8 0.790809 0.130256 0.989507
O O1 0.283775 0.075150 0.671031
O O2 0.360163 0.272919 0.764589
O O3 0.418211 0.976295 0.777219
O O4 0.000000 0.500000 0.000000
O O5 0.290652 0.419534 0.288281
O O6 0.988355 0.685818 0.317437
O O7 0.179075 0.268661 0.250714
O O8 0.411976 0.214364 0.020120
O O9 0.500000 0.500000 0.500000
O O10 0.716715 0.461956 0.502760
O O11 0.885304 0.017656 0.304830
O O12 0.932206 0.159723 0.180885
O O13 0.376664 0.796409 0.412239
O O14 0.369033 0.892411 0.240896
O O15 0.696494 0.390924 0.073991
O O16 0.348038 0.800927 0.847279
O O17 0.282066 0.891312 0.085860
#
# Coordination Sequence:
#
# PCOD9034229 Si02
#       8
#     2   2   2   2   2   2   2   2
#     4  12  26  47  74 103 146 194 241 298 364 432
#     4  10  23  45  73 102 146 186 242 301 362 428
#     4  12  26  48  71 105 150 189 246 301 361 433
#     4  12  27  45  71 108 146 190 245 301 362 433
#     4  12  25  46  71 108 145 190 243 303 361 434
#     4  11  25  49  75 108 143 196 242 297 365 431
#     4  10  22  44  72 105 142 189 243 292 366 433
#     4  11  26  45  76 108 144 192 243 301 365 428
#
# _framework density 22.919405999999999
#
# number of rings (size 3 to 8) (size 9 to 14) (size 15 to 20)
#    0.000    0.750    3.750    3.000    5.250    4.500 
#    0.000    0.000    0.000    0.000    0.000    0.000 
#    0.000    0.000    0.000    0.000    0.000    0.000 
#
# Total GULP energy -89505.229569 kJ/mol
# GULP energy per Si atom -5594.076848 kJ/mol
# Density = 2.286724 g / cm^3
# Si number density = 22.919406 Si / 1000 Ang^3
#
#
#
# Elastic Constant Matrix: (Units=GPa)
#
#
# Indices 1 2 3 4 5 6 
#
# 1 57.7496 -0.4904 15.5422 7.7640 14.1585 3.1459
# 2 -0.4904 59.4867 18.4400 10.1948 0.5843 12.2884
# 3 15.5422 18.4400 90.8841 3.6126 5.3109 10.2030
# 4 7.7640 10.1948 3.6126 28.6799 6.3820 1.2648
# 5 14.1585 0.5843 5.3109 6.3820 25.4871 4.5862
# 6 3.1459 12.2884 10.2030 1.2648 4.5862 39.4120
#
#
#
# Elastic Compliance Matrix: (Units=1/GPa)
#
#
# Indices 1 2 3 4 5 6 
#
# 1 0.021222 0.001963 -0.003266 -0.003759 -0.010185 -0.000155
# 2 0.001963 0.020385 -0.003670 -0.007536 0.002095 -0.005564
# 3 -0.003266 -0.003670 0.012509 0.000824 -0.000592 -0.001791
# 4 -0.003759 -0.007536 0.000824 0.040228 -0.008365 0.002119
# 5 -0.010185 0.002095 -0.000592 -0.008365 0.047963 -0.005000
# 6 -0.000155 -0.005564 -0.001791 0.002119 -0.005000 0.028098
#
#
# Mechanical properties :
#
#
# Convention : Reuss Voigt Hill
#
# Bulk Modulus (GPa) = 22.63886 30.56714 26.60300
# Shear Modulus (GPa) = 25.63133 30.35771 27.99452
#
# Velocity S-wave (km/s) = 3.34776 3.64337 3.49869
# Velocity P-wave (km/s) = 4.98422 5.57357 5.28711
#
# Compressibility (1/GPa) = 0.04417183
#
# Stress axis : x y z
#
# Youngs Moduli (GPa) = 47.11986 49.05635 79.94215
#
# Poissons Ratio (x) = -0.09632 0.26107
# Poissons Ratio (y) = -0.09252 0.29338
# Poissons Ratio (z) = 0.15388 0.18003
#
# Static dielectric constant tensor:
#      x y z
#    x 1.823130 -0.006960 -0.115970 
#    y -0.006960 1.844760 -0.053490 
#    z -0.115970 -0.053490 1.728600 
# 
# From -- ./inp_files/515910.got.cif
#   From: 2010.05.17/outbox.cif.g08.bks.cpg/sg2_258_cif.got.tgz:515910.got - 2010.06.03 11:33:40.
