data_PCOD9034859
_publ_section_title
;
Structure prediction by ZEFSAII (Michael W. Deem and Ramdas Pophale) SiO2 
 PCOD9034859
Probable space group: P -1
;
_chemical_formula_sum "Si O2"
_cell_formula_units_Z 16
_cell_length_a 8.215304
_cell_length_b 12.047028
_cell_length_c 18.963003
_cell_angle_alpha 127.332713
_cell_angle_beta 132.748440
_cell_angle_gamma 31.896988
_cell_volume 726.022966
_symmetry_space_group_name_H-M "P -1"
_symmetry_group_IT_number 2
_symmetry_cell_setting 'triclinic'
loop_
_space_group_symop_operation_xyz
x,y,z
-x,-y,-z
loop_
_atom_site_type_symbol
_atom_site_label
_atom_site_fract_x
_atom_site_fract_y
_atom_site_fract_z
Si Si1 0.102100 0.700724 0.965744
Si Si2 0.059933 0.381322 0.380590
Si Si3 0.752596 0.890272 0.792381
Si Si4 0.029028 0.163307 0.751560
Si Si5 0.194742 0.430814 0.104058
Si Si6 0.111450 0.234202 0.474700
Si Si7 0.808785 0.057994 0.535797
Si Si8 0.039857 0.004513 0.843735
O O1 0.962822 0.824648 0.898841
O O2 0.929286 0.633581 0.905234
O O3 0.500000 0.500000 0.000000
O O4 0.005963 0.846604 0.058079
O O5 0.073405 0.314506 0.280936
O O6 0.928058 0.337098 0.385085
O O7 0.435779 0.209075 0.455901
O O8 0.912867 0.604783 0.432243
O O9 0.771474 0.013470 0.792054
O O10 0.389114 0.016861 0.762983
O O11 0.895960 0.376878 0.816914
O O12 0.807186 0.184630 0.638872
O O13 0.027011 0.070489 0.786224
O O14 0.588822 0.232548 0.129483
O O15 0.000000 0.500000 0.000000
O O16 0.500000 0.000000 0.500000
O O17 0.976045 0.169118 0.453845
O O18 0.000000 0.000000 0.500000
#
# Coordination Sequence:
#
# PCOD9034859 Si02
#       8
#     2   2   2   2   2   2   2   2
#     4  12  25  48  72 104 141 184 231 293 352 416
#     4  10  22  45  68  99 136 179 234 285 339 414
#     4  12  25  45  73 104 140 183 237 286 352 416
#     4  12  26  46  72 106 141 189 233 284 356 415
#     4  12  24  45  74 102 142 183 230 290 349 417
#     4   9  21  42  67  93 135 182 224 283 346 399
#     4  11  23  42  67  99 140 177 229 285 338 404
#     4  12  26  48  72 102 145 182 233 290 350 423
#
# _framework density 22.037870999999999
#
# number of rings (size 3 to 8) (size 9 to 14) (size 15 to 20)
#    0.000    0.750    3.750    3.750    0.000    5.500 
#    4.500    0.000    0.000    0.000    0.000    0.000 
#    0.000    0.000    0.000    0.000    0.000    0.000 
#
# Total GULP energy -89424.187783 kJ/mol
# GULP energy per Si atom -5589.011736 kJ/mol
# Density = 2.198771 g / cm^3
# Si number density = 22.037871 Si / 1000 Ang^3
#
#
#
# Elastic Constant Matrix: (Units=GPa)
#
#
# Indices 1 2 3 4 5 6 
#
# 1 136.9705 34.1393 24.0347 4.7281 -16.1862 13.4446
# 2 34.1393 73.8599 7.3582 20.8818 -11.7583 5.7150
# 3 24.0347 7.3582 97.5711 14.4243 -27.7227 10.6774
# 4 4.7281 20.8818 14.4243 33.1264 -7.9796 14.0359
# 5 -16.1862 -11.7583 -27.7227 -7.9796 33.1762 4.9354
# 6 13.4446 5.7150 10.6774 14.0359 4.9354 25.9575
#
#
#
# Elastic Compliance Matrix: (Units=1/GPa)
#
#
# Indices 1 2 3 4 5 6 
#
# 1 0.009888 -0.004922 -0.000570 0.006919 0.005547 -0.008600
# 2 -0.004922 0.019521 0.001876 -0.013863 0.002069 0.004582
# 3 -0.000570 0.001876 0.015412 -0.000557 0.014456 -0.008905
# 4 0.006919 -0.013863 -0.000557 0.056658 0.016700 -0.034114
# 5 0.005547 0.002069 0.014456 0.016700 0.053926 -0.028558
# 6 -0.008600 0.004582 -0.008905 -0.034114 -0.028558 0.069509
#
#
# Mechanical properties :
#
#
# Convention : Reuss Voigt Hill
#
# Bulk Modulus (GPa) = 26.60278 48.82953 37.71616
# Shear Modulus (GPa) = 20.43508 34.64330 27.53919
#
# Velocity S-wave (km/s) = 3.04842 3.96913 3.53885
# Velocity P-wave (km/s) = 4.94854 6.57347 5.81802
#
# Compressibility (1/GPa) = 0.03759005
#
# Stress axis : x y z
#
# Youngs Moduli (GPa) = 101.12901 51.22606 64.88403
#
# Poissons Ratio (x) = 0.25211 0.03701
# Poissons Ratio (y) = 0.49771 -0.12173
# Poissons Ratio (z) = 0.05769 -0.09610
#
# Static dielectric constant tensor:
#      x y z
#    x -3.326470 0.319710 -0.302590 
#    y 0.319710 1.765800 0.029470 
#    z -0.302590 0.029470 1.760630 
# 
# From -- ./inp_files/559961.got.cif
#   From: 2010.05.17/outbox.cif.g08.bks.cpg/sg2_280_cif.got.tgz:559961.got - 2010.06.03 11:33:40.
