data_PCOD9034309
_publ_section_title
;
Structure prediction by ZEFSAII (Michael W. Deem and Ramdas Pophale) SiO2 
 PCOD9034309
Probable space group: P -1
;
_chemical_formula_sum "Si O2"
_cell_formula_units_Z 14
_cell_length_a 5.374666
_cell_length_b 9.217593
_cell_length_c 19.379688
_cell_angle_alpha 130.327205
_cell_angle_beta 92.545760
_cell_angle_gamma 75.116328
_cell_volume 697.650458
_symmetry_space_group_name_H-M "P -1"
_symmetry_group_IT_number 2
_symmetry_cell_setting 'triclinic'
loop_
_space_group_symop_operation_xyz
x,y,z
-x,-y,-z
loop_
_atom_site_type_symbol
_atom_site_label
_atom_site_fract_x
_atom_site_fract_y
_atom_site_fract_z
Si Si1 0.219190 0.150891 0.633593
Si Si2 0.163643 0.597975 0.805604
Si Si3 0.592805 0.808384 0.894161
Si Si4 0.788103 0.792655 0.746440
Si Si5 0.996198 0.902747 0.655964
Si Si6 0.476212 0.564676 0.598889
Si Si7 0.263398 0.210413 0.503353
O O1 0.239167 0.361482 0.725110
O O2 0.122471 0.175556 0.560619
O O3 0.041395 0.073823 0.660914
O O4 0.498901 0.982639 0.576287
O O5 0.399738 0.674067 0.857000
O O6 0.895315 0.681583 0.871859
O O7 0.060517 0.703730 0.763285
O O8 0.595399 0.870924 0.832439
O O9 0.500000 0.000000 0.000000
O O10 0.716664 0.606878 0.653397
O O11 0.798619 0.940222 0.729527
O O12 0.264918 0.781019 0.657498
O O13 0.919923 0.755104 0.554915
O O14 0.500000 0.500000 0.500000
O O15 0.384730 0.387713 0.575967
#
# Coordination Sequence:
#
# PCOD9034309 Si02
#       7
#     2   2   2   2   2   2   2
#     4  11  24  37  54  87 130 173 214 251 322 365
#     4  10  24  41  70  95 131 156 208 264 324 379
#     4  10  22  44  73 100 119 155 208 268 327 386
#     4  10  23  37  64  88 126 162 210 269 312 365
#     4  12  22  36  54  85 121 176 216 263 302 365
#     4  12  22  38  54  88 122 175 223 264 295 353
#     4  11  24  36  56  79 129 178 229 253 302 362
#
# _framework density 20.067354999999999
#
# number of rings (size 3 to 8) (size 9 to 14) (size 15 to 20)
#    0.857    0.286    2.857    3.857    4.000    1.143 
#    0.000    0.000    0.000    1.714    0.000    0.000 
#    0.000    0.000    0.000    0.000    0.000    0.000 
#
# Total GULP energy -78067.570081 kJ/mol
# GULP energy per Si atom -5576.255006 kJ/mol
# Density = 2.002168 g / cm^3
# Si number density = 20.067355 Si / 1000 Ang^3
#
#
#
# Elastic Constant Matrix: (Units=GPa)
#
#
# Indices 1 2 3 4 5 6 
#
# 1 91.6649 31.7958 43.4417 4.1247 -0.2988 22.7889
# 2 31.7958 86.4509 37.9692 4.0841 0.6670 32.6587
# 3 43.4417 37.9692 119.6800 1.9258 -11.5943 33.2343
# 4 4.1247 4.0841 1.9258 17.0114 2.1865 6.1115
# 5 -0.2988 0.6670 -11.5943 2.1865 26.4957 4.5963
# 6 22.7889 32.6587 33.2343 6.1115 4.5963 36.1667
#
#
#
# Elastic Compliance Matrix: (Units=1/GPa)
#
#
# Indices 1 2 3 4 5 6 
#
# 1 0.014297 -0.002389 -0.003565 -0.001224 -0.000668 -0.003284
# 2 -0.002389 0.018258 -0.000673 0.001377 0.001674 -0.014809
# 3 -0.003565 -0.000673 0.013640 0.002475 0.007662 -0.011072
# 4 -0.001224 0.001377 0.002475 0.063468 -0.001908 -0.013229
# 5 -0.000668 0.001674 0.007662 -0.001908 0.043517 -0.013340
# 6 -0.003284 -0.014809 -0.011072 -0.013229 -0.013340 0.057196
#
#
# Mechanical properties :
#
#
# Convention : Reuss Voigt Hill
#
# Bulk Modulus (GPa) = 30.35698 58.24547 44.30122
# Shear Modulus (GPa) = 21.31201 28.24070 24.77636
#
# Velocity S-wave (km/s) = 3.26241 3.75546 3.51758
# Velocity P-wave (km/s) = 5.41770 6.92045 6.21466
#
# Compressibility (1/GPa) = 0.03294135
#
# Stress axis : x y z
#
# Youngs Moduli (GPa) = 69.94673 54.77111 73.31276
#
# Poissons Ratio (x) = 0.13085 0.26133
# Poissons Ratio (y) = 0.16711 0.04933
# Poissons Ratio (z) = 0.24933 0.03686
#
# Static dielectric constant tensor:
#      x y z
#    x 1.821860 0.021550 -0.014360 
#    y 0.021550 1.755650 -0.007220 
#    z -0.014360 -0.007220 1.669400 
# 
# From -- ./inp_files/39812.got.cif
#   From: 2010.05.17/outbox.cif.g08.bks.cpg/sg2_20_cif.got.tgz:39812.got - 2010.06.03 11:33:40.
