data_PCOD9034169
_publ_section_title
;
Structure prediction by ZEFSAII (Michael W. Deem and Ramdas Pophale) SiO2 
 PCOD9034169
Probable space group: P -1
;
_chemical_formula_sum "Si O2"
_cell_formula_units_Z 11
_cell_length_a 5.520807
_cell_length_b 11.938500
_cell_length_c 14.032423
_cell_angle_alpha 30.209975
_cell_angle_beta 75.316108
_cell_angle_gamma 69.777517
_cell_volume 434.676438
_symmetry_space_group_name_H-M "P -1"
_symmetry_group_IT_number 2
_symmetry_cell_setting 'triclinic'
loop_
_space_group_symop_operation_xyz
x,y,z
-x,-y,-z
loop_
_atom_site_type_symbol
_atom_site_label
_atom_site_fract_x
_atom_site_fract_y
_atom_site_fract_z
Si Si1 0.500000 0.500000 0.000000
Si Si2 0.724158 0.137148 0.966190
Si Si3 0.446980 0.026684 0.598544
Si Si4 0.630285 0.150307 0.753223
Si Si5 0.032133 0.653373 0.063019
Si Si6 0.839954 0.290934 0.457745
O O1 0.484956 0.771173 0.822544
O O2 0.804630 0.452236 0.966526
O O3 0.756155 0.342266 0.878539
O O4 0.588301 0.211174 0.824077
O O5 0.614154 0.950578 0.171442
O O6 0.000000 0.000000 0.000000
O O7 0.500000 0.000000 0.500000
O O8 0.659148 0.144675 0.534751
O O9 0.144353 0.163626 0.535890
O O10 0.712078 0.334775 0.543248
O O11 0.861595 0.915955 0.883872
O O12 0.850441 0.499342 0.233315
#
# Coordination Sequence:
#
# PCOD9034169 Si02
#       6
#     1   2   2   2   2   2
#     4  12  24  44  74  98 144 188 230 280 354 410
#     4   9  21  44  69  99 136 183 236 287 349 411
#     4  12  27  47  66 105 143 188 230 288 341 421
#     4  10  22  44  71  99 139 184 234 291 344 415
#     4  11  24  42  69 104 140 188 229 287 347 416
#     4  12  27  44  72 104 144 179 237 287 349 412
#
# _framework density 25.306180000000001
#
# number of rings (size 3 to 8) (size 9 to 14) (size 15 to 20)
#    0.000    1.091    3.636    1.636    5.091    2.909 
#    0.000    8.182    0.000    0.000    0.000    0.000 
#    0.000    0.000    0.000    0.000    0.000    0.000 
#
# Total GULP energy -61268.957388 kJ/mol
# GULP energy per Si atom -5569.905217 kJ/mol
# Density = 2.524858 g / cm^3
# Si number density = 25.306180 Si / 1000 Ang^3
#
#
#
# Elastic Constant Matrix: (Units=GPa)
#
#
# Indices 1 2 3 4 5 6 
#
# 1 140.4577 41.7414 35.0546 -4.3264 -26.6533 -9.9282
# 2 41.7414 64.1862 -3.4211 19.3269 -4.0509 -27.6122
# 3 35.0546 -3.4211 127.9891 8.1124 -27.8557 -13.3979
# 4 -4.3264 19.3269 8.1124 35.5351 -23.2080 -12.1535
# 5 -26.6533 -4.0509 -27.8557 -23.2080 44.6158 -3.8186
# 6 -9.9282 -27.6122 -13.3979 -12.1535 -3.8186 60.2221
#
#
#
# Elastic Compliance Matrix: (Units=1/GPa)
#
#
# Indices 1 2 3 4 5 6 
#
# 1 0.018489 -0.018726 -0.002317 0.028078 0.022593 0.001046
# 2 -0.018726 0.041421 0.004116 -0.039399 -0.024726 0.007301
# 3 -0.002317 0.004116 0.010295 0.000570 0.006081 0.004296
# 4 0.028078 -0.039399 0.000570 0.100167 0.066609 0.011130
# 5 0.022593 -0.024726 0.006081 0.066609 0.073123 0.011820
# 6 0.001046 0.007301 0.004296 0.011130 0.011820 0.024077
#
#
# Mechanical properties :
#
#
# Convention : Reuss Voigt Hill
#
# Bulk Modulus (GPa) = 27.51030 53.26478 40.38754
# Shear Modulus (GPa) = 15.94677 45.35846 30.65261
#
# Velocity S-wave (km/s) = 2.51301 4.23825 3.48411
# Velocity P-wave (km/s) = 4.39487 6.71150 5.67270
#
# Compressibility (1/GPa) = 0.03635002
#
# Stress axis : x y z
#
# Youngs Moduli (GPa) = 54.08583 24.14246 97.13448
#
# Poissons Ratio (x) = 0.45210 0.22511
# Poissons Ratio (y) = 1.01282 -0.39983
# Poissons Ratio (z) = 0.12534 -0.09938
#
# Static dielectric constant tensor:
#      x y z
#    x 2.074810 0.065450 0.110610 
#    y 0.065450 1.998390 0.053180 
#    z 0.110610 0.053180 2.048380 
# 
# From -- ./inp_files/22036.got.cif
#   From: 2010.05.17/outbox.cif.g08.bks.cpg/sg2_12_cif.got.tgz:22036.got - 2010.06.03 11:33:40.
