data_PCOD9034926
_publ_section_title
;
Structure prediction by ZEFSAII (Michael W. Deem and Ramdas Pophale) SiO2 
 PCOD9034926
Probable space group: P -1
;
_chemical_formula_sum "Si O2"
_cell_formula_units_Z 16
_cell_length_a 8.416561
_cell_length_b 20.213824
_cell_length_c 15.512257
_cell_angle_alpha 33.764624
_cell_angle_beta 34.011665
_cell_angle_gamma 31.788042
_cell_volume 702.029984
_symmetry_space_group_name_H-M "P -1"
_symmetry_group_IT_number 2
_symmetry_cell_setting 'triclinic'
loop_
_space_group_symop_operation_xyz
x,y,z
-x,-y,-z
loop_
_atom_site_type_symbol
_atom_site_label
_atom_site_fract_x
_atom_site_fract_y
_atom_site_fract_z
Si Si1 0.801336 0.131367 0.594110
Si Si2 0.209607 0.795949 0.192561
Si Si3 0.144974 0.881468 0.842173
Si Si4 0.659856 0.982989 0.118992
Si Si5 0.428515 0.435616 0.841612
Si Si6 0.241736 0.592529 0.089395
Si Si7 0.461787 0.374543 0.614597
Si Si8 0.134840 0.275827 0.231221
O O1 0.598229 0.065860 0.718491
O O2 0.545640 0.280818 0.591346
O O3 0.003828 0.170463 0.393795
O O4 0.031030 0.012126 0.689656
O O5 0.278096 0.667340 0.241336
O O6 0.262717 0.748200 0.316477
O O7 0.858727 0.920498 0.185437
O O8 0.453436 0.856276 0.003873
O O9 0.532328 0.808406 0.771484
O O10 0.118581 0.754455 0.952717
O O11 0.910911 0.924151 0.986892
O O12 0.573643 0.446446 0.856918
O O13 0.182326 0.579308 0.748735
O O14 0.237188 0.351979 0.032103
O O15 0.921077 0.577902 0.248027
O O16 0.500000 0.500000 0.000000
O O17 0.500000 0.500000 0.500000
#
# Coordination Sequence:
#
# PCOD9034926 Si02
#       8
#     2   2   2   2   2   2   2   2
#     4  12  23  44  64  98 136 164 215 278 321 372
#     4  11  22  41  70  94 124 171 222 256 323 397
#     4  11  21  44  65  94 127 175 215 262 321 387
#     4  11  22  41  70  94 126 173 213 268 324 388
#     4  10  22  45  69  88 129 177 216 261 322 392
#     4  11  25  42  68  95 128 172 219 257 322 393
#     4  12  26  39  66 102 130 165 218 272 322 377
#     4  10  23  39  69  91 128 174 213 261 326 377
#
# _framework density 22.791049999999998
#
# number of rings (size 3 to 8) (size 9 to 14) (size 15 to 20)
#    0.000    1.000    5.000    2.250    8.750    1.000 
#    0.000    3.125    0.000    0.000    0.000    0.000 
#    0.000    0.000    0.000    0.000    0.000    0.000 
#
# Total GULP energy -89116.645701 kJ/mol
# GULP energy per Si atom -5569.790356 kJ/mol
# Density = 2.273918 g / cm^3
# Si number density = 22.791050 Si / 1000 Ang^3
#
#
#
# Elastic Constant Matrix: (Units=GPa)
#
#
# Indices 1 2 3 4 5 6 
#
# 1 230.8306 -213.1095-1471.1000-1494.6694 1532.9258 311.6138
# 2 -213.1095 447.7136 2240.7601 2175.5632-2317.6255 -435.9838
# 3 -1471.1000 2240.760114001.627213719.0002**********-2824.4393
# 4 -1494.6694 2175.563213719.000213633.1113**********-2781.8371
# 5 1532.9258-2317.6255********************14909.6587 2901.9173
# 6 311.6138 -435.9838-2824.4393-2781.8371 2901.9173 607.2193
#
#
#
# Elastic Compliance Matrix: (Units=1/GPa)
#
#
# Indices 1 2 3 4 5 6 
#
# 1 0.018261 -0.001318 0.000475 0.008659 0.007095 -0.002350
# 2 -0.001318 0.016694 0.005888 0.012459 0.020113 0.001005
# 3 0.000475 0.005888 0.029079 0.022830 0.047233 0.018107
# 4 0.008659 0.012459 0.022830 0.044095 0.061894 0.016909
# 5 0.007095 0.020113 0.047233 0.061894 0.101969 0.026743
# 6 -0.002350 0.001005 0.018107 0.016909 0.026743 0.037460
#
#
# Mechanical properties :
#
#
# Convention : Reuss Voigt Hill
#
# Bulk Modulus (GPa) = 13.49132 1754.80806 884.14969
# Shear Modulus (GPa) = 19.07117 6771.57259 3395.32188
#
# Velocity S-wave (km/s) = 2.89586 54.56743 38.63930
# Velocity P-wave (km/s) = 4.13688 68.86048 48.77950
#
# Compressibility (1/GPa) = 0.07412176
#
# Stress axis : x y z
#
# Youngs Moduli (GPa) = 54.76285 59.90303 34.38881
#
# Poissons Ratio (x) = 0.07895 -0.01632
# Poissons Ratio (y) = 0.07217 -0.20246
# Poissons Ratio (z) = -0.02599 -0.35268
#
# Static dielectric constant tensor:
#      x y z
#    x 1.848090 0.026970 0.030090 
#    y 0.026970 1.929240 0.038000 
#    z 0.030090 0.038000 1.902640 
# 
# From -- ./inp_files/562913.got.cif
#   From: 2010.05.17/outbox.cif.g08.bks.cpg/sg2_282_cif.got.tgz:562913.got - 2010.06.03 11:33:40.
