data_PCOD9034760
_publ_section_title
;
Structure prediction by ZEFSAII (Michael W. Deem and Ramdas Pophale) SiO2 
 PCOD9034760
Probable space group: P -1
;
_chemical_formula_sum "Si O2"
_cell_formula_units_Z 16
_cell_length_a 14.838287
_cell_length_b 19.589124
_cell_length_c 9.319608
_cell_angle_alpha 73.031361
_cell_angle_beta 117.167139
_cell_angle_gamma 159.899093
_cell_volume 740.580392
_symmetry_space_group_name_H-M "P -1"
_symmetry_group_IT_number 2
_symmetry_cell_setting 'triclinic'
loop_
_space_group_symop_operation_xyz
x,y,z
-x,-y,-z
loop_
_atom_site_type_symbol
_atom_site_label
_atom_site_fract_x
_atom_site_fract_y
_atom_site_fract_z
Si Si1 0.612435 0.998930 0.011608
Si Si2 0.295392 0.246155 0.531726
Si Si3 0.682199 0.404299 0.503886
Si Si4 0.120910 0.237989 0.168321
Si Si5 0.780829 0.709760 0.299933
Si Si6 0.547519 0.883706 0.321006
Si Si7 0.148672 0.022105 0.118834
Si Si8 0.620202 0.085390 0.373667
O O1 0.504555 0.866083 0.129173
O O2 0.497004 0.929578 0.806814
O O3 0.976444 0.218522 0.118968
O O4 0.500000 0.000000 0.000000
O O5 0.535779 0.362171 0.538211
O O6 0.185473 0.238649 0.359988
O O7 0.366734 0.324684 0.691409
O O8 0.000000 0.000000 0.500000
O O9 0.668169 0.320503 0.635909
O O10 0.465903 0.245194 0.304724
O O11 0.005604 0.653980 0.530137
O O12 0.459547 0.451921 0.204995
O O13 0.860944 0.025801 0.009306
O O14 0.087547 0.887746 0.503550
O O15 0.926464 0.830188 0.183251
O O16 0.494796 0.927294 0.316437
O O17 0.000000 0.000000 0.000000
O O18 0.500000 0.000000 0.500000
#
# Coordination Sequence:
#
# PCOD9034760 Si02
#       8
#     2   2   2   2   2   2   2   2
#     4  10  24  44  64  96 135 175 239 286 322 400
#     4  12  20  40  67 102 131 172 214 274 350 410
#     4  11  24  43  74  97 141 177 226 283 345 408
#     4  12  23  39  67  96 138 177 221 275 339 408
#     4  11  23  37  69  99 134 172 216 274 354 402
#     4  10  22  45  68 100 135 169 225 286 338 408
#     4  11  23  41  60 103 141 169 214 275 346 421
#     4  11  27  46  69  94 132 186 235 277 334 398
#
# _framework density 21.604676000000001
#
# number of rings (size 3 to 8) (size 9 to 14) (size 15 to 20)
#    0.000    1.000    5.000    1.500    7.000    2.000 
#    0.000    0.000    0.000    0.000    0.000    0.000 
#    0.000    0.000    0.000    0.000    0.000    0.000 
#
# Total GULP energy -89083.506523 kJ/mol
# GULP energy per Si atom -5567.719158 kJ/mol
# Density = 2.155550 g / cm^3
# Si number density = 21.604676 Si / 1000 Ang^3
#
#
#
# Elastic Constant Matrix: (Units=GPa)
#
#
# Indices 1 2 3 4 5 6 
#
# 1 46.8270 3.5326 -22.2810 -5.9813 4.0085 -0.6302
# 2 3.5326 65.2965 22.8596 -16.2854 5.2986 25.0574
# 3 -22.2810 22.8596 10.8672 -37.5712 4.5314 -13.1575
# 4 -5.9813 -16.2854 -37.5712 26.4744 3.2763 -2.3476
# 5 4.0085 5.2986 4.5314 3.2763 35.7052 -2.3795
# 6 -0.6302 25.0574 -13.1575 -2.3476 -2.3795 18.4991
#
#
#
# Elastic Compliance Matrix: (Units=1/GPa)
#
#
# Indices 1 2 3 4 5 6 
#
# 1 0.016919 0.006350 -0.007380 -0.003682 -0.002505 -0.014064
# 2 0.006350 0.038046 0.008717 0.035122 -0.013514 -0.042399
# 3 -0.007380 0.008717 -0.010077 -0.012517 0.000580 -0.020740
# 4 -0.003682 0.035122 -0.012517 0.037327 -0.010179 -0.053174
# 5 -0.002505 -0.013514 0.000580 -0.010179 0.032589 0.021532
# 6 -0.014064 -0.042399 -0.020740 -0.053174 0.021532 0.092277
#
#
# Mechanical properties :
#
#
# Convention : Reuss Voigt Hill
#
# Bulk Modulus (GPa) = 16.59386 14.57921 15.58653
# Shear Modulus (GPa) = 23.60779 24.06105 23.83442
#
# Velocity S-wave (km/s) = 3.30921 3.34083 3.32506
# Velocity P-wave (km/s) = 4.72213 4.65235 4.68737
#
# Compressibility (1/GPa) = 0.06026327
#
# Stress axis : x y z
#
# Youngs Moduli (GPa) = 59.10356 26.28384 -99.23371
#
# Poissons Ratio (x) = -0.16691 -0.73236
# Poissons Ratio (y) = -0.37532 0.86505
# Poissons Ratio (z) = 0.43619 -0.22913
#
# Static dielectric constant tensor:
#      x y z
#    x 1.776600 0.016600 0.056390 
#    y 0.016600 1.877140 0.000960 
#    z 0.056390 0.000960 1.768350 
# 
# From -- ./inp_files/295615.got.cif
#   From: 2010.05.17/outbox.cif.g08.bks.cpg/sg2_148_cif.got.tgz:295615.got - 2010.06.03 11:33:40.
