data_PCOD9034374
_publ_section_title
;
Structure prediction by ZEFSAII (Michael W. Deem and Ramdas Pophale) SiO2 
 PCOD9034374
Probable space group: P -1
;
_chemical_formula_sum "Si O2"
_cell_formula_units_Z 15
_cell_length_a 5.022507
_cell_length_b 17.765619
_cell_length_c 13.848193
_cell_angle_alpha 148.921138
_cell_angle_beta 91.835347
_cell_angle_gamma 80.808606
_cell_volume 616.218209
_symmetry_space_group_name_H-M "P -1"
_symmetry_group_IT_number 2
_symmetry_cell_setting 'triclinic'
loop_
_space_group_symop_operation_xyz
x,y,z
-x,-y,-z
loop_
_atom_site_type_symbol
_atom_site_label
_atom_site_fract_x
_atom_site_fract_y
_atom_site_fract_z
Si Si1 0.012794 0.808108 0.680622
Si Si2 0.000000 0.500000 0.000000
Si Si3 0.418781 0.360865 0.186820
Si Si4 0.323748 0.620188 0.989829
Si Si5 0.302397 0.902039 0.424744
Si Si6 0.641325 0.105008 0.052752
Si Si7 0.147012 0.469393 0.571347
Si Si8 0.765955 0.298948 0.642098
O O1 0.201036 0.809704 0.778517
O O2 0.809182 0.704062 0.590704
O O3 0.159647 0.737040 0.507155
O O4 0.860175 0.983018 0.857922
O O5 0.954763 0.407045 0.997733
O O6 0.009851 0.650281 0.232257
O O7 0.598104 0.322798 0.049687
O O8 0.452028 0.221574 0.106555
O O9 0.093556 0.436826 0.256543
O O10 0.576421 0.477165 0.363078
O O11 0.521497 0.451606 0.816684
O O12 0.393213 0.739630 0.195277
O O13 0.302261 0.849358 0.477324
O O14 0.500000 0.000000 0.500000
O O15 0.000000 0.000000 0.500000
O O16 0.500000 0.000000 0.000000
O O17 0.000000 0.500000 0.500000
#
# Coordination Sequence:
#
# PCOD9034374 Si02
#       8
#     2   1   2   2   2   2   2   2
#     4  11  25  46  70 104 145 194 244 299 374 436
#     4  10  22  44  74 100 140 178 246 304 370 428
#     4  12  27  45  74 108 146 191 248 304 365 440
#     4  11  26  45  75 106 144 194 247 307 367 445
#     4  11  28  47  72 106 147 188 237 303 372 436
#     4  11  27  46  69 104 151 200 240 306 371 443
#     4  12  24  45  73 105 143 188 248 302 355 429
#     4  11  25  46  75 103 143 193 246 302 371 443
#
# _framework density 24.342025
#
# number of rings (size 3 to 8) (size 9 to 14) (size 15 to 20)
#    0.000    0.800    2.667    3.600   13.067    2.133 
#    0.000    0.000    0.000    0.000    0.000    0.000 
#    0.000    0.000    0.000    0.000    0.000    0.000 
#
# Total GULP energy -83627.075491 kJ/mol
# GULP energy per Si atom -5575.138366 kJ/mol
# Density = 2.428662 g / cm^3
# Si number density = 24.342025 Si / 1000 Ang^3
#
#
#
# Elastic Constant Matrix: (Units=GPa)
#
#
# Indices 1 2 3 4 5 6 
#
# 1 84.9393 9.7524 18.0388 13.3528 -3.7755 22.0615
# 2 9.7524 143.2157 38.6543 14.9640 0.7273 29.7988
# 3 18.0388 38.6543 108.3225 -1.4192 -13.0716 -1.4254
# 4 13.3528 14.9640 -1.4192 44.6527 4.6689 6.2576
# 5 -3.7755 0.7273 -13.0716 4.6689 35.1899 13.5679
# 6 22.0615 29.7988 -1.4254 6.2576 13.5679 35.6691
#
#
#
# Elastic Compliance Matrix: (Units=1/GPa)
#
#
# Indices 1 2 3 4 5 6 
#
# 1 0.017281 0.003513 -0.003540 -0.005018 0.007149 -0.015604
# 2 0.003513 0.010734 -0.004169 -0.003473 0.003741 -0.012121
# 3 -0.003540 -0.004169 0.011618 0.001920 0.001794 0.005117
# 4 -0.005018 -0.003473 0.001920 0.025110 -0.004373 0.003340
# 5 0.007149 0.003741 0.001794 -0.004373 0.038601 -0.021391
# 6 -0.015604 -0.012121 0.005117 0.003340 -0.021391 0.055568
#
#
# Mechanical properties :
#
#
# Convention : Reuss Voigt Hill
#
# Bulk Modulus (GPa) = 32.00842 52.15206 42.08024
# Shear Modulus (GPa) = 28.13461 41.10448 34.61954
#
# Velocity S-wave (km/s) = 3.40340 4.11374 3.77532
# Velocity P-wave (km/s) = 5.34997 6.63589 6.02732
#
# Compressibility (1/GPa) = 0.03124178
#
# Stress axis : x y z
#
# Youngs Moduli (GPa) = 57.86717 93.15850 86.07370
#
# Poissons Ratio (x) = -0.32730 0.30470
# Poissons Ratio (y) = -0.20331 0.35886
# Poissons Ratio (z) = 0.20485 0.38840
#
# Static dielectric constant tensor:
#      x y z
#    x 2.039990 -0.010770 -0.043840 
#    y -0.010770 1.951580 -0.037310 
#    z -0.043840 -0.037310 1.966100 
# 
# From -- ./inp_files/485303.got.cif
#   From: 2010.05.17/outbox.cif.g08.bks.cpg/sg2_243_cif.got.tgz:485303.got - 2010.06.03 11:33:40.
