data_PCOD9034204
_publ_section_title
;
Structure prediction by ZEFSAII (Michael W. Deem and Ramdas Pophale) SiO2 
 PCOD9034204
Probable space group: P -1
;
_chemical_formula_sum "Si O2"
_cell_formula_units_Z 13
_cell_length_a 11.521108
_cell_length_b 9.624946
_cell_length_c 5.201429
_cell_angle_alpha 117.342382
_cell_angle_beta 109.056112
_cell_angle_gamma 75.611993
_cell_volume 480.923836
_symmetry_space_group_name_H-M "P -1"
_symmetry_group_IT_number 2
_symmetry_cell_setting 'triclinic'
loop_
_space_group_symop_operation_xyz
x,y,z
-x,-y,-z
loop_
_atom_site_type_symbol
_atom_site_label
_atom_site_fract_x
_atom_site_fract_y
_atom_site_fract_z
Si Si1 0.605098 0.013856 0.297476
Si Si2 0.950415 0.654871 0.251546
Si Si3 0.317404 0.662451 0.351215
Si Si4 0.301432 0.282762 0.591421
Si Si5 0.841464 0.254839 0.184067
Si Si6 0.500000 0.500000 0.000000
Si Si7 0.155125 0.089695 0.938220
O O1 0.610369 0.873218 0.383615
O O2 0.741045 0.980934 0.245008
O O3 0.605458 0.191454 0.537013
O O4 0.500000 0.000000 0.000000
O O5 0.807797 0.660264 0.236904
O O6 0.954550 0.812699 0.215159
O O7 0.036421 0.674159 0.575754
O O8 0.000000 0.500000 0.000000
O O9 0.259214 0.689120 0.614827
O O10 0.211046 0.686251 0.076820
O O11 0.411879 0.513965 0.210242
O O12 0.390481 0.411997 0.707722
O O13 0.221729 0.217898 0.251695
O O14 0.867007 0.064046 0.045451
#
# Coordination Sequence:
#
# PCOD9034204 Si02
#       7
#     2   2   2   2   2   1   2
#     4  10  22  44  72 102 143 191 246 307 355 436
#     4  11  26  45  72 103 148 192 237 306 370 446
#     4  11  26  46  73 111 145 197 240 306 370 438
#     4  11  25  46  71 105 141 194 247 300 370 438
#     4  11  25  48  76 108 147 190 249 301 369 436
#     4  12  28  44  70 106 152 194 244 304 370 446
#     4  10  23  43  69 107 136 186 249 295 372 428
#
# _framework density 27.031305
#
# number of rings (size 3 to 8) (size 9 to 14) (size 15 to 20)
#    0.000    1.231    1.538    2.308    8.615    3.077 
#    0.000    0.000    0.000    0.000    0.000    0.000 
#    0.000    0.000    0.000    0.000    0.000    0.000 
#
# Total GULP energy -72586.823336 kJ/mol
# GULP energy per Si atom -5583.601795 kJ/mol
# Density = 2.696978 g / cm^3
# Si number density = 27.031305 Si / 1000 Ang^3
#
#
#
# Elastic Constant Matrix: (Units=GPa)
#
#
# Indices 1 2 3 4 5 6 
#
# 1 127.3720 -0.0299 1.0704 19.2353 1.9195 -0.5524
# 2 -0.0299 77.9504 17.8182 -6.0094 4.8486 0.9856
# 3 1.0704 17.8182 120.5898 -3.7510 23.7642 3.9400
# 4 19.2353 -6.0094 -3.7510 35.2558 -0.3869 -0.5320
# 5 1.9195 4.8486 23.7642 -0.3869 58.4795 11.7850
# 6 -0.5524 0.9856 3.9400 -0.5320 11.7850 34.2062
#
#
#
# Elastic Compliance Matrix: (Units=1/GPa)
#
#
# Indices 1 2 3 4 5 6 
#
# 1 0.008574 -0.000319 -0.000129 -0.004746 -0.000271 0.000182
# 2 -0.000319 0.013446 -0.001847 0.002265 -0.000333 -0.000030
# 3 -0.000129 -0.001847 0.009304 0.000709 -0.003670 0.000255
# 4 -0.004746 0.002265 0.000709 0.031418 -0.000178 0.000326
# 5 -0.000271 -0.000333 -0.003670 -0.000178 0.019924 -0.006439
# 6 0.000182 -0.000030 0.000255 0.000326 -0.006439 0.031432
#
#
# Mechanical properties :
#
#
# Convention : Reuss Voigt Hill
#
# Bulk Modulus (GPa) = 37.40542 40.40328 38.90435
# Shear Modulus (GPa) = 39.18515 46.05855 42.62185
#
# Velocity S-wave (km/s) = 3.81152 4.13231 3.97515
# Velocity P-wave (km/s) = 5.76525 6.14388 5.95757
#
# Compressibility (1/GPa) = 0.02673409
#
# Stress axis : x y z
#
# Youngs Moduli (GPa) = 116.63692 74.36913 107.48548
#
# Poissons Ratio (x) = 0.02369 0.01390
# Poissons Ratio (y) = 0.03715 0.19852
# Poissons Ratio (z) = 0.01508 0.13736
#
# Static dielectric constant tensor:
#      x y z
#    x 1.480920 0.558950 -0.225740 
#    y 0.558950 1.915040 0.132310 
#    z -0.225740 0.132310 2.048150 
# 
# From -- ./inp_files/34133.got.cif
#   From: 2010.05.17/outbox.cif.g08.bks.cpg/sg2_18_cif.got.tgz:34133.got - 2010.06.03 11:33:40.
