data_PCOD9034809
_publ_section_title
;
Structure prediction by ZEFSAII (Michael W. Deem and Ramdas Pophale) SiO2 
 PCOD9034809
Probable space group: P -1
;
_chemical_formula_sum "Si O2"
_cell_formula_units_Z 14
_cell_length_a 8.082129
_cell_length_b 12.510950
_cell_length_c 7.199523
_cell_angle_alpha 101.445698
_cell_angle_beta 106.209496
_cell_angle_gamma 51.589288
_cell_volume 547.450500
_symmetry_space_group_name_H-M "P -1"
_symmetry_group_IT_number 2
_symmetry_cell_setting 'triclinic'
loop_
_space_group_symop_operation_xyz
x,y,z
-x,-y,-z
loop_
_atom_site_type_symbol
_atom_site_label
_atom_site_fract_x
_atom_site_fract_y
_atom_site_fract_z
Si Si1 0.242228 0.794127 0.432177
Si Si2 0.508052 0.140015 0.251697
Si Si3 0.015935 0.307390 0.221466
Si Si4 0.962477 0.357942 0.777926
Si Si5 0.586680 0.870703 0.211997
Si Si6 0.657242 0.532954 0.467640
Si Si7 0.100039 0.025091 0.212042
O O1 0.345138 0.809881 0.654098
O O2 0.475109 0.678424 0.369109
O O3 0.091971 0.940448 0.342340
O O4 0.114504 0.730148 0.355632
O O5 0.271360 0.236231 0.305854
O O6 0.628293 0.983528 0.298913
O O7 0.459548 0.134802 0.021097
O O8 0.966594 0.348530 0.000052
O O9 0.834463 0.431725 0.335759
O O10 0.006429 0.182009 0.225381
O O11 0.200263 0.279911 0.741216
O O12 0.802671 0.506101 0.686141
O O13 0.358641 0.938346 0.254772
O O14 0.500000 0.500000 0.500000
O O15 0.000000 0.000000 0.000000
#
# Coordination Sequence:
#
# PCOD9034809 Si02
#       7
#     2   2   2   2   2   2   2
#     4  11  24  41  63 102 130 163 230 271 318 384
#     4   9  21  39  65  95 130 170 215 275 326 387
#     4  10  22  45  68  91 138 176 212 270 341 381
#     4  10  22  45  68  95 134 179 214 267 329 394
#     4   9  21  42  64  95 135 170 212 265 345 388
#     4  10  25  44  63  97 134 179 218 265 329 394
#     4  11  23  41  67 103 128 167 219 279 326 383
#
# _framework density 25.573090000000001
#
# number of rings (size 3 to 8) (size 9 to 14) (size 15 to 20)
#    0.000    2.000    1.429    0.857    4.000    6.857 
#    2.571    1.429    0.000    0.000    0.000    0.000 
#    0.000    0.000    0.000    0.000    0.000    0.000 
#
# Total GULP energy -78146.746705 kJ/mol
# GULP energy per Si atom -5581.910479 kJ/mol
# Density = 2.551488 g / cm^3
# Si number density = 25.573090 Si / 1000 Ang^3
#
#
#
# Elastic Constant Matrix: (Units=GPa)
#
#
# Indices 1 2 3 4 5 6 
#
# 1 68.6973 24.8969 26.1932 12.9106 9.8567 -4.0302
# 2 24.8969 147.7393 34.7419 -12.7069 -16.5495 -20.1820
# 3 26.1932 34.7419 118.5796 -2.4218 -8.3501 -11.9842
# 4 12.9106 -12.7069 -2.4218 32.6425 -8.3359 0.0907
# 5 9.8567 -16.5495 -8.3501 -8.3359 41.2826 1.7021
# 6 -4.0302 -20.1820 -11.9842 0.0907 1.7021 43.2246
#
#
#
# Elastic Compliance Matrix: (Units=1/GPa)
#
#
# Indices 1 2 3 4 5 6 
#
# 1 0.022453 -0.005346 -0.004596 -0.014171 -0.011245 -0.001204
# 2 -0.005346 0.009673 -0.000693 0.007445 0.006370 0.003559
# 3 -0.004596 -0.000693 0.010152 0.003173 0.003435 0.001921
# 4 -0.014171 0.007445 0.003173 0.043369 0.015671 0.002327
# 5 -0.011245 0.006370 0.003435 0.015671 0.033258 0.001536
# 6 -0.001204 0.003559 0.001921 0.002327 0.001536 0.025152
#
#
# Mechanical properties :
#
#
# Convention : Reuss Voigt Hill
#
# Bulk Modulus (GPa) = 47.60176 56.29780 51.94978
# Shear Modulus (GPa) = 29.01445 40.04220 34.52833
#
# Velocity S-wave (km/s) = 3.37199 3.96131 3.67847
# Velocity P-wave (km/s) = 5.81505 6.55628 6.19676
#
# Compressibility (1/GPa) = 0.02100762
#
# Stress axis : x y z
#
# Youngs Moduli (GPa) = 44.53846 103.38457 98.50085
#
# Poissons Ratio (x) = 0.55268 0.45274
# Poissons Ratio (y) = 0.23809 0.06823
# Poissons Ratio (z) = 0.20471 0.07162
#
# Static dielectric constant tensor:
#      x y z
#    x 2.538340 0.201870 -0.075560 
#    y 0.201870 2.137650 0.027640 
#    z -0.075560 0.027640 2.023520 
# 
# From -- ./inp_files/208449.got.cif
#   From: 2010.05.17/outbox.cif.g08.bks.cpg/sg2_105_cif.got.tgz:208449.got - 2010.06.03 11:33:40.
