data_PCOD9034150
_publ_section_title
;
Structure prediction by ZEFSAII (Michael W. Deem and Ramdas Pophale) SiO2 
 PCOD9034150
Probable space group: P -1
;
_chemical_formula_sum "Si O2"
_cell_formula_units_Z 16
_cell_length_a 17.715287
_cell_length_b 14.826698
_cell_length_c 24.149246
_cell_angle_alpha 159.917412
_cell_angle_beta 158.026235
_cell_angle_gamma 32.557438
_cell_volume 795.224112
_symmetry_space_group_name_H-M "P -1"
_symmetry_group_IT_number 2
_symmetry_cell_setting 'triclinic'
loop_
_space_group_symop_operation_xyz
x,y,z
-x,-y,-z
loop_
_atom_site_type_symbol
_atom_site_label
_atom_site_fract_x
_atom_site_fract_y
_atom_site_fract_z
Si Si1 0.835488 0.990626 0.959976
Si Si2 0.234949 0.482626 0.154014
Si Si3 0.429913 0.141222 0.480702
Si Si4 0.871248 0.305570 0.056047
Si Si5 0.752586 0.054596 0.202743
Si Si6 0.395319 0.698945 0.504722
Si Si7 0.073374 0.074208 0.531491
Si Si8 0.925536 0.583199 0.557285
O O1 0.593545 0.922642 0.751100
O O2 0.918478 0.191593 0.082049
O O3 0.929053 0.724002 0.862180
O O4 0.904371 0.156823 0.157691
O O5 0.388331 0.673053 0.324695
O O6 0.311758 0.539635 0.301154
O O7 0.000000 0.500000 0.000000
O O8 0.224982 0.179649 0.957529
O O9 0.283495 0.314752 0.511060
O O10 0.500000 0.000000 0.500000
O O11 0.305770 0.910958 0.221444
O O12 0.833663 0.601544 0.212986
O O13 0.883577 0.326251 0.420942
O O14 0.875878 0.029986 0.329746
O O15 0.500000 0.000000 0.000000
O O16 0.500000 0.500000 0.500000
O O17 0.226367 0.872401 0.506625
O O18 0.000000 0.000000 0.500000
O O19 0.000000 0.500000 0.500000
#
# Coordination Sequence:
#
# PCOD9034150 Si02
#       8
#     2   2   2   2   2   2   2   2
#     4  10  22  44  71  97 135 182 232 284 354 412
#     4  12  27  49  72 103 146 191 240 292 361 428
#     4  11  26  45  72 103 143 187 232 295 361 420
#     4  10  22  44  72  96 134 181 235 287 346 421
#     4  12  27  47  75 103 145 191 240 294 360 426
#     4  12  28  46  72 105 142 189 236 296 360 423
#     4  12  28  46  71 107 142 186 241 294 355 431
#     4  11  26  45  71 107 139 186 239 293 355 424
#
# _framework density 20.120113
#
# number of rings (size 3 to 8) (size 9 to 14) (size 15 to 20)
#    0.000    0.750    5.000    0.750    8.750    2.500 
#    0.000    0.000    0.000    0.000    0.000    0.000 
#    0.000    0.000    0.000    0.000    0.000    0.000 
#
# Total GULP energy -89077.956888 kJ/mol
# GULP energy per Si atom -5567.372306 kJ/mol
# Density = 2.007432 g / cm^3
# Si number density = 20.120113 Si / 1000 Ang^3
#
#
#
# Elastic Constant Matrix: (Units=GPa)
#
#
# Indices 1 2 3 4 5 6 
#
# 1 111.2002 67.4185 58.7043 -5.7483 -39.0297 -12.6634
# 2 67.4185 144.7274 54.2683 3.2397 -20.1068 -14.4582
# 3 58.7043 54.2683 84.4238 -15.0132 -12.9912 -19.0762
# 4 -5.7483 3.2397 -15.0132 40.7614 -2.3989 -2.3318
# 5 -39.0297 -20.1068 -12.9912 -2.3989 30.7191 2.0820
# 6 -12.6634 -14.4582 -19.0762 -2.3318 2.0820 37.8852
#
#
#
# Elastic Compliance Matrix: (Units=1/GPa)
#
#
# Indices 1 2 3 4 5 6 
#
# 1 0.027739 -0.004759 -0.011712 0.001592 0.027289 0.000157
# 2 -0.004759 0.010641 -0.004208 -0.003120 -0.001120 0.000221
# 3 -0.011712 -0.004208 0.024765 0.007835 -0.007079 0.007820
# 4 0.001592 -0.003120 0.007835 0.028469 0.005194 0.004753
# 5 0.027289 -0.001120 -0.007079 0.005194 0.063772 0.001945
# 6 0.000157 0.000221 0.007820 0.004753 0.001945 0.030656
#
#
# Mechanical properties :
#
#
# Convention : Reuss Voigt Hill
#
# Bulk Modulus (GPa) = 45.89841 77.90373 61.90107
# Shear Modulus (GPa) = 21.30743 32.53717 26.92230
#
# Velocity S-wave (km/s) = 3.25778 4.02574 3.66194
# Velocity P-wave (km/s) = 6.08379 7.77253 6.97942
#
# Compressibility (1/GPa) = 0.02178725
#
# Stress axis : x y z
#
# Youngs Moduli (GPa) = 36.05023 93.97990 40.38035
#
# Poissons Ratio (x) = 0.44724 0.47292
# Poissons Ratio (y) = 0.17156 0.16992
# Poissons Ratio (z) = 0.42220 0.39547
#
# Static dielectric constant tensor:
#      x y z
#    x 1.549850 0.242240 -0.047650 
#    y 0.242240 1.463860 0.121000 
#    z -0.047650 0.121000 1.682980 
# 
# From -- ./inp_files/613283.got.cif
#   From: 2010.05.17/outbox.cif.g08.bks.cpg/sg2_307_cif.got.tgz:613283.got - 2010.06.03 11:33:40.
