data_PCOD9034503
_publ_section_title
;
Structure prediction by ZEFSAII (Michael W. Deem and Ramdas Pophale) SiO2 
 PCOD9034503
Probable space group: P -1
;
_chemical_formula_sum "Si O2"
_cell_formula_units_Z 11
_cell_length_a 7.594727
_cell_length_b 8.908150
_cell_length_c 13.182822
_cell_angle_alpha 58.339407
_cell_angle_beta 69.158848
_cell_angle_gamma 34.946482
_cell_volume 429.745922
_symmetry_space_group_name_H-M "P -1"
_symmetry_group_IT_number 2
_symmetry_cell_setting 'triclinic'
loop_
_space_group_symop_operation_xyz
x,y,z
-x,-y,-z
loop_
_atom_site_type_symbol
_atom_site_label
_atom_site_fract_x
_atom_site_fract_y
_atom_site_fract_z
Si Si1 0.106870 0.138726 0.325079
Si Si2 0.067801 0.272924 0.507808
Si Si3 0.003619 0.961992 0.131907
Si Si4 0.565898 0.299121 0.279574
Si Si5 0.754704 0.840193 0.917967
Si Si6 0.500000 0.500000 0.500000
O O1 0.286806 0.114375 0.211090
O O2 0.019314 0.313470 0.381331
O O3 0.786898 0.284405 0.296133
O O4 0.331415 0.818478 0.431312
O O5 0.788090 0.347919 0.567315
O O6 0.000000 0.500000 0.500000
O O7 0.373398 0.934247 0.596797
O O8 0.224336 0.631363 0.222796
O O9 0.139396 0.040408 0.122626
O O10 0.685946 0.181766 0.181079
O O11 0.000000 0.000000 0.000000
O O12 0.000000 0.500000 0.000000
O O13 0.500000 0.000000 0.000000
#
# Coordination Sequence:
#
# PCOD9034503 Si02
#       6
#     2   2   2   2   2   1
#     4  10  24  42  75 101 147 198 247 304 386 452
#     4  11  26  44  71 115 148 196 254 316 382 456
#     4  11  24  46  70  99 142 195 246 301 375 438
#     4  10  23  43  73 100 143 197 243 305 379 448
#     4  11  25  44  71 105 144 189 248 305 373 444
#     4  10  22  44  76  98 152 194 244 306 388 442
#
# _framework density 25.596520999999999
#
# number of rings (size 3 to 8) (size 9 to 14) (size 15 to 20)
#    0.000    1.455    0.000    4.909   17.818    2.182 
#    3.273    0.000    0.000    0.000    0.000    0.000 
#    0.000    0.000    0.000    0.000    0.000    0.000 
#
# Total GULP energy -61336.792370 kJ/mol
# GULP energy per Si atom -5576.072034 kJ/mol
# Density = 2.553826 g / cm^3
# Si number density = 25.596521 Si / 1000 Ang^3
#
#
#
# Elastic Constant Matrix: (Units=GPa)
#
#
# Indices 1 2 3 4 5 6 
#
# 1 62.3463 29.2245 4.9332 6.2550 -4.6682 40.5649
# 2 29.2245 193.5560 68.9766 4.8832 2.7978 35.4253
# 3 4.9332 68.9766 128.6618 33.3363 6.1199 28.1879
# 4 6.2550 4.8832 33.3363 75.2950 6.7815 1.5235
# 5 -4.6682 2.7978 6.1199 6.7815 37.4703 2.3411
# 6 40.5649 35.4253 28.1879 1.5235 2.3411 46.9612
#
#
#
# Elastic Compliance Matrix: (Units=1/GPa)
#
#
# Indices 1 2 3 4 5 6 
#
# 1 0.048773 -0.002864 0.011931 -0.008995 0.008924 -0.047284
# 2 -0.002864 0.007069 -0.003955 0.001585 -0.000494 -0.000512
# 3 0.011931 -0.003955 0.014691 -0.007065 0.001660 -0.015994
# 4 -0.008995 0.001585 -0.007065 0.017189 -0.003849 0.010449
# 5 0.008924 -0.000494 0.001660 -0.003849 0.028865 -0.009647
# 6 -0.047284 -0.000512 -0.015994 0.010449 -0.009647 0.072266
#
#
# Mechanical properties :
#
#
# Convention : Reuss Voigt Hill
#
# Bulk Modulus (GPa) = 12.38285 65.64807 39.01546
# Shear Modulus (GPa) = 24.32520 50.70729 37.51625
#
# Velocity S-wave (km/s) = 3.08609 4.45570 3.83257
# Velocity P-wave (km/s) = 4.18889 7.22315 5.90427
#
# Compressibility (1/GPa) = 0.08075686
#
# Stress axis : x y z
#
# Youngs Moduli (GPa) = 20.50294 141.45994 68.07004
#
# Poissons Ratio (x) = 0.40511 -0.81212
# Poissons Ratio (y) = 0.05872 0.26923
# Poissons Ratio (z) = -0.24461 0.55950
#
# Static dielectric constant tensor:
#      x y z
#    x 2.101180 -0.110870 -0.040350 
#    y -0.110870 2.322980 0.235840 
#    z -0.040350 0.235840 2.106180 
# 
# From -- ./inp_files/103147.got.cif
#   From: 2010.05.17/outbox.cif.g08.bks.cpg/sg2_52_cif.got.tgz:103147.got - 2010.06.03 11:33:40.
