data_PCOD9034173
_publ_section_title
;
Structure prediction by ZEFSAII (Michael W. Deem and Ramdas Pophale) SiO2 
 PCOD9034173
Probable space group: P -1
;
_chemical_formula_sum "Si O2"
_cell_formula_units_Z 13
_cell_length_a 8.471534
_cell_length_b 10.205156
_cell_length_c 9.290827
_cell_angle_alpha 51.477210
_cell_angle_beta 118.191587
_cell_angle_gamma 95.663451
_cell_volume 531.124519
_symmetry_space_group_name_H-M "P -1"
_symmetry_group_IT_number 2
_symmetry_cell_setting 'triclinic'
loop_
_space_group_symop_operation_xyz
x,y,z
-x,-y,-z
loop_
_atom_site_type_symbol
_atom_site_label
_atom_site_fract_x
_atom_site_fract_y
_atom_site_fract_z
Si Si1 0.243541 0.149465 0.503762
Si Si2 0.144118 0.545538 0.143335
Si Si3 0.613214 0.960816 0.928328
Si Si4 0.915977 0.062222 0.599802
Si Si5 0.699201 0.380299 0.122007
Si Si6 0.000000 0.000000 0.000000
Si Si7 0.902632 0.597757 0.249338
O O1 0.244003 0.351036 0.380979
O O2 0.107534 0.091374 0.599855
O O3 0.457067 0.037053 0.688465
O O4 0.133377 0.118911 0.332580
O O5 0.043734 0.660890 0.158755
O O6 0.270868 0.619605 0.037368
O O7 0.000000 0.500000 0.000000
O O8 0.722145 0.756168 0.096561
O O9 0.785510 0.040004 0.943789
O O10 0.500000 0.000000 0.000000
O O11 0.753147 0.192600 0.347055
O O12 0.915636 0.089944 0.747558
O O13 0.840208 0.464267 0.211560
O O14 0.500000 0.500000 0.000000
O O15 0.000000 0.500000 0.500000
#
# Coordination Sequence:
#
# PCOD9034173 Si02
#       7
#     2   2   2   2   2   1   2
#     4  11  23  45  75 102 142 192 240 297 364 436
#     4  10  22  44  71  99 143 189 235 292 368 427
#     4  12  26  47  71 105 145 194 246 303 366 442
#     4  11  24  44  72 107 146 186 242 305 354 440
#     4  11  24  45  69 107 144 187 243 296 355 444
#     4  12  28  44  70 102 148 178 248 300 374 410
#     4  11  23  45  72  97 143 188 234 297 372 424
#
# _framework density 24.476368000000001
#
# number of rings (size 3 to 8) (size 9 to 14) (size 15 to 20)
#    0.000    0.923    4.615    2.769    6.462    0.615 
#    2.769    0.769    0.000    0.000    0.000    0.000 
#    0.000    0.000    0.000    0.000    0.000    0.000 
#
# Total GULP energy -72426.819542 kJ/mol
# GULP energy per Si atom -5571.293811 kJ/mol
# Density = 2.442066 g / cm^3
# Si number density = 24.476368 Si / 1000 Ang^3
#
#
#
# Elastic Constant Matrix: (Units=GPa)
#
#
# Indices 1 2 3 4 5 6 
#
# 1 150.0684 37.7695 68.3053 15.1571 7.8383 -34.4598
# 2 37.7695 73.8596 33.3813 4.2820 -11.0760 -24.8530
# 3 68.3053 33.3813 152.0807 -0.3273 -1.7645 -35.7466
# 4 15.1571 4.2820 -0.3273 43.7412 -15.1612 -3.5155
# 5 7.8383 -11.0760 -1.7645 -15.1612 43.0727 4.1301
# 6 -34.4598 -24.8530 -35.7466 -3.5155 4.1301 55.3650
#
#
#
# Elastic Compliance Matrix: (Units=1/GPa)
#
#
# Indices 1 2 3 4 5 6 
#
# 1 0.010408 -0.003284 -0.003337 -0.004749 -0.004826 0.002908
# 2 -0.003284 0.018180 -0.001275 0.001588 0.005300 0.004999
# 3 -0.003337 -0.001275 0.009147 0.001973 0.001031 0.003305
# 4 -0.004749 0.001588 0.001973 0.028286 0.011311 -0.000017
# 5 -0.004826 0.005300 0.001031 0.011311 0.029620 -0.001450
# 6 0.002908 0.004999 0.003305 -0.000017 -0.001450 0.024357
#
#
# Mechanical properties :
#
#
# Convention : Reuss Voigt Hill
#
# Bulk Modulus (GPa) = 45.57361 72.76898 59.17130
# Shear Modulus (GPa) = 34.93926 44.20594 39.57260
#
# Velocity S-wave (km/s) = 3.78228 4.25439 4.02527
# Velocity P-wave (km/s) = 6.14281 7.34357 6.76986
#
# Compressibility (1/GPa) = 0.02194252
#
# Stress axis : x y z
#
# Youngs Moduli (GPa) = 96.07573 55.00584 109.32522
#
# Poissons Ratio (x) = 0.18066 0.36477
# Poissons Ratio (y) = 0.31555 0.13944
# Poissons Ratio (z) = 0.32056 0.07016
#
# Static dielectric constant tensor:
#      x y z
#    x 2.116260 0.677760 -0.071370 
#    y 0.677760 5.280910 -0.047590 
#    z -0.071370 -0.047590 1.958040 
# 
# From -- ./inp_files/174512.got.cif
#   From: 2010.05.17/outbox.cif.g08.bks.cpg/sg2_88_cif.got.tgz:174512.got - 2010.06.03 11:33:40.
