data_PCOD9034616
_publ_section_title
;
Structure prediction by ZEFSAII (Michael W. Deem and Ramdas Pophale) SiO2 
 PCOD9034616
Probable space group: P -1
;
_chemical_formula_sum "Si O2"
_cell_formula_units_Z 14
_cell_length_a 14.926200
_cell_length_b 5.151875
_cell_length_c 9.085376
_cell_angle_alpha 116.956681
_cell_angle_beta 74.138142
_cell_angle_gamma 78.454837
_cell_volume 554.599383
_symmetry_space_group_name_H-M "P -1"
_symmetry_group_IT_number 2
_symmetry_cell_setting 'triclinic'
loop_
_space_group_symop_operation_xyz
x,y,z
-x,-y,-z
loop_
_atom_site_type_symbol
_atom_site_label
_atom_site_fract_x
_atom_site_fract_y
_atom_site_fract_z
Si Si1 0.133887 0.844905 0.406630
Si Si2 0.774528 0.415029 0.142059
Si Si3 0.516969 0.096873 0.857268
Si Si4 0.324783 0.600154 0.081772
Si Si5 0.919242 0.407761 0.331617
Si Si6 0.568200 0.692788 0.480028
Si Si7 0.077874 0.464179 0.091006
O O1 0.249347 0.639850 0.259033
O O2 0.102342 0.718357 0.536786
O O3 0.078584 0.757022 0.268119
O O4 0.118000 0.210581 0.532711
O O5 0.858706 0.309149 0.204368
O O6 0.673031 0.544382 0.313934
O O7 0.743760 0.216592 0.978385
O O8 0.816327 0.627065 0.068910
O O9 0.588619 0.289474 0.874605
O O10 0.584862 0.799175 0.660033
O O11 0.401104 0.263840 0.897629
O O12 0.500000 0.000000 0.000000
O O13 0.034154 0.292037 0.188935
O O14 0.500000 0.500000 0.500000
O O15 0.500000 0.000000 0.500000
O O16 0.000000 0.500000 0.000000
#
# Coordination Sequence:
#
# PCOD9034616 Si02
#       7
#     2   2   2   2   2   2   2
#     4  11  24  43  70 101 137 173 225 271 342 396
#     4  10  22  45  66 100 134 180 227 274 339 399
#     4  11  24  41  68  93 137 177 233 277 342 391
#     4  10  23  43  62  99 133 182 222 284 332 407
#     4  11  24  45  70 101 134 178 222 282 333 401
#     4  12  26  45  68  97 137 178 227 278 336 400
#     4   9  21  45  72 100 138 174 223 277 337 400
#
# _framework density 25.243445999999999
#
# number of rings (size 3 to 8) (size 9 to 14) (size 15 to 20)
#    0.000    1.429    1.429    2.571    6.000    1.143 
#    2.571   17.143    0.000    0.000    0.000    0.000 
#    0.000    0.000    0.000    0.000    0.000    0.000 
#
# Total GULP energy -77991.075415 kJ/mol
# GULP energy per Si atom -5570.791101 kJ/mol
# Density = 2.518599 g / cm^3
# Si number density = 25.243446 Si / 1000 Ang^3
#
#
#
# Elastic Constant Matrix: (Units=GPa)
#
#
# Indices 1 2 3 4 5 6 
#
# 1 162.0392 41.4742 62.9528 -14.0643 -34.4962 21.0314
# 2 41.4742 116.7702 59.8960 -29.8521 -19.1026 16.7143
# 3 62.9528 59.8960 186.4468 -46.9556 -28.2824 14.2437
# 4 -14.0643 -29.8521 -46.9556 41.8180 20.0179 -5.8569
# 5 -34.4962 -19.1026 -28.2824 20.0179 66.7479 -20.5174
# 6 21.0314 16.7143 14.2437 -5.8569 -20.5174 26.7168
#
#
#
# Elastic Compliance Matrix: (Units=1/GPa)
#
#
# Indices 1 2 3 4 5 6 
#
# 1 0.008173 -0.001564 -0.002300 -0.002653 0.002774 -0.002681
# 2 -0.001564 0.012042 -0.001589 0.006285 -0.001536 -0.005257
# 3 -0.002300 -0.001589 0.008605 0.007939 -0.000512 -0.000436
# 4 -0.002653 0.006285 0.007939 0.040447 -0.009793 -0.004729
# 5 0.002774 -0.001536 -0.000512 -0.009793 0.023227 0.014741
# 6 -0.002681 -0.005257 -0.000436 -0.004729 0.014741 0.053346
#
#
# Mechanical properties :
#
#
# Convention : Reuss Voigt Hill
#
# Bulk Modulus (GPa) = 55.81804 88.21136 72.01470
# Shear Modulus (GPa) = 30.72794 47.11875 38.92335
#
# Velocity S-wave (km/s) = 3.49272 4.32507 3.93099
# Velocity P-wave (km/s) = 6.19882 7.74350 7.01381
#
# Compressibility (1/GPa) = 0.01791535
#
# Stress axis : x y z
#
# Youngs Moduli (GPa) = 122.34896 83.03941 116.20490
#
# Poissons Ratio (x) = 0.12988 0.26726
# Poissons Ratio (y) = 0.19137 0.18465
# Poissons Ratio (z) = 0.28139 0.13195
#
# Static dielectric constant tensor:
#      x y z
#    x 1.983230 -0.125880 -0.018690 
#    y -0.125880 1.972400 0.030050 
#    z -0.018690 0.030050 2.010540 
# 
# From -- ./inp_files/40035.got.cif
#   From: 2010.05.17/outbox.cif.g08.bks.cpg/sg2_21_cif.got.tgz:40035.got - 2010.06.03 11:33:40.
