data_PCOD9034023
_publ_section_title
;
Structure prediction by ZEFSAII (Michael W. Deem and Ramdas Pophale) SiO2 
 PCOD9034023
Probable space group: P -1
;
_chemical_formula_sum "Si O2"
_cell_formula_units_Z 12
_cell_length_a 9.298310
_cell_length_b 9.320282
_cell_length_c 11.665008
_cell_angle_alpha 145.417543
_cell_angle_beta 113.354938
_cell_angle_gamma 60.093108
_cell_volume 497.180196
_symmetry_space_group_name_H-M "P -1"
_symmetry_group_IT_number 2
_symmetry_cell_setting 'triclinic'
loop_
_space_group_symop_operation_xyz
x,y,z
-x,-y,-z
loop_
_atom_site_type_symbol
_atom_site_label
_atom_site_fract_x
_atom_site_fract_y
_atom_site_fract_z
Si Si1 0.495613 0.364192 0.710433
Si Si2 0.717031 0.931149 0.648050
Si Si3 0.714913 0.154789 0.420780
Si Si4 0.178632 0.405454 0.159816
Si Si5 0.427567 0.997840 0.110391
Si Si6 0.040546 0.795368 0.173534
O O1 0.327141 0.308450 0.585262
O O2 0.625089 0.196358 0.543201
O O3 0.568808 0.205835 0.745097
O O4 0.474943 0.675700 0.908315
O O5 0.880518 0.981306 0.687748
O O6 0.704962 0.914401 0.768863
O O7 0.789738 0.398030 0.605564
O O8 0.878870 0.912028 0.280424
O O9 0.567237 0.128724 0.278141
O O10 0.330441 0.139289 0.059873
O O11 0.165440 0.564002 0.138521
O O12 0.016944 0.317804 0.034232
#
# Coordination Sequence:
#
# PCOD9034023 Si02
#       6
#     2   2   2   2   2   2
#     4  10  22  44  71 100 132 179 229 270 336 404
#     4  10  23  44  69  99 133 181 223 276 334 401
#     4  11  23  43  72 100 133 180 224 279 331 402
#     4  11  25  44  67 103 137 178 222 278 340 398
#     4  11  25  44  72 100 136 175 229 280 330 403
#     4  11  25  45  70  99 136 179 226 275 340 401
#
# _framework density 24.136118
#
# number of rings (size 3 to 8) (size 9 to 14) (size 15 to 20)
#    0.000    1.333    1.667    2.500    2.333    7.333 
#    0.000    1.667    0.000    0.000    0.000    0.000 
#    0.000    0.000    0.000    0.000    0.000    0.000 
#
# Total GULP energy -66932.168426 kJ/mol
# GULP energy per Si atom -5577.680702 kJ/mol
# Density = 2.408118 g / cm^3
# Si number density = 24.136118 Si / 1000 Ang^3
#
#
#
# Elastic Constant Matrix: (Units=GPa)
#
#
# Indices 1 2 3 4 5 6 
#
# 1 109.8333 29.9561 48.1415 -11.4379 29.1930 -12.3455
# 2 29.9561 117.0992 61.9290 -3.6132 14.1378 -17.3910
# 3 48.1415 61.9290 117.4925 -5.0924 24.9976 -2.6366
# 4 -11.4379 -3.6132 -5.0924 29.9776 -7.9618 -2.8918
# 5 29.1930 14.1378 24.9976 -7.9618 44.5002 -5.8212
# 6 -12.3455 -17.3910 -2.6366 -2.8918 -5.8212 24.6262
#
#
#
# Elastic Compliance Matrix: (Units=1/GPa)
#
#
# Indices 1 2 3 4 5 6 
#
# 1 0.013216 0.000465 -0.004312 0.003590 -0.005004 0.005731
# 2 0.000465 0.013628 -0.007302 0.001772 0.001031 0.009527
# 3 -0.004312 -0.007302 0.014832 -0.001857 -0.004431 -0.006996
# 4 0.003590 0.001772 -0.001857 0.037014 0.005871 0.008587
# 5 -0.005004 0.001031 -0.004431 0.005871 0.029679 0.005450
# 6 0.005731 0.009527 -0.006996 0.008587 0.005450 0.051756
#
#
# Mechanical properties :
#
#
# Convention : Reuss Voigt Hill
#
# Bulk Modulus (GPa) = 51.60400 69.38645 60.49523
# Shear Modulus (GPa) = 26.47172 33.44734 29.95953
#
# Velocity S-wave (km/s) = 3.31534 3.72664 3.52699
# Velocity P-wave (km/s) = 6.00684 6.87950 6.45793
#
# Compressibility (1/GPa) = 0.01937834
#
# Stress axis : x y z
#
# Youngs Moduli (GPa) = 75.66865 73.37902 67.42163
#
# Poissons Ratio (x) = -0.03415 0.29069
# Poissons Ratio (y) = -0.03522 0.49234
# Poissons Ratio (z) = 0.32625 0.53585
#
# Static dielectric constant tensor:
#      x y z
#    x 2.060850 -0.023080 -0.002840 
#    y -0.023080 1.907550 -0.006820 
#    z -0.002840 -0.006820 1.988070 
# 
# From -- ./inp_files/420185.got.cif
#   From: 2010.05.17/outbox.cif.g08.bks.cpg/sg2_211_cif.got.tgz:420185.got - 2010.06.03 11:33:40.
