data_PCOD9034397
_publ_section_title
;
Structure prediction by ZEFSAII (Michael W. Deem and Ramdas Pophale) SiO2 
 PCOD9034397
Probable space group: P -1
;
_chemical_formula_sum "Si O2"
_cell_formula_units_Z 16
_cell_length_a 8.905951
_cell_length_b 16.123178
_cell_length_c 20.031650
_cell_angle_alpha 20.107611
_cell_angle_beta 137.666504
_cell_angle_gamma 138.204765
_cell_volume 649.353816
_symmetry_space_group_name_H-M "P -1"
_symmetry_group_IT_number 2
_symmetry_cell_setting 'triclinic'
loop_
_space_group_symop_operation_xyz
x,y,z
-x,-y,-z
loop_
_atom_site_type_symbol
_atom_site_label
_atom_site_fract_x
_atom_site_fract_y
_atom_site_fract_z
Si Si1 0.829684 0.131541 0.614320
Si Si2 0.670365 0.112960 0.909154
Si Si3 0.435251 0.242676 0.486186
Si Si4 0.823180 0.679446 0.313851
Si Si5 0.683242 0.935297 0.277291
Si Si6 0.753835 0.486889 0.896216
Si Si7 0.521367 0.649640 0.825325
Si Si8 0.038199 0.595735 0.658385
O O1 0.624196 0.121519 0.605949
O O2 0.859015 0.400438 0.385245
O O3 0.063245 0.145240 0.720282
O O4 0.720851 0.895471 0.712176
O O5 0.530034 0.197387 0.737928
O O6 0.873223 0.347617 0.816340
O O7 0.500000 0.000000 0.000000
O O8 0.786062 0.889147 0.091886
O O9 0.577988 0.493349 0.379290
O O10 0.336776 0.069332 0.645671
O O11 0.275680 0.318903 0.318586
O O12 0.000000 0.500000 0.500000
O O13 0.890187 0.798652 0.442589
O O14 0.707720 0.217712 0.050679
O O15 0.587316 0.515367 0.881976
O O16 0.000000 0.500000 0.000000
O O17 0.265228 0.693808 0.700838
O O18 0.500000 0.500000 0.000000
#
# Coordination Sequence:
#
# PCOD9034397 Si02
#       8
#     2   2   2   2   2   2   2   2
#     4  11  23  47  73 105 152 196 256 315 381 454
#     4  12  25  47  75 113 157 198 261 322 384 467
#     4  11  24  48  73 110 152 195 256 315 388 461
#     4  10  22  44  74 104 144 191 241 319 374 442
#     4  12  27  46  75 110 150 203 256 315 393 460
#     4  12  28  48  76 108 155 201 256 320 384 456
#     4  12  27  48  74 112 150 202 265 313 382 464
#     4  12  26  44  76 109 151 206 252 315 389 452
#
# _framework density 24.639879000000001
#
# number of rings (size 3 to 8) (size 9 to 14) (size 15 to 20)
#    0.000    0.500    2.500    5.250    3.500    1.500 
#    0.000    4.375    0.000    0.000    0.000    0.000 
#    0.000    0.000    0.000    0.000    0.000    0.000 
#
# Total GULP energy -89287.834505 kJ/mol
# GULP energy per Si atom -5580.489657 kJ/mol
# Density = 2.458380 g / cm^3
# Si number density = 24.639879 Si / 1000 Ang^3
#
#
#
# Elastic Constant Matrix: (Units=GPa)
#
#
# Indices 1 2 3 4 5 6 
#
# 1 71.9593 1.4814 33.3097 8.7592 -4.3264 0.5542
# 2 1.4814 110.9006 37.5294 14.7765 10.2327 9.8440
# 3 33.3097 37.5294 130.8449 22.1498 -0.0691 3.6317
# 4 8.7592 14.7765 22.1498 63.0804 -4.8431 -1.4768
# 5 -4.3264 10.2327 -0.0691 -4.8431 47.8094 0.8608
# 6 0.5542 9.8440 3.6317 -1.4768 0.8608 28.6073
#
#
#
# Elastic Compliance Matrix: (Units=1/GPa)
#
#
# Indices 1 2 3 4 5 6 
#
# 1 0.016035 0.001288 -0.004282 -0.000949 0.001078 -0.000292
# 2 0.001288 0.010787 -0.003006 -0.001908 -0.002329 -0.003383
# 3 -0.004282 -0.003006 0.009976 -0.002206 0.000052 -0.000265
# 4 -0.000949 -0.001908 -0.002206 0.017406 0.002050 0.001792
# 5 0.001078 -0.002329 0.000052 0.002050 0.021716 0.000226
# 6 -0.000292 -0.003383 -0.000265 0.001792 0.000226 0.036245
#
#
# Mechanical properties :
#
#
# Convention : Reuss Voigt Hill
#
# Bulk Modulus (GPa) = 40.32834 50.92732 45.62783
# Shear Modulus (GPa) = 37.75557 43.99170 40.87364
#
# Velocity S-wave (km/s) = 3.91870 4.22997 4.07731
# Velocity P-wave (km/s) = 6.07269 6.67610 6.38153
#
# Compressibility (1/GPa) = 0.02479646
#
# Stress axis : x y z
#
# Youngs Moduli (GPa) = 62.36360 92.70786 100.24236
#
# Poissons Ratio (x) = -0.11938 0.42926
# Poissons Ratio (y) = -0.08031 0.30133
# Poissons Ratio (z) = 0.26705 0.27868
#
# Static dielectric constant tensor:
#      x y z
#    x 2.346960 -0.078600 -0.108120 
#    y -0.078600 2.033050 0.026780 
#    z -0.108120 0.026780 2.028730 
# 
# From -- ./inp_files/591203.got.cif
#   From: 2010.05.17/outbox.cif.g08.bks.cpg/sg2_296_cif.got.tgz:591203.got - 2010.06.03 11:33:40.
