data_PCOD9034278
_publ_section_title
;
Structure prediction by ZEFSAII (Michael W. Deem and Ramdas Pophale) SiO2 
 PCOD9034278
Probable space group: P -1
;
_chemical_formula_sum "Si O2"
_cell_formula_units_Z 15
_cell_length_a 10.620130
_cell_length_b 22.063177
_cell_length_c 13.095643
_cell_angle_alpha 22.876269
_cell_angle_beta 47.537170
_cell_angle_gamma 35.587774
_cell_volume 655.832169
_symmetry_space_group_name_H-M "P -1"
_symmetry_group_IT_number 2
_symmetry_cell_setting 'triclinic'
loop_
_space_group_symop_operation_xyz
x,y,z
-x,-y,-z
loop_
_atom_site_type_symbol
_atom_site_label
_atom_site_fract_x
_atom_site_fract_y
_atom_site_fract_z
Si Si1 0.142398 0.219338 0.644622
Si Si2 0.459624 0.904883 0.528051
Si Si3 0.234691 0.323911 0.087231
Si Si4 0.877016 0.146809 0.241488
Si Si5 0.246392 0.906928 0.240866
Si Si6 0.268658 0.631209 0.485512
Si Si7 0.952334 0.621232 0.233451
Si Si8 0.500000 0.000000 0.000000
O O1 0.353063 0.134078 0.589284
O O2 0.962291 0.214686 0.695045
O O3 0.000572 0.460862 0.372114
O O4 0.230168 0.086442 0.909416
O O5 0.577897 0.806355 0.725011
O O6 0.362296 0.797087 0.717256
O O7 0.257445 0.154634 0.269276
O O8 0.274448 0.454805 0.799901
O O9 0.000000 0.500000 0.000000
O O10 0.000000 0.000000 0.500000
O O11 0.025712 0.014670 0.263560
O O12 0.887287 0.327218 0.955479
O O13 0.271667 0.756865 0.378413
O O14 0.465868 0.826566 0.309053
O O15 0.500000 0.500000 0.500000
O O16 0.000000 0.500000 0.500000
O O17 0.697846 0.842516 0.045294
#
# Coordination Sequence:
#
# PCOD9034278 Si02
#       8
#     2   2   2   2   2   2   2   1
#     4  12  25  45  73 109 146 193 244 302 378 441
#     4  11  27  45  73 103 151 192 243 308 370 437
#     4  11  24  49  69 102 147 200 236 300 374 439
#     4  11  27  44  75 109 143 194 252 305 361 449
#     4  11  25  45  71 104 148 185 246 306 363 435
#     4  12  26  42  74 109 144 188 249 304 365 455
#     4  11  24  47  71 103 146 191 243 298 368 432
#     4  10  22  44  72  96 138 200 226 298 364 424
#
# _framework density 22.871706
#
# number of rings (size 3 to 8) (size 9 to 14) (size 15 to 20)
#    0.000    0.800    4.000    2.800    9.333    2.667 
#    0.000    0.000    0.000    0.000    0.000    0.000 
#    0.000    0.000    0.000    0.000    0.000    0.000 
#
# Total GULP energy -83669.753142 kJ/mol
# GULP energy per Si atom -5577.983543 kJ/mol
# Density = 2.281965 g / cm^3
# Si number density = 22.871706 Si / 1000 Ang^3
#
#
#
# Elastic Constant Matrix: (Units=GPa)
#
#
# Indices 1 2 3 4 5 6 
#
# 1 66.1456 23.9128 32.3539 -5.6603 -22.6383 -3.6671
# 2 23.9128 133.8467 35.7036 7.7854 -12.6189 -8.6481
# 3 32.3539 35.7036 126.6588 6.8182 -18.7436 4.0134
# 4 -5.6603 7.7854 6.8182 50.0135 8.7046 -9.3503
# 5 -22.6383 -12.6189 -18.7436 8.7046 45.6864 0.4137
# 6 -3.6671 -8.6481 4.0134 -9.3503 0.4137 40.1424
#
#
#
# Elastic Compliance Matrix: (Units=1/GPa)
#
#
# Indices 1 2 3 4 5 6 
#
# 1 0.020612 -0.001933 -0.003776 0.002239 0.007683 0.002286
# 2 -0.001933 0.008541 -0.001769 -0.001170 0.000884 0.001559
# 3 -0.003776 -0.001769 0.009872 -0.002296 0.002148 -0.002270
# 4 0.002239 -0.001170 -0.002296 0.022551 -0.004502 0.005481
# 5 0.007683 0.000884 0.002148 -0.004502 0.027685 -0.000656
# 6 0.002286 0.001559 -0.002270 0.005481 -0.000656 0.026966
#
#
# Mechanical properties :
#
#
# Convention : Reuss Voigt Hill
#
# Bulk Modulus (GPa) = 41.55053 56.73238 49.14145
# Shear Modulus (GPa) = 35.91770 42.81385 39.36578
#
# Velocity S-wave (km/s) = 3.96713 4.33126 4.15318
# Velocity P-wave (km/s) = 6.26022 7.06197 6.67315
#
# Compressibility (1/GPa) = 0.02406708
#
# Stress axis : x y z
#
# Youngs Moduli (GPa) = 48.51545 117.08689 101.29648
#
# Poissons Ratio (x) = 0.22637 0.38251
# Poissons Ratio (y) = 0.09380 0.17922
# Poissons Ratio (z) = 0.18320 0.20716
#
# Static dielectric constant tensor:
#      x y z
#    x 1.306540 0.177110 -0.076020 
#    y 0.177110 1.761090 0.006940 
#    z -0.076020 0.006940 1.839840 
# 
# From -- ./inp_files/524349.got.cif
#   From: 2010.05.17/outbox.cif.g08.bks.cpg/sg2_263_cif.got.tgz:524349.got - 2010.06.03 11:33:40.
