data_PCOD9034904
_publ_section_title
;
Structure prediction by ZEFSAII (Michael W. Deem and Ramdas Pophale) SiO2 
 PCOD9034904
Probable space group: P -1
;
_chemical_formula_sum "Si O2"
_cell_formula_units_Z 14
_cell_length_a 9.763875
_cell_length_b 8.562743
_cell_length_c 8.557755
_cell_angle_alpha 106.426161
_cell_angle_beta 75.320194
_cell_angle_gamma 108.790062
_cell_volume 639.232929
_symmetry_space_group_name_H-M "P -1"
_symmetry_group_IT_number 2
_symmetry_cell_setting 'triclinic'
loop_
_space_group_symop_operation_xyz
x,y,z
-x,-y,-z
loop_
_atom_site_type_symbol
_atom_site_label
_atom_site_fract_x
_atom_site_fract_y
_atom_site_fract_z
Si Si1 0.828626 0.989837 0.038142
Si Si2 0.058820 0.263921 0.461538
Si Si3 0.142260 0.927999 0.281702
Si Si4 0.340367 0.457410 0.615170
Si Si5 0.803782 0.276173 0.344039
Si Si6 0.395396 0.877986 0.375163
Si Si7 0.588934 0.673439 0.108148
O O1 0.725879 0.797983 0.012002
O O2 0.785622 0.092024 0.223539
O O3 0.816403 0.091935 0.913334
O O4 0.000000 0.000000 0.000000
O O5 0.221498 0.358154 0.494721
O O6 0.963457 0.228374 0.639630
O O7 0.972716 0.336890 0.372550
O O8 0.064529 0.079020 0.350490
O O9 0.292495 0.976769 0.348914
O O10 0.500000 0.500000 0.500000
O O11 0.269927 0.613352 0.714017
O O12 0.352946 0.365744 0.749021
O O13 0.710096 0.261987 0.525066
O O14 0.478206 0.788266 0.205878
O O15 0.500000 0.000000 0.500000
O O16 0.500000 0.500000 0.000000
#
# Coordination Sequence:
#
# PCOD9034904 Si02
#       7
#     2   2   2   2   2   2   2
#     4  12  25  46  70 102 140 188 233 293 350 426
#     4  10  22  45  69 103 137 178 238 294 342 428
#     4  10  23  39  74  97 134 181 234 282 357 406
#     4  12  26  44  71 100 140 186 231 292 356 412
#     4  11  24  43  73 102 137 184 239 286 354 422
#     4  11  22  44  70 101 136 184 240 291 339 426
#     4  12  29  46  67 106 152 179 235 299 358 409
#
# _framework density 21.901247999999999
#
# number of rings (size 3 to 8) (size 9 to 14) (size 15 to 20)
#    0.000    0.857    4.286    2.143    6.000    0.571 
#    5.143    1.429    0.000    0.000    0.000    0.000 
#    0.000    0.000    0.000    0.000    0.000    0.000 
#
# Total GULP energy -78142.218414 kJ/mol
# GULP energy per Si atom -5581.587030 kJ/mol
# Density = 2.185140 g / cm^3
# Si number density = 21.901248 Si / 1000 Ang^3
#
#
#
# Elastic Constant Matrix: (Units=GPa)
#
#
# Indices 1 2 3 4 5 6 
#
# 1 139.4440 35.4885 25.7000 -11.0738 4.5539 4.7607
# 2 35.4885 69.2796 19.8642 7.2669 -7.2594 9.7277
# 3 25.7000 19.8642 66.8376 -5.6826 -2.2726 13.6138
# 4 -11.0738 7.2669 -5.6826 36.1447 -1.7677 5.6595
# 5 4.5539 -7.2594 -2.2726 -1.7677 34.2051 0.2747
# 6 4.7607 9.7277 13.6138 5.6595 0.2747 44.9792
#
#
#
# Elastic Compliance Matrix: (Units=1/GPa)
#
#
# Indices 1 2 3 4 5 6 
#
# 1 0.009039 -0.004679 -0.001930 0.003263 -0.002158 0.000242
# 2 -0.004679 0.019198 -0.003850 -0.005407 0.004177 -0.001837
# 3 -0.001930 -0.003850 0.018220 0.003869 0.000890 -0.004970
# 4 0.003263 -0.005407 0.003869 0.031043 0.000314 -0.004255
# 5 -0.002158 0.004177 0.000890 0.000314 0.030494 -0.001170
# 6 0.000242 -0.001837 -0.004970 -0.004255 -0.001170 0.024651
#
#
# Mechanical properties :
#
#
# Convention : Reuss Voigt Hill
#
# Bulk Modulus (GPa) = 39.15798 48.62962 43.89380
# Shear Modulus (GPa) = 30.84966 36.03304 33.44135
#
# Velocity S-wave (km/s) = 3.75718 4.06057 3.91182
# Velocity P-wave (km/s) = 6.06135 6.65106 6.36304
#
# Compressibility (1/GPa) = 0.02553758
#
# Stress axis : x y z
#
# Youngs Moduli (GPa) = 110.62732 52.08925 54.88610
#
# Poissons Ratio (x) = 0.24374 0.10595
# Poissons Ratio (y) = 0.51767 0.21131
# Poissons Ratio (z) = 0.21354 0.20054
#
# Static dielectric constant tensor:
#      x y z
#    x 1.879970 -0.028780 0.010700 
#    y -0.028780 1.895200 -0.017830 
#    z 0.010700 -0.017830 1.816220 
# 
# From -- ./inp_files/157650.got.cif
#   From: 2010.05.17/outbox.cif.g08.bks.cpg/sg2_79_cif.got.tgz:157650.got - 2010.06.03 11:33:40.
