data_PCOD9034739
_publ_section_title
;
Structure prediction by ZEFSAII (Michael W. Deem and Ramdas Pophale) SiO2 
 PCOD9034739
Probable space group: P -1
;
_chemical_formula_sum "Si O2"
_cell_formula_units_Z 15
_cell_length_a 11.072824
_cell_length_b 13.143957
_cell_length_c 19.423531
_cell_angle_alpha 154.091353
_cell_angle_beta 31.139429
_cell_angle_gamma 146.541024
_cell_volume 612.252085
_symmetry_space_group_name_H-M "P -1"
_symmetry_group_IT_number 2
_symmetry_cell_setting 'triclinic'
loop_
_space_group_symop_operation_xyz
x,y,z
-x,-y,-z
loop_
_atom_site_type_symbol
_atom_site_label
_atom_site_fract_x
_atom_site_fract_y
_atom_site_fract_z
Si Si1 0.000000 0.500000 0.000000
Si Si2 0.354896 0.392112 0.097047
Si Si3 0.729222 0.914468 0.922113
Si Si4 0.647916 0.876545 0.481985
Si Si5 0.736762 0.421692 0.221454
Si Si6 0.732467 0.867489 0.152822
Si Si7 0.013071 0.335935 0.616224
Si Si8 0.854430 0.971759 0.742488
O O1 0.054675 0.546430 0.918879
O O2 0.803281 0.230454 0.917140
O O3 0.370099 0.315139 0.120715
O O4 0.596721 0.598907 0.083228
O O5 0.133027 0.508669 0.260527
O O6 0.310011 0.164407 0.928115
O O7 0.786384 0.864046 0.785395
O O8 0.988552 0.044819 0.911008
O O9 0.604656 0.135012 0.115209
O O10 0.601827 0.610946 0.373146
O O11 0.404940 0.952693 0.636866
O O12 0.806958 0.084475 0.583106
O O13 0.838337 0.910589 0.345572
O O14 0.849355 0.519879 0.299222
O O15 0.186215 0.233326 0.420507
#
# Coordination Sequence:
#
# PCOD9034739 Si02
#       8
#     1   2   2   2   2   2   2   2
#     4   8  16  28  48  84 112 142 198 228 276 348
#     4  10  21  37  55  86 119 145 198 233 281 351
#     4  11  21  35  63  82 115 154 191 235 290 334
#     4   8  18  33  52  82 115 141 193 235 275 344
#     4  10  17  32  57  84 111 154 190 236 286 337
#     4  10  20  37  58  82 116 151 189 240 286 337
#     4   9  17  32  54  80 115 147 190 233 282 336
#     4   8  18  32  51  86 111 149 188 237 282 341
#
# _framework density 24.499711999999999
#
# number of rings (size 3 to 8) (size 9 to 14) (size 15 to 20)
#    0.800    1.867    1.333    0.800    0.000    1.067 
#    0.000    0.667    0.000    0.000    0.000   15.867 
#    0.000    0.000    0.000    0.000    0.000    0.000 
#
# Total GULP energy -83540.970907 kJ/mol
# GULP energy per Si atom -5569.398060 kJ/mol
# Density = 2.444395 g / cm^3
# Si number density = 24.499712 Si / 1000 Ang^3
#
#
#
# Elastic Constant Matrix: (Units=GPa)
#
#
# Indices 1 2 3 4 5 6 
#
# 1 58.9698 35.3236 72.0849 -13.8869 1.8562 -10.1582
# 2 35.3236 107.8269 17.3756 24.3382 22.8862 -27.7573
# 3 72.0849 17.3756 24.2443 29.7800 37.7364 -23.6229
# 4 -13.8869 24.3382 29.7800 15.5527 -8.6243 6.9031
# 5 1.8562 22.8862 37.7364 -8.6243 31.2364 3.0765
# 6 -10.1582 -27.7573 -23.6229 6.9031 3.0765 28.9390
#
#
#
# Elastic Compliance Matrix: (Units=1/GPa)
#
#
# Indices 1 2 3 4 5 6 
#
# 1 0.012221 0.003451 0.002296 -0.010286 -0.010150 0.013007
# 2 0.003451 0.011898 -0.008264 -0.002854 -0.000378 0.006599
# 3 0.002296 -0.008264 0.003735 0.015080 0.006392 -0.008348
# 4 -0.010286 -0.002854 0.015080 0.025657 -0.008506 0.000746
# 5 -0.010150 -0.000378 0.006392 -0.008506 0.022734 0.000905
# 6 0.013007 0.006599 -0.008348 0.000746 0.000905 0.038362
#
#
# Mechanical properties :
#
#
# Convention : Reuss Voigt Hill
#
# Bulk Modulus (GPa) = 43.81766 48.95658 46.38712
# Shear Modulus (GPa) = 39.29320 19.56275 29.42797
#
# Velocity S-wave (km/s) = 4.00912 2.82882 3.46953
# Velocity P-wave (km/s) = 6.27332 5.54035 5.91819
#
# Compressibility (1/GPa) = 0.02282185
#
# Stress axis : x y z
#
# Youngs Moduli (GPa) = 81.82391 84.04424 267.74302
#
# Poissons Ratio (x) = -0.29001 -0.61486
# Poissons Ratio (y) = -0.28235 2.21252
# Poissons Ratio (z) = -0.18791 0.69451
#
# Static dielectric constant tensor:
#      x y z
#    x 1.974560 0.077920 -0.117820 
#    y 0.077920 1.981170 -0.012690 
#    z -0.117820 -0.012690 2.062760 
# 
# From -- ./inp_files/568302.got.cif
#   From: 2010.05.17/outbox.cif.g08.bks.cpg/sg2_285_cif.got.tgz:568302.got - 2010.06.03 11:33:40.
