data_PCOD9034123
_publ_section_title
;
Structure prediction by ZEFSAII (Michael W. Deem and Ramdas Pophale) SiO2 
 PCOD9034123
Probable space group: P -1
;
_chemical_formula_sum "Si O2"
_cell_formula_units_Z 16
_cell_length_a 13.445066
_cell_length_b 13.379295
_cell_length_c 16.992375
_cell_angle_alpha 22.774898
_cell_angle_beta 141.276520
_cell_angle_gamma 129.391252
_cell_volume 693.421594
_symmetry_space_group_name_H-M "P -1"
_symmetry_group_IT_number 2
_symmetry_cell_setting 'triclinic'
loop_
_space_group_symop_operation_xyz
x,y,z
-x,-y,-z
loop_
_atom_site_type_symbol
_atom_site_label
_atom_site_fract_x
_atom_site_fract_y
_atom_site_fract_z
Si Si1 0.183581 0.257160 0.297523
Si Si2 0.393114 0.768937 0.191065
Si Si3 0.153613 0.803725 0.141668
Si Si4 0.229206 0.076646 0.141557
Si Si5 0.538372 0.686894 0.696659
Si Si6 0.147527 0.278624 0.439352
Si Si7 0.420254 0.795720 0.013647
Si Si8 0.214704 0.622512 0.794104
O O1 0.315563 0.287264 0.291405
O O2 0.218416 0.295746 0.383826
O O3 0.192590 0.935812 0.529613
O O4 0.000000 0.500000 0.000000
O O5 0.500000 0.500000 0.500000
O O6 0.212883 0.892851 0.031739
O O7 0.484961 0.989438 0.087462
O O8 0.388606 0.699954 0.148439
O O9 0.190474 0.476444 0.387045
O O10 0.250530 0.902090 0.200085
O O11 0.952537 0.925574 0.940212
O O12 0.373571 0.957628 0.384562
O O13 0.214269 0.397432 0.890291
O O14 0.470851 0.462401 0.780046
O O15 0.618818 0.534089 0.937665
O O16 0.946709 0.356951 0.265166
O O17 0.235197 0.960058 0.746157
#
# Coordination Sequence:
#
# PCOD9034123 Si02
#       8
#     2   2   2   2   2   2   2   2
#     4  12  24  42  73 105 133 175 225 290 362 404
#     4  11  22  41  67 104 138 176 221 282 355 409
#     4  10  22  44  71  94 137 181 226 279 332 408
#     4  10  25  44  69  94 139 195 230 273 329 402
#     4  12  24  42  69  98 138 183 227 281 341 408
#     4  11  21  42  69 102 138 167 216 293 352 399
#     4  11  24  37  70 107 139 167 221 289 354 410
#     4  11  24  45  66  97 140 177 232 283 329 414
#
# _framework density 23.073986000000001
#
# number of rings (size 3 to 8) (size 9 to 14) (size 15 to 20)
#    0.000    1.000    3.750    3.000    3.500    0.500 
#    0.000    1.875    2.750    0.000    0.000    0.000 
#    0.000    0.000    0.000    0.000    0.000    0.000 
#
# Total GULP energy -89218.837648 kJ/mol
# GULP energy per Si atom -5576.177353 kJ/mol
# Density = 2.302147 g / cm^3
# Si number density = 23.073986 Si / 1000 Ang^3
#
#
#
# Elastic Constant Matrix: (Units=GPa)
#
#
# Indices 1 2 3 4 5 6 
#
# 1 35.9201 10.0293 8.5422 -9.6000 -6.8298 6.7221
# 2 10.0293 76.1943 37.5953 -26.8769 -10.7862 -1.3631
# 3 8.5422 37.5953 123.0204 -15.2844 -4.7503 1.2522
# 4 -9.6000 -26.8769 -15.2844 32.6365 -1.7861 7.5133
# 5 -6.8298 -10.7862 -4.7503 -1.7861 34.4513 1.4188
# 6 6.7221 -1.3631 1.2522 7.5133 1.4188 29.0830
#
#
#
# Elastic Compliance Matrix: (Units=1/GPa)
#
#
# Indices 1 2 3 4 5 6 
#
# 1 0.035499 0.002073 -0.000748 0.015145 0.008880 -0.012421
# 2 0.002073 0.022673 -0.004395 0.018688 0.008056 -0.004448
# 3 -0.000748 -0.004395 0.009626 0.000812 -0.000128 -0.000651
# 4 0.015145 0.018688 0.000812 0.055615 0.012575 -0.017641
# 5 0.008880 0.008056 -0.000128 0.012575 0.034215 -0.006587
# 6 -0.012421 -0.004448 -0.000651 -0.017641 -0.006587 0.041954
#
#
# Mechanical properties :
#
#
# Convention : Reuss Voigt Hill
#
# Bulk Modulus (GPa) = 16.21794 38.60760 27.41277
# Shear Modulus (GPa) = 22.09727 31.16535 26.63131
#
# Velocity S-wave (km/s) = 3.09798 3.67913 3.40099
# Velocity P-wave (km/s) = 4.45428 5.90055 5.22767
#
# Compressibility (1/GPa) = 0.06166011
#
# Stress axis : x y z
#
# Youngs Moduli (GPa) = 28.16979 44.10604 103.88278
#
# Poissons Ratio (x) = -0.09144 0.07766
# Poissons Ratio (y) = -0.05840 0.45652
# Poissons Ratio (z) = 0.02106 0.19383
#
# Static dielectric constant tensor:
#      x y z
#    x 1.878970 -0.027300 0.033990 
#    y -0.027300 1.972300 0.004550 
#    z 0.033990 0.004550 1.879460 
# 
# From -- ./inp_files/574011.got.cif
#   From: 2010.05.17/outbox.cif.g08.bks.cpg/sg2_288_cif.got.tgz:574011.got - 2010.06.03 11:33:40.
