data_PCOD9034625
_publ_section_title
;
Structure prediction by ZEFSAII (Michael W. Deem and Ramdas Pophale) SiO2 
 PCOD9034625
Probable space group: P -1
;
_chemical_formula_sum "Si O2"
_cell_formula_units_Z 14
_cell_length_a 5.298450
_cell_length_b 9.358059
_cell_length_c 15.367220
_cell_angle_alpha 53.990563
_cell_angle_beta 94.878679
_cell_angle_gamma 69.534991
_cell_volume 533.320525
_symmetry_space_group_name_H-M "P -1"
_symmetry_group_IT_number 2
_symmetry_cell_setting 'triclinic'
loop_
_space_group_symop_operation_xyz
x,y,z
-x,-y,-z
loop_
_atom_site_type_symbol
_atom_site_label
_atom_site_fract_x
_atom_site_fract_y
_atom_site_fract_z
Si Si1 0.244631 0.310170 0.515270
Si Si2 0.167688 0.630588 0.666316
Si Si3 0.513668 0.702088 0.947204
Si Si4 0.183592 0.111747 0.845103
Si Si5 0.385239 0.847908 0.702964
Si Si6 0.562960 0.280827 0.691776
Si Si7 0.015192 0.432775 0.869262
O O1 0.521574 0.287146 0.584694
O O2 0.000000 0.500000 0.500000
O O3 0.109668 0.356642 0.397445
O O4 0.325853 0.074029 0.606869
O O5 0.175107 0.822019 0.637583
O O6 0.421056 0.504868 0.649880
O O7 0.224401 0.500066 0.802059
O O8 0.358328 0.831601 0.810767
O O9 0.336637 0.872072 0.954165
O O10 0.500000 0.500000 0.000000
O O11 0.842308 0.643291 0.005088
O O12 0.398781 0.174988 0.776238
O O13 0.058178 0.245272 0.880427
O O14 0.898760 0.174073 0.758647
O O15 0.705277 0.640575 0.778910
#
# Coordination Sequence:
#
# PCOD9034625 Si02
#       7
#     2   2   2   2   2   2   2
#     4  10  23  44  71 104 145 188 242 297 365 435
#     4  10  22  45  66 102 145 182 239 300 360 431
#     4  12  26  44  71 105 144 191 239 305 359 438
#     4  11  24  47  73 103 148 192 242 298 360 436
#     4  12  23  45  72 102 144 187 240 303 364 432
#     4  10  22  45  72 106 141 191 241 298 361 432
#     4  11  25  45  69 106 140 189 243 293 368 431
#
# _framework density 26.250632
#
# number of rings (size 3 to 8) (size 9 to 14) (size 15 to 20)
#    0.000    1.143    4.286    1.286    2.000    1.714 
#    2.571    5.714    0.000    0.000    0.000    0.000 
#    0.000    0.000    0.000    0.000    0.000    0.000 
#
# Total GULP energy -78054.093085 kJ/mol
# GULP energy per Si atom -5575.292363 kJ/mol
# Density = 2.619088 g / cm^3
# Si number density = 26.250632 Si / 1000 Ang^3
#
#
#
# Elastic Constant Matrix: (Units=GPa)
#
#
# Indices 1 2 3 4 5 6 
#
# 1 90.2652 51.7541 34.7208 5.4756 18.5942 15.4828
# 2 51.7541 181.3250 27.6812 -19.2973 15.3970 28.8194
# 3 34.7208 27.6812 66.4764 3.6410 25.7389 24.9569
# 4 5.4756 -19.2973 3.6410 50.6318 16.5909 6.3690
# 5 18.5942 15.3970 25.7389 16.5909 34.8212 10.1506
# 6 15.4828 28.8194 24.9569 6.3690 10.1506 35.9712
#
#
#
# Elastic Compliance Matrix: (Units=1/GPa)
#
#
# Indices 1 2 3 4 5 6 
#
# 1 0.016092 -0.004039 -0.006895 -0.002701 -0.000961 0.001843
# 2 -0.004039 0.008244 0.002272 0.005503 -0.003953 -0.006301
# 3 -0.006895 0.002272 0.030667 0.007638 -0.018925 -0.016141
# 4 -0.002701 0.005503 0.007638 0.028471 -0.017697 -0.008593
# 5 -0.000961 -0.003953 -0.018925 -0.017697 0.051883 0.005203
# 6 0.001843 -0.006301 -0.016141 -0.008593 0.005203 0.043307
#
#
# Mechanical properties :
#
#
# Convention : Reuss Voigt Hill
#
# Bulk Modulus (GPa) = 26.54064 62.93098 44.73581
# Shear Modulus (GPa) = 23.97523 39.21219 31.59371
#
# Velocity S-wave (km/s) = 3.02540 3.86911 3.47297
# Velocity P-wave (km/s) = 4.72615 6.63214 5.75855
#
# Compressibility (1/GPa) = 0.03767806
#
# Stress axis : x y z
#
# Youngs Moduli (GPa) = 62.14179 121.30186 32.60814
#
# Poissons Ratio (x) = 0.48997 0.22483
# Poissons Ratio (y) = 0.25101 -0.07407
# Poissons Ratio (z) = 0.42846 -0.27554
#
# Static dielectric constant tensor:
#      x y z
#    x 2.164840 -0.050000 -0.019220 
#    y -0.050000 2.121300 -0.001770 
#    z -0.019220 -0.001770 2.123560 
# 
# From -- ./inp_files/39651.got.cif
#   From: 2010.05.17/outbox.cif.g08.bks.cpg/sg2_20_cif.got.tgz:39651.got - 2010.06.03 11:33:40.
