data_PCOD9034285
_publ_section_title
;
Structure prediction by ZEFSAII (Michael W. Deem and Ramdas Pophale) SiO2 
 PCOD9034285
Probable space group: P -1
;
_chemical_formula_sum "Si O2"
_cell_formula_units_Z 14
_cell_length_a 7.346867
_cell_length_b 9.360793
_cell_length_c 11.252012
_cell_angle_alpha 67.788106
_cell_angle_beta 60.106486
_cell_angle_gamma 72.462202
_cell_volume 614.911127
_symmetry_space_group_name_H-M "P -1"
_symmetry_group_IT_number 2
_symmetry_cell_setting 'triclinic'
loop_
_space_group_symop_operation_xyz
x,y,z
-x,-y,-z
loop_
_atom_site_type_symbol
_atom_site_label
_atom_site_fract_x
_atom_site_fract_y
_atom_site_fract_z
Si Si1 0.048773 0.669533 0.971054
Si Si2 0.966575 0.603762 0.594186
Si Si3 0.333142 0.583605 0.120553
Si Si4 0.462121 0.114569 0.634080
Si Si5 0.423210 0.164278 0.910541
Si Si6 0.226505 0.725641 0.655448
Si Si7 0.159326 0.064735 0.557458
O O1 0.218726 0.702847 0.805287
O O2 0.144868 0.669230 0.071438
O O3 0.000000 0.500000 0.000000
O O4 0.825666 0.781054 0.000429
O O5 0.755965 0.551964 0.734271
O O6 0.973894 0.777574 0.488911
O O7 0.000000 0.500000 0.500000
O O8 0.131363 0.594208 0.653246
O O9 0.441276 0.704978 0.125637
O O10 0.500000 0.500000 0.000000
O O11 0.455713 0.146292 0.764168
O O12 0.552786 0.249142 0.484923
O O13 0.241912 0.088794 0.655644
O O14 0.633318 0.966477 0.586314
O O15 0.500000 0.000000 0.000000
O O16 0.081140 0.897000 0.632292
#
# Coordination Sequence:
#
# PCOD9034285 Si02
#       7
#     2   2   2   2   2   2   2
#     4  12  26  48  73 109 146 192 238 296 373 427
#     4  12  25  41  68 106 139 183 241 297 355 430
#     4  12  28  47  73 105 152 196 232 296 376 434
#     4   9  23  44  70 100 132 183 244 292 351 414
#     4  12  29  48  75 110 146 190 248 301 356 438
#     4  10  22  44  72  97 136 192 240 292 351 438
#     4   9  23  42  73  94 137 186 238 285 360 415
#
# _framework density 22.767517000000002
#
# number of rings (size 3 to 8) (size 9 to 14) (size 15 to 20)
#    0.857    0.286    2.857    1.286   10.000    1.714 
#    0.000    2.143    0.000    0.000    0.000    0.000 
#    0.000    0.000    0.000    0.000    0.000    0.000 
#
# Total GULP energy -78170.831233 kJ/mol
# GULP energy per Si atom -5583.630802 kJ/mol
# Density = 2.271570 g / cm^3
# Si number density = 22.767517 Si / 1000 Ang^3
#
#
#
# Elastic Constant Matrix: (Units=GPa)
#
#
# Indices 1 2 3 4 5 6 
#
# 1 89.9007 25.4647 13.4209 17.6308 19.2228 19.3372
# 2 25.4647 72.9445 26.4144 10.7048 16.3855 24.2860
# 3 13.4209 26.4144 129.1624 14.7532 14.7479 14.8531
# 4 17.6308 10.7048 14.7532 33.2868 12.4881 8.4635
# 5 19.2228 16.3855 14.7479 12.4881 33.6315 6.9831
# 6 19.3372 24.2860 14.8531 8.4635 6.9831 49.5860
#
#
#
# Elastic Compliance Matrix: (Units=1/GPa)
#
#
# Indices 1 2 3 4 5 6 
#
# 1 0.014311 -0.002360 0.000416 -0.004359 -0.004948 -0.003109
# 2 -0.002360 0.018843 -0.002192 -0.000055 -0.005421 -0.006879
# 3 0.000416 -0.002192 0.008759 -0.002424 -0.001897 -0.001032
# 4 -0.004359 -0.000055 -0.002424 0.037828 -0.009924 -0.002606
# 5 -0.004948 -0.005421 -0.001897 -0.009924 0.039453 0.001291
# 6 -0.003109 -0.006879 -0.001032 -0.002606 0.001291 0.025320
#
#
# Mechanical properties :
#
#
# Convention : Reuss Voigt Hill
#
# Bulk Modulus (GPa) = 29.72564 46.95640 38.34102
# Shear Modulus (GPa) = 30.48754 38.41470 34.45112
#
# Velocity S-wave (km/s) = 3.66331 4.11208 3.89417
# Velocity P-wave (km/s) = 5.56576 6.57379 6.09066
#
# Compressibility (1/GPa) = 0.03364099
#
# Stress axis : x y z
#
# Youngs Moduli (GPa) = 69.87408 53.07036 114.16472
#
# Poissons Ratio (x) = 0.12527 -0.04750
# Poissons Ratio (y) = 0.16494 0.25023
# Poissons Ratio (z) = -0.02907 0.11632
#
# Static dielectric constant tensor:
#      x y z
#    x 1.927250 -0.039910 0.027780 
#    y -0.039910 1.834530 -0.018070 
#    z 0.027780 -0.018070 1.820110 
# 
# From -- ./inp_files/378571.got.cif
#   From: 2010.05.17/outbox.cif.g08.bks.cpg/sg2_190_cif.got.tgz:378571.got - 2010.06.03 11:33:40.
