data_PCOD9034543
_publ_section_title
;
Structure prediction by ZEFSAII (Michael W. Deem and Ramdas Pophale) SiO2 
 PCOD9034543
Probable space group: P -1
;
_chemical_formula_sum "Si O2"
_cell_formula_units_Z 14
_cell_length_a 13.361020
_cell_length_b 19.835528
_cell_length_c 9.541425
_cell_angle_alpha 145.139256
_cell_angle_beta 137.356208
_cell_angle_gamma 25.106891
_cell_volume 612.990581
_symmetry_space_group_name_H-M "P -1"
_symmetry_group_IT_number 2
_symmetry_cell_setting 'triclinic'
loop_
_space_group_symop_operation_xyz
x,y,z
-x,-y,-z
loop_
_atom_site_type_symbol
_atom_site_label
_atom_site_fract_x
_atom_site_fract_y
_atom_site_fract_z
Si Si1 0.073667 0.623952 0.684007
Si Si2 0.375822 0.304407 0.028003
Si Si3 0.659460 0.132055 0.752981
Si Si4 0.214421 0.764593 0.174111
Si Si5 0.948192 0.721052 0.398679
Si Si6 0.333047 0.883854 0.708799
Si Si7 0.341690 0.227793 0.358604
O O1 0.178469 0.427475 0.456900
O O2 0.019667 0.691144 0.583811
O O3 0.829254 0.770341 0.769486
O O4 0.248507 0.605313 0.909900
O O5 0.503898 0.215203 0.156675
O O6 0.169345 0.530460 0.215419
O O7 0.567900 0.215305 0.955910
O O8 0.253333 0.254890 0.781186
O O9 0.749009 0.186476 0.848606
O O10 0.434179 0.223037 0.591461
O O11 0.848130 0.908390 0.565139
O O12 0.347079 0.751280 0.411334
O O13 0.937935 0.941905 0.230550
O O14 0.430032 0.919372 0.756911
#
# Coordination Sequence:
#
# PCOD9034543 Si02
#       7
#     2   2   2   2   2   2   2
#     4  11  22  44  71  98 134 176 232 282 331 413
#     4  11  23  44  72 100 140 178 225 285 341 395
#     4  11  24  46  69 101 138 182 225 275 346 402
#     4  10  25  45  67  97 141 177 229 277 336 415
#     4  11  24  42  71 110 133 174 232 289 325 416
#     4  10  22  45  63 100 134 176 224 278 336 402
#     4  10  23  43  70 100 126 180 235 273 341 396
#
# _framework density 22.838849
#
# number of rings (size 3 to 8) (size 9 to 14) (size 15 to 20)
#    0.000    1.429    2.857    1.286    2.000    5.143 
#   15.429    1.429    0.000    0.000    0.000    0.000 
#    0.000    0.000    0.000    0.000    0.000    0.000 
#
# Total GULP energy -78297.564243 kJ/mol
# GULP energy per Si atom -5592.683160 kJ/mol
# Density = 2.278687 g / cm^3
# Si number density = 22.838849 Si / 1000 Ang^3
#
#
#
# Elastic Constant Matrix: (Units=GPa)
#
#
# Indices 1 2 3 4 5 6 
#
# 1 93.7223 -9.4981 48.5726 2.9392 -14.0457 -8.0408
# 2 -9.4981 46.3472 9.8921 -2.7426 -6.0185 6.6281
# 3 48.5726 9.8921 93.1298 -12.5033 -6.9153 -6.1489
# 4 2.9392 -2.7426 -12.5033 51.1709 -4.5449 -7.3459
# 5 -14.0457 -6.0185 -6.9153 -4.5449 39.4521 -0.3664
# 6 -8.0408 6.6281 -6.1489 -7.3459 -0.3664 40.2527
#
#
#
# Elastic Compliance Matrix: (Units=1/GPa)
#
#
# Indices 1 2 3 4 5 6 
#
# 1 0.017042 0.005932 -0.009432 -0.002433 0.005044 0.000589
# 2 0.005932 0.025171 -0.005734 -0.000520 0.004851 -0.003886
# 3 -0.009432 -0.005734 0.017010 0.004690 -0.000687 0.002508
# 4 -0.002433 -0.000520 0.004690 0.021629 0.002408 0.004285
# 5 0.005044 0.004851 -0.000687 0.002408 0.028047 0.000799
# 6 0.000589 -0.003886 0.002508 0.004285 0.000799 0.026773
#
#
# Mechanical properties :
#
#
# Convention : Reuss Voigt Hill
#
# Bulk Modulus (GPa) = 24.53605 36.79250 30.66427
# Shear Modulus (GPa) = 29.81092 38.45731 34.13412
#
# Velocity S-wave (km/s) = 3.61677 4.10793 3.87015
# Velocity P-wave (km/s) = 5.31111 6.21649 5.78155
#
# Compressibility (1/GPa) = 0.04075636
#
# Stress axis : x y z
#
# Youngs Moduli (GPa) = 58.67917 39.72872 58.78870
#
# Poissons Ratio (x) = -0.23568 0.55447
# Poissons Ratio (y) = -0.34810 0.33708
# Poissons Ratio (z) = 0.55344 0.22780
#
# Static dielectric constant tensor:
#      x y z
#    x 1.836070 -0.051330 0.003000 
#    y -0.051330 1.842570 0.051320 
#    z 0.003000 0.051320 1.887080 
# 
# From -- ./inp_files/158957.got.cif
#   From: 2010.05.17/outbox.cif.g08.bks.cpg/sg2_80_cif.got.tgz:158957.got - 2010.06.03 11:33:40.
