data_PCOD9034146
_publ_section_title
;
Structure prediction by ZEFSAII (Michael W. Deem and Ramdas Pophale) SiO2 
 PCOD9034146
Probable space group: P -1
;
_chemical_formula_sum "Si O2"
_cell_formula_units_Z 16
_cell_length_a 9.587614
_cell_length_b 6.160000
_cell_length_c 13.489857
_cell_angle_alpha 75.664660
_cell_angle_beta 105.773870
_cell_angle_gamma 103.915342
_cell_volume 729.905638
_symmetry_space_group_name_H-M "P -1"
_symmetry_group_IT_number 2
_symmetry_cell_setting 'triclinic'
loop_
_space_group_symop_operation_xyz
x,y,z
-x,-y,-z
loop_
_atom_site_type_symbol
_atom_site_label
_atom_site_fract_x
_atom_site_fract_y
_atom_site_fract_z
Si Si1 0.038283 0.136500 0.760746
Si Si2 0.239312 0.989152 0.666512
Si Si3 0.398282 0.500952 0.573587
Si Si4 0.599158 0.340966 0.936916
Si Si5 0.715832 0.683347 0.076440
Si Si6 0.521828 0.764199 0.753439
Si Si7 0.218318 0.955298 0.120998
Si Si8 0.120479 0.724874 0.478248
O O1 0.174786 0.321493 0.810145
O O2 0.931242 0.086633 0.840033
O O3 0.936974 0.184457 0.644471
O O4 0.131370 0.968035 0.742921
O O5 0.370356 0.853956 0.728280
O O6 0.148818 0.890222 0.561230
O O7 0.317547 0.253204 0.628170
O O8 0.500000 0.500000 0.500000
O O9 0.503610 0.648108 0.656987
O O10 0.272959 0.640393 0.504375
O O11 0.430121 0.210608 0.934857
O O12 0.558977 0.563485 0.851364
O O13 0.715959 0.235880 0.907031
O O14 0.667330 0.438051 0.043423
O O15 0.790090 0.850721 0.984571
O O16 0.655396 0.966016 0.781116
O O17 0.000000 0.500000 0.500000
#
# Coordination Sequence:
#
# PCOD9034146 Si02
#       8
#     2   2   2   2   2   2   2   2
#     4  12  25  43  69  95 143 178 219 277 348 396
#     4  11  25  46  67  98 137 182 231 272 335 411
#     4  11  25  41  69  97 135 175 229 284 332 393
#     4  10  22  44  71  97 132 174 229 282 330 402
#     4  10  23  44  66  98 134 175 229 274 337 410
#     4  10  23  41  68  97 131 175 229 273 339 397
#     4  11  24  42  67 103 134 174 225 282 339 405
#     4  11  26  45  66 102 137 182 228 270 337 411
#
# _framework density 21.920639999999999
#
# number of rings (size 3 to 8) (size 9 to 14) (size 15 to 20)
#    0.000    1.250    1.250    3.375    7.000    3.500 
#    2.250    0.000    0.000    0.000    0.000    0.000 
#    0.000    0.000    0.000    0.000    0.000    0.000 
#
# Total GULP energy -89248.008759 kJ/mol
# GULP energy per Si atom -5578.000547 kJ/mol
# Density = 2.187075 g / cm^3
# Si number density = 21.920640 Si / 1000 Ang^3
#
#
#
# Elastic Constant Matrix: (Units=GPa)
#
#
# Indices 1 2 3 4 5 6 
#
# 1 131.9898 39.8223 53.0947 28.5799 -31.0778 -11.3154
# 2 39.8223 62.3760 37.4400 30.3547 -3.7442 -18.0723
# 3 53.0947 37.4400 105.8749 38.2134 19.7509 -8.6122
# 4 28.5799 30.3547 38.2134 43.7329 6.6718 -0.8941
# 5 -31.0778 -3.7442 19.7509 6.6718 41.5940 13.9426
# 6 -11.3154 -18.0723 -8.6122 -0.8941 13.9426 19.1729
#
#
#
# Elastic Compliance Matrix: (Units=1/GPa)
#
#
# Indices 1 2 3 4 5 6 
#
# 1 0.022752 -0.012522 -0.016591 0.002615 0.033381 -0.029981
# 2 -0.012522 0.047316 0.008499 -0.027269 -0.023915 0.057147
# 3 -0.016591 0.008499 0.029816 -0.014895 -0.035783 0.036939
# 4 0.002615 -0.027269 -0.014895 0.050751 0.010552 -0.036157
# 5 0.033381 -0.023915 -0.035783 0.010552 0.090322 -0.084105
# 6 -0.029981 0.057147 0.036939 -0.036157 -0.084105 0.164397
#
#
# Mechanical properties :
#
#
# Convention : Reuss Voigt Hill
#
# Bulk Modulus (GPa) = 17.04849 62.32830 39.68840
# Shear Modulus (GPa) = 10.72651 32.22554 21.47602
#
# Velocity S-wave (km/s) = 2.21449 3.83835 3.13344
# Velocity P-wave (km/s) = 3.78588 6.93824 5.58892
#
# Compressibility (1/GPa) = 0.05865621
#
# Stress axis : x y z
#
# Youngs Moduli (GPa) = 43.95256 21.13430 33.53874
#
# Poissons Ratio (x) = 0.26464 0.55646
# Poissons Ratio (y) = 0.55036 -0.28505
# Poissons Ratio (z) = 0.72924 -0.17962
#
# Static dielectric constant tensor:
#      x y z
#    x 1.791670 0.037820 -0.020740 
#    y 0.037820 1.881530 0.025430 
#    z -0.020740 0.025430 1.847550 
# 
# From -- ./inp_files/488335.got.cif
#   From: 2010.05.17/outbox.cif.g08.bks.cpg/sg2_245_cif.got.tgz:488335.got - 2010.06.03 11:33:40.
