data_PCOD9034447
_publ_section_title
;
Structure prediction by ZEFSAII (Michael W. Deem and Ramdas Pophale) SiO2 
 PCOD9034447
Probable space group: P -1
;
_chemical_formula_sum "Si O2"
_cell_formula_units_Z 16
_cell_length_a 15.289778
_cell_length_b 9.313602
_cell_length_c 17.108266
_cell_angle_alpha 40.833091
_cell_angle_beta 28.206562
_cell_angle_gamma 39.297531
_cell_volume 706.264731
_symmetry_space_group_name_H-M "P -1"
_symmetry_group_IT_number 2
_symmetry_cell_setting 'triclinic'
loop_
_space_group_symop_operation_xyz
x,y,z
-x,-y,-z
loop_
_atom_site_type_symbol
_atom_site_label
_atom_site_fract_x
_atom_site_fract_y
_atom_site_fract_z
Si Si1 0.400771 0.687941 0.743486
Si Si2 0.990884 0.129086 0.340166
Si Si3 0.320729 0.411155 0.180085
Si Si4 0.989669 0.495241 0.300893
Si Si5 0.366889 0.179520 0.636581
Si Si6 0.830646 0.582189 0.034363
Si Si7 0.450223 0.855647 0.322768
Si Si8 0.226481 0.585354 0.354222
O O1 0.499180 0.742356 0.563609
O O2 0.210783 0.625814 0.894507
O O3 0.553602 0.473810 0.760134
O O4 0.373095 0.917833 0.721882
O O5 0.028277 0.229892 0.352516
O O6 0.753494 0.199002 0.492081
O O7 0.095974 0.855688 0.353953
O O8 0.095418 0.253653 0.146935
O O9 0.222330 0.496911 0.306487
O O10 0.189706 0.516904 0.163757
O O11 0.385920 0.131879 0.242285
O O12 0.500000 0.500000 0.000000
O O13 0.855759 0.654420 0.274251
O O14 0.861769 0.550030 0.458386
O O15 0.446710 0.195453 0.652777
O O16 0.616983 0.717020 0.186635
O O17 0.000000 0.500000 0.000000
#
# Coordination Sequence:
#
# PCOD9034447 Si02
#       8
#     2   2   2   2   2   2   2   2
#     4  10  23  42  72 107 140 189 245 296 358 429
#     4  12  27  45  77 108 146 194 239 301 364 432
#     4  12  27  44  69 108 144 189 241 303 359 426
#     4  11  25  44  72 106 140 188 244 295 363 429
#     4  10  22  44  75 101 143 191 240 297 359 426
#     4  12  28  47  71 109 149 191 243 301 365 431
#     4  12  25  49  74 106 147 191 244 295 361 439
#     4  11  23  46  72 104 143 191 240 299 363 428
#
# _framework density 22.654395000000001
#
# number of rings (size 3 to 8) (size 9 to 14) (size 15 to 20)
#    0.000    0.750    2.500    4.500    3.500    4.000 
#    0.000    1.875    0.000    0.000    0.000    0.000 
#    0.000    0.000    0.000    0.000    0.000    0.000 
#
# Total GULP energy -89524.085863 kJ/mol
# GULP energy per Si atom -5595.255366 kJ/mol
# Density = 2.260283 g / cm^3
# Si number density = 22.654395 Si / 1000 Ang^3
#
#
#
# Elastic Constant Matrix: (Units=GPa)
#
#
# Indices 1 2 3 4 5 6 
#
# 1 134.2928 30.0587 52.2789 1.7307 -33.2920 -5.3918
# 2 30.0587 89.4733 40.3184 14.6264 -4.9968 3.9729
# 3 52.2789 40.3184 143.5515 1.6868 -26.7345 0.3311
# 4 1.7307 14.6264 1.6868 21.6730 2.4369 4.7629
# 5 -33.2920 -4.9968 -26.7345 2.4369 48.8569 7.0339
# 6 -5.3918 3.9729 0.3311 4.7629 7.0339 36.1090
#
#
#
# Elastic Compliance Matrix: (Units=1/GPa)
#
#
# Indices 1 2 3 4 5 6 
#
# 1 0.010116 -0.002215 -0.002052 0.000080 0.005439 0.000703
# 2 -0.002215 0.015004 -0.003554 -0.009420 -0.001387 -0.000436
# 3 -0.002052 -0.003554 0.009325 0.001649 0.003385 -0.000878
# 4 0.000080 -0.009420 0.001649 0.053827 -0.001870 -0.005702
# 5 0.005439 -0.001387 0.003385 -0.001870 0.026553 -0.003992
# 6 0.000703 -0.000436 -0.000878 -0.005702 -0.003992 0.029385
#
#
# Mechanical properties :
#
#
# Convention : Reuss Voigt Hill
#
# Bulk Modulus (GPa) = 53.18041 68.06996 60.62519
# Shear Modulus (GPa) = 30.09905 37.63853 33.86879
#
# Velocity S-wave (km/s) = 3.64898 4.08048 3.87074
# Velocity P-wave (km/s) = 6.42487 7.23276 6.84075
#
# Compressibility (1/GPa) = 0.01880392
#
# Stress axis : x y z
#
# Youngs Moduli (GPa) = 98.84896 66.64896 107.24270
#
# Poissons Ratio (x) = 0.14760 0.22004
# Poissons Ratio (y) = 0.21892 0.38115
# Poissons Ratio (z) = 0.20282 0.23688
#
# Static dielectric constant tensor:
#      x y z
#    x 1.816630 -0.056220 -0.049450 
#    y -0.056220 1.786520 -0.115820 
#    z -0.049450 -0.115820 1.598560 
# 
# From -- ./inp_files/572810.got.cif
#   From: 2010.05.17/outbox.cif.g08.bks.cpg/sg2_287_cif.got.tgz:572810.got - 2010.06.03 11:33:40.
