data_PCOD9034250
_publ_section_title
;
Structure prediction by ZEFSAII (Michael W. Deem and Ramdas Pophale) SiO2 
 PCOD9034250
Probable space group: P -1
;
_chemical_formula_sum "Si O2"
_cell_formula_units_Z 16
_cell_length_a 19.698252
_cell_length_b 9.952172
_cell_length_c 8.227568
_cell_angle_alpha 88.660933
_cell_angle_beta 67.589274
_cell_angle_gamma 139.153936
_cell_volume 835.591045
_symmetry_space_group_name_H-M "P -1"
_symmetry_group_IT_number 2
_symmetry_cell_setting 'triclinic'
loop_
_space_group_symop_operation_xyz
x,y,z
-x,-y,-z
loop_
_atom_site_type_symbol
_atom_site_label
_atom_site_fract_x
_atom_site_fract_y
_atom_site_fract_z
Si Si1 0.054896 0.857801 0.701191
Si Si2 0.737793 0.379730 0.252252
Si Si3 0.139276 0.199473 0.040300
Si Si4 0.353680 0.703544 0.318037
Si Si5 0.966296 0.250570 0.948239
Si Si6 0.357944 0.901791 0.991327
Si Si7 0.845672 0.797276 0.619085
Si Si8 0.905612 0.385024 0.740276
O O1 0.985878 0.888854 0.831080
O O2 0.941165 0.594280 0.738232
O O3 0.155064 0.058482 0.468416
O O4 0.105315 0.850601 0.808480
O O5 0.654101 0.241775 0.497617
O O6 0.680915 0.228878 0.142109
O O7 0.879010 0.527433 0.160948
O O8 0.768690 0.583915 0.177419
O O9 0.210627 0.302853 0.146690
O O10 0.086537 0.970127 0.068397
O O11 0.226875 0.417424 0.422861
O O12 0.490042 0.830318 0.174454
O O13 0.349532 0.795619 0.163243
O O14 0.941815 0.337230 0.851055
O O15 0.250643 0.853650 0.125752
O O16 0.000000 0.000000 0.500000
O O17 0.000000 0.500000 0.500000
#
# Coordination Sequence:
#
# PCOD9034250 Si02
#       8
#     2   2   2   2   2   2   2   2
#     4  10  19  33  56  84 120 148 195 251 298 344
#     4  11  19  37  61  89 121 156 203 249 306 354
#     4  10  18  33  58  89 119 151 195 255 298 353
#     4  11  22  37  61  91 121 161 198 256 305 352
#     4  11  21  33  59  90 124 151 197 254 308 355
#     4  11  23  40  57  89 126 159 205 248 299 370
#     4  10  17  32  56  86 118 146 192 247 301 346
#     4  12  23  39  58  88 124 164 199 247 307 362
#
# _framework density 19.148122999999998
#
# number of rings (size 3 to 8) (size 9 to 14) (size 15 to 20)
#    0.000    1.250    3.750    6.750    0.000    0.000 
#    0.000    0.000    0.000    6.000    0.000    0.000 
#    0.000    0.000    0.000    0.000    0.000    0.000 
#
# Total GULP energy -89120.319819 kJ/mol
# GULP energy per Si atom -5570.019989 kJ/mol
# Density = 1.910454 g / cm^3
# Si number density = 19.148123 Si / 1000 Ang^3
#
#
#
# Elastic Constant Matrix: (Units=GPa)
#
#
# Indices 1 2 3 4 5 6 
#
# 1 93.5616 7.5260 52.4905 -9.7672 20.1359 6.5356
# 2 7.5260 49.7719 11.9708 -0.1979 -2.8444 0.5811
# 3 52.4905 11.9708 101.3198 1.7485 16.8276 17.1136
# 4 -9.7672 -0.1979 1.7485 24.0239 4.1142 6.9075
# 5 20.1359 -2.8444 16.8276 4.1142 38.1243 1.2189
# 6 6.5356 0.5811 17.1136 6.9075 1.2189 20.0529
#
#
#
# Elastic Compliance Matrix: (Units=1/GPa)
#
#
# Indices 1 2 3 4 5 6 
#
# 1 0.017767 -0.001170 -0.007720 0.009565 -0.007031 -0.002036
# 2 -0.001170 0.021127 -0.002874 -0.001415 0.003536 0.002495
# 3 -0.007720 -0.002874 0.016613 -0.000637 -0.003044 -0.011174
# 4 0.009565 -0.001415 -0.000637 0.053064 -0.009957 -0.020206
# 5 -0.007031 0.003536 -0.003044 -0.009957 0.032426 0.006245
# 6 -0.002036 0.002495 -0.011174 -0.020206 0.006245 0.066576
#
#
# Mechanical properties :
#
#
# Convention : Reuss Voigt Hill
#
# Bulk Modulus (GPa) = 31.27051 43.18088 37.22569
# Shear Modulus (GPa) = 20.68169 27.95129 24.31649
#
# Velocity S-wave (km/s) = 3.29004 3.82480 3.56745
# Velocity P-wave (km/s) = 5.54966 6.48887 6.03756
#
# Compressibility (1/GPa) = 0.03197901
#
# Stress axis : x y z
#
# Youngs Moduli (GPa) = 56.28346 47.33240 60.19545
#
# Poissons Ratio (x) = 0.05537 0.46470
# Poissons Ratio (y) = 0.06584 0.17302
# Poissons Ratio (z) = 0.43450 0.13605
#
# Static dielectric constant tensor:
#      x y z
#    x 1.691300 0.014540 0.034550 
#    y 0.014540 1.711400 0.036410 
#    z 0.034550 0.036410 1.769860 
# 
# From -- ./inp_files/327561.got.cif
#   From: 2010.05.17/outbox.cif.g08.bks.cpg/sg2_164_cif.got.tgz:327561.got - 2010.06.03 11:33:40.
