data_PCOD9034364
_publ_section_title
;
Structure prediction by ZEFSAII (Michael W. Deem and Ramdas Pophale) SiO2 
 PCOD9034364
Probable space group: P -1
;
_chemical_formula_sum "Si O2"
_cell_formula_units_Z 14
_cell_length_a 7.608250
_cell_length_b 8.458816
_cell_length_c 11.847495
_cell_angle_alpha 73.637837
_cell_angle_beta 84.973397
_cell_angle_gamma 51.927983
_cell_volume 572.178305
_symmetry_space_group_name_H-M "P -1"
_symmetry_group_IT_number 2
_symmetry_cell_setting 'triclinic'
loop_
_space_group_symop_operation_xyz
x,y,z
-x,-y,-z
loop_
_atom_site_type_symbol
_atom_site_label
_atom_site_fract_x
_atom_site_fract_y
_atom_site_fract_z
Si Si1 0.677796 0.492849 0.413065
Si Si2 0.772461 0.716374 0.855771
Si Si3 0.663203 0.155755 0.049597
Si Si4 0.455449 0.055172 0.622815
Si Si5 0.133448 0.702989 0.146673
Si Si6 0.155074 0.732058 0.783224
Si Si7 0.013011 0.835209 0.365884
O O1 0.500000 0.500000 0.500000
O O2 0.615123 0.718600 0.388603
O O3 0.705659 0.430907 0.293001
O O4 0.907961 0.298462 0.498349
O O5 0.571112 0.806300 0.939073
O O6 0.838355 0.494660 0.861877
O O7 0.994660 0.697051 0.866077
O O8 0.655486 0.873356 0.724607
O O9 0.693631 0.259412 0.135608
O O10 0.701857 0.254724 0.922637
O O11 0.881230 0.912336 0.090998
O O12 0.240386 0.070784 0.660280
O O13 0.500000 0.000000 0.500000
O O14 0.158367 0.685730 0.283474
O O15 0.996289 0.962590 0.685588
#
# Coordination Sequence:
#
# PCOD9034364 Si02
#       7
#     2   2   2   2   2   2   2
#     4  12  25  40  65 102 138 177 222 279 336 399
#     4  12  23  43  68  99 133 176 225 274 336 396
#     4  10  24  47  69  98 135 177 224 280 335 392
#     4  12  23  40  66  97 134 181 225 271 334 403
#     4  10  22  44  73  96 132 178 228 274 333 403
#     4  11  24  42  66  99 138 172 224 279 329 404
#     4  11  22  44  65  96 137 176 223 277 331 402
#
# _framework density 24.467898000000002
#
# number of rings (size 3 to 8) (size 9 to 14) (size 15 to 20)
#    0.000    0.857    2.857    5.571    2.000    0.571 
#    0.000    6.429    0.000    0.000    0.000    0.000 
#    0.000    0.000    0.000    0.000    0.000    0.000 
#
# Total GULP energy -78430.392289 kJ/mol
# GULP energy per Si atom -5602.170878 kJ/mol
# Density = 2.441221 g / cm^3
# Si number density = 24.467898 Si / 1000 Ang^3
#
#
#
# Elastic Constant Matrix: (Units=GPa)
#
#
# Indices 1 2 3 4 5 6 
#
# 1 129.7773 35.4155 34.4592 -1.1948 -39.5555 2.2058
# 2 35.4155 109.2398 17.6464 13.4547 -8.3571 5.0906
# 3 34.4592 17.6464 117.6567 18.7156 -13.8477 -4.4128
# 4 -1.1948 13.4547 18.7156 34.9066 -4.0991 -0.2891
# 5 -39.5555 -8.3571 -13.8477 -4.0991 45.9321 -8.3661
# 6 2.2058 5.0906 -4.4128 -0.2891 -8.3661 25.2017
#
#
#
# Elastic Compliance Matrix: (Units=1/GPa)
#
#
# Indices 1 2 3 4 5 6 
#
# 1 0.012420 -0.003499 -0.002508 0.004334 0.010164 0.002604
# 2 -0.003499 0.010842 -0.000229 -0.004431 -0.001985 -0.002634
# 3 -0.002508 -0.000229 0.010314 -0.005410 0.000842 0.002289
# 4 0.004334 -0.004431 -0.005410 0.033957 0.004596 0.001484
# 5 0.010164 -0.001985 0.000842 0.004596 0.032755 0.010585
# 6 0.002604 -0.002634 0.002289 0.001484 0.010585 0.043916
#
#
# Mechanical properties :
#
#
# Convention : Reuss Voigt Hill
#
# Bulk Modulus (GPa) = 47.38485 59.07953 53.23219
# Shear Modulus (GPa) = 30.54190 39.15159 34.84675
#
# Velocity S-wave (km/s) = 3.53688 4.00449 3.77793
# Velocity P-wave (km/s) = 6.00729 6.75125 6.39011
#
# Compressibility (1/GPa) = 0.02110379
#
# Stress axis : x y z
#
# Youngs Moduli (GPa) = 80.51589 92.23269 96.95861
#
# Poissons Ratio (x) = 0.32271 0.24319
# Poissons Ratio (y) = 0.28172 0.02219
# Poissons Ratio (z) = 0.20195 0.02111
#
# Static dielectric constant tensor:
#      x y z
#    x 1.950400 -0.006810 -0.003050 
#    y -0.006810 1.680250 0.142160 
#    z -0.003050 0.142160 1.891020 
# 
# From -- ./inp_files/378671.got.cif
#   From: 2010.05.17/outbox.cif.g08.bks.cpg/sg2_190_cif.got.tgz:378671.got - 2010.06.03 11:33:40.
