data_PCOD9034270
_publ_section_title
;
Structure prediction by ZEFSAII (Michael W. Deem and Ramdas Pophale) SiO2 
 PCOD9034270
Probable space group: P -1
;
_chemical_formula_sum "Si O2"
_cell_formula_units_Z 11
_cell_length_a 7.049141
_cell_length_b 5.180059
_cell_length_c 11.785309
_cell_angle_alpha 68.837142
_cell_angle_beta 84.187912
_cell_angle_gamma 78.925259
_cell_volume 393.604026
_symmetry_space_group_name_H-M "P -1"
_symmetry_group_IT_number 2
_symmetry_cell_setting 'triclinic'
loop_
_space_group_symop_operation_xyz
x,y,z
-x,-y,-z
loop_
_atom_site_type_symbol
_atom_site_label
_atom_site_fract_x
_atom_site_fract_y
_atom_site_fract_z
Si Si1 0.627721 0.188929 0.304561
Si Si2 0.202316 0.577056 0.937407
Si Si3 0.704342 0.332364 0.832274
Si Si4 0.334792 0.829292 0.446083
Si Si5 0.879322 0.552421 0.614126
Si Si6 0.500000 0.000000 0.000000
O O1 0.793368 0.204396 0.200480
O O2 0.444577 0.386831 0.229406
O O3 0.688249 0.290905 0.407538
O O4 0.544061 0.913144 0.393885
O O5 0.338339 0.287652 0.943374
O O6 0.290776 0.712725 0.022025
O O7 0.000000 0.500000 0.000000
O O8 0.907496 0.387436 0.758985
O O9 0.611199 0.057994 0.859633
O O10 0.293220 0.612118 0.389806
O O11 0.181220 0.119598 0.409779
O O12 0.000000 0.500000 0.500000
#
# Coordination Sequence:
#
# PCOD9034270 Si02
#       6
#     2   2   2   2   2   1
#     4   9  21  43  68  98 137 179 241 289 353 432
#     4  11  25  44  70 105 141 185 240 298 356 432
#     4  10  24  41  68 100 134 189 230 294 361 423
#     4  10  23  43  69 101 131 195 233 292 360 431
#     4  11  25  42  69 101 146 179 240 298 360 429
#     4  10  22  44  72  94 140 186 228 292 360 422
#
# _framework density 27.946871000000002
#
# number of rings (size 3 to 8) (size 9 to 14) (size 15 to 20)
#    0.000    1.818    0.000    2.727   10.182    8.727 
#    6.545    0.000    0.000    0.000    0.000    0.000 
#    0.000    0.000    0.000    0.000    0.000    0.000 
#
# Total GULP energy -61236.668380 kJ/mol
# GULP energy per Si atom -5566.969853 kJ/mol
# Density = 2.788326 g / cm^3
# Si number density = 27.946871 Si / 1000 Ang^3
#
#
#
# Elastic Constant Matrix: (Units=GPa)
#
#
# Indices 1 2 3 4 5 6 
#
# 1 61.9099 10.4373 14.3488 7.6483 -32.2516 -9.8867
# 2 10.4373 146.7691 19.6977 4.5427 3.9391 -11.2976
# 3 14.3488 19.6977 215.2475 -11.1801 -58.9146 -3.8953
# 4 7.6483 4.5427 -11.1801 39.2073 7.8391 10.0607
# 5 -32.2516 3.9391 -58.9146 7.8391 64.6341 13.4134
# 6 -9.8867 -11.2976 -3.8953 10.0607 13.4134 27.8302
#
#
#
# Elastic Compliance Matrix: (Units=1/GPa)
#
#
# Indices 1 2 3 4 5 6 
#
# 1 0.025448 -0.001920 0.002218 -0.008209 0.014932 0.004342
# 2 -0.001920 0.007636 -0.001542 -0.001369 -0.003581 0.004422
# 3 0.002218 -0.001542 0.006797 0.000876 0.007916 -0.003019
# 4 -0.008209 -0.001369 0.000876 0.031648 -0.004426 -0.012657
# 5 0.014932 -0.003581 0.007916 -0.004426 0.032814 -0.009256
# 6 0.004342 0.004422 -0.003019 -0.012657 -0.009256 0.047884
#
#
# Mechanical properties :
#
#
# Convention : Reuss Voigt Hill
#
# Bulk Modulus (GPa) = 26.74213 56.98823 41.86518
# Shear Modulus (GPa) = 29.90809 51.63051 40.76930
#
# Velocity S-wave (km/s) = 3.27490 4.30286 3.82359
# Velocity P-wave (km/s) = 4.88771 6.71730 5.87417
#
# Compressibility (1/GPa) = 0.03739418
#
# Stress axis : x y z
#
# Youngs Moduli (GPa) = 39.29531 130.96267 147.13121
#
# Poissons Ratio (x) = 0.25143 -0.32640
# Poissons Ratio (y) = 0.07544 0.22686
# Poissons Ratio (z) = -0.08717 0.20193
#
# Static dielectric constant tensor:
#      x y z
#    x 2.097880 -0.290300 -0.017010 
#    y -0.290300 1.787110 0.184010 
#    z -0.017010 0.184010 2.537160 
# 
# From -- ./inp_files/22222.got.cif
#   From: 2010.05.17/outbox.cif.g08.bks.cpg/sg2_12_cif.got.tgz:22222.got - 2010.06.03 11:33:40.
