data_PCOD9034709
_publ_section_title
;
Structure prediction by ZEFSAII (Michael W. Deem and Ramdas Pophale) SiO2 
 PCOD9034709
Probable space group: P -1
;
_chemical_formula_sum "Si O2"
_cell_formula_units_Z 16
_cell_length_a 13.018700
_cell_length_b 8.763669
_cell_length_c 14.817053
_cell_angle_alpha 88.554621
_cell_angle_beta 151.444690
_cell_angle_gamma 84.135897
_cell_volume 779.994520
_symmetry_space_group_name_H-M "P -1"
_symmetry_group_IT_number 2
_symmetry_cell_setting 'triclinic'
loop_
_space_group_symop_operation_xyz
x,y,z
-x,-y,-z
loop_
_atom_site_type_symbol
_atom_site_label
_atom_site_fract_x
_atom_site_fract_y
_atom_site_fract_z
Si Si1 0.933549 0.817552 0.305808
Si Si2 0.056708 0.169530 0.035621
Si Si3 0.181845 0.071443 0.502099
Si Si4 0.641560 0.836095 0.904900
Si Si5 0.583363 0.432550 0.298169
Si Si6 0.319882 0.133517 0.413782
Si Si7 0.421164 0.608989 0.352250
Si Si8 0.803109 0.652547 0.369093
O O1 0.778595 0.762741 0.260637
O O2 0.169987 0.682199 0.487987
O O3 0.811580 0.842898 0.115595
O O4 0.001154 0.975505 0.385419
O O5 0.239793 0.162876 0.100148
O O6 0.140953 0.206060 0.198183
O O7 0.835440 0.300626 0.838235
O O8 0.000000 0.000000 0.000000
O O9 0.215372 0.067628 0.419823
O O10 0.127924 0.246354 0.498429
O O11 0.419452 0.979520 0.729269
O O12 0.557665 0.677834 0.851718
O O13 0.470963 0.505118 0.302816
O O14 0.607584 0.577726 0.252372
O O15 0.441115 0.259188 0.544644
O O16 0.500000 0.000000 0.500000
O O17 0.500000 0.500000 0.500000
O O18 0.000000 0.500000 0.500000
#
# Coordination Sequence:
#
# PCOD9034709 Si02
#       8
#     2   2   2   2   2   2   2   2
#     4  10  23  41  70  94 125 169 219 273 331 386
#     4  12  24  40  65  98 134 177 223 261 322 401
#     4  11  22  43  69  96 129 170 219 270 327 386
#     4  11  23  40  66  97 132 167 219 267 324 397
#     4  10  23  43  62  93 136 170 210 273 328 388
#     4  12  23  41  66  95 132 179 212 268 326 391
#     4  12  25  40  65  96 138 176 218 269 327 388
#     4  10  22  45  67  92 128 169 218 273 331 386
#
# _framework density 20.512965000000001
#
# number of rings (size 3 to 8) (size 9 to 14) (size 15 to 20)
#    0.000    1.000    3.750    2.625    1.750    4.000 
#    0.000    0.000    0.000    0.000    0.000    0.000 
#    0.000    0.000    0.000    0.000    0.000    0.000 
#
# Total GULP energy -89463.456302 kJ/mol
# GULP energy per Si atom -5591.466019 kJ/mol
# Density = 2.046628 g / cm^3
# Si number density = 20.512965 Si / 1000 Ang^3
#
#
#
# Elastic Constant Matrix: (Units=GPa)
#
#
# Indices 1 2 3 4 5 6 
#
# 1 88.2754 36.3936 5.8149 -5.3726 -1.3956 5.3654
# 2 36.3936 110.5246 28.3257 7.1542 9.6370 -0.4897
# 3 5.8149 28.3257 93.3242 4.5016 -6.6478 -2.2996
# 4 -5.3726 7.1542 4.5016 25.7814 0.9812 -0.2444
# 5 -1.3956 9.6370 -6.6478 0.9812 22.0878 0.9869
# 6 5.3654 -0.4897 -2.2996 -0.2444 0.9869 42.5130
#
#
#
# Elastic Compliance Matrix: (Units=1/GPa)
#
#
# Indices 1 2 3 4 5 6 
#
# 1 0.013889 -0.005328 0.000746 0.004099 0.003326 -0.001828
# 2 -0.005328 0.012612 -0.003788 -0.003681 -0.006849 0.000751
# 3 0.000746 -0.003788 0.012270 -0.001139 0.005426 0.000393
# 4 0.004099 -0.003681 -0.001139 0.040869 -0.000276 -0.000380
# 5 0.003326 -0.006849 0.005426 -0.000276 0.050179 -0.001372
# 6 -0.001828 0.000751 0.000393 -0.000380 -0.001372 0.023812
#
#
# Mechanical properties :
#
#
# Convention : Reuss Voigt Hill
#
# Bulk Modulus (GPa) = 45.39147 48.13253 46.76200
# Shear Modulus (GPa) = 28.13522 32.84909 30.49216
#
# Velocity S-wave (km/s) = 3.70751 4.00607 3.85968
# Velocity P-wave (km/s) = 6.36425 6.70175 6.53518
#
# Compressibility (1/GPa) = 0.02203057
#
# Stress axis : x y z
#
# Youngs Moduli (GPa) = 72.00099 79.29174 81.50211
#
# Poissons Ratio (x) = 0.42246 -0.06079
# Poissons Ratio (y) = 0.38361 0.30871
# Poissons Ratio (z) = -0.05371 0.30034
#
# Static dielectric constant tensor:
#      x y z
#    x 1.735980 0.026560 0.012830 
#    y 0.026560 1.738520 -0.003650 
#    z 0.012830 -0.003650 1.714840 
# 
# From -- ./inp_files/313304.got.cif
#   From: 2010.05.17/outbox.cif.g08.bks.cpg/sg2_157_cif.got.tgz:313304.got - 2010.06.03 11:33:40.
