data_PCOD9034982
_publ_section_title
;
Structure prediction by ZEFSAII (Michael W. Deem and Ramdas Pophale) SiO2 
 PCOD9034982
Probable space group: P -1
;
_chemical_formula_sum "Si O2"
_cell_formula_units_Z 16
_cell_length_a 7.658748
_cell_length_b 16.640934
_cell_length_c 17.928799
_cell_angle_alpha 29.372244
_cell_angle_beta 138.184634
_cell_angle_gamma 144.309375
_cell_volume 648.210119
_symmetry_space_group_name_H-M "P -1"
_symmetry_group_IT_number 2
_symmetry_cell_setting 'triclinic'
loop_
_space_group_symop_operation_xyz
x,y,z
-x,-y,-z
loop_
_atom_site_type_symbol
_atom_site_label
_atom_site_fract_x
_atom_site_fract_y
_atom_site_fract_z
Si Si1 0.940568 0.369140 0.747693
Si Si2 0.677406 0.597577 0.281486
Si Si3 0.029225 0.026227 0.094711
Si Si4 0.779968 0.026229 0.651179
Si Si5 0.930172 0.601059 0.830012
Si Si6 0.596202 0.003452 0.309317
Si Si7 0.658994 0.393694 0.178076
Si Si8 0.379911 0.294062 0.554386
O O1 0.071207 0.435449 0.652047
O O2 0.157992 0.500137 0.776018
O O3 0.603575 0.332795 0.663558
O O4 0.936453 0.172238 0.917497
O O5 0.818527 0.816858 0.167002
O O6 0.518695 0.480790 0.398528
O O7 0.418693 0.515399 0.203644
O O8 0.032662 0.022863 0.188458
O O9 0.374540 0.076787 0.146399
O O10 0.032313 0.199274 0.545257
O O11 0.567309 0.070381 0.602194
O O12 0.576147 0.829192 0.703228
O O13 0.108421 0.600086 0.814321
O O14 0.071244 0.821027 0.716062
O O15 0.000000 0.500000 0.000000
O O16 0.601861 0.854819 0.375940
O O17 0.500000 0.500000 0.000000
#
# Coordination Sequence:
#
# PCOD9034982 Si02
#       8
#     2   2   2   2   2   2   2   2
#     4  12  24  42  73 105 137 182 235 296 345 410
#     4  12  27  45  67 107 138 185 236 281 353 425
#     4  10  22  45  69  98 141 177 234 294 345 396
#     4   9  23  45  66 100 143 178 234 295 335 420
#     4  11  25  43  73 101 137 183 227 296 351 408
#     4   9  22  46  66  97 137 181 234 284 346 405
#     4  11  22  44  68 107 140 171 237 295 350 403
#     4  12  27  45  72 100 143 195 230 280 355 424
#
# _framework density 24.683354999999999
#
# number of rings (size 3 to 8) (size 9 to 14) (size 15 to 20)
#    0.750    0.500    2.500    2.250    7.000    1.500 
#    2.250    1.250    0.000    0.000    0.000    0.000 
#    0.000    0.000    0.000    0.000    0.000    0.000 
#
# Total GULP energy -89586.176877 kJ/mol
# GULP energy per Si atom -5599.136055 kJ/mol
# Density = 2.462717 g / cm^3
# Si number density = 24.683355 Si / 1000 Ang^3
#
#
#
# Elastic Constant Matrix: (Units=GPa)
#
#
# Indices 1 2 3 4 5 6 
#
# 1 94.5674 53.2769 32.7739 -8.6938 -19.7026 -9.1216
# 2 53.2769 217.8720 46.5534 -4.9171 -7.5786 -13.1653
# 3 32.7739 46.5534 69.3521 -3.4672 -10.8958 -13.5803
# 4 -8.6938 -4.9171 -3.4672 26.0446 8.9451 -3.7948
# 5 -19.7026 -7.5786 -10.8958 8.9451 29.9733 2.0937
# 6 -9.1216 -13.1653 -13.5803 -3.7948 2.0937 43.1261
#
#
#
# Elastic Compliance Matrix: (Units=1/GPa)
#
#
# Indices 1 2 3 4 5 6 
#
# 1 0.015151 -0.002485 -0.004077 0.001685 0.007279 0.000957
# 2 -0.002485 0.005789 -0.002813 0.000419 -0.001349 0.000458
# 3 -0.004077 -0.002813 0.019619 0.000185 0.003384 0.004309
# 4 0.001685 0.000419 0.000185 0.043979 -0.012193 0.005005
# 5 0.007279 -0.001349 0.003384 -0.012193 0.042743 -0.000955
# 6 0.000957 0.000458 0.004309 0.005005 -0.000955 0.025374
#
#
# Mechanical properties :
#
#
# Convention : Reuss Voigt Hill
#
# Bulk Modulus (GPa) = 45.85099 71.88884 58.86992
# Shear Modulus (GPa) = 27.98422 36.44130 32.21276
#
# Velocity S-wave (km/s) = 3.37074 3.84650 3.61645
# Velocity P-wave (km/s) = 5.81078 6.99393 6.42963
#
# Compressibility (1/GPa) = 0.02180978
#
# Stress axis : x y z
#
# Youngs Moduli (GPa) = 66.00210 172.75056 50.97214
#
# Poissons Ratio (x) = 0.42925 0.20780
# Poissons Ratio (y) = 0.16400 0.14337
# Poissons Ratio (z) = 0.26907 0.48591
#
# Static dielectric constant tensor:
#      x y z
#    x 1.963910 0.015250 -0.005400 
#    y 0.015250 1.947650 0.024860 
#    z -0.005400 0.024860 1.968730 
# 
# From -- ./inp_files/562061.got.cif
#   From: 2010.05.17/outbox.cif.g08.bks.cpg/sg2_282_cif.got.tgz:562061.got - 2010.06.03 11:33:40.
