data_PCOD9034615
_publ_section_title
;
Structure prediction by ZEFSAII (Michael W. Deem and Ramdas Pophale) SiO2 
 PCOD9034615
Probable space group: P -1
;
_chemical_formula_sum "Si O2"
_cell_formula_units_Z 14
_cell_length_a 8.855114
_cell_length_b 5.311357
_cell_length_c 22.902056
_cell_angle_alpha 126.113997
_cell_angle_beta 142.643148
_cell_angle_gamma 61.732382
_cell_volume 527.969187
_symmetry_space_group_name_H-M "P -1"
_symmetry_group_IT_number 2
_symmetry_cell_setting 'triclinic'
loop_
_space_group_symop_operation_xyz
x,y,z
-x,-y,-z
loop_
_atom_site_type_symbol
_atom_site_label
_atom_site_fract_x
_atom_site_fract_y
_atom_site_fract_z
Si Si1 0.990207 0.255563 0.304667
Si Si2 0.841598 0.757793 0.523888
Si Si3 0.648368 0.548029 0.955979
Si Si4 0.469261 0.781275 0.590285
Si Si5 0.807825 0.180472 0.112987
Si Si6 0.525414 0.655731 0.243059
Si Si7 0.889596 0.735538 0.887241
O O1 0.014536 0.107744 0.356636
O O2 0.271192 0.285591 0.371510
O O3 0.861381 0.113638 0.188186
O O4 0.807344 0.549690 0.302330
O O5 0.631472 0.536798 0.457078
O O6 0.000000 0.500000 0.500000
O O7 0.721410 0.031363 0.485752
O O8 0.387545 0.530687 0.906762
O O9 0.624731 0.336120 0.863007
O O10 0.903728 0.519574 0.064605
O O11 0.667848 0.914215 0.996332
O O12 0.490679 0.032928 0.683001
O O13 0.055588 0.233539 0.159898
O O14 0.381852 0.384622 0.197307
O O15 0.000000 0.000000 0.000000
#
# Coordination Sequence:
#
# PCOD9034615 Si02
#       7
#     2   2   2   2   2   2   2
#     4  11  26  48  75 110 149 197 256 309 385 452
#     4  12  27  55  83 114 153 197 251 319 384 455
#     4  10  22  45  65  99 145 190 246 304 372 448
#     4  12  28  52  82 112 157 198 249 315 388 452
#     4  10  23  44  69  99 144 191 248 306 372 443
#     4  11  25  46  73 109 148 199 253 317 371 455
#     4  12  24  40  69 101 146 197 246 307 373 437
#
# _framework density 26.516701000000001
#
# number of rings (size 3 to 8) (size 9 to 14) (size 15 to 20)
#    0.000    0.857    2.857    3.000    4.000    0.000 
#    5.143    0.000    0.000    0.000    0.000    0.000 
#    0.000    0.000    0.000    0.000    0.000    0.000 
#
# Total GULP energy -78274.813073 kJ/mol
# GULP energy per Si atom -5591.058077 kJ/mol
# Density = 2.645635 g / cm^3
# Si number density = 26.516701 Si / 1000 Ang^3
#
#
#
# Elastic Constant Matrix: (Units=GPa)
#
#
# Indices 1 2 3 4 5 6 
#
# 1 153.5830 41.8631 60.9736 -0.0790 -7.4739 -33.9115
# 2 41.8631 59.8227 38.5441 -9.7265 5.1312 -10.3087
# 3 60.9736 38.5441 129.6410 -10.4991 -22.6447 3.3275
# 4 -0.0790 -9.7265 -10.4991 55.5473 -6.4195 -3.1231
# 5 -7.4739 5.1312 -22.6447 -6.4195 59.2620 -6.6769
# 6 -33.9115 -10.3087 3.3275 -3.1231 -6.6769 47.8937
#
#
#
# Elastic Compliance Matrix: (Units=1/GPa)
#
#
# Indices 1 2 3 4 5 6 
#
# 1 0.010802 -0.003979 -0.004003 -0.000935 0.000880 0.007132
# 2 -0.003979 0.024665 -0.006062 0.002802 -0.004370 0.002487
# 3 -0.004003 -0.006062 0.012411 0.001552 0.004448 -0.004280
# 4 -0.000935 0.002802 0.001552 0.019151 0.002468 0.001426
# 5 0.000880 -0.004370 0.004448 0.002468 0.019586 0.002264
# 6 0.007132 0.002487 -0.004280 0.001426 0.002264 0.027170
#
#
# Mechanical properties :
#
#
# Convention : Reuss Voigt Hill
#
# Bulk Modulus (GPa) = 50.52803 69.53425 60.03114
# Shear Modulus (GPa) = 33.67718 45.98500 39.83109
#
# Velocity S-wave (km/s) = 3.56762 4.16888 3.87992
# Velocity P-wave (km/s) = 6.00559 7.03225 6.53910
#
# Compressibility (1/GPa) = 0.01979100
#
# Stress axis : x y z
#
# Youngs Moduli (GPa) = 92.57862 40.54317 80.57299
#
# Poissons Ratio (x) = 0.16130 0.32250
# Poissons Ratio (y) = 0.36833 0.48846
# Poissons Ratio (z) = 0.37055 0.24578
#
# Static dielectric constant tensor:
#      x y z
#    x 2.098740 -0.000910 0.033410 
#    y -0.000910 2.324740 -0.053000 
#    z 0.033410 -0.053000 2.078060 
# 
# From -- ./inp_files/605953.got.cif
#   From: 2010.05.17/outbox.cif.g08.bks.cpg/sg2_303_cif.got.tgz:605953.got - 2010.06.03 11:33:40.
