data_PCOD9034266
_publ_section_title
;
Structure prediction by ZEFSAII (Michael W. Deem and Ramdas Pophale) SiO2 
 PCOD9034266
Probable space group: P -1
;
_chemical_formula_sum "Si O2"
_cell_formula_units_Z 15
_cell_length_a 12.042425
_cell_length_b 19.556023
_cell_length_c 10.231217
_cell_angle_alpha 37.620807
_cell_angle_beta 144.423277
_cell_angle_gamma 153.332645
_cell_volume 609.188538
_symmetry_space_group_name_H-M "P -1"
_symmetry_group_IT_number 2
_symmetry_cell_setting 'triclinic'
loop_
_space_group_symop_operation_xyz
x,y,z
-x,-y,-z
loop_
_atom_site_type_symbol
_atom_site_label
_atom_site_fract_x
_atom_site_fract_y
_atom_site_fract_z
Si Si1 0.583135 0.028948 0.382483
Si Si2 0.390362 0.658873 0.431490
Si Si3 0.919956 0.901149 0.204465
Si Si4 0.504751 0.630471 0.848771
Si Si5 0.933326 0.357814 0.078339
Si Si6 0.498523 0.452121 0.756668
Si Si7 0.000000 0.000000 0.500000
Si Si8 0.872964 0.088048 0.034774
O O1 0.741104 0.202715 0.218678
O O2 0.800044 0.021769 0.582294
O O3 0.500000 0.000000 0.500000
O O4 0.321863 0.905837 0.229252
O O5 0.340453 0.630899 0.582741
O O6 0.383624 0.526892 0.571936
O O7 0.697955 0.825043 0.471393
O O8 0.210626 0.665470 0.160073
O O9 0.728827 0.717991 0.269919
O O10 0.785130 0.930914 0.129776
O O11 0.000000 0.000000 0.000000
O O12 0.823249 0.783227 0.919343
O O13 0.500000 0.500000 0.000000
O O14 0.416596 0.591309 0.972552
O O15 0.220885 0.416742 0.246217
O O16 0.000000 0.500000 0.000000
O O17 0.114752 0.923675 0.782197
#
# Coordination Sequence:
#
# PCOD9034266 Si02
#       8
#     2   2   2   2   2   2   1   2
#     4  12  25  42  66 101 140 182 233 283 349 424
#     4  10  23  45  71 100 142 187 234 290 355 418
#     4  12  24  42  70 101 136 181 233 289 356 417
#     4   9  20  43  70  98 134 189 231 285 356 417
#     4  12  27  42  69 108 142 182 234 298 360 421
#     4  11  24  44  69 104 144 181 236 296 355 422
#     4  10  22  44  72  92 140 188 224 286 342 420
#     4  11  22  44  69  96 134 180 233 286 345 415
#
# _framework density 24.622920000000001
#
# number of rings (size 3 to 8) (size 9 to 14) (size 15 to 20)
#    0.000    1.067    4.000    1.600    1.867    2.667 
#    0.000    9.333    0.000    0.000    0.000    0.000 
#    0.000    0.000    0.000    0.000    0.000    0.000 
#
# Total GULP energy -83601.596408 kJ/mol
# GULP energy per Si atom -5573.439761 kJ/mol
# Density = 2.456688 g / cm^3
# Si number density = 24.622920 Si / 1000 Ang^3
#
#
#
# Elastic Constant Matrix: (Units=GPa)
#
#
# Indices 1 2 3 4 5 6 
#
# 1 32.3869 20.9912 27.3875 0.3769 -6.6122 10.0525
# 2 20.9912 115.3275 37.4204 -4.6561 1.1145 16.7267
# 3 27.3875 37.4204 168.5542 18.8884 -24.8059 15.8373
# 4 0.3769 -4.6561 18.8884 49.9786 5.3523 2.1320
# 5 -6.6122 1.1145 -24.8059 5.3523 49.7692 -7.2553
# 6 10.0525 16.7267 15.8373 2.1320 -7.2553 21.4498
#
#
#
# Elastic Compliance Matrix: (Units=1/GPa)
#
#
# Indices 1 2 3 4 5 6 
#
# 1 0.041661 -0.004227 -0.004617 0.001425 0.001352 -0.012504
# 2 -0.004227 0.011119 -0.001866 0.002368 -0.002950 -0.006545
# 3 -0.004617 -0.001866 0.008121 -0.003578 0.003751 -0.000753
# 4 0.001425 0.002368 -0.003578 0.022214 -0.004564 -0.003625
# 5 0.001352 -0.002950 0.003751 -0.004564 0.023777 0.007393
# 6 -0.012504 -0.006545 -0.000753 -0.003625 0.007393 0.061001
#
#
# Mechanical properties :
#
#
# Convention : Reuss Voigt Hill
#
# Bulk Modulus (GPa) = 25.32829 54.20742 39.76786
# Shear Modulus (GPa) = 24.69467 39.60416 32.14942
#
# Velocity S-wave (km/s) = 3.17032 4.01487 3.61733
# Velocity P-wave (km/s) = 4.86929 6.59963 5.79936
#
# Compressibility (1/GPa) = 0.03948154
#
# Stress axis : x y z
#
# Youngs Moduli (GPa) = 24.00327 89.93431 123.13787
#
# Poissons Ratio (x) = 0.38014 0.56849
# Poissons Ratio (y) = 0.10146 0.22981
# Poissons Ratio (z) = 0.11082 0.16784
#
# Static dielectric constant tensor:
#      x y z
#    x 2.042760 -0.051960 -0.108450 
#    y -0.051960 1.784980 0.078410 
#    z -0.108450 0.078410 1.933990 
# 
# From -- ./inp_files/458071.got.cif
#   From: 2010.05.17/outbox.cif.g08.bks.cpg/sg2_230_cif.got.tgz:458071.got - 2010.06.03 11:33:40.
