data_PCOD9034132
_publ_section_title
;
Structure prediction by ZEFSAII (Michael W. Deem and Ramdas Pophale) SiO2 
 PCOD9034132
Probable space group: P -1
;
_chemical_formula_sum "Si O2"
_cell_formula_units_Z 14
_cell_length_a 15.011334
_cell_length_b 9.184212
_cell_length_c 20.912889
_cell_angle_alpha 149.674646
_cell_angle_beta 27.829966
_cell_angle_gamma 145.299849
_cell_volume 658.128761
_symmetry_space_group_name_H-M "P -1"
_symmetry_group_IT_number 2
_symmetry_cell_setting 'triclinic'
loop_
_space_group_symop_operation_xyz
x,y,z
-x,-y,-z
loop_
_atom_site_type_symbol
_atom_site_label
_atom_site_fract_x
_atom_site_fract_y
_atom_site_fract_z
Si Si1 0.022008 0.852422 0.128075
Si Si2 0.637626 0.913316 0.326361
Si Si3 0.961642 0.183608 0.749369
Si Si4 0.457760 0.249252 0.983789
Si Si5 0.577462 0.354299 0.079109
Si Si6 0.209812 0.119688 0.375831
Si Si7 0.335293 0.553101 0.575330
O O1 0.989715 0.905406 0.244131
O O2 0.857361 0.954488 0.230164
O O3 0.000000 0.500000 0.000000
O O4 0.243226 0.023384 0.032406
O O5 0.555274 0.564789 0.230173
O O6 0.500000 0.000000 0.500000
O O7 0.640845 0.106643 0.332936
O O8 0.138740 0.392309 0.677106
O O9 0.862619 0.899047 0.659504
O O10 0.807748 0.386318 0.934302
O O11 0.634706 0.085104 0.803155
O O12 0.500000 0.500000 0.000000
O O13 0.474209 0.418747 0.105233
O O14 0.500000 0.000000 0.000000
O O15 0.319321 0.392402 0.454780
O O16 0.000000 0.000000 0.500000
O O17 0.500000 0.500000 0.500000
#
# Coordination Sequence:
#
# PCOD9034132 Si02
#       7
#     2   2   2   2   2   2   2
#     4  12  25  46  71 105 142 191 240 302 364 423
#     4  12  29  44  72 109 146 184 242 303 366 424
#     4  10  22  44  71  95 136 190 234 283 355 427
#     4  11  26  42  74 101 138 185 250 293 348 436
#     4  11  23  47  70  99 139 193 233 286 362 431
#     4   9  23  44  70  97 143 183 233 287 364 413
#     4  11  26  44  71 103 143 185 233 301 364 420
#
# _framework density 21.272432999999999
#
# number of rings (size 3 to 8) (size 9 to 14) (size 15 to 20)
#    0.000    1.143    2.857    0.857   16.000    0.571 
#    0.000    1.429    0.000    0.000    0.000    0.000 
#    0.000    0.000    0.000    0.000    0.000    0.000 
#
# Total GULP energy -78109.998164 kJ/mol
# GULP energy per Si atom -5579.285583 kJ/mol
# Density = 2.122402 g / cm^3
# Si number density = 21.272433 Si / 1000 Ang^3
#
#
#
# Elastic Constant Matrix: (Units=GPa)
#
#
# Indices 1 2 3 4 5 6 
#
# 1 152.2883 64.3281 45.5296 4.9458 2.0911 -3.2644
# 2 64.3281 122.8259 46.7831 -13.9775 -2.2907 -4.5580
# 3 45.5296 46.7831 106.4882 -15.4145 10.6268 16.7643
# 4 4.9458 -13.9775 -15.4145 30.9001 7.4277 -0.2065
# 5 2.0911 -2.2907 10.6268 7.4277 47.5720 1.3898
# 6 -3.2644 -4.5580 16.7643 -0.2065 1.3898 39.2815
#
#
#
# Elastic Compliance Matrix: (Units=1/GPa)
#
#
# Indices 1 2 3 4 5 6 
#
# 1 0.009563 -0.004264 -0.003339 -0.005331 0.000904 0.001665
# 2 -0.004264 0.012281 -0.003417 0.004361 0.000787 0.002524
# 3 -0.003339 -0.003417 0.014898 0.007409 -0.004303 -0.006841
# 4 -0.005331 0.004361 0.007409 0.040666 -0.007484 -0.002621
# 5 0.000904 0.000787 -0.004303 -0.007484 0.023115 0.001146
# 6 0.001665 0.002524 -0.006841 -0.002621 0.001146 0.028754
#
#
# Mechanical properties :
#
#
# Convention : Reuss Voigt Hill
#
# Bulk Modulus (GPa) = 68.02097 77.20933 72.61515
# Shear Modulus (GPa) = 32.00657 38.54816 35.27736
#
# Velocity S-wave (km/s) = 3.88313 4.26152 4.07672
# Velocity P-wave (km/s) = 7.22153 7.78385 7.50795
#
# Compressibility (1/GPa) = 0.01470135
#
# Stress axis : x y z
#
# Youngs Moduli (GPa) = 104.57447 81.42602 67.12165
#
# Poissons Ratio (x) = 0.34724 0.22412
# Poissons Ratio (y) = 0.44596 0.22934
# Poissons Ratio (z) = 0.34918 0.27821
#
# Static dielectric constant tensor:
#      x y z
#    x 1.758900 0.032030 0.015100 
#    y 0.032030 1.799640 0.012440 
#    z 0.015100 0.012440 1.774230 
# 
# From -- ./inp_files/597284.got.cif
#   From: 2010.05.17/outbox.cif.g08.bks.cpg/sg2_299_cif.got.tgz:597284.got - 2010.06.03 11:33:40.
