data_PCOD9034002
_publ_section_title
;
Structure prediction by ZEFSAII (Michael W. Deem and Ramdas Pophale) SiO2 
 PCOD9034002
Probable space group: P -1
;
_chemical_formula_sum "Si O2"
_cell_formula_units_Z 12
_cell_length_a 6.787904
_cell_length_b 12.820223
_cell_length_c 7.379199
_cell_angle_alpha 48.454143
_cell_angle_beta 99.612262
_cell_angle_gamma 87.555003
_cell_volume 463.505505
_symmetry_space_group_name_H-M "P -1"
_symmetry_group_IT_number 2
_symmetry_cell_setting 'triclinic'
loop_
_space_group_symop_operation_xyz
x,y,z
-x,-y,-z
loop_
_atom_site_type_symbol
_atom_site_label
_atom_site_fract_x
_atom_site_fract_y
_atom_site_fract_z
Si Si1 0.924781 0.996095 0.699202
Si Si2 0.753807 0.534554 0.921163
Si Si3 0.652188 0.758751 0.932434
Si Si4 0.736259 0.670790 0.415234
Si Si5 0.807381 0.301054 0.479240
Si Si6 0.337430 0.829293 0.078884
O O1 0.198935 0.853947 0.421882
O O2 0.783014 0.880279 0.826583
O O3 0.133807 0.948830 0.902387
O O4 0.000000 0.000000 0.500000
O O5 0.311018 0.447654 0.318073
O O6 0.699725 0.417888 0.183907
O O7 0.681954 0.688228 0.824524
O O8 0.000000 0.500000 0.000000
O O9 0.742067 0.639966 0.236966
O O10 0.420760 0.807853 0.910488
O O11 0.558490 0.816454 0.226353
O O12 0.954364 0.695847 0.476570
O O13 0.730213 0.299873 0.675057
#
# Coordination Sequence:
#
# PCOD9034002 Si02
#       6
#     2   2   2   2   2   2
#     4  12  25  43  68 100 131 176 226 273 332 395
#     4  10  22  44  70  99 134 175 220 272 333 396
#     4  10  24  45  68 100 129 175 226 271 332 386
#     4   9  22  43  68  99 128 177 217 276 329 380
#     4  11  23  42  68  98 135 176 217 270 339 395
#     4  10  23  43  67  98 132 178 217 283 321 394
#
# _framework density 25.889659999999999
#
# number of rings (size 3 to 8) (size 9 to 14) (size 15 to 20)
#    1.000    0.667    1.667    2.500    0.000    8.667 
#    3.000    0.000    0.000    0.000    0.000    0.000 
#    0.000    0.000    0.000    0.000    0.000    0.000 
#
# Total GULP energy -67016.394410 kJ/mol
# GULP energy per Si atom -5584.699534 kJ/mol
# Density = 2.583073 g / cm^3
# Si number density = 25.889660 Si / 1000 Ang^3
#
#
#
# Elastic Constant Matrix: (Units=GPa)
#
#
# Indices 1 2 3 4 5 6 
#
# 1 131.8305 29.4009 45.3220 -8.1383 -5.3201 -14.6490
# 2 29.4009 83.5318 18.0184 4.5977 -8.1995 -8.3939
# 3 45.3220 18.0184 144.9896 18.6417 -5.8040 -2.0480
# 4 -8.1383 4.5977 18.6417 34.8314 -8.9327 -5.4254
# 5 -5.3201 -8.1995 -5.8040 -8.9327 60.0208 7.6983
# 6 -14.6490 -8.3939 -2.0480 -5.4254 7.6983 30.5082
#
#
#
# Elastic Compliance Matrix: (Units=1/GPa)
#
#
# Indices 1 2 3 4 5 6 
#
# 1 0.010270 -0.002634 -0.003503 0.005481 0.000406 0.004844
# 2 -0.002634 0.013398 -0.000578 -0.001511 0.001080 0.001841
# 3 -0.003503 -0.000578 0.008776 -0.005821 -0.000118 -0.002257
# 4 0.005481 -0.001511 -0.005821 0.035458 0.004083 0.007101
# 5 0.000406 0.001080 -0.000118 0.004083 0.017864 -0.003297
# 6 0.004844 0.001841 -0.002257 0.007101 -0.003297 0.037554
#
#
# Mechanical properties :
#
#
# Convention : Reuss Voigt Hill
#
# Bulk Modulus (GPa) = 52.59601 60.64829 56.62215
# Shear Modulus (GPa) = 34.94378 42.91279 38.92828
#
# Velocity S-wave (km/s) = 3.67784 4.07569 3.88186
# Velocity P-wave (km/s) = 6.19636 6.75462 6.48150
#
# Compressibility (1/GPa) = 0.01901285
#
# Stress axis : x y z
#
# Youngs Moduli (GPa) = 97.36863 74.64040 113.95167
#
# Poissons Ratio (x) = 0.19663 0.39917
# Poissons Ratio (y) = 0.25650 0.06587
# Poissons Ratio (z) = 0.34108 0.04314
#
# Static dielectric constant tensor:
#      x y z
#    x 2.043370 -0.022210 -0.002890 
#    y -0.022210 2.017780 0.025150 
#    z -0.002890 0.025150 2.081080 
# 
# From -- ./inp_files/138373.got.cif
#   From: 2010.05.17/outbox.cif.g08.bks.cpg/sg2_70_cif.got.tgz:138373.got - 2010.06.03 11:33:40.
