data_PCOD9034936
_publ_section_title
;
Structure prediction by ZEFSAII (Michael W. Deem and Ramdas Pophale) SiO2 
 PCOD9034936
Probable space group: P -1
;
_chemical_formula_sum "Si O2"
_cell_formula_units_Z 14
_cell_length_a 9.577692
_cell_length_b 14.305008
_cell_length_c 13.945891
_cell_angle_alpha 29.728486
_cell_angle_beta 70.525043
_cell_angle_gamma 49.198166
_cell_volume 560.752063
_symmetry_space_group_name_H-M "P -1"
_symmetry_group_IT_number 2
_symmetry_cell_setting 'triclinic'
loop_
_space_group_symop_operation_xyz
x,y,z
-x,-y,-z
loop_
_atom_site_type_symbol
_atom_site_label
_atom_site_fract_x
_atom_site_fract_y
_atom_site_fract_z
Si Si1 0.807714 0.845082 0.202840
Si Si2 0.568289 0.009060 0.759627
Si Si3 0.885508 0.357238 0.210053
Si Si4 0.200628 0.886295 0.849710
Si Si5 0.716618 0.919293 0.498641
Si Si6 0.152440 0.534346 0.242906
Si Si7 0.154168 0.896432 0.401587
O O1 0.000000 0.500000 0.500000
O O2 0.920740 0.815032 0.107100
O O3 0.559927 0.980331 0.135857
O O4 0.797050 0.010076 0.142291
O O5 0.678638 0.102573 0.672627
O O6 0.359272 0.257822 0.510984
O O7 0.751513 0.686298 0.954372
O O8 0.145120 0.127302 0.403247
O O9 0.937056 0.219330 0.217595
O O10 0.757726 0.332507 0.331422
O O11 0.944802 0.129064 0.640074
O O12 0.347806 0.860389 0.762074
O O13 0.255177 0.614180 0.095351
O O14 0.901890 0.588892 0.702280
O O15 0.500000 0.000000 0.500000
#
# Coordination Sequence:
#
# PCOD9034936 Si02
#       7
#     2   2   2   2   2   2   2
#     4  10  22  45  69  93 131 178 226 271 328 389
#     4  11  22  41  68  95 130 179 220 269 331 388
#     4  10  23  42  64  95 142 173 215 275 334 395
#     4  11  23  44  68  97 133 171 224 275 325 395
#     4  11  23  43  70 101 131 177 222 270 330 400
#     4  11  24  42  70  96 135 175 225 272 327 390
#     4  10  23  42  65  95 135 174 217 273 340 390
#
# _framework density 24.966469
#
# number of rings (size 3 to 8) (size 9 to 14) (size 15 to 20)
#    0.000    1.429    2.857    2.571    2.000    1.714 
#    0.000    5.714    0.000    0.000    0.000    0.000 
#    0.000    0.000    0.000    0.000    0.000    0.000 
#
# Total GULP energy -78361.815084 kJ/mol
# GULP energy per Si atom -5597.272506 kJ/mol
# Density = 2.490964 g / cm^3
# Si number density = 24.966469 Si / 1000 Ang^3
#
#
#
# Elastic Constant Matrix: (Units=GPa)
#
#
# Indices 1 2 3 4 5 6 
#
# 1 154.4581 57.1047 10.5518 10.9653 -21.4399 -19.1819
# 2 57.1047 107.7295 26.7500 13.0933 -0.8284 -18.7321
# 3 10.5518 26.7500 70.7445 12.5927 -24.1685 -10.2420
# 4 10.9653 13.0933 12.5927 27.7283 -9.2798 -4.2914
# 5 -21.4399 -0.8284 -24.1685 -9.2798 35.6348 10.2182
# 6 -19.1819 -18.7321 -10.2420 -4.2914 10.2182 36.5346
#
#
#
# Elastic Compliance Matrix: (Units=1/GPa)
#
#
# Indices 1 2 3 4 5 6 
#
# 1 0.009527 -0.005711 0.003498 0.000067 0.007731 0.000900
# 2 -0.005711 0.015459 -0.007011 -0.004559 -0.010562 0.005381
# 3 0.003498 -0.007011 0.022327 -0.002761 0.016490 -0.000436
# 4 0.000067 -0.004559 -0.002761 0.042455 0.009317 -0.000695
# 5 0.007731 -0.010562 0.016490 0.009317 0.048737 -0.009270
# 6 0.000900 0.005381 -0.000436 -0.000695 -0.009270 0.032992
#
#
# Mechanical properties :
#
#
# Convention : Reuss Voigt Hill
#
# Bulk Modulus (GPa) = 34.64528 57.97167 46.30847
# Shear Modulus (GPa) = 25.05444 35.88125 30.46785
#
# Velocity S-wave (km/s) = 3.17128 3.79513 3.49714
# Velocity P-wave (km/s) = 5.22649 6.51722 5.90722
#
# Compressibility (1/GPa) = 0.02886396
#
# Stress axis : x y z
#
# Youngs Moduli (GPa) = 104.96902 64.68703 44.78961
#
# Poissons Ratio (x) = 0.36940 -0.15666
# Poissons Ratio (y) = 0.59943 0.31404
# Poissons Ratio (z) = -0.36715 0.45354
#
# Static dielectric constant tensor:
#      x y z
#    x 1.971860 -0.049540 0.021330 
#    y -0.049540 2.064730 0.035380 
#    z 0.021330 0.035380 1.991700 
# 
# From -- ./inp_files/504924.got.cif
#   From: 2010.05.17/outbox.cif.g08.bks.cpg/sg2_253_cif.got.tgz:504924.got - 2010.06.03 11:33:40.
