data_PCOD9034303
_publ_section_title
;
Structure prediction by ZEFSAII (Michael W. Deem and Ramdas Pophale) SiO2 
 PCOD9034303
Probable space group: P -1
;
_chemical_formula_sum "Si O2"
_cell_formula_units_Z 16
_cell_length_a 7.246909
_cell_length_b 22.230508
_cell_length_c 13.547519
_cell_angle_alpha 21.882748
_cell_angle_beta 120.470560
_cell_angle_gamma 129.419008
_cell_volume 602.295120
_symmetry_space_group_name_H-M "P -1"
_symmetry_group_IT_number 2
_symmetry_cell_setting 'triclinic'
loop_
_space_group_symop_operation_xyz
x,y,z
-x,-y,-z
loop_
_atom_site_type_symbol
_atom_site_label
_atom_site_fract_x
_atom_site_fract_y
_atom_site_fract_z
Si Si1 0.484572 0.715179 0.644739
Si Si2 0.321832 0.483593 0.331907
Si Si3 0.199227 0.140202 0.918998
Si Si4 0.939359 0.786308 0.516187
Si Si5 0.437839 0.942752 0.955285
Si Si6 0.808134 0.683885 0.916133
Si Si7 0.750462 0.192920 0.261139
Si Si8 0.102684 0.362107 0.764226
O O1 0.585363 0.720101 0.774200
O O2 0.715334 0.760132 0.565725
O O3 0.425124 0.871647 0.358271
O O4 0.271249 0.507286 0.875699
O O5 0.189837 0.331279 0.616088
O O6 0.617875 0.576745 0.286209
O O7 0.205277 0.353580 0.400662
O O8 0.280383 0.656167 0.039986
O O9 0.457798 0.181782 0.874928
O O10 0.118704 0.002938 0.199930
O O11 0.000000 0.000000 0.000000
O O12 0.113465 0.735994 0.704505
O O13 0.141603 0.835994 0.027186
O O14 0.500000 0.000000 0.000000
O O15 0.061967 0.845863 0.692385
O O16 0.854842 0.645861 0.095656
O O17 0.500000 0.000000 0.500000
O O18 0.000000 0.500000 0.500000
#
# Coordination Sequence:
#
# PCOD9034303 Si02
#       8
#     2   2   2   2   2   2   2   2
#     4  10  22  44  72  99 138 177 231 288 335 417
#     4  11  23  46  68 100 133 191 226 282 347 412
#     4  10  23  42  69  99 138 176 231 275 346 413
#     4  10  22  46  71 100 141 180 228 283 348 417
#     4  12  25  42  69 101 134 182 231 287 341 405
#     4  10  24  46  67 100 135 181 233 280 349 409
#     4  11  27  44  69 104 142 176 230 291 344 417
#     4  12  25  45  68  96 139 180 230 286 340 414
#
# _framework density 26.565051
#
# number of rings (size 3 to 8) (size 9 to 14) (size 15 to 20)
#    0.000    1.250    2.500    2.625    8.750    1.500 
#    2.250    1.250    0.000    0.000    0.000    0.000 
#    0.000    0.000    0.000    0.000    0.000    0.000 
#
# Total GULP energy -89562.033962 kJ/mol
# GULP energy per Si atom -5597.627123 kJ/mol
# Density = 2.650459 g / cm^3
# Si number density = 26.565051 Si / 1000 Ang^3
#
#
#
# Elastic Constant Matrix: (Units=GPa)
#
#
# Indices 1 2 3 4 5 6 
#
# 1 72.6493 19.6569 15.5493 0.7192 -2.6640 26.1581
# 2 19.6569 188.7450 49.0182 20.8807 -5.3699 14.2146
# 3 15.5493 49.0182 150.9881 11.3194 -8.8706 4.5572
# 4 0.7192 20.8807 11.3194 54.1267 6.8861 -9.5738
# 5 -2.6640 -5.3699 -8.8706 6.8861 41.4765 -5.2997
# 6 26.1581 14.2146 4.5572 -9.5738 -5.2997 36.4169
#
#
#
# Elastic Compliance Matrix: (Units=1/GPa)
#
#
# Indices 1 2 3 4 5 6 
#
# 1 0.019260 -0.000360 -0.001296 -0.002293 -0.000522 -0.014210
# 2 -0.000360 0.006271 -0.001697 -0.002583 0.000525 -0.002579
# 3 -0.001296 -0.001697 0.007451 -0.000970 0.001532 0.000629
# 4 -0.002293 -0.002583 -0.000970 0.021526 -0.003246 0.007963
# 5 -0.000522 0.000525 0.001532 -0.003246 0.025371 0.002817
# 6 -0.014210 -0.002579 0.000629 0.007963 0.002817 0.041099
#
#
# Mechanical properties :
#
#
# Convention : Reuss Voigt Hill
#
# Bulk Modulus (GPa) = 38.05763 64.53680 51.29722
# Shear Modulus (GPa) = 36.64546 48.28122 42.46334
#
# Velocity S-wave (km/s) = 3.71814 4.26781 4.00242
# Velocity P-wave (km/s) = 5.72626 6.97368 6.38053
#
# Compressibility (1/GPa) = 0.02627594
#
# Stress axis : x y z
#
# Youngs Moduli (GPa) = 51.92174 159.45966 134.20862
#
# Poissons Ratio (x) = 0.05743 0.17399
# Poissons Ratio (y) = 0.01870 0.22769
# Poissons Ratio (z) = 0.06731 0.27053
#
# Static dielectric constant tensor:
#      x y z
#    x 2.217190 0.031160 -0.039140 
#    y 0.031160 1.995440 0.019620 
#    z -0.039140 0.019620 2.134280 
# 
# From -- ./inp_files/508987.got.cif
#   From: 2010.05.17/outbox.cif.g08.bks.cpg/sg2_255_cif.got.tgz:508987.got - 2010.06.03 11:33:40.
