data_PCOD9034714
_publ_section_title
;
Structure prediction by ZEFSAII (Michael W. Deem and Ramdas Pophale) SiO2 
 PCOD9034714
Probable space group: P -1
;
_chemical_formula_sum "Si O2"
_cell_formula_units_Z 12
_cell_length_a 15.607188
_cell_length_b 13.644324
_cell_length_c 8.606266
_cell_angle_alpha 28.395142
_cell_angle_beta 39.802094
_cell_angle_gamma 30.091581
_cell_volume 436.780350
_symmetry_space_group_name_H-M "P -1"
_symmetry_group_IT_number 2
_symmetry_cell_setting 'triclinic'
loop_
_space_group_symop_operation_xyz
x,y,z
-x,-y,-z
loop_
_atom_site_type_symbol
_atom_site_label
_atom_site_fract_x
_atom_site_fract_y
_atom_site_fract_z
Si Si1 0.329349 0.034333 0.676824
Si Si2 0.137937 0.369096 0.209280
Si Si3 0.281200 0.670195 0.150599
Si Si4 0.443766 0.349863 0.679567
Si Si5 0.795734 0.944521 0.838356
Si Si6 0.896161 0.065728 0.254725
O O1 0.177615 0.299915 0.432248
O O2 0.500000 0.000000 0.500000
O O3 0.267080 0.003406 0.969585
O O4 0.378698 0.793355 0.836037
O O5 0.137339 0.140007 0.459966
O O6 0.290548 0.369104 0.940974
O O7 0.956479 0.639156 0.041098
O O8 0.381118 0.453895 0.446279
O O9 0.093348 0.902917 0.162422
O O10 0.222585 0.675294 0.048962
O O11 0.500000 0.500000 0.500000
O O12 0.619502 0.054727 0.845409
O O13 0.856176 0.094181 0.453797
#
# Coordination Sequence:
#
# PCOD9034714 Si02
#       6
#     2   2   2   2   2   2
#     4  11  22  44  67  99 134 177 224 279 324 390
#     4  11  24  45  66  97 142 168 226 277 323 405
#     4  10  22  45  67  93 144 167 219 284 322 388
#     4  12  24  42  70  99 135 170 225 281 320 396
#     4  12  24  41  73  99 126 186 221 261 354 380
#     4  10  24  44  69  99 133 181 217 275 333 395
#
# _framework density 27.473763000000002
#
# number of rings (size 3 to 8) (size 9 to 14) (size 15 to 20)
#    0.000    1.000    5.000    1.000    0.000    4.000 
#    0.000    6.667    0.000    0.000    0.000    0.000 
#    0.000    0.000    0.000    0.000    0.000    0.000 
#
# Total GULP energy -67136.302494 kJ/mol
# GULP energy per Si atom -5594.691875 kJ/mol
# Density = 2.741123 g / cm^3
# Si number density = 27.473763 Si / 1000 Ang^3
#
#
#
# Elastic Constant Matrix: (Units=GPa)
#
#
# Indices 1 2 3 4 5 6 
#
# 1 154.0780 58.2506 86.4041 -7.5465 27.8064 -33.3890
# 2 58.2506 127.5850 45.3243 -12.1759 20.3110 -40.0526
# 3 86.4041 45.3243 144.9814 1.0323 54.1794 -19.4614
# 4 -7.5465 -12.1759 1.0323 49.4182 -16.4877 23.9352
# 5 27.8064 20.3110 54.1794 -16.4877 94.2846 -10.2597
# 6 -33.3890 -40.0526 -19.4614 23.9352 -10.2597 51.3625
#
#
#
# Elastic Compliance Matrix: (Units=1/GPa)
#
#
# Indices 1 2 3 4 5 6 
#
# 1 0.011177 -0.002003 -0.005859 -0.000186 0.000877 0.003746
# 2 -0.002003 0.011580 -0.001114 -0.001453 -0.000663 0.007850
# 3 -0.005859 -0.001114 0.013216 -0.003976 -0.006220 0.000941
# 4 -0.000186 -0.001453 -0.003976 0.029344 0.006129 -0.015211
# 5 0.000877 -0.000663 -0.006220 0.006129 0.014899 -0.002184
# 6 0.003746 0.007850 0.000941 -0.015211 -0.002184 0.035034
#
#
# Mechanical properties :
#
#
# Convention : Reuss Voigt Hill
#
# Bulk Modulus (GPa) = 55.49090 89.62250 72.55670
# Shear Modulus (GPa) = 35.91715 54.79073 45.35394
#
# Velocity S-wave (km/s) = 3.61962 4.47060 4.06742
# Velocity P-wave (km/s) = 6.14089 7.70326 6.96601
#
# Compressibility (1/GPa) = 0.01802097
#
# Stress axis : x y z
#
# Youngs Moduli (GPa) = 89.46665 86.35857 75.66548
#
# Poissons Ratio (x) = 0.17301 0.44329
# Poissons Ratio (y) = 0.17923 0.08430
# Poissons Ratio (z) = 0.52414 0.09622
#
# Static dielectric constant tensor:
#      x y z
#    x 2.219540 0.090630 0.036750 
#    y 0.090630 2.177330 -0.003640 
#    z 0.036750 -0.003640 2.162550 
# 
# From -- ./inp_files/183594.got.cif
#   From: 2010.05.17/outbox.cif.g08.bks.cpg/sg2_92_cif.got.tgz:183594.got - 2010.06.03 11:33:40.
