data_PCOD9034669
_publ_section_title
;
Structure prediction by ZEFSAII (Michael W. Deem and Ramdas Pophale) SiO2 
 PCOD9034669
Probable space group: P -1
;
_chemical_formula_sum "Si O2"
_cell_formula_units_Z 16
_cell_length_a 8.371815
_cell_length_b 17.409199
_cell_length_c 7.434276
_cell_angle_alpha 53.436240
_cell_angle_beta 122.913802
_cell_angle_gamma 89.954184
_cell_volume 640.418986
_symmetry_space_group_name_H-M "P -1"
_symmetry_group_IT_number 2
_symmetry_cell_setting 'triclinic'
loop_
_space_group_symop_operation_xyz
x,y,z
-x,-y,-z
loop_
_atom_site_type_symbol
_atom_site_label
_atom_site_fract_x
_atom_site_fract_y
_atom_site_fract_z
Si Si1 0.177321 0.092140 0.698896
Si Si2 0.550112 0.267647 0.871102
Si Si3 0.860788 0.336751 0.058355
Si Si4 0.887092 0.714922 0.389635
Si Si5 0.338444 0.071400 0.456829
Si Si6 0.871970 0.114842 0.977545
Si Si7 0.098645 0.387724 0.821982
Si Si8 0.545257 0.223671 0.335251
O O1 0.340860 0.031421 0.718464
O O2 0.999991 0.202724 0.332041
O O3 0.112329 0.004114 0.853655
O O4 0.103318 0.099890 0.195360
O O5 0.213432 0.157940 0.792288
O O6 0.692220 0.186859 0.915232
O O7 0.420815 0.159628 0.417065
O O8 0.587340 0.207545 0.171039
O O9 0.898633 0.355874 0.261978
O O10 0.626795 0.357762 0.824341
O O11 0.970676 0.383161 0.924085
O O12 0.914105 0.692527 0.226874
O O13 0.703623 0.684666 0.385553
O O14 0.500000 0.000000 0.500000
O O15 0.766264 0.181816 0.637061
O O16 0.000000 0.500000 0.500000
O O17 0.353012 0.346589 0.072867
#
# Coordination Sequence:
#
# PCOD9034669 Si02
#       8
#     2   2   2   2   2   2   2   2
#     4  10  22  46  64  99 143 186 233 272 338 407
#     4  11  22  41  69  92 141 184 228 274 331 397
#     4  10  22  45  66  99 135 177 227 280 340 405
#     4   9  23  44  68 100 138 176 224 287 339 402
#     4  12  25  42  67  99 143 187 238 273 332 399
#     4  12  24  45  66  97 146 190 230 280 322 403
#     4  11  23  48  79 104 132 175 229 291 359 416
#     4  11  26  43  65 104 132 182 235 280 343 404
#
# _framework density 24.983644000000002
#
# number of rings (size 3 to 8) (size 9 to 14) (size 15 to 20)
#    0.750    0.500    2.500    2.625    1.750    8.000 
#    2.250    5.000    0.000   12.750    0.000    0.875 
#    0.000    0.000    0.000    0.000    0.000    0.000 
#
# Total GULP energy -89425.049911 kJ/mol
# GULP energy per Si atom -5589.065619 kJ/mol
# Density = 2.492678 g / cm^3
# Si number density = 24.983644 Si / 1000 Ang^3
#
#
#
# Elastic Constant Matrix: (Units=GPa)
#
#
# Indices 1 2 3 4 5 6 
#
# 1 90.9717 13.4852 29.9024 0.0550 -4.1210 1.7202
# 2 13.4852 37.4280 33.0942 11.5320 3.7648 4.9209
# 3 29.9024 33.0942 111.3580 6.3111 -1.6364 10.7200
# 4 0.0550 11.5320 6.3111 39.8262 1.7160 -0.9808
# 5 -4.1210 3.7648 -1.6364 1.7160 35.5200 10.4602
# 6 1.7202 4.9209 10.7200 -0.9808 10.4602 19.5179
#
#
#
# Elastic Compliance Matrix: (Units=1/GPa)
#
#
# Indices 1 2 3 4 5 6 
#
# 1 0.012296 -0.002680 -0.002574 0.001111 0.001455 0.000282
# 2 -0.002680 0.040975 -0.010689 -0.010065 -0.003880 -0.002650
# 3 -0.002574 -0.010689 0.013451 0.000676 0.003237 -0.006167
# 4 0.001111 -0.010065 0.000676 0.028078 -0.001371 0.004214
# 5 0.001455 -0.003880 0.003237 -0.001371 0.034722 -0.019606
# 6 0.000282 -0.002650 -0.006167 0.004214 -0.019606 0.065984
#
#
# Mechanical properties :
#
#
# Convention : Reuss Voigt Hill
#
# Bulk Modulus (GPa) = 28.70643 43.63569 36.17106
# Shear Modulus (GPa) = 20.92024 29.85788 25.38906
#
# Velocity S-wave (km/s) = 2.89685 3.46077 3.19129
# Velocity P-wave (km/s) = 4.76488 5.78557 5.29985
#
# Compressibility (1/GPa) = 0.03483540
#
# Stress axis : x y z
#
# Youngs Moduli (GPa) = 81.32942 24.40530 74.34511
#
# Poissons Ratio (x) = 0.06541 0.19136
# Poissons Ratio (y) = 0.21796 0.79467
# Poissons Ratio (z) = 0.20934 0.26087
#
# Static dielectric constant tensor:
#      x y z
#    x 2.015630 -0.025140 0.067200 
#    y -0.025140 2.055900 -0.071260 
#    z 0.067200 -0.071260 2.057320 
# 
# From -- ./inp_files/50218.got.cif
#   From: 2010.05.17/outbox.cif.g08.bks.cpg/sg2_26_cif.got.tgz:50218.got - 2010.06.03 11:33:40.
