data_PCOD9034948
_publ_section_title
;
Structure prediction by ZEFSAII (Michael W. Deem and Ramdas Pophale) SiO2 
 PCOD9034948
Probable space group: P -1
;
_chemical_formula_sum "Si O2"
_cell_formula_units_Z 14
_cell_length_a 7.540311
_cell_length_b 12.994685
_cell_length_c 15.435738
_cell_angle_alpha 152.074807
_cell_angle_beta 81.817785
_cell_angle_gamma 107.580301
_cell_volume 648.419209
_symmetry_space_group_name_H-M "P -1"
_symmetry_group_IT_number 2
_symmetry_cell_setting 'triclinic'
loop_
_space_group_symop_operation_xyz
x,y,z
-x,-y,-z
loop_
_atom_site_type_symbol
_atom_site_label
_atom_site_fract_x
_atom_site_fract_y
_atom_site_fract_z
Si Si1 0.298332 0.580740 0.091131
Si Si2 0.027850 0.252844 0.723036
Si Si3 0.283359 0.607218 0.832561
Si Si4 0.528376 0.506420 0.605482
Si Si5 0.621943 0.770410 0.073526
Si Si6 0.191674 0.732857 0.634269
Si Si7 0.198095 0.961043 0.979673
O O1 0.496739 0.738700 0.146838
O O2 0.173703 0.739413 0.227739
O O3 0.177764 0.362236 0.872778
O O4 0.316782 0.454706 0.085604
O O5 0.113639 0.436785 0.776415
O O6 0.000000 0.000000 0.500000
O O7 0.342742 0.456482 0.642198
O O8 0.210299 0.799918 0.938862
O O9 0.467530 0.722098 0.969965
O O10 0.500000 0.500000 0.500000
O O11 0.660469 0.352027 0.491991
O O12 0.651735 0.777056 0.821157
O O13 0.796077 0.025620 0.236748
O O14 0.257831 0.837688 0.802975
O O15 0.000000 0.500000 0.500000
O O16 0.000000 0.000000 0.000000
#
# Coordination Sequence:
#
# PCOD9034948 Si02
#       7
#     2   2   2   2   2   2   2
#     4   9  22  46  69  94 132 178 220 285 340 395
#     4  10  23  43  67 101 132 165 228 283 339 401
#     4  11  24  42  69  96 134 185 220 278 345 397
#     4  12  24  42  66  94 137 177 227 274 330 408
#     4  10  22  45  69  95 135 178 229 278 340 402
#     4  12  25  41  65 101 133 177 225 276 343 408
#     4  12  25  45  65  97 139 177 230 280 331 414
#
# _framework density 21.590968
#
# number of rings (size 3 to 8) (size 9 to 14) (size 15 to 20)
#    0.000    1.143    4.286    1.286    4.000    1.143 
#    5.143    2.143    0.000    0.000    0.000    0.000 
#    0.000    0.000    0.000    0.000    0.000    0.000 
#
# Total GULP energy -78081.267170 kJ/mol
# GULP energy per Si atom -5577.233369 kJ/mol
# Density = 2.154183 g / cm^3
# Si number density = 21.590968 Si / 1000 Ang^3
#
#
#
# Elastic Constant Matrix: (Units=GPa)
#
#
# Indices 1 2 3 4 5 6 
#
# 1 80.9833 22.1088 11.4909 -2.6708 -17.5690 -7.5543
# 2 22.1088 89.6636 14.7942 18.2861 -0.2736 -18.3437
# 3 11.4909 14.7942 107.1346 -3.9385 -4.4848 -7.1918
# 4 -2.6708 18.2861 -3.9385 32.9419 7.0767 -6.2100
# 5 -17.5690 -0.2736 -4.4848 7.0767 26.0404 4.1279
# 6 -7.5543 -18.3437 -7.1918 -6.2100 4.1279 34.5792
#
#
#
# Elastic Compliance Matrix: (Units=1/GPa)
#
#
# Indices 1 2 3 4 5 6 
#
# 1 0.015781 -0.003964 -0.000660 0.001272 0.010109 0.000229
# 2 -0.003964 0.015069 -0.001620 -0.007457 -0.001664 0.005651
# 3 -0.000660 -0.001620 0.009819 0.002192 0.000414 0.001383
# 4 0.001272 -0.007457 0.002192 0.037884 -0.009893 0.004762
# 5 0.010109 -0.001664 0.000414 -0.009893 0.048949 -0.006208
# 6 0.000229 0.005651 0.001383 0.004762 -0.006208 0.033851
#
#
# Mechanical properties :
#
#
# Convention : Reuss Voigt Hill
#
# Bulk Modulus (GPa) = 35.48490 41.61883 38.55187
# Shear Modulus (GPa) = 27.28743 34.00481 30.64612
#
# Velocity S-wave (km/s) = 3.55890 3.97288 3.77157
# Velocity P-wave (km/s) = 5.77568 6.35318 6.07130
#
# Compressibility (1/GPa) = 0.02818100
#
# Stress axis : x y z
#
# Youngs Moduli (GPa) = 63.36903 66.35987 101.84042
#
# Poissons Ratio (x) = 0.26305 0.06720
# Poissons Ratio (y) = 0.25120 0.16501
# Poissons Ratio (z) = 0.04181 0.10752
#
# Static dielectric constant tensor:
#      x y z
#    x 1.684390 0.073220 0.001370 
#    y 0.073220 1.789490 -0.003270 
#    z 0.001370 -0.003270 1.776820 
# 
# From -- ./inp_files/501153.got.cif
#   From: 2010.05.17/outbox.cif.g08.bks.cpg/sg2_251_cif.got.tgz:501153.got - 2010.06.03 11:33:40.
