data_PCOD9034715
_publ_section_title
;
Structure prediction by ZEFSAII (Michael W. Deem and Ramdas Pophale) SiO2 
 PCOD9034715
Probable space group: P -1
;
_chemical_formula_sum "Si O2"
_cell_formula_units_Z 14
_cell_length_a 14.298258
_cell_length_b 7.187386
_cell_length_c 17.653039
_cell_angle_alpha 109.794177
_cell_angle_beta 136.912969
_cell_angle_gamma 35.622003
_cell_volume 554.028668
_symmetry_space_group_name_H-M "P -1"
_symmetry_group_IT_number 2
_symmetry_cell_setting 'triclinic'
loop_
_space_group_symop_operation_xyz
x,y,z
-x,-y,-z
loop_
_atom_site_type_symbol
_atom_site_label
_atom_site_fract_x
_atom_site_fract_y
_atom_site_fract_z
Si Si1 0.973722 0.946006 0.810038
Si Si2 0.594578 0.073719 0.390421
Si Si3 0.656758 0.886424 0.859491
Si Si4 0.731966 0.237856 0.412585
Si Si5 0.310474 0.680006 0.840576
Si Si6 0.458007 0.362428 0.141845
Si Si7 0.388084 0.921971 0.423403
O O1 0.051922 0.909100 0.765095
O O2 0.701799 0.429217 0.730728
O O3 0.896651 0.811424 0.745888
O O4 0.197746 0.705179 0.975782
O O5 0.496653 0.982827 0.292409
O O6 0.816923 0.910213 0.446727
O O7 0.662294 0.035352 0.511153
O O8 0.584259 0.792263 0.860673
O O9 0.489274 0.285119 0.848952
O O10 0.000000 0.500000 0.000000
O O11 0.489174 0.494526 0.241445
O O12 0.625499 0.497658 0.457342
O O13 0.000000 0.000000 0.500000
O O14 0.276707 0.910927 0.795908
O O15 0.500000 0.500000 0.000000
O O16 0.500000 0.000000 0.500000
#
# Coordination Sequence:
#
# PCOD9034715 Si02
#       7
#     2   2   2   2   2   2   2
#     4  10  22  45  67  94 135 177 224 282 335 404
#     4  10  24  44  66  94 133 181 225 270 346 401
#     4  11  24  41  67  98 136 177 223 282 331 406
#     4  10  23  43  69  96 132 177 222 279 335 403
#     4  10  23  41  64 101 133 174 219 280 342 391
#     4  10  24  41  70  99 131 174 230 270 344 384
#     4  11  26  42  65  99 133 182 223 274 346 403
#
# _framework density 25.269451
#
# number of rings (size 3 to 8) (size 9 to 14) (size 15 to 20)
#    0.000    1.714    0.000    3.429    8.000   12.571 
#    0.000    1.429    0.000    0.000    0.000    0.000 
#    0.000    0.000    0.000    0.000    0.000    0.000 
#
# Total GULP energy -78093.854173 kJ/mol
# GULP energy per Si atom -5578.132441 kJ/mol
# Density = 2.521194 g / cm^3
# Si number density = 25.269451 Si / 1000 Ang^3
#
#
#
# Elastic Constant Matrix: (Units=GPa)
#
#
# Indices 1 2 3 4 5 6 
#
# 1 160.2147 23.0201 38.4397 12.2135 28.2802 -11.6084
# 2 23.0201 87.1071 40.6517 39.8968 12.3659 2.2206
# 3 38.4397 40.6517 183.0528 52.1710 9.9765 -1.7188
# 4 12.2135 39.8968 52.1710 46.1498 -4.3443 2.2851
# 5 28.2802 12.3659 9.9765 -4.3443 51.1369 6.2738
# 6 -11.6084 2.2206 -1.7188 2.2851 6.2738 35.7952
#
#
#
# Elastic Compliance Matrix: (Units=1/GPa)
#
#
# Indices 1 2 3 4 5 6 
#
# 1 0.007640 -0.000545 -0.000891 -0.001124 -0.004422 0.003315
# 2 -0.000545 0.021482 0.001782 -0.021177 -0.007185 0.001187
# 3 -0.000891 0.001782 0.008673 -0.011430 -0.002752 0.001229
# 4 -0.001124 -0.021177 -0.011430 0.054713 0.013285 -0.005421
# 5 -0.004422 -0.007185 -0.002752 0.013285 0.026209 -0.006562
# 6 0.003315 0.001187 0.001229 -0.005421 -0.006562 0.030493
#
#
# Mechanical properties :
#
#
# Convention : Reuss Voigt Hill
#
# Bulk Modulus (GPa) = 25.98293 70.51085 48.24689
# Shear Modulus (GPa) = 30.98892 48.50059 39.74475
#
# Velocity S-wave (km/s) = 3.50571 4.38578 3.97020
# Velocity P-wave (km/s) = 5.16637 7.32195 6.33649
#
# Compressibility (1/GPa) = 0.03848681
#
# Stress axis : x y z
#
# Youngs Moduli (GPa) = 130.88790 46.55134 115.29670
#
# Poissons Ratio (x) = 0.02539 0.10271
# Poissons Ratio (y) = 0.07139 -0.20548
# Poissons Ratio (z) = 0.11660 -0.08296
#
# Static dielectric constant tensor:
#      x y z
#    x 2.308770 -0.026880 0.112890 
#    y -0.026880 2.060630 -0.019220 
#    z 0.112890 -0.019220 2.104010 
# 
# From -- ./inp_files/572402.got.cif
#   From: 2010.05.17/outbox.cif.g08.bks.cpg/sg2_287_cif.got.tgz:572402.got - 2010.06.03 11:33:40.
