data_PCOD9034538
_publ_section_title
;
Structure prediction by ZEFSAII (Michael W. Deem and Ramdas Pophale) SiO2 
 PCOD9034538
Probable space group: P -1
;
_chemical_formula_sum "Si O2"
_cell_formula_units_Z 14
_cell_length_a 7.825709
_cell_length_b 7.626998
_cell_length_c 21.890700
_cell_angle_alpha 39.300135
_cell_angle_beta 106.698494
_cell_angle_gamma 118.484313
_cell_volume 719.508280
_symmetry_space_group_name_H-M "P -1"
_symmetry_group_IT_number 2
_symmetry_cell_setting 'triclinic'
loop_
_space_group_symop_operation_xyz
x,y,z
-x,-y,-z
loop_
_atom_site_type_symbol
_atom_site_label
_atom_site_fract_x
_atom_site_fract_y
_atom_site_fract_z
Si Si1 0.623926 0.767613 0.232355
Si Si2 0.589912 0.787513 0.887503
Si Si3 0.031446 0.344703 0.400060
Si Si4 0.562951 0.390930 0.211816
Si Si5 0.963955 0.762175 0.190334
Si Si6 0.604708 0.284234 0.585358
Si Si7 0.325456 0.676924 0.552445
O O1 0.508162 0.542939 0.224412
O O2 0.613252 0.580910 0.343811
O O3 0.847887 0.874122 0.199747
O O4 0.534906 0.010509 0.169614
O O5 0.561725 0.672023 0.845409
O O6 0.821693 0.985008 0.870612
O O7 0.500000 0.500000 0.000000
O O8 0.996921 0.472133 0.297849
O O9 0.244243 0.573184 0.383296
O O10 0.867885 0.372956 0.417938
O O11 0.000000 0.000000 0.500000
O O12 0.790933 0.618382 0.161451
O O13 0.539631 0.061522 0.321925
O O14 0.500000 0.500000 0.500000
O O15 0.716122 0.305891 0.527437
O O16 0.500000 0.000000 0.500000
#
# Coordination Sequence:
#
# PCOD9034538 Si02
#       7
#     2   2   2   2   2   2   2
#     4   9  23  44  62  95 136 165 212 274 313 385
#     4  12  25  44  72  96 124 174 219 270 338 383
#     4  11  22  35  59  91 129 171 206 253 311 380
#     4  10  22  45  62  92 136 164 214 275 321 375
#     4   9  22  44  62  93 135 163 218 270 316 387
#     4  12  21  35  60  92 128 172 208 254 311 378
#     4  11  20  36  58  88 126 167 212 246 309 388
#
# _framework density 19.457733000000001
#
# number of rings (size 3 to 8) (size 9 to 14) (size 15 to 20)
#    0.857    0.571    2.857    3.000    2.000    1.714 
#    2.571    0.000    0.000    0.000    0.000    0.000 
#    0.000    0.000    0.000    0.000    0.000    0.000 
#
# Total GULP energy -77977.355742 kJ/mol
# GULP energy per Si atom -5569.811124 kJ/mol
# Density = 1.941345 g / cm^3
# Si number density = 19.457733 Si / 1000 Ang^3
#
#
#
# Elastic Constant Matrix: (Units=GPa)
#
#
# Indices 1 2 3 4 5 6 
#
# 1 74.4034 10.9023 25.7698 -18.1174 -1.5668 17.9248
# 2 10.9023 71.7587 10.9070 -7.6624 -0.8345 12.1376
# 3 25.7698 10.9070 81.8697 -13.6710 -11.8380 7.5302
# 4 -18.1174 -7.6624 -13.6710 21.8633 5.0663 -10.7538
# 5 -1.5668 -0.8345 -11.8380 5.0663 27.7840 -4.1406
# 6 17.9248 12.1376 7.5302 -10.7538 -4.1406 28.0772
#
#
#
# Elastic Compliance Matrix: (Units=1/GPa)
#
#
# Indices 1 2 3 4 5 6 
#
# 1 0.019178 0.000091 -0.004141 0.010391 -0.003729 -0.007742
# 2 0.000091 0.015304 -0.001392 0.002077 -0.001357 -0.005706
# 3 -0.004141 -0.001392 0.015203 0.005294 0.005537 0.002012
# 4 0.010391 0.002077 0.005294 0.067906 -0.007092 0.016012
# 5 -0.003729 -0.001357 0.005537 -0.007092 0.040090 0.004678
# 6 -0.007742 -0.005706 0.002012 0.016012 0.004678 0.049308
#
#
# Mechanical properties :
#
#
# Convention : Reuss Voigt Hill
#
# Bulk Modulus (GPa) = 25.77186 35.91002 30.84094
# Shear Modulus (GPa) = 21.66311 27.57508 24.61909
#
# Velocity S-wave (km/s) = 3.34030 3.76863 3.56091
# Velocity P-wave (km/s) = 5.30571 6.11819 5.72638
#
# Compressibility (1/GPa) = 0.03880200
#
# Stress axis : x y z
#
# Youngs Moduli (GPa) = 52.14344 65.34067 65.77720
#
# Poissons Ratio (x) = -0.00597 0.27236
# Poissons Ratio (y) = -0.00477 0.09159
# Poissons Ratio (z) = 0.21591 0.09098
#
# Static dielectric constant tensor:
#      x y z
#    x 1.747540 -0.048350 -0.036430 
#    y -0.048350 1.723950 0.034740 
#    z -0.036430 0.034740 1.729090 
# 
# From -- ./inp_files/215042.got.cif
#   From: 2010.05.17/outbox.cif.g08.bks.cpg/sg2_108_cif.got.tgz:215042.got - 2010.06.03 11:33:40.
