data_PCOD9034323
_publ_section_title
;
Structure prediction by ZEFSAII (Michael W. Deem and Ramdas Pophale) SiO2 
 PCOD9034323
Probable space group: P -1
;
_chemical_formula_sum "Si O2"
_cell_formula_units_Z 16
_cell_length_a 13.793934
_cell_length_b 9.661653
_cell_length_c 7.611991
_cell_angle_alpha 134.160423
_cell_angle_beta 59.920885
_cell_angle_gamma 115.374780
_cell_volume 624.596081
_symmetry_space_group_name_H-M "P -1"
_symmetry_group_IT_number 2
_symmetry_cell_setting 'triclinic'
loop_
_space_group_symop_operation_xyz
x,y,z
-x,-y,-z
loop_
_atom_site_type_symbol
_atom_site_label
_atom_site_fract_x
_atom_site_fract_y
_atom_site_fract_z
Si Si1 0.302804 0.572504 0.062627
Si Si2 0.741618 0.868592 0.816231
Si Si3 0.465926 0.339228 0.537611
Si Si4 0.071835 0.663613 0.824178
Si Si5 0.501966 0.062233 0.758956
Si Si6 0.966883 0.783423 0.675975
Si Si7 0.130142 0.817404 0.261900
Si Si8 0.293386 0.555293 0.455088
O O1 0.408136 0.746159 0.127384
O O2 0.262370 0.519273 0.248555
O O3 0.353756 0.391033 0.775235
O O4 0.203704 0.652813 0.117241
O O5 0.624392 0.905523 0.042912
O O6 0.785547 0.005424 0.737335
O O7 0.850770 0.874336 0.849005
O O8 0.722800 0.638619 0.585320
O O9 0.500000 0.500000 0.500000
O O10 0.575097 0.371234 0.593478
O O11 0.460154 0.110770 0.307231
O O12 0.049582 0.435694 0.588659
O O13 0.048682 0.725997 0.097542
O O14 0.209610 0.702962 0.725830
O O15 0.011043 0.767276 0.817852
O O16 0.500000 0.000000 0.500000
O O17 0.060574 0.885794 0.548737
#
# Coordination Sequence:
#
# PCOD9034323 Si02
#       8
#     2   2   2   2   2   2   2   2
#     4  12  25  45  71 104 151 188 244 297 359 438
#     4  11  25  42  71 102 145 185 241 302 360 428
#     4  12  25  41  68 100 143 195 240 292 362 427
#     4  10  22  44  73 102 139 185 245 295 364 437
#     4  12  25  45  72 108 144 196 245 295 363 436
#     4  10  23  47  73 101 143 189 235 311 366 419
#     4  12  25  44  73 108 141 189 244 298 363 438
#     4  11  21  44  66  98 146 189 229 298 365 418
#
# _framework density 25.616555000000002
#
# number of rings (size 3 to 8) (size 9 to 14) (size 15 to 20)
#    0.000    0.750    3.750    4.125    1.750    1.500 
#    0.000    1.250    0.000    0.000    0.000    0.000 
#    0.000    0.000    0.000    0.000    0.000    0.000 
#
# Total GULP energy -89659.870597 kJ/mol
# GULP energy per Si atom -5603.741912 kJ/mol
# Density = 2.555825 g / cm^3
# Si number density = 25.616555 Si / 1000 Ang^3
#
#
#
# Elastic Constant Matrix: (Units=GPa)
#
#
# Indices 1 2 3 4 5 6 
#
# 1 133.1597 37.8872 50.0609 -2.6158 -13.0942 -17.8291
# 2 37.8872 126.1981 39.0252 -6.5060 -12.2261 -15.5570
# 3 50.0609 39.0252 96.9292 -1.5489 -26.8147 -16.0483
# 4 -2.6158 -6.5060 -1.5489 42.5329 -5.1475 1.5205
# 5 -13.0942 -12.2261 -26.8147 -5.1475 52.8171 0.4775
# 6 -17.8291 -15.5570 -16.0483 1.5205 0.4775 44.0166
#
#
#
# Elastic Compliance Matrix: (Units=1/GPa)
#
#
# Indices 1 2 3 4 5 6 
#
# 1 0.009724 -0.001393 -0.004144 0.000163 -0.000017 0.001930
# 2 -0.001393 0.009498 -0.002612 0.001285 0.000636 0.001789
# 3 -0.004144 -0.002612 0.015802 0.000588 0.006420 0.003070
# 4 0.000163 0.001285 0.000588 0.024105 0.002987 -0.000130
# 5 -0.000017 0.000636 0.006420 0.002987 0.022607 0.002210
# 6 0.001930 0.001789 0.003070 -0.000130 0.002210 0.025233
#
#
# Mechanical properties :
#
#
# Convention : Reuss Voigt Hill
#
# Bulk Modulus (GPa) = 53.39864 67.80372 60.60118
# Shear Modulus (GPa) = 38.60709 43.16091 40.88400
#
# Velocity S-wave (km/s) = 3.88637 4.10919 3.99933
# Velocity P-wave (km/s) = 6.40540 7.00286 6.71078
#
# Compressibility (1/GPa) = 0.01872707
#
# Stress axis : x y z
#
# Youngs Moduli (GPa) = 102.83870 105.27993 63.28180
#
# Poissons Ratio (x) = 0.14668 0.26222
# Poissons Ratio (y) = 0.14328 0.16528
# Poissons Ratio (z) = 0.42614 0.27498
#
# Static dielectric constant tensor:
#      x y z
#    x 2.053570 0.051770 0.054490 
#    y 0.051770 2.039850 0.043340 
#    z 0.054490 0.043340 2.014210 
# 
# From -- ./inp_files/294211.got.cif
#   From: 2010.05.17/outbox.cif.g08.bks.cpg/sg2_148_cif.got.tgz:294211.got - 2010.06.03 11:33:40.
