data_PCOD9034443
_publ_section_title
;
Structure prediction by ZEFSAII (Michael W. Deem and Ramdas Pophale) SiO2 
 PCOD9034443
Probable space group: P -1
;
_chemical_formula_sum "Si O2"
_cell_formula_units_Z 15
_cell_length_a 5.116295
_cell_length_b 15.350577
_cell_length_c 27.762132
_cell_angle_alpha 17.639072
_cell_angle_beta 97.239422
_cell_angle_gamma 101.946053
_cell_volume 627.448515
_symmetry_space_group_name_H-M "P -1"
_symmetry_group_IT_number 2
_symmetry_cell_setting 'triclinic'
loop_
_space_group_symop_operation_xyz
x,y,z
-x,-y,-z
loop_
_atom_site_type_symbol
_atom_site_label
_atom_site_fract_x
_atom_site_fract_y
_atom_site_fract_z
Si Si1 0.257092 0.140073 0.511523
Si Si2 0.501870 0.312174 0.281508
Si Si3 0.637848 0.672838 0.288695
Si Si4 0.878968 0.821360 0.750271
Si Si5 0.244033 0.085475 0.075174
Si Si6 0.000000 0.000000 0.500000
Si Si7 0.744258 0.280141 0.581172
Si Si8 0.542136 0.280627 0.074765
O O1 0.509867 0.417962 0.381197
O O2 0.014909 0.215385 0.437121
O O3 0.295225 0.902795 0.595839
O O4 0.153235 0.960240 0.652748
O O5 0.355103 0.216855 0.276189
O O6 0.263147 0.269370 0.336754
O O7 0.694162 0.645720 0.102837
O O8 0.627088 0.493778 0.432608
O O9 0.456032 0.896548 0.171097
O O10 0.943965 0.862152 0.185003
O O11 0.851734 0.060254 0.663733
O O12 0.822594 0.487963 0.947141
O O13 0.314206 0.223607 0.057578
O O14 0.000000 0.500000 0.500000
O O15 0.509565 0.048229 0.729959
O O16 0.500000 0.500000 0.000000
#
# Coordination Sequence:
#
# PCOD9034443 Si02
#       8
#     2   2   2   2   2   1   2   2
#     4  11  23  44  76  99 138 179 235 285 359 428
#     4  10  22  44  74  99 135 178 229 288 350 428
#     4  12  26  45  69 101 145 189 231 290 357 415
#     4   9  20  40  64  97 133 182 234 287 343 400
#     4  11  26  45  69 101 144 191 231 287 362 413
#     4  10  24  44  78 110 128 170 240 290 350 430
#     4  11  20  40  64  98 140 188 240 285 340 404
#     4   9  20  40  64  96 137 185 245 297 330 398
#
# _framework density 23.906344000000001
#
# number of rings (size 3 to 8) (size 9 to 14) (size 15 to 20)
#    0.000    1.600    2.667    1.200    7.467    0.533 
#    0.000    2.667    0.000    0.000    0.000    0.000 
#    0.000    0.000    0.000    0.000    0.000    0.000 
#
# Total GULP energy -83693.320294 kJ/mol
# GULP energy per Si atom -5579.554686 kJ/mol
# Density = 2.385193 g / cm^3
# Si number density = 23.906344 Si / 1000 Ang^3
#
#
#
# Elastic Constant Matrix: (Units=GPa)
#
#
# Indices 1 2 3 4 5 6 
#
# 1 130.4803 43.4305 84.2567 -12.6796 -25.8283 -10.6633
# 2 43.4305 102.0935 88.6146 -0.0089 -24.3971 2.7590
# 3 84.2567 88.6146 226.1080 -8.7085 -38.3088 -0.6713
# 4 -12.6796 -0.0089 -8.7085 35.5842 5.1161 -8.2292
# 5 -25.8283 -24.3971 -38.3088 5.1161 48.0994 1.0965
# 6 -10.6633 2.7590 -0.6713 -8.2292 1.0965 34.5497
#
#
#
# Elastic Compliance Matrix: (Units=1/GPa)
#
#
# Indices 1 2 3 4 5 6 
#
# 1 0.011413 -0.001851 -0.002970 0.004052 0.002291 0.004505
# 2 -0.001851 0.015881 -0.005083 -0.003028 0.003398 -0.002768
# 3 -0.002970 -0.005083 0.007890 0.000505 0.002064 -0.000303
# 4 0.004052 -0.003028 0.000505 0.032181 -0.002592 0.009249
# 5 0.002291 0.003398 0.002064 -0.002592 0.025685 -0.000957
# 6 0.004505 -0.002768 -0.000303 0.009249 -0.000957 0.032783
#
#
# Mechanical properties :
#
#
# Convention : Reuss Voigt Hill
#
# Bulk Modulus (GPa) = 65.04060 99.03173 82.03617
# Shear Modulus (GPa) = 33.16368 39.80534 36.48451
#
# Velocity S-wave (km/s) = 3.72860 4.08493 3.91083
# Velocity P-wave (km/s) = 6.76772 7.98522 7.40155
#
# Compressibility (1/GPa) = 0.01537501
#
# Stress axis : x y z
#
# Youngs Moduli (GPa) = 87.61593 62.96757 126.74558
#
# Poissons Ratio (x) = 0.11658 0.37643
# Poissons Ratio (y) = 0.16222 0.64429
# Poissons Ratio (z) = 0.26022 0.32008
#
# Static dielectric constant tensor:
#      x y z
#    x 2.262630 0.175900 0.117500 
#    y 0.175900 2.025310 0.076040 
#    z 0.117500 0.076040 1.949800 
# 
# From -- ./inp_files/44948.got.cif
#   From: 2010.05.17/outbox.cif.g08.bks.cpg/sg2_23_cif.got.tgz:44948.got - 2010.06.03 11:33:40.
