data_PCOD9034594
_publ_section_title
;
Structure prediction by ZEFSAII (Michael W. Deem and Ramdas Pophale) SiO2 
 PCOD9034594
Probable space group: P -1
;
_chemical_formula_sum "Si O2"
_cell_formula_units_Z 14
_cell_length_a 11.415634
_cell_length_b 10.587206
_cell_length_c 11.181033
_cell_angle_alpha 75.262822
_cell_angle_beta 37.530768
_cell_angle_gamma 100.630088
_cell_volume 601.218630
_symmetry_space_group_name_H-M "P -1"
_symmetry_group_IT_number 2
_symmetry_cell_setting 'triclinic'
loop_
_space_group_symop_operation_xyz
x,y,z
-x,-y,-z
loop_
_atom_site_type_symbol
_atom_site_label
_atom_site_fract_x
_atom_site_fract_y
_atom_site_fract_z
Si Si1 0.849211 0.270282 0.873215
Si Si2 0.337876 0.161016 0.360573
Si Si3 0.249976 0.877707 0.650417
Si Si4 0.635242 0.531714 0.680502
Si Si5 0.711973 0.652708 0.205157
Si Si6 0.408840 0.113430 0.798680
Si Si7 0.474389 0.774729 0.048552
O O1 0.760783 0.249726 0.810481
O O2 0.146120 0.428577 0.594020
O O3 0.644452 0.272609 0.103059
O O4 0.779579 0.093049 0.009921
O O5 0.280549 0.285764 0.397932
O O6 0.204291 0.997590 0.593731
O O7 0.311194 0.111543 0.254199
O O8 0.332748 0.814696 0.494736
O O9 0.500000 0.000000 0.500000
O O10 0.999778 0.731500 0.962552
O O11 0.379213 0.421737 0.837362
O O12 0.598099 0.410858 0.844377
O O13 0.500000 0.500000 0.500000
O O14 0.698024 0.802907 0.192591
O O15 0.455151 0.155541 0.891971
#
# Coordination Sequence:
#
# PCOD9034594 Si02
#       7
#     2   2   2   2   2   2   2
#     4   9  20  36  65  91 126 174 210 253 320 379
#     4   9  22  39  65  94 129 169 220 252 322 389
#     4  11  26  46  69  95 124 175 224 267 321 388
#     4  11  21  40  59  96 135 165 212 267 320 379
#     4  11  28  43  66  96 129 173 218 273 329 376
#     4  10  22  45  65  94 135 167 222 265 317 391
#     4   9  20  39  63  99 129 174 208 263 319 379
#
# _framework density 23.28604
#
# number of rings (size 3 to 8) (size 9 to 14) (size 15 to 20)
#    0.857    1.143    0.000    2.143    6.000    3.429 
#    5.143    3.571    0.000    0.000    0.000    0.000 
#    0.000    0.000    0.000    0.000    0.000    0.000 
#
# Total GULP energy -78159.831409 kJ/mol
# GULP energy per Si atom -5582.845101 kJ/mol
# Density = 2.323304 g / cm^3
# Si number density = 23.286040 Si / 1000 Ang^3
#
#
#
# Elastic Constant Matrix: (Units=GPa)
#
#
# Indices 1 2 3 4 5 6 
#
# 1 63.1512 17.5763 39.6268 1.1663 10.8237 -3.0969
# 2 17.5763 69.2621 12.4742 9.8329 13.6926 -11.4942
# 3 39.6268 12.4742 132.0505 5.8692 1.2234 -7.7246
# 4 1.1663 9.8329 5.8692 14.1008 -1.2222 2.6710
# 5 10.8237 13.6926 1.2234 -1.2222 37.1132 -4.9729
# 6 -3.0969 -11.4942 -7.7246 2.6710 -4.9729 26.6738
#
#
#
# Elastic Compliance Matrix: (Units=1/GPa)
#
#
# Indices 1 2 3 4 5 6 
#
# 1 0.021662 -0.004407 -0.006365 0.003999 -0.004685 -0.002501
# 2 -0.004407 0.020350 0.000707 -0.016319 -0.005570 0.009058
# 3 -0.006365 0.000707 0.009785 -0.004500 0.001545 0.003138
# 4 0.003999 -0.016319 -0.004500 0.087284 0.005796 -0.015531
# 5 -0.004685 -0.005570 0.001545 0.005796 0.030864 0.002677
# 6 -0.002501 0.009058 0.003138 -0.015531 0.002677 0.044066
#
#
# Mechanical properties :
#
#
# Convention : Reuss Voigt Hill
#
# Bulk Modulus (GPa) = 31.57847 44.86870 38.22358
# Shear Modulus (GPa) = 20.43338 28.56334 24.49836
#
# Velocity S-wave (km/s) = 2.96547 3.50613 3.24707
# Velocity P-wave (km/s) = 5.03149 5.97502 5.52344
#
# Compressibility (1/GPa) = 0.03166715
#
# Stress axis : x y z
#
# Youngs Moduli (GPa) = 46.16370 49.14007 102.19353
#
# Poissons Ratio (x) = 0.21657 0.65044
# Poissons Ratio (y) = 0.20346 -0.07225
# Poissons Ratio (z) = 0.29382 -0.03474
#
# Static dielectric constant tensor:
#      x y z
#    x 1.919540 0.016490 0.009830 
#    y 0.016490 1.870650 0.017480 
#    z 0.009830 0.017480 1.895340 
# 
# From -- ./inp_files/427958.got.cif
#   From: 2010.05.17/outbox.cif.g08.bks.cpg/sg2_214_cif.got.tgz:427958.got - 2010.06.03 11:33:40.
