data_PCOD9034315
_publ_section_title
;
Structure prediction by ZEFSAII (Michael W. Deem and Ramdas Pophale) SiO2 
 PCOD9034315
Probable space group: P -1
;
_chemical_formula_sum "Si O2"
_cell_formula_units_Z 15
_cell_length_a 17.528442
_cell_length_b 8.879888
_cell_length_c 14.230091
_cell_angle_alpha 82.290564
_cell_angle_beta 158.830717
_cell_angle_gamma 87.777577
_cell_volume 704.641107
_symmetry_space_group_name_H-M "P -1"
_symmetry_group_IT_number 2
_symmetry_cell_setting 'triclinic'
loop_
_space_group_symop_operation_xyz
x,y,z
-x,-y,-z
loop_
_atom_site_type_symbol
_atom_site_label
_atom_site_fract_x
_atom_site_fract_y
_atom_site_fract_z
Si Si1 0.069868 0.307004 0.633844
Si Si2 0.453487 0.769847 0.719102
Si Si3 0.500088 0.691201 0.379540
Si Si4 0.353952 0.382880 0.237075
Si Si5 0.984111 0.943876 0.708726
Si Si6 0.652619 0.475605 0.270024
Si Si7 0.000000 0.000000 0.500000
Si Si8 0.824701 0.654069 0.578971
O O1 0.013134 0.187402 0.508839
O O2 0.000000 0.500000 0.500000
O O3 0.913847 0.344366 0.546147
O O4 0.345696 0.215502 0.988019
O O5 0.518612 0.754927 0.686372
O O6 0.455760 0.593129 0.768096
O O7 0.196111 0.909798 0.442353
O O8 0.448558 0.526506 0.327914
O O9 0.593240 0.690587 0.591307
O O10 0.684981 0.679948 0.513280
O O11 0.253331 0.856954 0.061437
O O12 0.072443 0.481839 0.886133
O O13 0.892782 0.801794 0.622615
O O14 0.976689 0.998346 0.587873
O O15 0.664877 0.639436 0.312317
O O16 0.500000 0.500000 0.000000
#
# Coordination Sequence:
#
# PCOD9034315 Si02
#       8
#     2   2   2   2   2   2   1   2
#     4  12  26  45  69 102 141 190 243 284 355 428
#     4  12  25  44  66 101 140 181 233 287 357 429
#     4  10  23  44  71 102 137 182 242 297 356 423
#     4  10  22  44  73 101 134 183 240 302 355 425
#     4  11  28  43  66 105 142 187 231 288 361 429
#     4  12  24  39  67  99 135 182 232 284 348 419
#     4  12  28  46  70 100 154 184 236 298 352 424
#     4  11  23  44  73 101 136 186 238 293 356 429
#
# _framework density 21.287433
#
# number of rings (size 3 to 8) (size 9 to 14) (size 15 to 20)
#    0.000    0.800    5.333    1.200    5.600    1.067 
#    0.000    0.667    0.000    0.000    0.000    0.000 
#    0.000    0.000    0.000    0.000    0.000    0.000 
#
# Total GULP energy -83606.174482 kJ/mol
# GULP energy per Si atom -5573.744965 kJ/mol
# Density = 2.123898 g / cm^3
# Si number density = 21.287433 Si / 1000 Ang^3
#
#
#
# Elastic Constant Matrix: (Units=GPa)
#
#
# Indices 1 2 3 4 5 6 
#
# 1 159.1514 35.6909 62.9703 -10.9598 -9.4008 -11.6215
# 2 35.6909 82.0541 28.7071 0.3644 -11.7963 -11.9536
# 3 62.9703 28.7071 76.2297 -1.7424 0.4094 -3.5611
# 4 -10.9598 0.3644 -1.7424 22.4048 -5.6102 5.4806
# 5 -9.4008 -11.7963 0.4094 -5.6102 27.0387 8.6643
# 6 -11.6215 -11.9536 -3.5611 5.4806 8.6643 33.4278
#
#
#
# Elastic Compliance Matrix: (Units=1/GPa)
#
#
# Indices 1 2 3 4 5 6 
#
# 1 0.010353 -0.001046 -0.008039 0.005436 0.004274 0.000370
# 2 -0.001046 0.015621 -0.004901 -0.000665 0.005285 0.003439
# 3 -0.008039 -0.004901 0.021549 -0.003650 -0.005984 -0.000102
# 4 0.005436 -0.000665 -0.003650 0.054125 0.016712 -0.011943
# 5 0.004274 0.005285 -0.005984 0.016712 0.048350 -0.012534
# 6 0.000370 0.003439 -0.000102 -0.011943 -0.012534 0.036469
#
#
# Mechanical properties :
#
#
# Convention : Reuss Voigt Hill
#
# Bulk Modulus (GPa) = 51.15455 63.57463 57.36459
# Shear Modulus (GPa) = 22.62884 29.24539 25.93712
#
# Velocity S-wave (km/s) = 3.26393 3.71055 3.49438
# Velocity P-wave (km/s) = 6.18764 6.94890 6.57929
#
# Compressibility (1/GPa) = 0.01954860
#
# Stress axis : x y z
#
# Youngs Moduli (GPa) = 96.59415 64.01762 46.40626
#
# Poissons Ratio (x) = 0.06698 0.37307
# Poissons Ratio (y) = 0.10107 0.22744
# Poissons Ratio (z) = 0.77655 0.31376
#
# Static dielectric constant tensor:
#      x y z
#    x 1.725700 0.012670 0.015500 
#    y 0.012670 1.824060 -0.008790 
#    z 0.015500 -0.008790 1.796700 
# 
# From -- ./inp_files/287719.got.cif
#   From: 2010.05.17/outbox.cif.g08.bks.cpg/sg2_144_cif.got.tgz:287719.got - 2010.06.03 11:33:40.
