data_PCOD9034195
_publ_section_title
;
Structure prediction by ZEFSAII (Michael W. Deem and Ramdas Pophale) SiO2 
 PCOD9034195
Probable space group: P -1
;
_chemical_formula_sum "Si O2"
_cell_formula_units_Z 16
_cell_length_a 12.106622
_cell_length_b 8.547550
_cell_length_c 8.341300
_cell_angle_alpha 52.091619
_cell_angle_beta 87.841802
_cell_angle_gamma 85.058697
_cell_volume 678.380313
_symmetry_space_group_name_H-M "P -1"
_symmetry_group_IT_number 2
_symmetry_cell_setting 'triclinic'
loop_
_space_group_symop_operation_xyz
x,y,z
-x,-y,-z
loop_
_atom_site_type_symbol
_atom_site_label
_atom_site_fract_x
_atom_site_fract_y
_atom_site_fract_z
Si Si1 0.304756 0.583645 0.665421
Si Si2 0.198202 0.927637 0.667799
Si Si3 0.786273 0.798339 0.804814
Si Si4 0.028565 0.005675 0.183720
Si Si5 0.492812 0.712727 0.059195
Si Si6 0.736104 0.399901 0.909836
Si Si7 0.587063 0.073335 0.743433
Si Si8 0.875289 0.425016 0.561842
O O1 0.223652 0.730572 0.684304
O O2 0.392997 0.420395 0.837923
O O3 0.384414 0.742769 0.483357
O O4 0.220914 0.484798 0.609319
O O5 0.228322 0.100700 0.436118
O O6 0.252076 0.832151 0.888547
O O7 0.076680 0.992788 0.696498
O O8 0.768691 0.571252 0.919044
O O9 0.904297 0.814531 0.872114
O O10 0.701948 0.935156 0.833721
O O11 0.104333 0.805758 0.339083
O O12 0.000000 0.000000 0.000000
O O13 0.395972 0.569575 0.122709
O O14 0.456805 0.821495 0.158694
O O15 0.506638 0.896952 0.819007
O O16 0.815731 0.426317 0.737115
O O17 0.000000 0.500000 0.500000
#
# Coordination Sequence:
#
# PCOD9034195 Si02
#       8
#     2   2   2   2   2   2   2   2
#     4  11  24  47  74 105 146 192 241 302 363 429
#     4  11  25  43  72 105 146 190 234 299 365 430
#     4  11  25  46  71 104 151 188 240 303 367 427
#     4  12  24  47  74 101 143 193 242 297 359 437
#     4  11  24  45  77 104 142 194 248 299 360 431
#     4  12  26  46  71 112 145 188 248 299 363 439
#     4  10  22  44  72 101 142 189 241 299 352 431
#     4  12  26  47  73 108 146 189 248 299 365 444
#
# _framework density 23.585588999999999
#
# number of rings (size 3 to 8) (size 9 to 14) (size 15 to 20)
#    0.000    0.750    5.000    2.250    1.750    5.500 
#    4.500    2.500    0.000    0.000    0.000    0.000 
#    0.000    0.000    0.000    0.000    0.000    0.000 
#
# Total GULP energy -89154.977726 kJ/mol
# GULP energy per Si atom -5572.186108 kJ/mol
# Density = 2.353191 g / cm^3
# Si number density = 23.585589 Si / 1000 Ang^3
#
#
#
# Elastic Constant Matrix: (Units=GPa)
#
#
# Indices 1 2 3 4 5 6 
#
# 1 107.1287 41.1003 29.2993 -1.4204 -9.1458 6.3882
# 2 41.1003 77.8719 20.3358 -9.1766 -17.5417 -3.8218
# 3 29.2993 20.3358 110.3276 -19.4157 -18.4333 4.1269
# 4 -1.4204 -9.1766 -19.4157 31.0201 -3.1153 -17.1025
# 5 -9.1458 -17.5417 -18.4333 -3.1153 25.6711 -2.5319
# 6 6.3882 -3.8218 4.1269 -17.1025 -2.5319 51.1639
#
#
#
# Elastic Compliance Matrix: (Units=1/GPa)
#
#
# Indices 1 2 3 4 5 6 
#
# 1 0.013347 -0.008265 -0.004018 -0.007462 -0.005148 -0.004709
# 2 -0.008265 0.022332 0.003175 0.014408 0.017144 0.008108
# 3 -0.004018 0.003175 0.013838 0.013286 0.012750 0.004695
# 4 -0.007462 0.014408 0.013286 0.059238 0.026088 0.022029
# 5 -0.005148 0.017144 0.012750 0.026088 0.062409 0.012704
# 6 -0.004709 0.008108 0.004695 0.022029 0.012704 0.028352
#
#
# Mechanical properties :
#
#
# Convention : Reuss Voigt Hill
#
# Bulk Modulus (GPa) = 31.94768 52.97767 42.46268
# Shear Modulus (GPa) = 21.91370 35.21055 28.56213
#
# Velocity S-wave (km/s) = 3.05144 3.86798 3.48372
# Velocity P-wave (km/s) = 5.09803 6.51606 5.85017
#
# Compressibility (1/GPa) = 0.03130117
#
# Stress axis : x y z
#
# Youngs Moduli (GPa) = 74.92410 44.77808 72.26232
#
# Poissons Ratio (x) = 0.37010 0.29036
# Poissons Ratio (y) = 0.61926 -0.22944
# Poissons Ratio (z) = 0.30106 -0.14218
#
# Static dielectric constant tensor:
#      x y z
#    x 2.015600 0.074500 0.016480 
#    y 0.074500 1.886640 0.080740 
#    z 0.016480 0.080740 2.098000 
# 
# From -- ./inp_files/242102.got.cif
#   From: 2010.05.17/outbox.cif.g08.bks.cpg/sg2_122_cif.got.tgz:242102.got - 2010.06.03 11:33:40.
