data_PCOD9034043
_publ_section_title
;
Structure prediction by ZEFSAII (Michael W. Deem and Ramdas Pophale) SiO2 
 PCOD9034043
Probable space group: P -1
;
_chemical_formula_sum "Si O2"
_cell_formula_units_Z 12
_cell_length_a 7.785412
_cell_length_b 8.091438
_cell_length_c 7.953615
_cell_angle_alpha 96.673853
_cell_angle_beta 101.030908
_cell_angle_gamma 114.166229
_cell_volume 437.966847
_symmetry_space_group_name_H-M "P -1"
_symmetry_group_IT_number 2
_symmetry_cell_setting 'triclinic'
loop_
_space_group_symop_operation_xyz
x,y,z
-x,-y,-z
loop_
_atom_site_type_symbol
_atom_site_label
_atom_site_fract_x
_atom_site_fract_y
_atom_site_fract_z
Si Si1 0.165007 0.227679 0.203704
Si Si2 0.459922 0.068651 0.829542
Si Si3 0.916305 0.285861 0.892196
Si Si4 0.502981 0.165504 0.403374
Si Si5 0.919350 0.640433 0.439531
Si Si6 0.525640 0.600231 0.272919
O O1 0.305295 0.128604 0.259153
O O2 0.091895 0.248618 0.381144
O O3 0.328280 0.421638 0.176905
O O4 0.992955 0.181208 0.030296
O O5 0.375022 0.215997 0.804573
O O6 0.683730 0.207096 0.835601
O O7 0.349704 0.865098 0.698150
O O8 0.500000 0.000000 0.000000
O O9 0.976215 0.272344 0.707816
O O10 0.000000 0.500000 0.000000
O O11 0.519744 0.323055 0.552471
O O12 0.500000 0.000000 0.500000
O O13 0.693074 0.535540 0.325958
O O14 0.000000 0.500000 0.500000
#
# Coordination Sequence:
#
# PCOD9034043 Si02
#       6
#     2   2   2   2   2   2
#     4  11  23  45  72 103 138 182 231 288 343 415
#     4  11  25  46  67  98 142 184 226 288 352 408
#     4  12  25  44  69 105 139 177 240 285 339 418
#     4   9  21  42  67  97 135 179 223 281 340 413
#     4  11  22  40  67 103 136 175 221 293 340 392
#     4  10  22  44  71 101 132 184 239 272 347 425
#
# _framework density 27.399335000000001
#
# number of rings (size 3 to 8) (size 9 to 14) (size 15 to 20)
#    0.000    1.333    3.333    2.000    2.333    5.333 
#    9.000    1.667    0.000    0.000    0.000    0.000 
#    0.000    0.000    0.000    0.000    0.000    0.000 
#
# Total GULP energy -66873.079889 kJ/mol
# GULP energy per Si atom -5572.756657 kJ/mol
# Density = 2.733697 g / cm^3
# Si number density = 27.399335 Si / 1000 Ang^3
#
#
#
# Elastic Constant Matrix: (Units=GPa)
#
#
# Indices 1 2 3 4 5 6 
#
# 1 116.8555 23.3037 3.5995 -2.9493 21.7096 -7.4151
# 2 23.3037 123.3631 18.8305 -8.5804 8.6929 -36.6001
# 3 3.5995 18.8305 114.8037 -28.0820 8.4067 1.4958
# 4 -2.9493 -8.5804 -28.0820 46.8527 0.1748 7.8720
# 5 21.7096 8.6929 8.4067 0.1748 59.6337 -10.3630
# 6 -7.4151 -36.6001 1.4958 7.8720 -10.3630 51.9474
#
#
#
# Elastic Compliance Matrix: (Units=1/GPa)
#
#
# Indices 1 2 3 4 5 6 
#
# 1 0.009500 -0.001775 0.000407 0.000643 -0.003376 -0.000677
# 2 -0.001775 0.010966 -0.002051 -0.000640 0.000688 0.007766
# 3 0.000407 -0.002051 0.010851 0.006681 -0.001937 -0.003098
# 4 0.000643 -0.000640 0.006681 0.026104 -0.002012 -0.004909
# 5 -0.003376 0.000688 -0.001937 -0.002012 0.018895 0.004133
# 6 -0.000677 0.007766 -0.003098 -0.004909 0.004133 0.026283
#
#
# Mechanical properties :
#
#
# Convention : Reuss Voigt Hill
#
# Bulk Modulus (GPa) = 40.85460 49.60997 45.23228
# Shear Modulus (GPa) = 42.51890 52.30601 47.41245
#
# Velocity S-wave (km/s) = 3.94359 4.37398 4.16435
# Velocity P-wave (km/s) = 5.97319 6.60715 6.29816
#
# Compressibility (1/GPa) = 0.02447705
#
# Stress axis : x y z
#
# Youngs Moduli (GPa) = 105.26826 91.19492 92.15998
#
# Poissons Ratio (x) = 0.16186 -0.03748
# Poissons Ratio (y) = 0.18683 0.18903
# Poissons Ratio (z) = -0.04281 0.18706
#
# Static dielectric constant tensor:
#      x y z
#    x 0.000000 0.000000 0.000000 
#    y 0.000000 0.000000 0.000000 
#    z 0.000000 0.000000 0.000000 
# 
# From -- ./inp_files/151536.got.cif
#   From: 2010.05.17/outbox.cif.g08.bks.cpg/sg2_76_cif.got.tgz:151536.got - 2010.06.03 11:33:40.
