data_PCOD9034924
_publ_section_title
;
Structure prediction by ZEFSAII (Michael W. Deem and Ramdas Pophale) SiO2 
 PCOD9034924
Probable space group: P -1
;
_chemical_formula_sum "Si O2"
_cell_formula_units_Z 14
_cell_length_a 5.663602
_cell_length_b 12.150998
_cell_length_c 26.679731
_cell_angle_alpha 159.352383
_cell_angle_beta 68.520793
_cell_angle_gamma 110.548887
_cell_volume 602.270040
_symmetry_space_group_name_H-M "P -1"
_symmetry_group_IT_number 2
_symmetry_cell_setting 'triclinic'
loop_
_space_group_symop_operation_xyz
x,y,z
-x,-y,-z
loop_
_atom_site_type_symbol
_atom_site_label
_atom_site_fract_x
_atom_site_fract_y
_atom_site_fract_z
Si Si1 0.209601 0.563818 0.120143
Si Si2 0.422562 0.847846 0.641703
Si Si3 0.799913 0.094849 0.512223
Si Si4 0.281336 0.187089 0.704000
Si Si5 0.762245 0.819503 0.836976
Si Si6 0.319442 0.254166 0.082979
Si Si7 0.912962 0.813997 0.113503
O O1 0.212515 0.394593 0.100918
O O2 0.917699 0.653962 0.176018
O O3 0.372684 0.881613 0.243835
O O4 0.293104 0.320789 0.968119
O O5 0.500000 0.500000 0.500000
O O6 0.384901 0.905883 0.609844
O O7 0.184444 0.939665 0.733876
O O8 0.796381 0.466479 0.667345
O O9 0.500000 0.000000 0.500000
O O10 0.862623 0.936220 0.386638
O O11 0.000000 0.000000 0.500000
O O12 0.493166 0.453914 0.789132
O O13 0.861561 0.825570 0.889937
O O14 0.885922 0.025647 0.871501
O O15 0.485806 0.960017 0.928804
O O16 0.000000 0.500000 0.000000
#
# Coordination Sequence:
#
# PCOD9034924 Si02
#       7
#     2   2   2   2   2   2   2
#     4  11  23  44  75  94 144 194 237 320 369 448
#     4  11  27  44  69 106 143 196 254 306 379 453
#     4  12  28  48  74 110 157 196 246 315 392 468
#     4  11  23  46  71 100 149 187 243 312 378 445
#     4  11  24  44  73 105 146 184 245 309 373 455
#     4  10  22  45  69 110 135 181 246 302 382 447
#     4  12  24  47  70 102 141 192 248 303 368 450
#
# _framework density 23.245388999999999
#
# number of rings (size 3 to 8) (size 9 to 14) (size 15 to 20)
#    0.000    0.857    4.286    2.143    4.000    4.571 
#    0.000    0.000    0.000    0.000    0.000    0.000 
#    0.000    0.000    0.000    0.000    0.000    0.000 
#
# Total GULP energy -78174.902624 kJ/mol
# GULP energy per Si atom -5583.921616 kJ/mol
# Density = 2.319248 g / cm^3
# Si number density = 23.245389 Si / 1000 Ang^3
#
#
#
# Elastic Constant Matrix: (Units=GPa)
#
#
# Indices 1 2 3 4 5 6 
#
# 1 60.3127 41.0552 33.2703 9.6824 2.3225 -17.5416
# 2 41.0552 177.8280 70.6888 12.5947 -5.2777 -10.2487
# 3 33.2703 70.6888 145.5880 5.2151 -13.7812 -30.1672
# 4 9.6824 12.5947 5.2151 48.6165 -6.8879 -4.3614
# 5 2.3225 -5.2777 -13.7812 -6.8879 33.0321 0.4096
# 6 -17.5416 -10.2487 -30.1672 -4.3614 0.4096 41.6756
#
#
#
# Elastic Compliance Matrix: (Units=1/GPa)
#
#
# Indices 1 2 3 4 5 6 
#
# 1 0.023175 -0.003962 -0.002203 -0.003296 -0.003954 0.006879
# 2 -0.003962 0.007802 -0.003319 -0.001088 -0.000058 -0.002264
# 3 -0.002203 -0.003319 0.010584 0.001303 0.004237 0.006012
# 4 -0.003296 -0.001088 0.001303 0.022248 0.005221 0.001565
# 5 -0.003954 -0.000058 0.004237 0.005221 0.033379 0.001607
# 6 0.006879 -0.002264 0.006012 0.001565 0.001607 0.030834
#
#
# Mechanical properties :
#
#
# Convention : Reuss Voigt Hill
#
# Bulk Modulus (GPa) = 44.26104 74.86191 59.56147
# Shear Modulus (GPa) = 32.35844 40.57911 36.46878
#
# Velocity S-wave (km/s) = 3.73505 4.18267 3.96518
# Velocity P-wave (km/s) = 6.13864 7.45663 6.82950
#
# Compressibility (1/GPa) = 0.02259324
#
# Stress axis : x y z
#
# Youngs Moduli (GPa) = 43.15061 128.17064 94.48503
#
# Poissons Ratio (x) = 0.50782 0.20815
# Poissons Ratio (y) = 0.17097 0.31355
# Poissons Ratio (z) = 0.09506 0.42534
#
# Static dielectric constant tensor:
#      x y z
#    x 2.011580 -0.000850 0.019980 
#    y -0.000850 1.980910 -0.054920 
#    z 0.019980 -0.054920 1.873280 
# 
# From -- ./inp_files/126892.got.cif
#   From: 2010.05.17/outbox.cif.g08.bks.cpg/sg2_64_cif.got.tgz:126892.got - 2010.06.03 11:33:40.
