data_PCOD9034479
_publ_section_title
;
Structure prediction by ZEFSAII (Michael W. Deem and Ramdas Pophale) SiO2 
 PCOD9034479
Probable space group: P -1
;
_chemical_formula_sum "Si O2"
_cell_formula_units_Z 11
_cell_length_a 7.523444
_cell_length_b 11.485972
_cell_length_c 6.747201
_cell_angle_alpha 101.974278
_cell_angle_beta 74.829803
_cell_angle_gamma 53.209402
_cell_volume 397.491668
_symmetry_space_group_name_H-M "P -1"
_symmetry_group_IT_number 2
_symmetry_cell_setting 'triclinic'
loop_
_space_group_symop_operation_xyz
x,y,z
-x,-y,-z
loop_
_atom_site_type_symbol
_atom_site_label
_atom_site_fract_x
_atom_site_fract_y
_atom_site_fract_z
Si Si1 0.237650 0.428734 0.769027
Si Si2 0.760872 0.128315 0.691188
Si Si3 0.968283 0.810854 0.253815
Si Si4 0.787513 0.912849 0.905321
Si Si5 0.500000 0.500000 0.000000
Si Si6 0.041849 0.595761 0.453648
O O1 0.496628 0.244224 0.685166
O O2 0.311219 0.526901 0.862861
O O3 0.126711 0.462415 0.581374
O O4 0.000000 0.500000 0.000000
O O5 0.732216 0.285764 0.829409
O O6 0.913361 0.957772 0.447817
O O7 0.782090 0.046392 0.861579
O O8 0.872170 0.741983 0.373814
O O9 0.858327 0.878968 0.099558
O O10 0.970202 0.737695 0.678582
O O11 0.500000 0.000000 0.000000
O O12 0.688603 0.507026 0.775337
#
# Coordination Sequence:
#
# PCOD9034479 Si02
#       6
#     2   2   2   2   1   2
#     4  11  24  46  79 108 159 203 261 325 391 476
#     4  11  25  48  77 114 155 208 264 326 398 473
#     4  11  24  48  72 107 156 197 266 321 387 473
#     4  12  28  46  79 111 154 216 259 324 407 473
#     4  10  22  44  76 104 150 206 248 324 396 454
#     4  12  27  45  75 113 151 203 267 321 396 464
#
# _framework density 27.673535000000001
#
# number of rings (size 3 to 8) (size 9 to 14) (size 15 to 20)
#    0.000    0.727    3.636    2.727    5.091    1.455 
#    3.273    2.727    0.000    0.000    0.000    0.000 
#    0.000    0.000    0.000    0.000    0.000    0.000 
#
# Total GULP energy -61271.008254 kJ/mol
# GULP energy per Si atom -5570.091659 kJ/mol
# Density = 2.761055 g / cm^3
# Si number density = 27.673535 Si / 1000 Ang^3
#
#
#
# Elastic Constant Matrix: (Units=GPa)
#
#
# Indices 1 2 3 4 5 6 
#
# 1 207.8253 132.9564 76.4767 -30.2700 14.7523 0.9590
# 2 132.9564 278.6313 123.5015 -23.2591 14.9600 14.9854
# 3 76.4767 123.5015 197.7439 -35.4968 33.1919 -3.0809
# 4 -30.2700 -23.2591 -35.4968 105.0295 -4.5888 -5.9898
# 5 14.7523 14.9600 33.1919 -4.5888 60.6311 -19.7278
# 6 0.9590 14.9854 -3.0809 -5.9898 -19.7278 77.2122
#
#
#
# Elastic Compliance Matrix: (Units=1/GPa)
#
#
# Indices 1 2 3 4 5 6 
#
# 1 0.007198 -0.003089 -0.000556 0.001210 -0.000440 0.000469
# 2 -0.003089 0.006382 -0.002966 -0.000537 0.000346 -0.001272
# 3 -0.000556 -0.002966 0.007999 0.001752 -0.003317 0.000190
# 4 0.001210 -0.000537 0.001752 0.010397 -0.000022 0.000960
# 5 -0.000440 0.000346 -0.003317 -0.000022 0.019922 0.004894
# 6 0.000469 -0.001272 0.000190 0.000960 0.004894 0.014525
#
#
# Mechanical properties :
#
#
# Convention : Reuss Voigt Hill
#
# Bulk Modulus (GPa) = 119.65239 150.00774 134.83006
# Shear Modulus (GPa) = 60.65762 71.99230 66.32496
#
# Velocity S-wave (km/s) = 4.68685 5.10601 4.90091
# Velocity P-wave (km/s) = 8.52172 9.43852 8.99181
#
# Compressibility (1/GPa) = 0.00835754
#
# Stress axis : x y z
#
# Youngs Moduli (GPa) = 138.93342 156.68043 125.01883
#
# Poissons Ratio (x) = 0.48392 0.06954
# Poissons Ratio (y) = 0.42911 0.37079
# Poissons Ratio (z) = 0.07728 0.46469
#
# Static dielectric constant tensor:
#      x y z
#    x 2.406290 0.051600 -0.010300 
#    y 0.051600 2.337300 0.165600 
#    z -0.010300 0.165600 2.441040 
# 
# From -- ./inp_files/32421.got.cif
#   From: 2010.05.17/outbox.cif.g08.bks.cpg/sg2_17_cif.got.tgz:32421.got - 2010.06.03 11:33:40.
