data_PCOD9034180
_publ_section_title
;
Structure prediction by ZEFSAII (Michael W. Deem and Ramdas Pophale) SiO2 
 PCOD9034180
Probable space group: P -1
;
_chemical_formula_sum "Si O2"
_cell_formula_units_Z 16
_cell_length_a 5.491006
_cell_length_b 11.320344
_cell_length_c 11.817896
_cell_angle_alpha 100.836475
_cell_angle_beta 110.603972
_cell_angle_gamma 83.826362
_cell_volume 674.666488
_symmetry_space_group_name_H-M "P -1"
_symmetry_group_IT_number 2
_symmetry_cell_setting 'triclinic'
loop_
_space_group_symop_operation_xyz
x,y,z
-x,-y,-z
loop_
_atom_site_type_symbol
_atom_site_label
_atom_site_fract_x
_atom_site_fract_y
_atom_site_fract_z
Si Si1 0.962090 0.744496 0.335146
Si Si2 0.542007 0.842630 0.109039
Si Si3 0.251870 0.075236 0.083420
Si Si4 0.939382 0.762931 0.599124
Si Si5 0.167913 0.520307 0.207774
Si Si6 0.554190 0.698118 0.709183
Si Si7 0.725269 0.394912 0.005767
Si Si8 0.197816 0.985027 0.422523
O O1 0.881183 0.752598 0.453972
O O2 0.098795 0.615929 0.309381
O O3 0.156334 0.849544 0.354273
O O4 0.721136 0.773084 0.217443
O O5 0.348627 0.741798 0.018575
O O6 0.425198 0.970159 0.157378
O O7 0.674247 0.884963 0.023946
O O8 0.300710 0.198215 0.179903
O O9 0.000000 0.000000 0.000000
O O10 0.246916 0.730526 0.655251
O O11 0.725079 0.692326 0.620667
O O12 0.896324 0.904113 0.651368
O O13 0.417195 0.433001 0.252475
O O14 0.173880 0.591583 0.103461
O O15 0.939508 0.428538 0.136864
O O16 0.500000 0.500000 0.000000
O O17 0.500000 0.000000 0.500000
O O18 0.000000 0.000000 0.500000
#
# Coordination Sequence:
#
# PCOD9034180 Si02
#       8
#     2   2   2   2   2   2   2   2
#     4  11  25  47  72 110 140 192 258 299 368 444
#     4  11  25  44  76 109 147 188 246 319 369 454
#     4  11  27  46  72 111 145 191 245 310 387 444
#     4  11  27  48  73 108 147 203 244 305 371 442
#     4  11  27  43  73 108 144 200 245 315 366 447
#     4  12  28  48  75 104 158 197 244 306 377 442
#     4  11  23  45  70 107 148 189 250 303 383 439
#     4  10  22  44  72 100 140 184 243 306 357 424
#
# _framework density 23.715422
#
# number of rings (size 3 to 8) (size 9 to 14) (size 15 to 20)
#    0.000    1.000    1.250    3.750   12.250    5.000 
#    0.000    0.000    0.000    0.000    0.000    0.000 
#    0.000    0.000    0.000    0.000    0.000    0.000 
#
# Total GULP energy -89436.140775 kJ/mol
# GULP energy per Si atom -5589.758798 kJ/mol
# Density = 2.366144 g / cm^3
# Si number density = 23.715422 Si / 1000 Ang^3
#
#
#
# Elastic Constant Matrix: (Units=GPa)
#
#
# Indices 1 2 3 4 5 6 
#
# 1 107.9809 30.7943 24.7872 -1.8216 11.2176 -0.6239
# 2 30.7943 138.6470 25.1773 12.2849 2.8670 -10.8160
# 3 24.7872 25.1773 59.0494 8.9355 -4.5413 -6.1176
# 4 -1.8216 12.2849 8.9355 36.8470 -5.0322 6.0659
# 5 11.2176 2.8670 -4.5413 -5.0322 31.2926 -3.6269
# 6 -0.6239 -10.8160 -6.1176 6.0659 -3.6269 49.1758
#
#
#
# Elastic Compliance Matrix: (Units=1/GPa)
#
#
# Indices 1 2 3 4 5 6 
#
# 1 0.011371 -0.001853 -0.004771 0.001964 -0.004448 -0.001427
# 2 -0.001853 0.008436 -0.002264 -0.002749 -0.000666 0.001840
# 3 -0.004771 -0.002264 0.021247 -0.004493 0.004624 0.002980
# 4 0.001964 -0.002749 -0.004493 0.030453 0.003253 -0.004655
# 5 -0.004448 -0.000666 0.004624 0.003253 0.035103 0.002560
# 6 -0.001427 0.001840 0.002980 -0.004655 0.002560 0.021856
#
#
# Mechanical properties :
#
#
# Convention : Reuss Voigt Hill
#
# Bulk Modulus (GPa) = 42.95501 51.91055 47.43278
# Shear Modulus (GPa) = 32.46744 38.45765 35.46255
#
# Velocity S-wave (km/s) = 3.70407 4.03132 3.87115
# Velocity P-wave (km/s) = 6.03702 6.60342 6.32656
#
# Compressibility (1/GPa) = 0.02328017
#
# Stress axis : x y z
#
# Youngs Moduli (GPa) = 87.94007 118.53843 47.06558
#
# Poissons Ratio (x) = 0.21962 0.22453
# Poissons Ratio (y) = 0.16293 0.10655
# Poissons Ratio (z) = 0.41953 0.26835
#
# Static dielectric constant tensor:
#      x y z
#    x 2.043610 -0.060020 -0.035520 
#    y -0.060020 1.880490 -0.070410 
#    z -0.035520 -0.070410 1.838750 
# 
# From -- ./inp_files/365092.got.cif
#   From: 2010.05.17/outbox.cif.g08.bks.cpg/sg2_183_cif.got.tgz:365092.got - 2010.06.03 11:33:40.
