data_PCOD9034186
_publ_section_title
;
Structure prediction by ZEFSAII (Michael W. Deem and Ramdas Pophale) SiO2 
 PCOD9034186
Probable space group: P -1
;
_chemical_formula_sum "Si O2"
_cell_formula_units_Z 16
_cell_length_a 17.903144
_cell_length_b 20.836517
_cell_length_c 8.120851
_cell_angle_alpha 55.216544
_cell_angle_beta 62.779645
_cell_angle_gamma 18.929658
_cell_volume 767.770165
_symmetry_space_group_name_H-M "P -1"
_symmetry_group_IT_number 2
_symmetry_cell_setting 'triclinic'
loop_
_space_group_symop_operation_xyz
x,y,z
-x,-y,-z
loop_
_atom_site_type_symbol
_atom_site_label
_atom_site_fract_x
_atom_site_fract_y
_atom_site_fract_z
Si Si1 0.214276 0.439092 0.502807
Si Si2 0.743106 0.260299 0.319322
Si Si3 0.078350 0.519492 0.861522
Si Si4 0.704715 0.887997 0.451337
Si Si5 0.717453 0.449190 0.594896
Si Si6 0.988197 0.937152 0.984069
Si Si7 0.617992 0.692662 0.830385
Si Si8 0.567054 0.574876 0.200027
O O1 0.262149 0.359820 0.751609
O O2 0.261508 0.489006 0.419111
O O3 0.338694 0.313949 0.387943
O O4 0.928812 0.670354 0.426640
O O5 0.528033 0.384837 0.360963
O O6 0.808187 0.231528 0.112853
O O7 0.654939 0.413484 0.285822
O O8 0.000000 0.000000 0.500000
O O9 0.846788 0.767364 0.658975
O O10 0.177897 0.465627 0.009491
O O11 0.000000 0.500000 0.000000
O O12 0.500000 0.000000 0.500000
O O13 0.604584 0.059333 0.250466
O O14 0.708763 0.471697 0.375097
O O15 0.944215 0.197887 0.782777
O O16 0.718366 0.174574 0.836764
O O17 0.000000 0.000000 0.000000
O O18 0.591943 0.622093 0.971680
#
# Coordination Sequence:
#
# PCOD9034186 Si02
#       8
#     2   2   2   2   2   2   2   2
#     4  10  25  44  65 105 135 174 228 278 333 415
#     4  12  25  44  66  97 133 186 235 281 344 406
#     4  10  22  45  69  98 137 172 215 276 337 409
#     4  10  22  44  72 101 134 174 223 277 339 415
#     4  12  23  47  64  96 141 173 234 287 340 408
#     4  12  25  41  66  95 132 181 233 286 340 398
#     4  12  23  46  69  99 141 178 224 283 341 399
#     4  12  25  44  69  96 135 185 228 289 345 398
#
# _framework density 20.839570999999999
#
# number of rings (size 3 to 8) (size 9 to 14) (size 15 to 20)
#    0.750    0.000    5.000    3.000    1.750    2.000 
#    6.750    1.250    0.000    0.000    0.000    0.000 
#    0.000    0.000    0.000    0.000    0.000    0.000 
#
# Total GULP energy -89234.498691 kJ/mol
# GULP energy per Si atom -5577.156168 kJ/mol
# Density = 2.079214 g / cm^3
# Si number density = 20.839571 Si / 1000 Ang^3
#
#
#
# Elastic Constant Matrix: (Units=GPa)
#
#
# Indices 1 2 3 4 5 6 
#
# 1 58.0221 11.1524 16.0976 4.6588 0.4092 -14.5309
# 2 11.1524 64.4947 7.4896 4.8324 -1.2579 -0.5884
# 3 16.0976 7.4896 95.5369 -7.7899 -1.2181 2.6159
# 4 4.6588 4.8324 -7.7899 43.4020 1.4459 6.2706
# 5 0.4092 -1.2579 -1.2181 1.4459 37.3799 8.2660
# 6 -14.5309 -0.5884 2.6159 6.2706 8.2660 23.6812
#
#
#
# Elastic Compliance Matrix: (Units=1/GPa)
#
#
# Indices 1 2 3 4 5 6 
#
# 1 0.024269 -0.003127 -0.004863 -0.005638 -0.004374 0.018371
# 2 -0.003127 0.016255 -0.000817 -0.001455 0.000911 -0.001357
# 3 -0.004863 -0.000817 0.011816 0.003517 0.001553 -0.005783
# 4 -0.005638 -0.001455 0.003517 0.026024 0.001629 -0.011344
# 5 -0.004374 0.000911 0.001553 0.001629 0.029844 -0.013681
# 6 0.018371 -0.001357 -0.005783 -0.011344 -0.013681 0.061884
#
#
# Mechanical properties :
#
#
# Convention : Reuss Voigt Hill
#
# Bulk Modulus (GPa) = 28.79703 31.94809 30.37256
# Shear Modulus (GPa) = 25.09019 33.11356 29.10187
#
# Velocity S-wave (km/s) = 3.47359 3.99052 3.74099
# Velocity P-wave (km/s) = 5.47140 6.04947 5.76768
#
# Compressibility (1/GPa) = 0.03472580
#
# Stress axis : x y z
#
# Youngs Moduli (GPa) = 41.20443 61.51871 84.63446
#
# Poissons Ratio (x) = 0.19238 0.41155
# Poissons Ratio (y) = 0.12885 0.06917
# Poissons Ratio (z) = 0.20036 0.05028
#
# Static dielectric constant tensor:
#      x y z
#    x 1.730740 -0.029430 0.017340 
#    y -0.029430 1.767430 0.010160 
#    z 0.017340 0.010160 1.805030 
# 
# From -- ./inp_files/337582.got.cif
#   From: 2010.05.17/outbox.cif.g08.bks.cpg/sg2_169_cif.got.tgz:337582.got - 2010.06.03 11:33:40.
