data_PCOD9034127
_publ_section_title
;
Structure prediction by ZEFSAII (Michael W. Deem and Ramdas Pophale) SiO2 
 PCOD9034127
Probable space group: P -1
;
_chemical_formula_sum "Si O2"
_cell_formula_units_Z 16
_cell_length_a 11.379476
_cell_length_b 8.967373
_cell_length_c 8.124916
_cell_angle_alpha 131.230115
_cell_angle_beta 83.917453
_cell_angle_gamma 86.806403
_cell_volume 611.229022
_symmetry_space_group_name_H-M "P -1"
_symmetry_group_IT_number 2
_symmetry_cell_setting 'triclinic'
loop_
_space_group_symop_operation_xyz
x,y,z
-x,-y,-z
loop_
_atom_site_type_symbol
_atom_site_label
_atom_site_fract_x
_atom_site_fract_y
_atom_site_fract_z
Si Si1 0.866972 0.394383 0.521489
Si Si2 0.953943 0.424349 0.173537
Si Si3 0.678784 0.136632 0.388144
Si Si4 0.921184 0.983083 0.750807
Si Si5 0.480506 0.290099 0.056179
Si Si6 0.435271 0.305018 0.693838
Si Si7 0.189829 0.189600 0.654395
Si Si8 0.331483 0.035848 0.081834
O O1 0.872285 0.463135 0.381442
O O2 0.744180 0.326878 0.541926
O O3 0.918459 0.538725 0.747421
O O4 0.966043 0.188793 0.358619
O O5 0.898411 0.598432 0.181436
O O6 0.947134 0.203200 0.948937
O O7 0.558264 0.159990 0.527086
O O8 0.648957 0.111086 0.185810
O O9 0.768860 0.936410 0.281819
O O10 0.874291 0.957678 0.555101
O O11 0.807678 0.937978 0.839083
O O12 0.424219 0.325827 0.908724
O O13 0.385221 0.230295 0.157462
O O14 0.542309 0.481451 0.225044
O O15 0.585183 0.094667 0.891677
O O16 0.314314 0.240142 0.600206
#
# Coordination Sequence:
#
# PCOD9034127 Si02
#       8
#     2   2   2   2   2   2   2   2
#     4  10  24  45  69 100 132 174 226 277 328 390
#     4  10  22  44  71  95 130 174 225 274 330 393
#     4  12  25  43  65  97 141 172 220 275 329 392
#     4  11  23  44  74  95 134 177 222 276 333 390
#     4  10  24  43  66  98 136 175 225 265 334 404
#     4  11  24  44  66  97 139 178 212 275 336 398
#     4  11  25  43  67  98 137 176 218 272 340 395
#     4  11  23  41  67 100 131 173 224 274 325 396
#
# _framework density 26.176767999999999
#
# number of rings (size 3 to 8) (size 9 to 14) (size 15 to 20)
#    0.000    1.250    2.500    2.250    3.500    6.500 
#    0.000    1.250    0.000    0.000    0.000    0.000 
#    0.000    0.000    0.000    0.000    0.000    0.000 
#
# Total GULP energy -89743.343175 kJ/mol
# GULP energy per Si atom -5608.958948 kJ/mol
# Density = 2.611719 g / cm^3
# Si number density = 26.176768 Si / 1000 Ang^3
#
#
#
# Elastic Constant Matrix: (Units=GPa)
#
#
# Indices 1 2 3 4 5 6 
#
# 1 144.9410 49.4749 41.7440 19.0658 14.7750 31.5878
# 2 49.4749 127.0719 36.2417 27.4494 14.3066 0.7956
# 3 41.7440 36.2417 114.3346 32.8054 22.0839 0.7899
# 4 19.0658 27.4494 32.8054 39.6459 11.7927 4.7830
# 5 14.7750 14.3066 22.0839 11.7927 43.4728 6.1718
# 6 31.5878 0.7956 0.7899 4.7830 6.1718 50.5062
#
#
#
# Elastic Compliance Matrix: (Units=1/GPa)
#
#
# Indices 1 2 3 4 5 6 
#
# 1 0.010092 -0.003181 -0.002705 0.000409 -0.000236 -0.006229
# 2 -0.003181 0.010493 -0.000444 -0.005355 -0.001044 0.002466
# 3 -0.002705 -0.000444 0.012957 -0.008361 -0.003636 0.002732
# 4 0.000409 -0.005355 -0.008361 0.037147 -0.003766 -0.003098
# 5 -0.000236 -0.001044 -0.003636 -0.003766 0.026676 -0.002683
# 6 -0.006229 0.002466 0.002732 -0.003098 -0.002683 0.024235
#
#
# Mechanical properties :
#
#
# Convention : Reuss Voigt Hill
#
# Bulk Modulus (GPa) = 47.88439 71.25208 59.56823
# Shear Modulus (GPa) = 35.40541 43.98410 39.69476
#
# Velocity S-wave (km/s) = 3.68169 4.10356 3.89834
# Velocity P-wave (km/s) = 6.03370 7.05202 6.56264
#
# Compressibility (1/GPa) = 0.02088363
#
# Stress axis : x y z
#
# Youngs Moduli (GPa) = 99.08898 95.29785 77.17721
#
# Poissons Ratio (x) = 0.30310 0.20878
# Poissons Ratio (y) = 0.31515 0.03424
# Poissons Ratio (z) = 0.26806 0.04228
#
# Static dielectric constant tensor:
#      x y z
#    x 2.020610 0.029910 -0.035420 
#    y 0.029910 2.041160 -0.002550 
#    z -0.035420 -0.002550 2.055810 
# 
# From -- ./inp_files/245974.got.cif
#   From: 2010.05.17/outbox.cif.g08.bks.cpg/sg2_123_cif.got.tgz:245974.got - 2010.06.03 11:33:40.
