data_PCOD9034504
_publ_section_title
;
Structure prediction by ZEFSAII (Michael W. Deem and Ramdas Pophale) SiO2 
 PCOD9034504
Probable space group: P -1
;
_chemical_formula_sum "Si O2"
_cell_formula_units_Z 16
_cell_length_a 16.540264
_cell_length_b 5.312854
_cell_length_c 14.539890
_cell_angle_alpha 89.604726
_cell_angle_beta 33.628682
_cell_angle_gamma 82.144241
_cell_volume 687.526662
_symmetry_space_group_name_H-M "P -1"
_symmetry_group_IT_number 2
_symmetry_cell_setting 'triclinic'
loop_
_space_group_symop_operation_xyz
x,y,z
-x,-y,-z
loop_
_atom_site_type_symbol
_atom_site_label
_atom_site_fract_x
_atom_site_fract_y
_atom_site_fract_z
Si Si1 0.281473 0.086265 0.104587
Si Si2 0.588042 0.638495 0.632558
Si Si3 0.541894 0.491045 0.067003
Si Si4 0.086025 0.214439 0.451913
Si Si5 0.050888 0.242137 0.162318
Si Si6 0.409232 0.732177 0.522519
Si Si7 0.327233 0.990621 0.776339
Si Si8 0.875759 0.813836 0.365063
O O1 0.242478 0.143830 0.248282
O O2 0.136170 0.196655 0.180095
O O3 0.400828 0.252523 0.963933
O O4 0.333568 0.779860 0.040926
O O5 0.584060 0.539125 0.740471
O O6 0.649356 0.401937 0.506720
O O7 0.417102 0.762443 0.759925
O O8 0.699863 0.827783 0.516410
O O9 0.500000 0.500000 0.000000
O O10 0.101505 0.201471 0.546280
O O11 0.000000 0.500000 0.500000
O O12 0.000000 0.000000 0.500000
O O13 0.965960 0.541076 0.237708
O O14 0.943779 0.043356 0.262326
O O15 0.181753 0.156746 0.963176
O O16 0.500000 0.500000 0.500000
O O17 0.296240 0.899670 0.703151
O O18 0.540483 0.864062 0.365819
#
# Coordination Sequence:
#
# PCOD9034504 Si02
#       8
#     2   2   2   2   2   2   2   2
#     4  12  23  42  67  92 131 183 245 286 330 403
#     4  11  25  43  70 101 145 180 228 292 353 408
#     4  12  26  42  66 102 139 180 231 295 344 393
#     4  12  22  41  62  88 133 188 233 277 333 407
#     4  12  25  44  70 100 135 183 235 280 340 413
#     4   9  21  43  75 105 130 175 233 283 351 420
#     4  10  22  44  77 101 134 179 235 283 346 424
#     4  12  27  43  65 102 141 183 228 288 351 405
#
# _framework density 23.271826999999998
#
# number of rings (size 3 to 8) (size 9 to 14) (size 15 to 20)
#    0.000    0.750    3.750    3.375    5.250    1.000 
#    0.000    1.250    0.000    0.000    0.000    0.000 
#    0.000    0.000    0.000    0.000    0.000    0.000 
#
# Total GULP energy -89537.863266 kJ/mol
# GULP energy per Si atom -5596.116454 kJ/mol
# Density = 2.321886 g / cm^3
# Si number density = 23.271827 Si / 1000 Ang^3
#
#
#
# Elastic Constant Matrix: (Units=GPa)
#
#
# Indices 1 2 3 4 5 6 
#
# 1 73.8915 22.9408 46.2440 1.3753 14.7118 14.7387
# 2 22.9408 98.7205 27.1257 -2.0955 3.0203 6.4521
# 3 46.2440 27.1257 140.1860 3.0680 32.0857 3.3611
# 4 1.3753 -2.0955 3.0680 35.4609 2.4586 -3.5567
# 5 14.7118 3.0203 32.0857 2.4586 41.4704 2.5315
# 6 14.7387 6.4521 3.3611 -3.5567 2.5315 32.5656
#
#
#
# Elastic Compliance Matrix: (Units=1/GPa)
#
#
# Indices 1 2 3 4 5 6 
#
# 1 0.019633 -0.002561 -0.005277 -0.001088 -0.002156 -0.007785
# 2 -0.002561 0.011206 -0.001630 0.000715 0.001367 -0.000921
# 3 -0.005277 -0.001630 0.010590 -0.000160 -0.006321 0.002092
# 4 -0.001088 0.000715 -0.000160 0.028764 -0.001469 0.003623
# 5 -0.002156 0.001367 -0.006321 -0.001469 0.029825 -0.001122
# 6 -0.007785 -0.000921 0.002092 0.003623 -0.001122 0.034680
#
#
# Mechanical properties :
#
#
# Convention : Reuss Voigt Hill
#
# Bulk Modulus (GPa) = 44.45841 56.15766 50.30804
# Shear Modulus (GPa) = 31.03065 36.33189 33.68127
#
# Velocity S-wave (km/s) = 3.65554 3.95548 3.80846
# Velocity P-wave (km/s) = 6.07969 6.71154 6.40341
#
# Compressibility (1/GPa) = 0.02249293
#
# Stress axis : x y z
#
# Youngs Moduli (GPa) = 50.93388 89.23667 94.43210
#
# Poissons Ratio (x) = 0.22851 0.49833
# Poissons Ratio (y) = 0.13043 0.15394
# Poissons Ratio (z) = 0.26879 0.14547
#
# Static dielectric constant tensor:
#      x y z
#    x 1.912640 -0.009280 -0.021140 
#    y -0.009280 1.751100 0.082780 
#    z -0.021140 0.082780 1.886160 
# 
# From -- ./inp_files/536337.got.cif
#   From: 2010.05.17/outbox.cif.g08.bks.cpg/sg2_269_cif.got.tgz:536337.got - 2010.06.03 11:33:40.
