data_PCOD9034467
_publ_section_title
;
Structure prediction by ZEFSAII (Michael W. Deem and Ramdas Pophale) SiO2 
 PCOD9034467
Probable space group: P -1
;
_chemical_formula_sum "Si O2"
_cell_formula_units_Z 12
_cell_length_a 9.422721
_cell_length_b 8.482906
_cell_length_c 9.930080
_cell_angle_alpha 69.031496
_cell_angle_beta 50.476445
_cell_angle_gamma 45.692529
_cell_volume 432.696112
_symmetry_space_group_name_H-M "P -1"
_symmetry_group_IT_number 2
_symmetry_cell_setting 'triclinic'
loop_
_space_group_symop_operation_xyz
x,y,z
-x,-y,-z
loop_
_atom_site_type_symbol
_atom_site_label
_atom_site_fract_x
_atom_site_fract_y
_atom_site_fract_z
Si Si1 0.528372 0.592543 0.318175
Si Si2 0.141833 0.098407 0.293599
Si Si3 0.184959 0.296437 0.780705
Si Si4 0.166439 0.971510 0.028207
Si Si5 0.721658 0.544784 0.572002
Si Si6 0.313822 0.357412 0.136075
O O1 0.761880 0.572388 0.198841
O O2 0.692825 0.713099 0.429958
O O3 0.504526 0.448744 0.277044
O O4 0.316265 0.857782 0.334155
O O5 0.045022 0.084285 0.212894
O O6 0.291307 0.179766 0.150001
O O7 0.931921 0.297691 0.457581
O O8 0.905304 0.424550 0.877614
O O9 0.279062 0.073319 0.861645
O O10 0.414661 0.735349 0.003372
O O11 0.000000 0.000000 0.000000
O O12 0.500000 0.500000 0.500000
O O13 0.770566 0.585320 0.676132
#
# Coordination Sequence:
#
# PCOD9034467 Si02
#       6
#     2   2   2   2   2   2
#     4  10  22  44  75 112 143 192 241 304 366 436
#     4  11  23  49  75 106 155 191 243 299 367 434
#     4  10  23  46  71 105 146 190 243 293 367 425
#     4  12  29  48  72 107 146 204 244 298 361 438
#     4  10  24  46  75 112 144 188 241 309 358 431
#     4  11  25  48  75 109 149 189 246 306 361 436
#
# _framework density 27.733091000000002
#
# number of rings (size 3 to 8) (size 9 to 14) (size 15 to 20)
#    0.000    1.333    1.667    3.000    2.333    9.333 
#   12.000    0.000    0.000    0.000    0.000    0.000 
#    0.000    0.000    0.000    0.000    0.000    0.000 
#
# Total GULP energy -67092.680373 kJ/mol
# GULP energy per Si atom -5591.056698 kJ/mol
# Density = 2.766997 g / cm^3
# Si number density = 27.733091 Si / 1000 Ang^3
#
#
#
# Elastic Constant Matrix: (Units=GPa)
#
#
# Indices 1 2 3 4 5 6 
#
# 1 202.6629 25.6159 43.2409 7.9693 6.1426 -7.8416
# 2 25.6159 110.4944 44.1334 -18.8353 -1.1767 -13.0313
# 3 43.2409 44.1334 135.8613 -0.1124 35.7362 8.1279
# 4 7.9693 -18.8353 -0.1124 64.3091 -0.0610 -1.3540
# 5 6.1426 -1.1767 35.7362 -0.0610 47.2037 3.5047
# 6 -7.8416 -13.0313 8.1279 -1.3540 3.5047 38.8785
#
#
#
# Elastic Compliance Matrix: (Units=1/GPa)
#
#
# Indices 1 2 3 4 5 6 
#
# 1 0.005443 -0.000547 -0.001765 -0.000812 0.000524 0.001208
# 2 -0.000547 0.012558 -0.005250 0.003845 0.003995 0.004970
# 3 -0.001765 -0.005250 0.012185 -0.001389 -0.008837 -0.003915
# 4 -0.000812 0.003845 -0.001389 0.016815 0.001133 0.001899
# 5 0.000524 0.003995 -0.008837 0.001133 0.027847 0.000821
# 6 0.001208 0.004970 -0.003915 0.001899 0.000821 0.028441
#
#
# Mechanical properties :
#
#
# Convention : Reuss Voigt Hill
#
# Bulk Modulus (GPa) = 66.39588 74.99989 70.69788
# Shear Modulus (GPa) = 40.50667 52.48015 46.49341
#
# Velocity S-wave (km/s) = 3.82591 4.35481 4.09890
# Velocity P-wave (km/s) = 6.59620 7.23796 6.92452
#
# Compressibility (1/GPa) = 0.01506118
#
# Stress axis : x y z
#
# Youngs Moduli (GPa) = 183.72564 79.62834 82.06508
#
# Poissons Ratio (x) = 0.04356 0.14487
# Poissons Ratio (y) = 0.10051 0.43087
# Poissons Ratio (z) = 0.32434 0.41808
#
# Static dielectric constant tensor:
#      x y z
#    x 2.259400 -0.054960 -0.051020 
#    y -0.054960 2.165620 0.102940 
#    z -0.051020 0.102940 2.181110 
# 
# From -- ./inp_files/233360.got.cif
#   From: 2010.05.17/outbox.cif.g08.bks.cpg/sg2_117_cif.got.tgz:233360.got - 2010.06.03 11:33:40.
