data_PCOD9034395
_publ_section_title
;
Structure prediction by ZEFSAII (Michael W. Deem and Ramdas Pophale) SiO2 
 PCOD9034395
Probable space group: P -1
;
_chemical_formula_sum "Si O2"
_cell_formula_units_Z 16
_cell_length_a 5.099652
_cell_length_b 21.675310
_cell_length_c 10.651813
_cell_angle_alpha 142.669067
_cell_angle_beta 78.672142
_cell_angle_gamma 112.756358
_cell_volume 645.288528
_symmetry_space_group_name_H-M "P -1"
_symmetry_group_IT_number 2
_symmetry_cell_setting 'triclinic'
loop_
_space_group_symop_operation_xyz
x,y,z
-x,-y,-z
loop_
_atom_site_type_symbol
_atom_site_label
_atom_site_fract_x
_atom_site_fract_y
_atom_site_fract_z
Si Si1 0.164404 0.767670 0.826685
Si Si2 0.873966 0.015465 0.866123
Si Si3 0.781795 0.557017 0.647771
Si Si4 0.320201 0.176113 0.263867
Si Si5 0.934943 0.291183 0.802830
Si Si6 0.452394 0.577073 0.945965
Si Si7 0.171293 0.952214 0.503568
Si Si8 0.945331 0.669033 0.407793
O O1 0.492373 0.778361 0.805314
O O2 0.950654 0.685627 0.810558
O O3 0.065740 0.710168 0.603430
O O4 0.211020 0.894015 0.050318
O O5 0.083417 0.982897 0.700798
O O6 0.022380 0.092844 0.096802
O O7 0.629724 0.905657 0.771064
O O8 0.500000 0.500000 0.500000
O O9 0.000000 0.500000 0.500000
O O10 0.648997 0.544323 0.775617
O O11 0.299127 0.280464 0.498958
O O12 0.712371 0.345187 0.962026
O O13 0.907895 0.179109 0.692052
O O14 0.283804 0.364174 0.887666
O O15 0.846803 0.276839 0.640705
O O16 0.186124 0.461673 0.809957
O O17 0.500000 0.000000 0.500000
O O18 0.000000 0.000000 0.500000
#
# Coordination Sequence:
#
# PCOD9034395 Si02
#       8
#     2   2   2   2   2   2   2   2
#     4  11  25  40  77 105 139 192 238 305 371 430
#     4  10  24  45  68 108 138 184 245 305 366 425
#     4  12  26  48  73 105 148 190 238 299 361 432
#     4  10  22  44  74 104 140 182 241 308 368 425
#     4  12  28  48  73 106 146 196 241 298 353 439
#     4  12  27  47  74 108 148 191 243 290 366 431
#     4  12  29  50  75 104 148 198 245 297 363 439
#     4  11  24  45  71 107 142 186 242 298 364 428
#
# _framework density 24.795110000000001
#
# number of rings (size 3 to 8) (size 9 to 14) (size 15 to 20)
#    0.000    0.750    2.500    3.375   10.500    1.000 
#    0.000    0.000    0.000    0.000    0.000    0.000 
#    0.000    0.000    0.000    0.000    0.000    0.000 
#
# Total GULP energy -89198.771620 kJ/mol
# GULP energy per Si atom -5574.923226 kJ/mol
# Density = 2.473867 g / cm^3
# Si number density = 24.795110 Si / 1000 Ang^3
#
#
#
# Elastic Constant Matrix: (Units=GPa)
#
#
# Indices 1 2 3 4 5 6 
#
# 1 107.8925 2.2886 35.7198 5.2105 -21.2850 -1.5381
# 2 2.2886 75.8645 14.7812 15.1858 -6.3804 -3.4653
# 3 35.7198 14.7812 104.4212 7.5875 -19.9003 -12.1414
# 4 5.2105 15.1858 7.5875 41.6530 3.5255 -7.6285
# 5 -21.2850 -6.3804 -19.9003 3.5255 40.2378 -3.9950
# 6 -1.5381 -3.4653 -12.1414 -7.6285 -3.9950 27.9737
#
#
#
# Elastic Compliance Matrix: (Units=1/GPa)
#
#
# Indices 1 2 3 4 5 6 
#
# 1 0.011251 0.000963 -0.003002 -0.001676 0.004732 -0.000346
# 2 0.000963 0.014756 -0.001519 -0.005422 0.002584 0.000112
# 3 -0.003002 -0.001519 0.012463 -0.000742 0.004952 0.005561
# 4 -0.001676 -0.005422 -0.000742 0.027748 -0.003957 0.005916
# 5 0.004732 0.002584 0.004952 -0.003957 0.031167 0.006102
# 6 -0.000346 0.000112 0.005561 0.005916 0.006102 0.040641
#
#
# Mechanical properties :
#
#
# Convention : Reuss Voigt Hill
#
# Bulk Modulus (GPa) = 31.89246 43.75081 37.82163
# Shear Modulus (GPa) = 32.13525 37.66547 34.90036
#
# Velocity S-wave (km/s) = 3.60395 3.90175 3.75580
# Velocity P-wave (km/s) = 5.49620 6.16291 5.83908
#
# Compressibility (1/GPa) = 0.03135538
#
# Stress axis : x y z
#
# Youngs Moduli (GPa) = 88.87750 67.76909 80.23997
#
# Poissons Ratio (x) = -0.06527 0.24086
# Poissons Ratio (y) = -0.08559 0.12186
# Poissons Ratio (z) = 0.26679 0.10292
#
# Static dielectric constant tensor:
#      x y z
#    x 1.832880 0.074120 -0.248700 
#    y 0.074120 2.026880 0.071560 
#    z -0.248700 0.071560 1.899080 
# 
# From -- ./inp_files/371112.got.cif
#   From: 2010.05.17/outbox.cif.g08.bks.cpg/sg2_186_cif.got.tgz:371112.got - 2010.06.03 11:33:40.
