data_PCOD9034167
_publ_section_title
;
Structure prediction by ZEFSAII (Michael W. Deem and Ramdas Pophale) SiO2 
 PCOD9034167
Probable space group: P -1
;
_chemical_formula_sum "Si O2"
_cell_formula_units_Z 14
_cell_length_a 8.402969
_cell_length_b 9.304847
_cell_length_c 24.766216
_cell_angle_alpha 27.238469
_cell_angle_beta 141.421176
_cell_angle_gamma 133.065864
_cell_volume 552.177622
_symmetry_space_group_name_H-M "P -1"
_symmetry_group_IT_number 2
_symmetry_cell_setting 'triclinic'
loop_
_space_group_symop_operation_xyz
x,y,z
-x,-y,-z
loop_
_atom_site_type_symbol
_atom_site_label
_atom_site_fract_x
_atom_site_fract_y
_atom_site_fract_z
Si Si1 0.827666 0.210951 0.924696
Si Si2 0.075733 0.045136 0.627833
Si Si3 0.833666 0.798459 0.167683
Si Si4 0.269517 0.386447 0.377584
Si Si5 0.400293 0.879321 0.669528
Si Si6 0.984096 0.727443 0.867517
Si Si7 0.679243 0.604494 0.337974
O O1 0.997538 0.488052 0.901061
O O2 0.567626 0.327433 0.787047
O O3 0.746479 0.010676 0.022735
O O4 0.000000 0.000000 0.000000
O O5 0.179774 0.104546 0.695334
O O6 0.895160 0.349045 0.462093
O O7 0.309214 0.994786 0.665432
O O8 0.903282 0.747561 0.671713
O O9 0.690327 0.475613 0.241166
O O10 0.123111 0.687039 0.264191
O O11 0.839718 0.993495 0.159672
O O12 0.546300 0.444992 0.408459
O O13 0.274509 0.115817 0.513944
O O14 0.698961 0.875571 0.739984
O O15 0.000000 0.500000 0.000000
#
# Coordination Sequence:
#
# PCOD9034167 Si02
#       7
#     2   2   2   2   2   2   2
#     4  11  23  44  72  99 137 184 227 280 349 408
#     4  10  23  40  67 102 136 180 231 279 347 409
#     4  10  22  44  71  99 137 178 232 287 336 403
#     4  11  22  42  69  99 141 180 230 283 342 406
#     4  11  24  44  70 102 135 181 234 285 334 411
#     4  10  24  43  71 102 133 180 234 283 340 410
#     4  11  23  43  67 100 143 181 224 288 347 411
#
# _framework density 25.354158999999999
#
# number of rings (size 3 to 8) (size 9 to 14) (size 15 to 20)
#    0.000    1.429    1.429    3.857    2.000    5.714 
#    0.000   12.857    0.000    0.000    0.000    0.000 
#    0.000    0.000    0.000    0.000    0.000    0.000 
#
# Total GULP energy -78448.461464 kJ/mol
# GULP energy per Si atom -5603.461533 kJ/mol
# Density = 2.529645 g / cm^3
# Si number density = 25.354159 Si / 1000 Ang^3
#
#
#
# Elastic Constant Matrix: (Units=GPa)
#
#
# Indices 1 2 3 4 5 6 
#
# 1 81.9067 42.7332 20.7104 -6.4615 14.8499 -19.8502
# 2 42.7332 195.1600 44.2878 -7.8830 2.6681 -40.8206
# 3 20.7104 44.2878 124.7219 7.6706 -9.4839 -20.6837
# 4 -6.4615 -7.8830 7.6706 36.8037 -4.1268 -0.6993
# 5 14.8499 2.6681 -9.4839 -4.1268 40.0149 -6.3691
# 6 -19.8502 -40.8206 -20.6837 -0.6993 -6.3691 57.8027
#
#
#
# Elastic Compliance Matrix: (Units=1/GPa)
#
#
# Indices 1 2 3 4 5 6 
#
# 1 0.015665 -0.002318 -0.001914 0.002082 -0.005503 0.002476
# 2 -0.002318 0.006756 -0.001456 0.001499 0.000786 0.003559
# 3 -0.001914 -0.001456 0.009574 -0.002248 0.003173 0.002063
# 4 0.002082 0.001499 -0.002248 0.028555 0.001780 0.001511
# 5 -0.005503 0.000786 0.003173 0.001780 0.028386 0.002950
# 6 0.002476 0.003559 0.002063 0.001511 0.002950 0.021745
#
#
# Mechanical properties :
#
#
# Convention : Reuss Voigt Hill
#
# Bulk Modulus (GPa) = 48.50109 68.58350 58.54229
# Shear Modulus (GPa) = 38.78032 46.52807 42.65419
#
# Velocity S-wave (km/s) = 3.91518 4.28848 4.10608
# Velocity P-wave (km/s) = 6.29358 7.18543 6.75424
#
# Compressibility (1/GPa) = 0.02061809
#
# Stress axis : x y z
#
# Youngs Moduli (GPa) = 63.83785 148.00881 104.44483
#
# Poissons Ratio (x) = 0.34315 0.19989
# Poissons Ratio (y) = 0.14800 0.15212
# Poissons Ratio (z) = 0.12217 0.21556
#
# Static dielectric constant tensor:
#      x y z
#    x 2.019430 -0.002610 -0.061380 
#    y -0.002610 2.017760 0.049730 
#    z -0.061380 0.049730 2.105090 
# 
# From -- ./inp_files/606584.got.cif
#   From: 2010.05.17/outbox.cif.g08.bks.cpg/sg2_304_cif.got.tgz:606584.got - 2010.06.03 11:33:40.
