data_PCOD9034287
_publ_section_title
;
Structure prediction by ZEFSAII (Michael W. Deem and Ramdas Pophale) SiO2 
 PCOD9034287
Probable space group: P -1
;
_chemical_formula_sum "Si O2"
_cell_formula_units_Z 16
_cell_length_a 5.432008
_cell_length_b 26.098150
_cell_length_c 7.552409
_cell_angle_alpha 34.986782
_cell_angle_beta 80.615398
_cell_angle_gamma 79.317911
_cell_volume 603.151003
_symmetry_space_group_name_H-M "P -1"
_symmetry_group_IT_number 2
_symmetry_cell_setting 'triclinic'
loop_
_space_group_symop_operation_xyz
x,y,z
-x,-y,-z
loop_
_atom_site_type_symbol
_atom_site_label
_atom_site_fract_x
_atom_site_fract_y
_atom_site_fract_z
Si Si1 0.306603 0.429815 0.284264
Si Si2 0.152879 0.740066 0.544521
Si Si3 0.660243 0.654953 0.843418
Si Si4 0.858274 0.477552 0.407517
Si Si5 0.310192 0.695997 0.242812
Si Si6 0.313198 0.041416 0.248790
Si Si7 0.129923 0.088258 0.788783
Si Si8 0.995918 0.129288 0.309480
O O1 0.270794 0.363660 0.315929
O O2 0.416008 0.358970 0.621068
O O3 0.067664 0.492618 0.193254
O O4 0.500000 0.500000 0.000000
O O5 0.396879 0.712683 0.711513
O O6 0.225441 0.708761 0.423722
O O7 0.904067 0.697456 0.764847
O O8 0.075198 0.845660 0.270307
O O9 0.632032 0.554655 0.200054
O O10 0.819001 0.376683 0.652071
O O11 0.000000 0.500000 0.500000
O O12 0.225072 0.791478 0.898275
O O13 0.181687 0.127745 0.123881
O O14 0.500000 0.000000 0.500000
O O15 0.134667 0.962800 0.446097
O O16 0.357325 0.072010 0.951753
O O17 0.156025 0.129211 0.472568
O O18 0.000000 0.000000 0.000000
#
# Coordination Sequence:
#
# PCOD9034287 Si02
#       8
#     2   2   2   2   2   2   2   2
#     4  11  22  44  70  94 135 194 252 298 362 442
#     4  11  24  45  74 103 142 192 251 301 365 449
#     4  11  24  44  70 100 139 197 250 297 361 442
#     4  12  26  41  63 102 146 187 243 311 374 422
#     4  11  23  41  67  97 140 191 245 297 367 443
#     4  10  22  44  72  97 139 185 237 300 374 448
#     4  10  23  47  70 107 145 185 242 305 380 441
#     4  10  23  43  66 101 141 181 241 302 371 445
#
# _framework density 26.527353999999999
#
# number of rings (size 3 to 8) (size 9 to 14) (size 15 to 20)
#    0.000    1.250    3.750    1.875    1.750    5.000 
#    4.500    0.000    0.000    0.000    0.000    0.000 
#    0.000    0.000    0.000    0.000    0.000    0.000 
#
# Total GULP energy -89322.428466 kJ/mol
# GULP energy per Si atom -5582.651779 kJ/mol
# Density = 2.646698 g / cm^3
# Si number density = 26.527354 Si / 1000 Ang^3
#
#
#
# Elastic Constant Matrix: (Units=GPa)
#
#
# Indices 1 2 3 4 5 6 
#
# 1 73.6993 26.8731 26.3374 1.0837 27.0614 8.5787
# 2 26.8731 168.3284 49.6675 3.3149 20.0368 17.2363
# 3 26.3374 49.6675 120.5473 -6.9867 38.2327 6.7849
# 4 1.0837 3.3149 -6.9867 63.1483 9.2404 11.5095
# 5 27.0614 20.0368 38.2327 9.2404 40.6290 5.4988
# 6 8.5787 17.2363 6.7849 11.5095 5.4988 29.4629
#
#
#
# Elastic Compliance Matrix: (Units=1/GPa)
#
#
# Indices 1 2 3 4 5 6 
#
# 1 0.018805 -0.001439 0.000823 0.002309 -0.012660 -0.003362
# 2 -0.001439 0.007231 -0.002575 -0.000090 0.000274 -0.003234
# 3 0.000823 -0.002575 0.013442 0.003618 -0.012630 -0.000885
# 4 0.002309 -0.000090 0.003618 0.018717 -0.008175 -0.007238
# 5 -0.012660 0.000274 -0.012630 -0.008175 0.046527 0.000945
# 6 -0.003362 -0.003234 -0.000885 -0.007238 0.000945 0.039667
#
#
# Mechanical properties :
#
#
# Convention : Reuss Voigt Hill
#
# Bulk Modulus (GPa) = 30.21572 63.14789 46.68180
# Shear Modulus (GPa) = 30.90181 43.96116 37.43148
#
# Velocity S-wave (km/s) = 3.41677 4.07529 3.76047
# Velocity P-wave (km/s) = 5.19431 6.78237 6.04075
#
# Compressibility (1/GPa) = 0.03309536
#
# Stress axis : x y z
#
# Youngs Moduli (GPa) = 53.17604 138.30186 74.39438
#
# Poissons Ratio (x) = 0.19904 -0.06120
# Poissons Ratio (y) = 0.07653 0.19155
# Poissons Ratio (z) = -0.04375 0.35609
#
# Static dielectric constant tensor:
#      x y z
#    x 2.027720 -0.127140 0.002590 
#    y -0.127140 1.962970 0.132050 
#    z 0.002590 0.132050 2.174970 
# 
# From -- ./inp_files/143336.got.cif
#   From: 2010.05.17/outbox.cif.g08.bks.cpg/sg2_72_cif.got.tgz:143336.got - 2010.06.03 11:33:40.
