data_PCOD9034950
_publ_section_title
;
Structure prediction by ZEFSAII (Michael W. Deem and Ramdas Pophale) SiO2 
 PCOD9034950
Probable space group: P -1
;
_chemical_formula_sum "Si O2"
_cell_formula_units_Z 14
_cell_length_a 8.647342
_cell_length_b 11.950341
_cell_length_c 8.087332
_cell_angle_alpha 126.793056
_cell_angle_beta 126.562884
_cell_angle_gamma 61.909714
_cell_volume 529.029203
_symmetry_space_group_name_H-M "P -1"
_symmetry_group_IT_number 2
_symmetry_cell_setting 'triclinic'
loop_
_space_group_symop_operation_xyz
x,y,z
-x,-y,-z
loop_
_atom_site_type_symbol
_atom_site_label
_atom_site_fract_x
_atom_site_fract_y
_atom_site_fract_z
Si Si1 0.142520 0.780816 0.931434
Si Si2 0.979196 0.263218 0.839507
Si Si3 0.697154 0.543396 0.238151
Si Si4 0.626350 0.818243 0.862911
Si Si5 0.136987 0.181644 0.516485
Si Si6 0.479149 0.947298 0.225304
Si Si7 0.423798 0.617781 0.424608
O O1 0.163429 0.608534 0.785010
O O2 0.001788 0.837415 0.741064
O O3 0.079400 0.823926 0.117326
O O4 0.348907 0.829739 0.077998
O O5 0.785912 0.381356 0.789594
O O6 0.024941 0.187278 0.625376
O O7 0.183061 0.298578 0.071357
O O8 0.794521 0.663158 0.316737
O O9 0.602762 0.612656 0.407671
O O10 0.500000 0.500000 0.000000
O O11 0.426234 0.762178 0.652131
O O12 0.652610 0.908148 0.795586
O O13 0.594600 0.904156 0.088130
O O14 0.338728 0.066938 0.545643
O O15 0.500000 0.500000 0.500000
#
# Coordination Sequence:
#
# PCOD9034950 Si02
#       7
#     2   2   2   2   2   2   2
#     4  12  24  44  69 100 135 178 227 273 341 396
#     4  11  25  42  68 100 133 172 226 279 324 401
#     4  12  23  44  65  94 140 176 215 276 340 393
#     4  10  24  43  69 101 133 178 225 272 341 395
#     4  11  24  42  69 100 134 180 222 277 336 398
#     4  10  22  45  69  95 139 178 218 281 334 401
#     4  12  25  43  69 102 133 175 224 276 332 403
#
# _framework density 26.463567999999999
#
# number of rings (size 3 to 8) (size 9 to 14) (size 15 to 20)
#    0.000    0.857    2.857    3.857    2.000    4.000 
#    0.000    9.286    0.000    0.000    0.000    0.000 
#    0.000    0.000    0.000    0.000    0.000    0.000 
#
# Total GULP energy -78268.850854 kJ/mol
# GULP energy per Si atom -5590.632204 kJ/mol
# Density = 2.640334 g / cm^3
# Si number density = 26.463568 Si / 1000 Ang^3
#
#
#
# Elastic Constant Matrix: (Units=GPa)
#
#
# Indices 1 2 3 4 5 6 
#
# 1 124.2432 43.9491 35.6388 -33.7148 -4.6375 -2.9212
# 2 43.9491 122.4053 56.5080 -28.8036 8.9192 1.9042
# 3 35.6388 56.5080 127.7082 -43.6874 14.4750 2.3187
# 4 -33.7148 -28.8036 -43.6874 60.0420 0.3490 1.5282
# 5 -4.6375 8.9192 14.4750 0.3490 39.6767 -8.1979
# 6 -2.9212 1.9042 2.3187 1.5282 -8.1979 34.2473
#
#
#
# Elastic Compliance Matrix: (Units=1/GPa)
#
#
# Indices 1 2 3 4 5 6 
#
# 1 0.010394 -0.002686 -0.000614 0.004051 0.002307 0.001449
# 2 -0.002686 0.011231 -0.003537 0.001344 -0.001788 -0.001102
# 3 -0.000614 -0.003537 0.012548 0.007166 -0.004344 -0.002065
# 4 0.004051 0.001344 0.007166 0.024859 -0.003088 -0.002063
# 5 0.002307 -0.001788 -0.004344 -0.003088 0.029076 0.007688
# 6 0.001449 -0.001102 -0.002065 -0.002063 0.007688 0.031456
#
#
# Mechanical properties :
#
#
# Convention : Reuss Voigt Hill
#
# Bulk Modulus (GPa) = 48.78408 71.83872 60.31140
# Shear Modulus (GPa) = 35.69579 42.67725 39.18652
#
# Velocity S-wave (km/s) = 3.67667 4.02017 3.85226
# Velocity P-wave (km/s) = 6.04139 6.98243 6.52888
#
# Compressibility (1/GPa) = 0.02049849
#
# Stress axis : x y z
#
# Youngs Moduli (GPa) = 96.20525 89.04243 79.69164
#
# Poissons Ratio (x) = 0.23916 0.04895
# Poissons Ratio (y) = 0.25840 0.28190
# Poissons Ratio (z) = 0.05909 0.31498
#
# Static dielectric constant tensor:
#      x y z
#    x 2.174190 -0.090020 -0.089190 
#    y -0.090020 2.107750 0.011480 
#    z -0.089190 0.011480 2.061800 
# 
# From -- ./inp_files/190474.got.cif
#   From: 2010.05.17/outbox.cif.g08.bks.cpg/sg2_96_cif.got.tgz:190474.got - 2010.06.03 11:33:40.
