data_PCOD9034565
_publ_section_title
;
Structure prediction by ZEFSAII (Michael W. Deem and Ramdas Pophale) SiO2 
 PCOD9034565
Probable space group: P -1
;
_chemical_formula_sum "Si O2"
_cell_formula_units_Z 16
_cell_length_a 11.792725
_cell_length_b 24.254768
_cell_length_c 9.524766
_cell_angle_alpha 52.861563
_cell_angle_beta 76.458276
_cell_angle_gamma 30.939316
_cell_volume 805.893350
_symmetry_space_group_name_H-M "P -1"
_symmetry_group_IT_number 2
_symmetry_cell_setting 'triclinic'
loop_
_space_group_symop_operation_xyz
x,y,z
-x,-y,-z
loop_
_atom_site_type_symbol
_atom_site_label
_atom_site_fract_x
_atom_site_fract_y
_atom_site_fract_z
Si Si1 0.744078 0.699497 0.766479
Si Si2 0.171737 0.816518 0.612336
Si Si3 0.099723 0.232092 0.417606
Si Si4 0.711237 0.441025 0.951511
Si Si5 0.868831 0.001453 0.684324
Si Si6 0.615666 0.060061 0.231148
Si Si7 0.069035 0.042819 0.942436
Si Si8 0.592803 0.423642 0.437662
O O1 0.842909 0.719204 0.642796
O O2 0.448544 0.836652 0.553734
O O3 0.635846 0.775509 0.840426
O O4 0.000000 0.500000 0.000000
O O5 0.514613 0.617732 0.767175
O O6 0.070717 0.949693 0.406146
O O7 0.125619 0.828649 0.772671
O O8 0.936171 0.897801 0.471537
O O9 0.822145 0.352793 0.405129
O O10 0.374734 0.026689 0.673137
O O11 0.011890 0.278602 0.205971
O O12 0.689618 0.435806 0.802314
O O13 0.500000 0.500000 0.000000
O O14 0.867924 0.978268 0.879696
O O15 0.654604 0.083013 0.043528
O O16 0.782628 0.248268 0.668205
O O17 0.000000 0.000000 0.000000
O O18 0.500000 0.500000 0.500000
#
# Coordination Sequence:
#
# PCOD9034565 Si02
#       8
#     2   2   2   2   2   2   2   2
#     4  11  24  40  57  82 113 153 199 239 275 339
#     4  10  17  35  55  88 108 144 192 244 275 333
#     4  10  21  38  59  81 120 155 192 229 282 343
#     4  10  17  32  57  81 113 142 189 229 282 325
#     4  10  22  33  59  83 116 143 194 235 291 329
#     4  10  20  38  58  84 112 151 195 231 287 342
#     4  11  20  36  58  85 117 148 182 236 298 341
#     4  10  22  34  55  92 122 143 188 235 291 337
#
# _framework density 19.853742
#
# number of rings (size 3 to 8) (size 9 to 14) (size 15 to 20)
#    0.000    1.750    5.000    1.125    3.500    1.000 
#    0.000    4.375    0.000    0.000    0.000    0.000 
#    0.000    0.000    0.000    0.000    0.000    0.000 
#
# Total GULP energy -89237.302618 kJ/mol
# GULP energy per Si atom -5577.331414 kJ/mol
# Density = 1.980855 g / cm^3
# Si number density = 19.853742 Si / 1000 Ang^3
#
#
#
# Elastic Constant Matrix: (Units=GPa)
#
#
# Indices 1 2 3 4 5 6 
#
# 1 85.4392 25.2104 27.4677 -0.9443 -21.1136 5.0107
# 2 25.2104 131.3530 43.0877 25.6951 -8.1709 16.5500
# 3 27.4677 43.0877 67.0126 16.8619 -12.5519 6.9681
# 4 -0.9443 25.6951 16.8619 35.8713 12.2308 3.7915
# 5 -21.1136 -8.1709 -12.5519 12.2308 31.6916 1.2926
# 6 5.0107 16.5500 6.9681 3.7915 1.2926 27.2631
#
#
#
# Elastic Compliance Matrix: (Units=1/GPa)
#
#
# Indices 1 2 3 4 5 6 
#
# 1 0.015469 -0.000971 -0.004052 0.000321 0.008394 -0.001661
# 2 -0.000971 0.011290 -0.003923 -0.006983 0.003604 -0.004872
# 3 -0.004052 -0.003923 0.024394 -0.012225 0.010747 -0.001918
# 4 0.000321 -0.006983 -0.012225 0.046806 -0.024572 0.001960
# 5 0.008394 0.003604 0.010747 -0.024572 0.052041 -0.005527
# 6 -0.001661 -0.004872 -0.001918 0.001960 -0.005527 0.040422
#
#
# Mechanical properties :
#
#
# Convention : Reuss Voigt Hill
#
# Bulk Modulus (GPa) = 30.06419 52.81516 41.43967
# Shear Modulus (GPa) = 22.78936 31.50115 27.14526
#
# Velocity S-wave (km/s) = 3.39169 3.98761 3.70166
# Velocity P-wave (km/s) = 5.52393 6.91818 6.25999
#
# Compressibility (1/GPa) = 0.03326217
#
# Stress axis : x y z
#
# Youngs Moduli (GPa) = 64.64663 88.57185 40.99331
#
# Poissons Ratio (x) = 0.08602 0.16610
# Poissons Ratio (y) = 0.06278 0.16080
# Poissons Ratio (z) = 0.26193 0.34743
#
# Static dielectric constant tensor:
#      x y z
#    x 1.736520 0.017640 -0.035780 
#    y 0.017640 1.757270 -0.026040 
#    z -0.035780 -0.026040 1.748880 
# 
# From -- ./inp_files/284728.got.cif
#   From: 2010.05.17/outbox.cif.g08.bks.cpg/sg2_143_cif.got.tgz:284728.got - 2010.06.03 11:33:40.
