data_PCOD9034705
_publ_section_title
;
Structure prediction by ZEFSAII (Michael W. Deem and Ramdas Pophale) SiO2 
 PCOD9034705
Probable space group: P -1
;
_chemical_formula_sum "Si O2"
_cell_formula_units_Z 14
_cell_length_a 21.364936
_cell_length_b 9.430655
_cell_length_c 15.132602
_cell_angle_alpha 136.589863
_cell_angle_beta 153.127093
_cell_angle_gamma 29.177539
_cell_volume 652.637581
_symmetry_space_group_name_H-M "P -1"
_symmetry_group_IT_number 2
_symmetry_cell_setting 'triclinic'
loop_
_space_group_symop_operation_xyz
x,y,z
-x,-y,-z
loop_
_atom_site_type_symbol
_atom_site_label
_atom_site_fract_x
_atom_site_fract_y
_atom_site_fract_z
Si Si1 0.149361 0.854286 0.042878
Si Si2 0.200148 0.230976 0.572124
Si Si3 0.335338 0.206066 0.309714
Si Si4 0.607334 0.181969 0.532448
Si Si5 0.509063 0.753634 0.872831
Si Si6 0.053825 0.131641 0.866284
Si Si7 0.367293 0.513605 0.907625
O O1 0.306159 0.850876 0.277288
O O2 0.283796 0.510969 0.036866
O O3 0.034780 0.040644 0.895317
O O4 0.000000 0.000000 0.000000
O O5 0.314479 0.328073 0.744623
O O6 0.000000 0.500000 0.500000
O O7 0.219959 0.098454 0.441334
O O8 0.323945 0.936706 0.656568
O O9 0.438735 0.196566 0.349877
O O10 0.157494 0.542229 0.276354
O O11 0.500000 0.000000 0.500000
O O12 0.219066 0.129892 0.093802
O O13 0.500000 0.500000 0.500000
O O14 0.524350 0.599761 0.910409
O O15 0.500000 0.000000 0.000000
O O16 0.155186 0.860817 0.805843
O O17 0.500000 0.500000 0.000000
#
# Coordination Sequence:
#
# PCOD9034705 Si02
#       7
#     2   2   2   2   2   2   2
#     4  11  22  38  65  97 128 171 222 266 333 390
#     4  11  25  42  63  98 132 171 220 273 332 391
#     4  11  23  44  64 100 134 167 221 274 337 389
#     4  12  24  40  68  96 133 171 221 282 322 394
#     4   9  21  41  63  89 128 172 209 272 319 389
#     4  10  23  42  70  95 130 178 215 276 331 401
#     4  10  22  45  67  90 130 176 224 263 331 402
#
# _framework density 21.451415000000001
#
# number of rings (size 3 to 8) (size 9 to 14) (size 15 to 20)
#    0.000    1.429    2.857    1.714    8.000    0.000 
#    5.143    0.714    0.000    0.000    0.000    0.000 
#    0.000    0.000    0.000    0.000    0.000    0.000 
#
# Total GULP energy -78098.355626 kJ/mol
# GULP energy per Si atom -5578.453973 kJ/mol
# Density = 2.140259 g / cm^3
# Si number density = 21.451415 Si / 1000 Ang^3
#
#
#
# Elastic Constant Matrix: (Units=GPa)
#
#
# Indices 1 2 3 4 5 6 
#
# 1 129.5536 53.2542 20.4037 -8.3943 27.0125 -8.4936
# 2 53.2542 138.4783 38.0301 -20.0084 3.5187 -16.5976
# 3 20.4037 38.0301 61.4091 -22.3177 1.4840 1.2325
# 4 -8.3943 -20.0084 -22.3177 37.4821 3.4403 -4.4959
# 5 27.0125 3.5187 1.4840 3.4403 32.1099 5.5541
# 6 -8.4936 -16.5976 1.2325 -4.4959 5.5541 31.4971
#
#
#
# Elastic Compliance Matrix: (Units=1/GPa)
#
#
# Indices 1 2 3 4 5 6 
#
# 1 0.011705 -0.003296 -0.001105 0.001559 -0.010204 0.003485
# 2 -0.003296 0.010802 -0.004692 0.002814 0.000590 0.005285
# 3 -0.001105 -0.004692 0.023657 0.011137 -0.000494 -0.002020
# 4 0.001559 0.002814 0.011137 0.036812 -0.007469 0.008039
# 5 -0.010204 0.000590 -0.000494 -0.007469 0.042382 -0.010961
# 6 0.003485 0.005285 -0.002020 0.008039 -0.010961 0.038633
#
#
# Mechanical properties :
#
#
# Convention : Reuss Voigt Hill
#
# Bulk Modulus (GPa) = 35.74186 61.42411 48.58299
# Shear Modulus (GPa) = 26.10934 34.73467 30.42201
#
# Velocity S-wave (km/s) = 3.49254 4.02833 3.76996
# Velocity P-wave (km/s) = 5.74123 7.09456 6.45347
#
# Compressibility (1/GPa) = 0.02797840
#
# Stress axis : x y z
#
# Youngs Moduli (GPa) = 85.43695 92.57126 42.27050
#
# Poissons Ratio (x) = 0.30508 0.04670
# Poissons Ratio (y) = 0.28156 0.19835
# Poissons Ratio (z) = 0.09440 0.43439
#
# Static dielectric constant tensor:
#      x y z
#    x 1.795150 0.005600 0.010420 
#    y 0.005600 1.800190 0.046020 
#    z 0.010420 0.046020 1.895290 
# 
# From -- ./inp_files/540567.got.cif
#   From: 2010.05.17/outbox.cif.g08.bks.cpg/sg2_271_cif.got.tgz:540567.got - 2010.06.03 11:33:40.
