data_PCOD9034894
_publ_section_title
;
Structure prediction by ZEFSAII (Michael W. Deem and Ramdas Pophale) SiO2 
 PCOD9034894
Probable space group: P -1
;
_chemical_formula_sum "Si O2"
_cell_formula_units_Z 14
_cell_length_a 7.916772
_cell_length_b 20.356646
_cell_length_c 9.582806
_cell_angle_alpha 148.013436
_cell_angle_beta 133.824555
_cell_angle_gamma 46.266016
_cell_volume 567.941691
_symmetry_space_group_name_H-M "P -1"
_symmetry_group_IT_number 2
_symmetry_cell_setting 'triclinic'
loop_
_space_group_symop_operation_xyz
x,y,z
-x,-y,-z
loop_
_atom_site_type_symbol
_atom_site_label
_atom_site_fract_x
_atom_site_fract_y
_atom_site_fract_z
Si Si1 0.502055 0.140933 0.312559
Si Si2 0.545452 0.474087 0.144430
Si Si3 0.014973 0.273890 0.140078
Si Si4 0.727371 0.249154 0.396634
Si Si5 0.326590 0.189573 0.887278
Si Si6 0.835192 0.647096 0.178179
Si Si7 0.217148 0.940355 0.407611
O O1 0.711593 0.181264 0.415296
O O2 0.561895 0.119153 0.468719
O O3 0.249123 0.247787 0.327110
O O4 0.500000 0.000000 0.000000
O O5 0.816438 0.407981 0.237769
O O6 0.437220 0.605199 0.404591
O O7 0.500000 0.500000 0.000000
O O8 0.390926 0.373436 0.904685
O O9 0.142883 0.234114 0.991949
O O10 0.870370 0.170778 0.918082
O O11 0.590396 0.180129 0.085754
O O12 0.984261 0.265779 0.522820
O O13 0.263708 0.296537 0.926569
O O14 0.283970 0.054918 0.571005
O O15 0.000000 0.500000 0.000000
O O16 0.000000 0.000000 0.500000
#
# Coordination Sequence:
#
# PCOD9034894 Si02
#       7
#     2   2   2   2   2   2   2
#     4  11  18  32  58  96 115 152 197 244 292 341
#     4  11  23  42  61  87 122 161 200 246 310 360
#     4  10  21  35  59  90 124 154 198 246 296 351
#     4  10  21  38  64  88 121 153 202 247 291 357
#     4  10  20  35  61  92 111 155 202 242 301 339
#     4  10  22  39  61  84 118 159 200 247 296 356
#     4  10  17  32  57  86 120 151 197 244 281 351
#
# _framework density 24.65042
#
# number of rings (size 3 to 8) (size 9 to 14) (size 15 to 20)
#    0.000    1.714    4.286    4.286    0.000    4.571 
#    0.000    7.857    0.000    1.714    0.000    0.000 
#    0.000    0.000    0.000    0.000    0.000    0.000 
#
# Total GULP energy -78266.758322 kJ/mol
# GULP energy per Si atom -5590.482737 kJ/mol
# Density = 2.459431 g / cm^3
# Si number density = 24.650420 Si / 1000 Ang^3
#
#
#
# Elastic Constant Matrix: (Units=GPa)
#
#
# Indices 1 2 3 4 5 6 
#
# 1 80.7350 30.3425 24.0931 6.6308 31.4352 5.1206
# 2 30.3425 145.9082 7.4806 -5.3776 18.5181 12.5783
# 3 24.0931 7.4806 98.7535 -2.0124 40.9514 6.6854
# 4 6.6308 -5.3776 -2.0124 37.6261 -0.7878 9.5104
# 5 31.4352 18.5181 40.9514 -0.7878 39.8420 6.8624
# 6 5.1206 12.5783 6.6854 9.5104 6.8624 43.2230
#
#
#
# Elastic Compliance Matrix: (Units=1/GPa)
#
#
# Indices 1 2 3 4 5 6 
#
# 1 0.019444 -0.002314 0.002265 -0.004418 -0.016972 0.001686
# 2 -0.002314 0.007889 0.001303 0.002117 -0.002751 -0.002252
# 3 0.002265 0.001303 0.018249 0.000372 -0.021109 -0.000201
# 4 -0.004418 0.002117 0.000372 0.029605 0.003961 -0.007293
# 5 -0.016972 -0.002751 -0.021109 0.003961 0.062352 -0.004695
# 6 0.001686 -0.002252 -0.000201 -0.007293 -0.004695 0.025973
#
#
# Mechanical properties :
#
#
# Convention : Reuss Voigt Hill
#
# Bulk Modulus (GPa) = 20.79334 49.91434 35.35384
# Shear Modulus (GPa) = 28.24334 41.70357 34.97345
#
# Velocity S-wave (km/s) = 3.38857 4.11761 3.77075
# Velocity P-wave (km/s) = 4.87478 6.54974 5.77333
#
# Compressibility (1/GPa) = 0.04809232
#
# Stress axis : x y z
#
# Youngs Moduli (GPa) = 51.43006 126.75378 54.79625
#
# Poissons Ratio (x) = 0.29328 -0.12413
# Poissons Ratio (y) = 0.11900 -0.07142
# Poissons Ratio (z) = -0.11650 -0.16520
#
# Static dielectric constant tensor:
#      x y z
#    x 1.982430 -0.057760 -0.011510 
#    y -0.057760 1.988220 0.001920 
#    z -0.011510 0.001920 1.985020 
# 
# From -- ./inp_files/279462.got.cif
#   From: 2010.05.17/outbox.cif.g08.bks.cpg/sg2_140_cif.got.tgz:279462.got - 2010.06.03 11:33:40.
