data_PCOD9034693
_publ_section_title
;
Structure prediction by ZEFSAII (Michael W. Deem and Ramdas Pophale) SiO2 
 PCOD9034693
Probable space group: P -1
;
_chemical_formula_sum "Si O2"
_cell_formula_units_Z 16
_cell_length_a 5.371190
_cell_length_b 20.154854
_cell_length_c 6.424733
_cell_angle_alpha 91.582519
_cell_angle_beta 103.062071
_cell_angle_gamma 82.640740
_cell_volume 671.935467
_symmetry_space_group_name_H-M "P -1"
_symmetry_group_IT_number 2
_symmetry_cell_setting 'triclinic'
loop_
_space_group_symop_operation_xyz
x,y,z
-x,-y,-z
loop_
_atom_site_type_symbol
_atom_site_label
_atom_site_fract_x
_atom_site_fract_y
_atom_site_fract_z
Si Si1 0.033427 0.102970 0.973439
Si Si2 0.782682 0.006192 0.648239
Si Si3 0.314286 0.199486 0.836331
Si Si4 0.501091 0.277141 0.501950
Si Si5 0.872228 0.561901 0.114804
Si Si6 0.920155 0.692575 0.921987
Si Si7 0.428513 0.569297 0.363802
Si Si8 0.229273 0.776326 0.813416
O O1 0.973059 0.168321 0.114629
O O2 0.810604 0.073061 0.796907
O O3 0.153534 0.049056 0.160660
O O4 0.200998 0.130141 0.821424
O O5 0.500000 0.000000 0.500000
O O6 0.000000 0.000000 0.500000
O O7 0.452917 0.226320 0.669389
O O8 0.516776 0.195156 0.062284
O O9 0.117527 0.263689 0.873116
O O10 0.519409 0.355091 0.559566
O O11 0.749012 0.240492 0.423626
O O12 0.255176 0.280323 0.302306
O O13 0.116985 0.576695 0.299789
O O14 0.612317 0.555823 0.191855
O O15 0.836901 0.622125 0.951271
O O16 0.000000 0.500000 0.000000
O O17 0.206172 0.703815 0.907190
O O18 0.500000 0.500000 0.500000
#
# Coordination Sequence:
#
# PCOD9034693 Si02
#       8
#     2   2   2   2   2   2   2   2
#     4  10  26  49  76 111 159 192 265 304 379 451
#     4  11  28  50  84 117 155 208 251 311 375 450
#     4  10  22  45  67 104 144 194 239 311 367 444
#     4  11  24  42  72 103 149 187 257 301 385 441
#     4  12  26  45  72  98 144 190 245 311 378 441
#     4  10  23  42  64 100 142 187 242 303 376 439
#     4  12  27  45  72 105 142 193 251 312 375 452
#     4  10  24  41  71 103 145 196 240 311 373 442
#
# _framework density 23.811810000000001
#
# number of rings (size 3 to 8) (size 9 to 14) (size 15 to 20)
#    0.000    1.250    1.250    2.250    8.750    7.000 
#    0.000    0.000    0.000    0.000    0.000    0.000 
#    0.000    0.000    0.000    0.000    0.000    0.000 
#
# Total GULP energy -89130.291669 kJ/mol
# GULP energy per Si atom -5570.643229 kJ/mol
# Density = 2.375761 g / cm^3
# Si number density = 23.811810 Si / 1000 Ang^3
#
#
#
# Elastic Constant Matrix: (Units=GPa)
#
#
# Indices 1 2 3 4 5 6 
#
# 1 79.0439 34.8273 29.3807 3.2455 -11.4465 16.9567
# 2 34.8273 133.0155 52.9278 -6.3453 -25.1571 27.8812
# 3 29.3807 52.9278 87.3014 6.5224 -11.4689 9.0164
# 4 3.2455 -6.3453 6.5224 29.4268 3.7448 -4.8715
# 5 -11.4465 -25.1571 -11.4689 3.7448 55.8890 0.3389
# 6 16.9567 27.8812 9.0164 -4.8715 0.3389 32.5817
#
#
#
# Elastic Compliance Matrix: (Units=1/GPa)
#
#
# Indices 1 2 3 4 5 6 
#
# 1 0.016444 -0.001049 -0.003654 -0.002703 0.002370 -0.007078
# 2 -0.001049 0.012983 -0.006256 0.002351 0.004239 -0.008525
# 3 -0.003654 -0.006256 0.016607 -0.004309 0.000120 0.002014
# 4 -0.002703 0.002351 -0.004309 0.037134 -0.002905 0.006170
# 5 0.002370 0.004239 0.000120 -0.002905 0.020539 -0.005542
# 6 -0.007078 -0.008525 0.002014 0.006170 -0.005542 0.042094
#
#
# Mechanical properties :
#
#
# Convention : Reuss Voigt Hill
#
# Bulk Modulus (GPa) = 41.46638 59.29250 50.37944
# Shear Modulus (GPa) = 28.44827 35.72785 32.08806
#
# Velocity S-wave (km/s) = 3.46021 3.87774 3.67491
# Velocity P-wave (km/s) = 5.78067 6.70847 6.26178
#
# Compressibility (1/GPa) = 0.02411592
#
# Stress axis : x y z
#
# Youngs Moduli (GPa) = 60.81197 77.02462 60.21569
#
# Poissons Ratio (x) = 0.08076 0.22003
# Poissons Ratio (y) = 0.06376 0.37673
# Poissons Ratio (z) = 0.22221 0.48190
#
# Static dielectric constant tensor:
#      x y z
#    x 2.126970 -0.012600 -0.007110 
#    y -0.012600 1.985260 0.001380 
#    z -0.007110 0.001380 2.012250 
# 
# From -- ./inp_files/11171.got.cif
#   From: 2010.05.17/outbox.cif.g08.bks.cpg/sg2_6_cif.got.tgz:11171.got - 2010.06.03 11:33:40.
