data_PCOD9034683
_publ_section_title
;
Structure prediction by ZEFSAII (Michael W. Deem and Ramdas Pophale) SiO2 
 PCOD9034683
Probable space group: P -1
;
_chemical_formula_sum "Si O2"
_cell_formula_units_Z 14
_cell_length_a 10.807164
_cell_length_b 19.711695
_cell_length_c 9.131707
_cell_angle_alpha 129.568901
_cell_angle_beta 105.977574
_cell_angle_gamma 31.522423
_cell_volume 586.004000
_symmetry_space_group_name_H-M "P -1"
_symmetry_group_IT_number 2
_symmetry_cell_setting 'triclinic'
loop_
_space_group_symop_operation_xyz
x,y,z
-x,-y,-z
loop_
_atom_site_type_symbol
_atom_site_label
_atom_site_fract_x
_atom_site_fract_y
_atom_site_fract_z
Si Si1 0.192015 0.292573 0.301466
Si Si2 0.554336 0.227150 0.865420
Si Si3 0.860862 0.314205 0.172462
Si Si4 0.620238 0.053723 0.399638
Si Si5 0.579202 0.501891 0.884117
Si Si6 0.091480 0.288916 0.674407
Si Si7 0.777697 0.956928 0.819083
O O1 0.365005 0.198988 0.384768
O O2 0.000000 0.500000 0.500000
O O3 0.969966 0.345350 0.290072
O O4 0.457544 0.125476 0.030618
O O5 0.638496 0.132438 0.605018
O O6 0.621807 0.288829 0.952950
O O7 0.709332 0.075551 0.840594
O O8 0.171950 0.470058 0.104912
O O9 0.496176 0.523790 0.301131
O O10 0.066045 0.162335 0.886123
O O11 0.981181 0.176619 0.153702
O O12 0.440064 0.109645 0.544559
O O13 0.500000 0.500000 0.000000
O O14 0.909592 0.345451 0.815142
O O15 0.092341 0.210914 0.448690
#
# Coordination Sequence:
#
# PCOD9034683 Si02
#       7
#     2   2   2   2   2   2   2
#     4  11  23  41  73 105 139 178 233 281 344 399
#     4  10  26  41  71 104 135 180 234 275 347 403
#     4  11  24  45  70 100 144 179 225 282 351 401
#     4  11  21  44  71 100 134 176 235 283 327 412
#     4  10  27  47  65 100 144 182 224 284 351 407
#     4  10  22  45  67 101 139 176 233 277 341 401
#     4  11  22  45  69 106 134 181 228 289 335 405
#
# _framework density 23.890623000000001
#
# number of rings (size 3 to 8) (size 9 to 14) (size 15 to 20)
#    0.857    0.571    2.857    2.143    4.000    3.429 
#    0.000    0.000    0.000    0.000    0.000    0.000 
#    0.000    0.000    0.000    0.000    0.000    0.000 
#
# Total GULP energy -77934.780665 kJ/mol
# GULP energy per Si atom -5566.770047 kJ/mol
# Density = 2.383625 g / cm^3
# Si number density = 23.890623 Si / 1000 Ang^3
#
#
#
# Elastic Constant Matrix: (Units=GPa)
#
#
# Indices 1 2 3 4 5 6 
#
# 1 102.9892 50.8538 -0.7926 -11.7059 2.2448 6.4743
# 2 50.8538 120.1764 23.1398 -9.1520 13.3430 13.0501
# 3 -0.7926 23.1398 86.7415 -4.2304 12.2643 21.2049
# 4 -11.7059 -9.1520 -4.2304 28.0086 -6.6580 -6.1507
# 5 2.2448 13.3430 12.2643 -6.6580 27.7769 -3.8997
# 6 6.4743 13.0501 21.2049 -6.1507 -3.8997 42.6216
#
#
#
# Elastic Compliance Matrix: (Units=1/GPa)
#
#
# Indices 1 2 3 4 5 6 
#
# 1 0.012975 -0.005669 0.001627 0.004218 0.001931 -0.000259
# 2 -0.005669 0.011849 -0.002005 -0.000432 -0.004771 -0.002268
# 3 0.001627 -0.002005 0.014966 -0.001152 -0.007162 -0.007901
# 4 0.004218 -0.000432 -0.001152 0.041387 0.011288 0.007070
# 5 0.001931 -0.004771 -0.007162 0.011288 0.045482 0.010521
# 6 -0.000259 -0.002268 -0.007901 0.007070 0.010521 0.030110
#
#
# Mechanical properties :
#
#
# Convention : Reuss Voigt Hill
#
# Bulk Modulus (GPa) = 36.10533 50.70102 43.40317
# Shear Modulus (GPa) = 28.07505 35.46182 31.76844
#
# Velocity S-wave (km/s) = 3.43176 3.85689 3.65052
# Velocity P-wave (km/s) = 5.55412 6.41111 5.99794
#
# Compressibility (1/GPa) = 0.02769674
#
# Stress axis : x y z
#
# Youngs Moduli (GPa) = 77.07096 84.39537 66.81827
#
# Poissons Ratio (x) = 0.47842 -0.10871
# Poissons Ratio (y) = 0.43690 0.13395
# Poissons Ratio (z) = -0.12539 0.16919
#
# Static dielectric constant tensor:
#      x y z
#    x 2.136040 0.000900 -0.204030 
#    y 0.000900 1.939920 0.034420 
#    z -0.204030 0.034420 2.107160 
# 
# From -- ./inp_files/282312.got.cif
#   From: 2010.05.17/outbox.cif.g08.bks.cpg/sg2_142_cif.got.tgz:282312.got - 2010.06.03 11:33:40.
