data_PCOD9034446
_publ_section_title
;
Structure prediction by ZEFSAII (Michael W. Deem and Ramdas Pophale) SiO2 
 PCOD9034446
Probable space group: P -1
;
_chemical_formula_sum "Si O2"
_cell_formula_units_Z 16
_cell_length_a 15.964713
_cell_length_b 15.502415
_cell_length_c 16.126541
_cell_angle_alpha 34.441673
_cell_angle_beta 161.043670
_cell_angle_gamma 146.410408
_cell_volume 702.042906
_symmetry_space_group_name_H-M "P -1"
_symmetry_group_IT_number 2
_symmetry_cell_setting 'triclinic'
loop_
_space_group_symop_operation_xyz
x,y,z
-x,-y,-z
loop_
_atom_site_type_symbol
_atom_site_label
_atom_site_fract_x
_atom_site_fract_y
_atom_site_fract_z
Si Si1 0.254176 0.739885 0.757202
Si Si2 0.860232 0.281935 0.959089
Si Si3 0.852280 0.932020 0.179741
Si Si4 0.522106 0.251295 0.391737
Si Si5 0.384390 0.571022 0.256946
Si Si6 0.704885 0.394463 0.279960
Si Si7 0.072620 0.938030 0.029086
Si Si8 0.767916 0.491230 0.565171
O O1 0.280882 0.677776 0.739040
O O2 0.073055 0.859941 0.482793
O O3 0.075611 0.591818 0.760462
O O4 0.548627 0.828054 0.995934
O O5 0.708978 0.287668 0.900244
O O6 0.724209 0.340387 0.705706
O O7 0.131713 0.426858 0.106387
O O8 0.895669 0.111953 0.108033
O O9 0.878325 0.938299 0.098536
O O10 0.595419 0.266704 0.351252
O O11 0.673385 0.130305 0.667379
O O12 0.647061 0.419944 0.420519
O O13 0.201855 0.197535 0.145105
O O14 0.500000 0.500000 0.500000
O O15 0.608575 0.601020 0.372839
O O16 0.000000 0.500000 0.500000
O O17 0.500000 0.500000 0.000000
O O18 0.000000 0.000000 0.000000
#
# Coordination Sequence:
#
# PCOD9034446 Si02
#       8
#     2   2   2   2   2   2   2   2
#     4  12  28  44  66 103 145 185 225 286 349 409
#     4  10  22  44  75 101 135 179 231 284 344 413
#     4  12  26  45  67 101 144 182 223 284 359 406
#     4  12  24  40  70  98 126 182 243 282 330 404
#     4   9  21  41  75 105 131 170 236 287 335 406
#     4  12  24  43  65  95 142 188 233 282 343 399
#     4  12  24  42  65  94 135 178 232 291 340 401
#     4  11  24  42  71 100 135 178 237 283 339 414
#
# _framework density 22.790631000000001
#
# number of rings (size 3 to 8) (size 9 to 14) (size 15 to 20)
#    0.000    0.750    2.500    4.875    5.250    0.000 
#    0.000    1.250    0.000    0.000    0.000    0.000 
#    0.000    0.000    0.000    0.000    0.000    0.000 
#
# Total GULP energy -89587.792971 kJ/mol
# GULP energy per Si atom -5599.237061 kJ/mol
# Density = 2.273876 g / cm^3
# Si number density = 22.790631 Si / 1000 Ang^3
#
#
#
# Elastic Constant Matrix: (Units=GPa)
#
#
# Indices 1 2 3 4 5 6 
#
# 1 108.9329 39.1411 16.3820 -4.0077 18.2482 -15.4565
# 2 39.1411 75.1845 20.6995 -2.0191 9.5524 -11.7617
# 3 16.3820 20.6995 99.9007 -6.6000 4.3510 -3.3652
# 4 -4.0077 -2.0191 -6.6000 37.1304 3.3839 6.1557
# 5 18.2482 9.5524 4.3510 3.3839 30.8557 -2.8092
# 6 -15.4565 -11.7617 -3.3652 6.1557 -2.8092 42.4162
#
#
#
# Elastic Compliance Matrix: (Units=1/GPa)
#
#
# Indices 1 2 3 4 5 6 
#
# 1 0.012465 -0.005201 -0.000569 0.001048 -0.005566 0.002534
# 2 -0.005201 0.017338 -0.002603 -0.000371 -0.001643 0.002651
# 3 -0.000569 -0.002603 0.010778 0.001832 -0.000613 -0.000381
# 4 0.001048 -0.000371 0.001832 0.028396 -0.004240 -0.003977
# 5 -0.005566 -0.001643 -0.000613 -0.004240 0.036808 0.000521
# 6 0.002534 0.002651 -0.000381 -0.003977 0.000521 0.025816
#
#
# Mechanical properties :
#
#
# Convention : Reuss Voigt Hill
#
# Bulk Modulus (GPa) = 41.95717 48.49594 45.22656
# Shear Modulus (GPa) = 31.99130 35.93349 33.96239
#
# Velocity S-wave (km/s) = 3.75067 3.97505 3.86449
# Velocity P-wave (km/s) = 6.09971 6.51100 6.30871
#
# Compressibility (1/GPa) = 0.02383383
#
# Stress axis : x y z
#
# Youngs Moduli (GPa) = 80.22627 57.67561 92.78512
#
# Poissons Ratio (x) = 0.29995 0.05283
# Poissons Ratio (y) = 0.41723 0.24155
# Poissons Ratio (z) = 0.04568 0.15015
#
# Static dielectric constant tensor:
#      x y z
#    x 1.871490 0.002820 -0.011340 
#    y 0.002820 1.843130 -0.019440 
#    z -0.011340 -0.019440 1.894730 
# 
# From -- ./inp_files/116980.got.cif
#   From: 2010.05.17/outbox.cif.g08.bks.cpg/sg2_59_cif.got.tgz:116980.got - 2010.06.03 11:33:40.
