data_PCOD9034829
_publ_section_title
;
Structure prediction by ZEFSAII (Michael W. Deem and Ramdas Pophale) SiO2 
 PCOD9034829
Probable space group: P -1
;
_chemical_formula_sum "Si O2"
_cell_formula_units_Z 14
_cell_length_a 11.608590
_cell_length_b 9.238388
_cell_length_c 9.942890
_cell_angle_alpha 107.188455
_cell_angle_beta 41.301005
_cell_angle_gamma 124.911021
_cell_volume 559.051023
_symmetry_space_group_name_H-M "P -1"
_symmetry_group_IT_number 2
_symmetry_cell_setting 'triclinic'
loop_
_space_group_symop_operation_xyz
x,y,z
-x,-y,-z
loop_
_atom_site_type_symbol
_atom_site_label
_atom_site_fract_x
_atom_site_fract_y
_atom_site_fract_z
Si Si1 0.472482 0.364622 0.174184
Si Si2 0.850631 0.281485 0.557113
Si Si3 0.075671 0.871042 0.016110
Si Si4 0.758362 0.232152 0.922953
Si Si5 0.226044 0.435390 0.629185
Si Si6 0.198140 0.236395 0.120793
Si Si7 0.322808 0.791142 0.588497
O O1 0.338453 0.251790 0.129961
O O2 0.324075 0.380977 0.412277
O O3 0.588832 0.277604 0.111095
O O4 0.656436 0.566804 0.021065
O O5 0.743379 0.186202 0.765734
O O6 0.697370 0.252846 0.563465
O O7 0.000000 0.500000 0.500000
O O8 0.994055 0.213442 0.361085
O O9 0.846760 0.708677 0.226063
O O10 0.124473 0.072094 0.035472
O O11 0.128744 0.789846 0.822564
O O12 0.234457 0.889279 0.001324
O O13 0.003357 0.402061 0.768003
O O14 0.359846 0.650725 0.594283
O O15 0.500000 0.000000 0.500000
#
# Coordination Sequence:
#
# PCOD9034829 Si02
#       7
#     2   2   2   2   2   2   2
#     4  11  21  38  73 104 134 182 239 293 335 413
#     4  12  21  44  73 102 138 186 234 289 341 415
#     4  10  25  45  65 101 145 185 220 294 360 411
#     4  10  23  42  72 103 135 182 231 290 343 407
#     4  10  22  45  68  96 141 181 231 281 354 401
#     4  11  22  39  69 104 140 177 244 283 347 412
#     4  12  25  44  72 103 143 187 233 285 354 419
#
# _framework density 25.042435999999999
#
# number of rings (size 3 to 8) (size 9 to 14) (size 15 to 20)
#    0.857    0.286    4.286    1.286    4.000    3.429 
#    2.571    2.143    0.000    0.000    0.000    0.000 
#    0.000    0.000    0.000    0.000    0.000    0.000 
#
# Total GULP energy -78309.183898 kJ/mol
# GULP energy per Si atom -5593.513136 kJ/mol
# Density = 2.498544 g / cm^3
# Si number density = 25.042436 Si / 1000 Ang^3
#
#
#
# Elastic Constant Matrix: (Units=GPa)
#
#
# Indices 1 2 3 4 5 6 
#
# 1 52.3510 7.0596 4.4539 3.3562 5.7947 12.4968
# 2 7.0596 111.1256 26.6718 17.2105 0.2201 5.0269
# 3 4.4539 26.6718 84.0795 16.9464 1.0343 8.4981
# 4 3.3562 17.2105 16.9464 33.2982 -0.2988 4.3431
# 5 5.7947 0.2201 1.0343 -0.2988 41.4525 10.8609
# 6 12.4968 5.0269 8.4981 4.3431 10.8609 23.6310
#
#
#
# Elastic Compliance Matrix: (Units=1/GPa)
#
#
# Indices 1 2 3 4 5 6 
#
# 1 0.021959 -0.000897 0.000368 -0.000446 -0.000081 -0.011435
# 2 -0.000897 0.010252 -0.002388 -0.003967 0.000151 -0.000188
# 3 0.000368 -0.002388 0.014134 -0.005462 0.000632 -0.004056
# 4 -0.000446 -0.003967 -0.005462 0.035468 0.001575 -0.004199
# 5 -0.000081 0.000151 0.000632 0.001575 0.027584 -0.013184
# 6 -0.011435 -0.000188 -0.004056 -0.004199 -0.013184 0.056694
#
#
# Mechanical properties :
#
#
# Convention : Reuss Voigt Hill
#
# Bulk Modulus (GPa) = 24.68436 35.99186 30.33811
# Shear Modulus (GPa) = 26.96458 33.63440 30.29949
#
# Velocity S-wave (km/s) = 3.28496 3.66880 3.48217
# Velocity P-wave (km/s) = 4.92609 5.68774 5.32056
#
# Compressibility (1/GPa) = 0.04051148
#
# Stress axis : x y z
#
# Youngs Moduli (GPa) = 45.54012 97.54665 70.74903
#
# Poissons Ratio (x) = 0.08748 -0.02603
# Poissons Ratio (y) = 0.04084 0.16893
# Poissons Ratio (z) = -0.01676 0.23292
#
# Static dielectric constant tensor:
#      x y z
#    x 2.086070 0.030150 -0.008760 
#    y 0.030150 1.975660 -0.032100 
#    z -0.008760 -0.032100 2.037280 
# 
# From -- ./inp_files/451731.got.cif
#   From: 2010.05.17/outbox.cif.g08.bks.cpg/sg2_226_cif.got.tgz:451731.got - 2010.06.03 11:33:40.
