data_PCOD9034468
_publ_section_title
;
Structure prediction by ZEFSAII (Michael W. Deem and Ramdas Pophale) SiO2 
 PCOD9034468
Probable space group: P -1
;
_chemical_formula_sum "Si O2"
_cell_formula_units_Z 12
_cell_length_a 12.583665
_cell_length_b 9.569849
_cell_length_c 9.386649
_cell_angle_alpha 124.265746
_cell_angle_beta 41.378840
_cell_angle_gamma 144.566109
_cell_volume 429.748502
_symmetry_space_group_name_H-M "P -1"
_symmetry_group_IT_number 2
_symmetry_cell_setting 'triclinic'
loop_
_space_group_symop_operation_xyz
x,y,z
-x,-y,-z
loop_
_atom_site_type_symbol
_atom_site_label
_atom_site_fract_x
_atom_site_fract_y
_atom_site_fract_z
Si Si1 0.154006 0.227681 0.296091
Si Si2 0.985043 0.240823 0.872174
Si Si3 0.498048 0.696738 0.580571
Si Si4 0.363311 0.063538 0.717680
Si Si5 0.611029 0.399014 0.941021
Si Si6 0.215901 0.821897 0.242415
O O1 0.991308 0.940866 0.294577
O O2 0.205171 0.324315 0.138546
O O3 0.035943 0.299116 0.527505
O O4 0.391576 0.335585 0.187873
O O5 0.791645 0.156637 0.906333
O O6 0.779690 0.483500 0.236310
O O7 0.880274 0.164823 0.092755
O O8 0.500000 0.500000 0.500000
O O9 0.617949 0.921173 0.695286
O O10 0.622417 0.819750 0.374285
O O11 0.500000 0.000000 0.500000
O O12 0.505821 0.253996 0.813267
O O13 0.723016 0.322434 0.859021
#
# Coordination Sequence:
#
# PCOD9034468 Si02
#       6
#     2   2   2   2   2   2
#     4  10  22  44  75 115 161 204 266 334 388 481
#     4  11  27  50  81 120 160 211 274 330 403 486
#     4  12  27  50  79 118 163 213 269 336 404 480
#     4  11  25  51  74 115 169 206 267 340 395 482
#     4  10  23  45  76 120 159 208 271 329 399 482
#     4  12  24  49  83 117 160 218 268 330 410 477
#
# _framework density 27.923309
#
# number of rings (size 3 to 8) (size 9 to 14) (size 15 to 20)
#    0.000    1.000    3.333    2.000    2.333    4.000 
#    0.000    1.667    0.000    0.000    0.000    0.000 
#    0.000    0.000    0.000    0.000    0.000    0.000 
#
# Total GULP energy -67290.000709 kJ/mol
# GULP energy per Si atom -5607.500059 kJ/mol
# Density = 2.785975 g / cm^3
# Si number density = 27.923309 Si / 1000 Ang^3
#
#
#
# Elastic Constant Matrix: (Units=GPa)
#
#
# Indices 1 2 3 4 5 6 
#
# 1 240.1020 74.2632 80.3921 2.7349 -11.2644 -37.2084
# 2 74.2632 156.1953 42.7312 -5.9665 14.9440 -2.5326
# 3 80.3921 42.7312 152.0772 -29.1929 -15.0318 0.5360
# 4 2.7349 -5.9665 -29.1929 57.5056 -5.4420 10.4189
# 5 -11.2644 14.9440 -15.0318 -5.4420 71.8377 6.4835
# 6 -37.2084 -2.5326 0.5360 10.4189 6.4835 41.8524
#
#
#
# Elastic Compliance Matrix: (Units=1/GPa)
#
#
# Indices 1 2 3 4 5 6 
#
# 1 0.007533 -0.002471 -0.004120 -0.004108 -0.000168 0.007649
# 2 -0.002471 0.008068 -0.001073 0.000478 -0.002120 -0.001486
# 3 -0.004120 -0.001073 0.010679 0.006869 0.002875 -0.006020
# 4 -0.004108 0.000478 0.006869 0.023255 0.003360 -0.010021
# 5 -0.000168 -0.002120 0.002875 0.003360 0.015512 -0.003554
# 6 0.007649 -0.001486 -0.006020 -0.010021 -0.003554 0.033726
#
#
# Mechanical properties :
#
#
# Convention : Reuss Voigt Hill
#
# Bulk Modulus (GPa) = 91.31313 104.79419 98.05366
# Shear Modulus (GPa) = 42.46239 57.63835 50.05037
#
# Velocity S-wave (km/s) = 3.90382 4.54824 4.23829
# Velocity P-wave (km/s) = 7.28643 8.07420 7.69041
#
# Compressibility (1/GPa) = 0.01095133
#
# Stress axis : x y z
#
# Youngs Moduli (GPa) = 132.75020 123.95023 93.64240
#
# Poissons Ratio (x) = 0.30631 0.38580
# Poissons Ratio (y) = 0.32806 0.10048
# Poissons Ratio (z) = 0.54692 0.13300
#
# Static dielectric constant tensor:
#      x y z
#    x 2.198970 0.002530 -0.020070 
#    y 0.002530 2.287010 -0.100600 
#    z -0.020070 -0.100600 2.215550 
# 
# From -- ./inp_files/465946.got.cif
#   From: 2010.05.17/outbox.cif.g08.bks.cpg/sg2_233_cif.got.tgz:465946.got - 2010.06.03 11:33:40.
