data_PCOD9034483
_publ_section_title
;
Structure prediction by ZEFSAII (Michael W. Deem and Ramdas Pophale) SiO2 
 PCOD9034483
Probable space group: P -1
;
_chemical_formula_sum "Si O2"
_cell_formula_units_Z 16
_cell_length_a 6.501005
_cell_length_b 8.646881
_cell_length_c 19.243191
_cell_angle_alpha 129.592068
_cell_angle_beta 127.076595
_cell_angle_gamma 55.978733
_cell_volume 637.456340
_symmetry_space_group_name_H-M "P -1"
_symmetry_group_IT_number 2
_symmetry_cell_setting 'triclinic'
loop_
_space_group_symop_operation_xyz
x,y,z
-x,-y,-z
loop_
_atom_site_type_symbol
_atom_site_label
_atom_site_fract_x
_atom_site_fract_y
_atom_site_fract_z
Si Si1 0.409135 0.710244 0.590833
Si Si2 0.551689 0.646278 0.116304
Si Si3 0.898323 0.877765 0.711044
Si Si4 0.684270 0.018948 0.937285
Si Si5 0.383474 0.335996 0.085928
Si Si6 0.363550 0.522380 0.677418
Si Si7 0.085834 0.677923 0.188572
Si Si8 0.186464 0.145673 0.476741
O O1 0.500000 0.500000 0.500000
O O2 0.622782 0.841675 0.668799
O O3 0.421913 0.627984 0.648743
O O4 0.106980 0.858502 0.553768
O O5 0.387619 0.877775 0.123213
O O6 0.502867 0.527744 0.141083
O O7 0.845028 0.677649 0.189907
O O8 0.500000 0.500000 0.000000
O O9 0.877921 0.850343 0.616350
O O10 0.158308 0.692467 0.733400
O O11 0.945151 0.103802 0.793721
O O12 0.617388 0.806853 0.885816
O O13 0.503349 0.175574 0.002880
O O14 0.000000 0.000000 0.000000
O O15 0.084395 0.490354 0.081880
O O16 0.638984 0.392249 0.732016
O O17 0.206281 0.361222 0.574420
O O18 0.500000 0.000000 0.500000
#
# Coordination Sequence:
#
# PCOD9034483 Si02
#       8
#     2   2   2   2   2   2   2   2
#     4  11  21  42  73  98 135 195 254 289 354 444
#     4  10  24  47  71  98 141 188 244 300 361 448
#     4  11  24  44  66 101 138 191 238 299 366 425
#     4  10  22  44  76 106 134 181 243 301 362 449
#     4  10  23  43  70 102 137 185 232 290 374 436
#     4  11  24  44  67  97 147 183 238 306 359 423
#     4  12  27  45  66 104 149 180 238 312 371 430
#     4  11  21  42  69  97 138 191 239 294 351 431
#
# _framework density 25.099757
#
# number of rings (size 3 to 8) (size 9 to 14) (size 15 to 20)
#    0.000    1.250    3.750    2.250    1.750    9.000 
#    2.250    0.000    0.000    0.000    0.000    0.000 
#    0.000    0.000    0.000    0.000    0.000    0.000 
#
# Total GULP energy -89133.093327 kJ/mol
# GULP energy per Si atom -5570.818333 kJ/mol
# Density = 2.504263 g / cm^3
# Si number density = 25.099757 Si / 1000 Ang^3
#
#
#
# Elastic Constant Matrix: (Units=GPa)
#
#
# Indices 1 2 3 4 5 6 
#
# 1 135.4256 70.5243 38.3413 -0.1423 41.4323 5.7425
# 2 70.5243 155.8533 34.0502 10.2152 16.1881 2.4599
# 3 38.3413 34.0502 62.5710 2.5799 8.8544 -6.0266
# 4 -0.1423 10.2152 2.5799 49.4471 4.7299 6.1856
# 5 41.4323 16.1881 8.8544 4.7299 47.8552 -1.0634
# 6 5.7425 2.4599 -6.0266 6.1856 -1.0634 57.1511
#
#
#
# Elastic Compliance Matrix: (Units=1/GPa)
#
#
# Indices 1 2 3 4 5 6 
#
# 1 0.014459 -0.004439 -0.005306 0.002510 -0.010334 -0.002285
# 2 -0.004439 0.008886 -0.002236 -0.001877 0.001437 0.000058
# 3 -0.005306 -0.002236 0.020537 -0.001160 0.001730 0.002953
# 4 0.002510 -0.001877 -0.001160 0.021347 -0.003493 -0.002669
# 5 -0.010334 0.001437 0.001730 -0.003493 0.029428 0.002085
# 6 -0.002285 0.000058 0.002953 -0.002669 0.002085 0.018364
#
#
# Mechanical properties :
#
#
# Convention : Reuss Voigt Hill
#
# Bulk Modulus (GPa) = 50.19830 71.07570 60.63700
# Shear Modulus (GPa) = 34.81339 44.95297 39.88318
#
# Velocity S-wave (km/s) = 3.72829 4.23658 3.99053
# Velocity P-wave (km/s) = 6.21099 7.23258 6.74117
#
# Compressibility (1/GPa) = 0.01992099
#
# Stress axis : x y z
#
# Youngs Moduli (GPa) = 69.16216 112.53474 48.69180
#
# Poissons Ratio (x) = 0.49949 0.25834
# Poissons Ratio (y) = 0.30698 0.10889
# Poissons Ratio (z) = 0.36695 0.25167
#
# Static dielectric constant tensor:
#      x y z
#    x 4.256570 0.846910 -2.323450 
#    y 0.846910 2.490920 -1.014630 
#    z -2.323450 -1.014630 4.449240 
# 
# From -- ./inp_files/604088.got.cif
#   From: 2010.05.17/outbox.cif.g08.bks.cpg/sg2_303_cif.got.tgz:604088.got - 2010.06.03 11:33:40.
