data_PCOD9034081
_publ_section_title
;
Structure prediction by ZEFSAII (Michael W. Deem and Ramdas Pophale) SiO2 
 PCOD9034081
Probable space group: P -1
;
_chemical_formula_sum "Si O2"
_cell_formula_units_Z 15
_cell_length_a 14.777043
_cell_length_b 11.530850
_cell_length_c 14.028425
_cell_angle_alpha 51.148241
_cell_angle_beta 160.695132
_cell_angle_gamma 129.439063
_cell_volume 606.674710
_symmetry_space_group_name_H-M "P -1"
_symmetry_group_IT_number 2
_symmetry_cell_setting 'triclinic'
loop_
_space_group_symop_operation_xyz
x,y,z
-x,-y,-z
loop_
_atom_site_type_symbol
_atom_site_label
_atom_site_fract_x
_atom_site_fract_y
_atom_site_fract_z
Si Si1 0.393730 0.359129 0.823735
Si Si2 0.500000 0.000000 0.500000
Si Si3 0.521420 0.610754 0.328714
Si Si4 0.425464 0.056104 0.124978
Si Si5 0.065797 0.747569 0.900075
Si Si6 0.051964 0.439166 0.723482
Si Si7 0.771403 0.315856 0.697824
Si Si8 0.060656 0.893483 0.274773
O O1 0.446823 0.334987 0.777059
O O2 0.110119 0.422079 0.525143
O O3 0.412238 0.207544 0.976187
O O4 0.630714 0.499131 0.014769
O O5 0.424733 0.825560 0.471168
O O6 0.214700 0.965510 0.298744
O O7 0.227848 0.626138 0.073692
O O8 0.592797 0.443115 0.485610
O O9 0.757201 0.714809 0.571060
O O10 0.738212 0.043697 0.470262
O O11 0.252015 0.909937 0.978414
O O12 0.253547 0.075771 0.042705
O O13 0.083214 0.733447 0.038076
O O14 0.988990 0.390076 0.795715
O O15 0.948255 0.286249 0.642545
#
# Coordination Sequence:
#
# PCOD9034081 Si02
#       8
#     2   1   2   2   2   2   2   2
#     4  11  24  45  66  99 135 181 233 285 329 410
#     4  10  22  46  72 102 146 172 214 282 346 422
#     4  11  25  44  70  97 137 183 234 277 340 392
#     4  12  26  43  68  99 142 176 233 279 340 398
#     4  12  25  44  69 102 137 182 229 286 333 409
#     4  10  23  42  69  98 137 181 228 275 348 402
#     4  10  22  44  71 104 136 177 226 286 343 410
#     4  11  24  44  66 105 136 186 217 280 344 413
#
# _framework density 24.724945999999999
#
# number of rings (size 3 to 8) (size 9 to 14) (size 15 to 20)
#    0.000    1.067    1.333    4.800    0.000    6.933 
#    2.400    0.000    0.000    0.000    0.000    0.000 
#    0.000    0.000    0.000    0.000    0.000    0.000 
#
# Total GULP energy -83918.083188 kJ/mol
# GULP energy per Si atom -5594.538879 kJ/mol
# Density = 2.466867 g / cm^3
# Si number density = 24.724946 Si / 1000 Ang^3
#
#
#
# Elastic Constant Matrix: (Units=GPa)
#
#
# Indices 1 2 3 4 5 6 
#
# 1 74.7301 29.2576 9.6116 7.6269 9.2347 8.4466
# 2 29.2576 151.9861 9.3343 16.9692 -17.6473 -0.9139
# 3 9.6116 9.3343 79.2168 6.8868 1.9446 1.2627
# 4 7.6269 16.9692 6.8868 24.2676 -6.4081 -1.4421
# 5 9.2347 -17.6473 1.9446 -6.4081 21.7066 -2.6981
# 6 8.4466 -0.9139 1.2627 -1.4421 -2.6981 44.0889
#
#
#
# Elastic Compliance Matrix: (Units=1/GPa)
#
#
# Indices 1 2 3 4 5 6 
#
# 1 0.017987 -0.004314 -0.000725 -0.006268 -0.013510 -0.004546
# 2 -0.004314 0.008685 -0.000536 -0.002243 0.008464 0.001467
# 3 -0.000725 -0.000536 0.013178 -0.003829 -0.002504 -0.000528
# 4 -0.006268 -0.002243 -0.003829 0.050440 0.016565 0.003928
# 5 -0.013510 0.008464 -0.002504 0.016565 0.064725 0.007338
# 6 -0.004546 0.001467 -0.000528 0.003928 0.007338 0.024176
#
#
# Mechanical properties :
#
#
# Convention : Reuss Voigt Hill
#
# Bulk Modulus (GPa) = 34.84459 44.70443 39.77451
# Shear Modulus (GPa) = 25.01174 35.19460 30.10317
#
# Velocity S-wave (km/s) = 3.18402 3.77695 3.49309
# Velocity P-wave (km/s) = 5.25745 6.09429 5.69127
#
# Compressibility (1/GPa) = 0.02869886
#
# Stress axis : x y z
#
# Youngs Moduli (GPa) = 55.59610 115.14118 75.88677
#
# Poissons Ratio (x) = 0.49674 0.05502
# Poissons Ratio (y) = 0.23985 0.04068
# Poissons Ratio (z) = 0.04031 0.06173
#
# Static dielectric constant tensor:
#      x y z
#    x 2.048380 0.002430 -0.070410 
#    y 0.002430 1.905780 -0.025930 
#    z -0.070410 -0.025930 1.898970 
# 
# From -- ./inp_files/531726.got.cif
#   From: 2010.05.17/outbox.cif.g08.bks.cpg/sg2_266_cif.got.tgz:531726.got - 2010.06.03 11:33:40.
