data_PCOD9034352
_publ_section_title
;
Structure prediction by ZEFSAII (Michael W. Deem and Ramdas Pophale) SiO2 
 PCOD9034352
Probable space group: P -1
;
_chemical_formula_sum "Si O2"
_cell_formula_units_Z 14
_cell_length_a 19.970103
_cell_length_b 6.921953
_cell_length_c 7.931594
_cell_angle_alpha 101.658391
_cell_angle_beta 43.282832
_cell_angle_gamma 73.168130
_cell_volume 559.241509
_symmetry_space_group_name_H-M "P -1"
_symmetry_group_IT_number 2
_symmetry_cell_setting 'triclinic'
loop_
_space_group_symop_operation_xyz
x,y,z
-x,-y,-z
loop_
_atom_site_type_symbol
_atom_site_label
_atom_site_fract_x
_atom_site_fract_y
_atom_site_fract_z
Si Si1 0.809279 0.195474 0.266847
Si Si2 0.334990 0.271387 0.559754
Si Si3 0.882208 0.510318 0.208866
Si Si4 0.542237 0.228198 0.320181
Si Si5 0.394135 0.795631 0.189260
Si Si6 0.807612 0.722499 0.740595
Si Si7 0.981693 0.816237 0.587686
O O1 0.694524 0.486110 0.449674
O O2 0.904216 0.249943 0.153361
O O3 0.741810 0.136104 0.510038
O O4 0.883967 0.973985 0.950337
O O5 0.188904 0.383488 0.823600
O O6 0.420233 0.242594 0.549592
O O7 0.407379 0.987192 0.296981
O O8 0.794330 0.683114 0.561275
O O9 0.000000 0.500000 0.000000
O O10 0.500000 0.500000 0.500000
O O11 0.582870 0.197797 0.046515
O O12 0.673552 0.968734 0.111733
O O13 0.500000 0.500000 0.000000
O O14 0.909575 0.764784 0.583326
O O15 0.881916 0.445695 0.645151
O O16 0.000000 0.000000 0.500000
#
# Coordination Sequence:
#
# PCOD9034352 Si02
#       7
#     2   2   2   2   2   2   2
#     4  10  24  44  75 107 144 196 250 306 375 447
#     4  10  24  47  74 105 160 185 250 314 374 445
#     4  10  22  44  73 108 145 193 243 304 376 450
#     4  12  25  50  77 113 154 201 254 311 384 458
#     4  12  24  44  78 108 151 202 246 311 377 448
#     4  11  26  43  73 104 151 189 253 308 376 445
#     4  11  26  49  69 104 153 198 248 314 380 448
#
# _framework density 25.033909999999999
#
# number of rings (size 3 to 8) (size 9 to 14) (size 15 to 20)
#    0.857    0.286    2.857    2.143    4.000    2.857 
#    0.000    2.143    0.000    0.000    0.000    0.000 
#    0.000    0.000    0.000    0.000    0.000    0.000 
#
# Total GULP energy -78165.809253 kJ/mol
# GULP energy per Si atom -5583.272089 kJ/mol
# Density = 2.497693 g / cm^3
# Si number density = 25.033910 Si / 1000 Ang^3
#
#
#
# Elastic Constant Matrix: (Units=GPa)
#
#
# Indices 1 2 3 4 5 6 
#
# 1 116.2188 44.8275 44.7426 16.7955 -26.8368 25.6942
# 2 44.8275 142.6565 55.6717 29.4154 -28.5725 5.5197
# 3 44.7426 55.6717 106.6740 20.0054 -13.8733 3.1146
# 4 16.7955 29.4154 20.0054 64.2422 5.3916 -4.1787
# 5 -26.8368 -28.5725 -13.8733 5.3916 47.6888 7.4037
# 6 25.6942 5.5197 3.1146 -4.1787 7.4037 41.2462
#
#
#
# Elastic Compliance Matrix: (Units=1/GPa)
#
#
# Indices 1 2 3 4 5 6 
#
# 1 0.015728 0.000049 -0.004145 -0.004446 0.009999 -0.011736
# 2 0.000049 0.010813 -0.003930 -0.004448 0.006294 -0.002761
# 3 -0.004145 -0.003930 0.013139 -0.000972 -0.001099 0.002215
# 4 -0.004446 -0.004448 -0.000972 0.020270 -0.008840 0.007079
# 5 0.009999 0.006294 -0.001099 -0.008840 0.033196 -0.013842
# 6 -0.011736 -0.002761 0.002215 0.007079 -0.013842 0.034960
#
#
# Mechanical properties :
#
#
# Convention : Reuss Voigt Hill
#
# Bulk Modulus (GPa) = 42.32647 72.89253 57.60950
# Shear Modulus (GPa) = 32.88750 45.32261 39.10506
#
# Velocity S-wave (km/s) = 3.62846 4.25955 3.95661
# Velocity P-wave (km/s) = 5.87355 7.30565 6.62839
#
# Compressibility (1/GPa) = 0.02362588
#
# Stress axis : x y z
#
# Youngs Moduli (GPa) = 63.58280 92.48241 76.11010
#
# Poissons Ratio (x) = -0.00454 0.31551
# Poissons Ratio (y) = -0.00312 0.29914
# Poissons Ratio (z) = 0.26358 0.36349
#
# Static dielectric constant tensor:
#      x y z
#    x 2.046400 -0.047390 -0.065650 
#    y -0.047390 1.997170 0.008820 
#    z -0.065650 0.008820 2.078420 
# 
# From -- ./inp_files/340525.got.cif
#   From: 2010.05.17/outbox.cif.g08.bks.cpg/sg2_171_cif.got.tgz:340525.got - 2010.06.03 11:33:40.
