data_PCOD9034591
_publ_section_title
;
Structure prediction by ZEFSAII (Michael W. Deem and Ramdas Pophale) SiO2 
 PCOD9034591
Probable space group: P -1
;
_chemical_formula_sum "Si O2"
_cell_formula_units_Z 14
_cell_length_a 6.482128
_cell_length_b 8.781055
_cell_length_c 18.429714
_cell_angle_alpha 52.089355
_cell_angle_beta 52.798934
_cell_angle_gamma 51.837445
_cell_volume 606.446752
_symmetry_space_group_name_H-M "P -1"
_symmetry_group_IT_number 2
_symmetry_cell_setting 'triclinic'
loop_
_space_group_symop_operation_xyz
x,y,z
-x,-y,-z
loop_
_atom_site_type_symbol
_atom_site_label
_atom_site_fract_x
_atom_site_fract_y
_atom_site_fract_z
Si Si1 0.059008 0.797251 0.356607
Si Si2 0.133648 0.457222 0.228901
Si Si3 0.859020 0.139732 0.418285
Si Si4 0.292655 0.272041 0.089644
Si Si5 0.369557 0.201724 0.833367
Si Si6 0.694800 0.585568 0.480013
Si Si7 0.312237 0.521350 0.876242
O O1 0.353069 0.778045 0.265709
O O2 0.115024 0.626534 0.458296
O O3 0.862466 0.718200 0.370787
O O4 0.928529 0.014515 0.364338
O O5 0.253310 0.346935 0.158544
O O6 0.409867 0.446005 0.215044
O O7 0.979003 0.321267 0.336693
O O8 0.900220 0.687277 0.193105
O O9 0.525502 0.247625 0.467936
O O10 0.000000 0.000000 0.500000
O O11 0.983798 0.282804 0.127402
O O12 0.536448 0.043059 0.099797
O O13 0.344849 0.432984 0.976658
O O14 0.295460 0.338403 0.882225
O O15 0.500000 0.500000 0.500000
#
# Coordination Sequence:
#
# PCOD9034591 Si02
#       7
#     2   2   2   2   2   2   2
#     4  11  24  41  63  88 126 170 202 266 317 368
#     4  11  24  41  65  96 132 166 218 265 316 384
#     4  12  24  42  64  93 129 171 216 260 318 381
#     4  10  22  45  65  94 130 168 213 263 330 378
#     4  11  23  40  66  94 131 167 212 262 325 383
#     4  11  24  42  63  90 123 162 219 259 309 377
#     4  10  24  41  67  97 128 166 214 269 316 390
#
# _framework density 23.085290000000001
#
# number of rings (size 3 to 8) (size 9 to 14) (size 15 to 20)
#    0.000    1.143    4.286    1.286    2.000    2.857 
#    0.000    0.000    0.000    0.000    0.000    0.000 
#    0.000    0.000    0.000    0.000    0.000    0.000 
#
# Total GULP energy -78229.636351 kJ/mol
# GULP energy per Si atom -5587.831168 kJ/mol
# Density = 2.303275 g / cm^3
# Si number density = 23.085290 Si / 1000 Ang^3
#
#
#
# Elastic Constant Matrix: (Units=GPa)
#
#
# Indices 1 2 3 4 5 6 
#
# 1 56.0268 7.1326 1.9856 -11.2581 -11.0673 -7.1124
# 2 7.1326 95.3717 -8.0754 -4.6270 7.4577 -20.6289
# 3 1.9856 -8.0754 46.1163 1.4528 -5.5347 -8.7386
# 4 -11.2581 -4.6270 1.4528 37.2450 -3.3885 7.2509
# 5 -11.0673 7.4577 -5.5347 -3.3885 37.6561 9.7779
# 6 -7.1124 -20.6289 -8.7386 7.2509 9.7779 28.5679
#
#
#
# Elastic Compliance Matrix: (Units=1/GPa)
#
#
# Indices 1 2 3 4 5 6 
#
# 1 0.020847 -0.002001 -0.000730 0.006872 0.007214 -0.000691
# 2 -0.002001 0.014530 0.004610 -0.002376 -0.006717 0.014306
# 3 -0.000730 0.004610 0.024746 -0.002974 -0.000808 0.011748
# 4 0.006872 -0.002376 -0.002974 0.031746 0.007946 -0.011691
# 5 0.007214 -0.006717 -0.000808 0.007946 0.035103 -0.017333
# 6 -0.000691 0.014306 0.011748 -0.011691 -0.017333 0.057656
#
#
# Mechanical properties :
#
#
# Convention : Reuss Voigt Hill
#
# Bulk Modulus (GPa) = 15.65416 22.17783 18.91599
# Shear Modulus (GPa) = 24.73239 33.79194 29.26216
#
# Velocity S-wave (km/s) = 3.27670 3.83010 3.56415
# Velocity P-wave (km/s) = 4.59471 5.40253 5.01491
#
# Compressibility (1/GPa) = 0.06388078
#
# Stress axis : x y z
#
# Youngs Moduli (GPa) = 47.96752 68.82529 40.41098
#
# Poissons Ratio (x) = 0.13773 0.02949
# Poissons Ratio (y) = 0.09599 -0.18629
# Poissons Ratio (z) = 0.03500 -0.31728
#
# Static dielectric constant tensor:
#      x y z
#    x 2.311160 0.038760 -0.215700 
#    y 0.038760 1.857890 -0.002510 
#    z -0.215700 -0.002510 1.990450 
# 
# From -- ./inp_files/35639.got.cif
#   From: 2010.05.17/outbox.cif.g08.bks.cpg/sg2_18_cif.got.tgz:35639.got - 2010.06.03 11:33:40.
