data_PCOD9034783
_publ_section_title
;
Structure prediction by ZEFSAII (Michael W. Deem and Ramdas Pophale) SiO2 
 PCOD9034783
Probable space group: P -1
;
_chemical_formula_sum "Si O2"
_cell_formula_units_Z 16
_cell_length_a 18.162526
_cell_length_b 11.400645
_cell_length_c 17.813616
_cell_angle_alpha 148.956461
_cell_angle_beta 150.531826
_cell_angle_gamma 32.414078
_cell_volume 862.700718
_symmetry_space_group_name_H-M "P -1"
_symmetry_group_IT_number 2
_symmetry_cell_setting 'triclinic'
loop_
_space_group_symop_operation_xyz
x,y,z
-x,-y,-z
loop_
_atom_site_type_symbol
_atom_site_label
_atom_site_fract_x
_atom_site_fract_y
_atom_site_fract_z
Si Si1 0.870313 0.783758 0.043901
Si Si2 0.256668 0.973499 0.696207
Si Si3 0.752664 0.623994 0.991923
Si Si4 0.396007 0.786198 0.359189
Si Si5 0.947781 0.149292 0.419246
Si Si6 0.740824 0.707198 0.560492
Si Si7 0.862426 0.662483 0.811525
Si Si8 0.422748 0.488463 0.503031
O O1 0.739713 0.752360 0.968854
O O2 0.936176 0.975054 0.245724
O O3 0.829011 0.847203 0.954210
O O4 0.000000 0.500000 0.000000
O O5 0.317169 0.171374 0.894009
O O6 0.129209 0.079256 0.573127
O O7 0.155911 0.904918 0.634839
O O8 0.401134 0.725870 0.663681
O O9 0.947532 0.503712 0.114674
O O10 0.692019 0.403889 0.825565
O O11 0.560523 0.705857 0.411344
O O12 0.465973 0.758027 0.490129
O O13 0.282038 0.059119 0.383088
O O14 0.860577 0.443094 0.491042
O O15 0.801751 0.748214 0.720349
O O16 0.758504 0.503355 0.656440
O O17 0.500000 0.500000 0.500000
#
# Coordination Sequence:
#
# PCOD9034783 Si02
#       8
#     2   2   2   2   2   2   2   2
#     4   9  18  29  54  87 114 133 173 235 288 316
#     4  10  17  32  57  85 110 140 191 231 283 325
#     4  10  19  33  57  87 112 137 187 245 275 321
#     4  10  22  36  55  83 113 150 188 224 278 342
#     4  10  17  34  60  84 109 150 185 233 272 333
#     4  10  20  39  59  76 114 157 188 220 274 347
#     4  10  18  36  56  84 108 149 184 224 282 321
#     4  11  21  36  57  81 117 151 181 229 287 340
#
# _framework density 18.546406999999999
#
# number of rings (size 3 to 8) (size 9 to 14) (size 15 to 20)
#    0.000    2.000    3.750    3.000    0.000    2.000 
#    2.250    0.000    2.750    6.000    0.000    0.000 
#    0.000    0.000    0.000    0.000    0.000    0.000 
#
# Total GULP energy -89164.983627 kJ/mol
# GULP energy per Si atom -5572.811477 kJ/mol
# Density = 1.850419 g / cm^3
# Si number density = 18.546407 Si / 1000 Ang^3
#
#
#
# Elastic Constant Matrix: (Units=GPa)
#
#
# Indices 1 2 3 4 5 6 
#
# 1 58.8000 29.2479 34.5529 7.9820 -12.6271 5.3978
# 2 29.2479 106.5224 41.0271 7.4050 -9.9979 14.9820
# 3 34.5529 41.0271 95.4204 11.1714 -14.7232 1.0829
# 4 7.9820 7.4050 11.1714 25.5955 -10.6050 1.9583
# 5 -12.6271 -9.9979 -14.7232 -10.6050 31.8493 4.3475
# 6 5.3978 14.9820 1.0829 1.9583 4.3475 18.1925
#
#
#
# Elastic Compliance Matrix: (Units=1/GPa)
#
#
# Indices 1 2 3 4 5 6 
#
# 1 0.024140 -0.002643 -0.006465 -0.000881 0.006279 -0.006007
# 2 -0.002643 0.013559 -0.004395 0.000883 0.002962 -0.010923
# 3 -0.006465 -0.004395 0.015245 -0.003127 0.001432 0.004625
# 4 -0.000881 0.000883 -0.003127 0.047607 0.015581 -0.009127
# 5 0.006279 0.002962 0.001432 0.015581 0.042894 -0.016315
# 6 -0.006007 -0.010923 0.004625 -0.009127 -0.016315 0.070352
#
#
# Mechanical properties :
#
#
# Convention : Reuss Voigt Hill
#
# Bulk Modulus (GPa) = 38.55295 52.26650 45.40972
# Shear Modulus (GPa) = 20.04415 25.52178 22.78297
#
# Velocity S-wave (km/s) = 3.29105 3.71361 3.50870
# Velocity P-wave (km/s) = 5.93917 6.82865 6.39939
#
# Compressibility (1/GPa) = 0.02593835
#
# Stress axis : x y z
#
# Youngs Moduli (GPa) = 41.42553 73.75110 65.59367
#
# Poissons Ratio (x) = 0.19490 0.42406
# Poissons Ratio (y) = 0.10947 0.28831
# Poissons Ratio (z) = 0.26781 0.32416
#
# Static dielectric constant tensor:
#      x y z
#    x 1.652520 0.002170 -0.022640 
#    y 0.002170 1.662650 -0.028890 
#    z -0.022640 -0.028890 1.728520 
# 
# From -- ./inp_files/274658.got.cif
#   From: 2010.05.17/outbox.cif.g08.bks.cpg/sg2_138_cif.got.tgz:274658.got - 2010.06.03 11:33:40.
