data_PCOD9034339
_publ_section_title
;
Structure prediction by ZEFSAII (Michael W. Deem and Ramdas Pophale) SiO2 
 PCOD9034339
Probable space group: P -1
;
_chemical_formula_sum "Si O2"
_cell_formula_units_Z 12
_cell_length_a 8.732024
_cell_length_b 8.133368
_cell_length_c 14.555787
_cell_angle_alpha 99.951433
_cell_angle_beta 139.157828
_cell_angle_gamma 108.931746
_cell_volume 471.159859
_symmetry_space_group_name_H-M "P -1"
_symmetry_group_IT_number 2
_symmetry_cell_setting 'triclinic'
loop_
_space_group_symop_operation_xyz
x,y,z
-x,-y,-z
loop_
_atom_site_type_symbol
_atom_site_label
_atom_site_fract_x
_atom_site_fract_y
_atom_site_fract_z
Si Si1 0.915856 0.513275 0.178353
Si Si2 0.839958 0.716988 0.799090
Si Si3 0.112290 0.739556 0.107873
Si Si4 0.168411 0.012991 0.798512
Si Si5 0.877380 0.134963 0.543212
Si Si6 0.102154 0.376707 0.490395
O O1 0.122065 0.454745 0.236254
O O2 0.944318 0.664684 0.124230
O O3 0.054698 0.665796 0.347215
O O4 0.538364 0.267374 0.992519
O O5 0.457354 0.564848 0.622988
O O6 0.015269 0.913932 0.819771
O O7 0.005323 0.805813 0.983427
O O8 0.503462 0.943695 0.319831
O O9 0.000000 0.500000 0.000000
O O10 0.151887 0.827401 0.718851
O O11 0.953788 0.024489 0.636860
O O12 0.110453 0.257334 0.571316
O O13 0.000000 0.500000 0.500000
#
# Coordination Sequence:
#
# PCOD9034339 Si02
#       6
#     2   2   2   2   2   2
#     4  11  24  47  75 110 147 193 244 299 363 438
#     4  11  25  48  75 107 147 193 243 304 366 430
#     4  10  22  44  73 105 143 190 238 294 361 431
#     4  12  25  48  76 109 149 193 241 304 365 432
#     4  12  26  47  75 110 148 194 243 298 364 441
#     4  12  27  48  74 109 146 193 248 305 364 432
#
# _framework density 25.469062000000001
#
# number of rings (size 3 to 8) (size 9 to 14) (size 15 to 20)
#    0.000    0.667    0.000    8.500    0.000    4.000 
#    0.000    6.667    0.000    0.000    0.000    0.000 
#    0.000    0.000    0.000    0.000    0.000    0.000 
#
# Total GULP energy -67396.565906 kJ/mol
# GULP energy per Si atom -5616.380492 kJ/mol
# Density = 2.541109 g / cm^3
# Si number density = 25.469062 Si / 1000 Ang^3
#
#
#
# Elastic Constant Matrix: (Units=GPa)
#
#
# Indices 1 2 3 4 5 6 
#
# 1 152.5369 72.2307 68.9246 14.4849 -3.7029 33.6739
# 2 72.2307 144.0108 44.0854 -15.7345 1.0024 24.0957
# 3 68.9246 44.0854 155.0337 16.0020 -10.6975 -5.8853
# 4 14.4849 -15.7345 16.0020 40.1666 11.1007 -13.0328
# 5 -3.7029 1.0024 -10.6975 11.1007 39.0681 1.1963
# 6 33.6739 24.0957 -5.8853 -13.0328 1.1963 56.9656
#
#
#
# Elastic Compliance Matrix: (Units=1/GPa)
#
#
# Indices 1 2 3 4 5 6 
#
# 1 0.013442 -0.005259 -0.003639 -0.009020 0.003227 -0.008229
# 2 -0.005259 0.011023 -0.001862 0.007993 -0.003567 0.000157
# 3 -0.003639 -0.001862 0.009218 -0.002875 0.002947 0.003172
# 4 -0.009020 0.007993 -0.002875 0.039726 -0.013472 0.011025
# 5 0.003227 -0.003567 0.002947 -0.013472 0.030746 -0.003822
# 6 -0.008229 0.000157 0.003172 0.011025 -0.003822 0.025282
#
#
# Mechanical properties :
#
#
# Convention : Reuss Voigt Hill
#
# Bulk Modulus (GPa) = 82.21521 91.34031 86.77776
# Shear Modulus (GPa) = 32.25566 44.99611 38.62589
#
# Velocity S-wave (km/s) = 3.56260 4.20777 3.89855
# Velocity P-wave (km/s) = 7.01950 7.71675 7.37637
#
# Compressibility (1/GPa) = 0.01216320
#
# Stress axis : x y z
#
# Youngs Moduli (GPa) = 74.39438 90.71560 108.48387
#
# Poissons Ratio (x) = 0.47708 0.39480
# Poissons Ratio (y) = 0.39124 0.20197
# Poissons Ratio (z) = 0.27074 0.16889
#
# Static dielectric constant tensor:
#      x y z
#    x 2.005420 -0.026540 -0.044840 
#    y -0.026540 2.111300 -0.042670 
#    z -0.044840 -0.042670 1.923670 
# 
# From -- ./inp_files/333724.got.cif
#   From: 2010.05.17/outbox.cif.g08.bks.cpg/sg2_167_cif.got.tgz:333724.got - 2010.06.03 11:33:40.
