data_PCOD9034035
_publ_section_title
;
Structure prediction by ZEFSAII (Michael W. Deem and Ramdas Pophale) SiO2 
 PCOD9034035
Probable space group: P -1
;
_chemical_formula_sum "Si O2"
_cell_formula_units_Z 16
_cell_length_a 17.565416
_cell_length_b 8.392602
_cell_length_c 10.178434
_cell_angle_alpha 124.181658
_cell_angle_beta 150.601571
_cell_angle_gamma 62.795835
_cell_volume 607.399709
_symmetry_space_group_name_H-M "P -1"
_symmetry_group_IT_number 2
_symmetry_cell_setting 'triclinic'
loop_
_space_group_symop_operation_xyz
x,y,z
-x,-y,-z
loop_
_atom_site_type_symbol
_atom_site_label
_atom_site_fract_x
_atom_site_fract_y
_atom_site_fract_z
Si Si1 0.422557 0.380345 0.209803
Si Si2 0.173676 0.630439 0.999250
Si Si3 0.596755 0.439118 0.241339
Si Si4 0.113083 0.552673 0.453144
Si Si5 0.862485 0.056221 0.720338
Si Si6 0.514360 0.953010 0.201690
Si Si7 0.303417 0.870752 0.071871
Si Si8 0.958618 0.880978 0.249969
O O1 0.500000 0.500000 0.500000
O O2 0.245205 0.430883 0.977448
O O3 0.504114 0.475593 0.248468
O O4 0.456151 0.159511 0.173295
O O5 0.180183 0.728199 0.198435
O O6 0.273100 0.785813 0.131133
O O7 0.989026 0.600260 0.683796
O O8 0.769268 0.527107 0.511675
O O9 0.500000 0.500000 0.000000
O O10 0.589465 0.206119 0.112240
O O11 0.208875 0.704848 0.762531
O O12 0.992450 0.665147 0.238087
O O13 0.930880 0.054616 0.676558
O O14 0.695330 0.936990 0.432843
O O15 0.000000 0.000000 0.000000
O O16 0.467930 0.908298 0.263535
O O17 0.214261 0.065781 0.019229
O O18 0.000000 0.000000 0.500000
#
# Coordination Sequence:
#
# PCOD9034035 Si02
#       8
#     2   2   2   2   2   2   2   2
#     4  12  25  48  72 111 150 188 245 304 368 434
#     4  12  25  45  69 107 150 188 239 306 366 431
#     4  11  26  48  74 109 143 196 249 298 363 438
#     4  10  23  42  69 101 140 186 238 297 359 428
#     4  12  26  46  70 107 145 190 243 301 369 430
#     4  11  25  48  77 104 149 198 244 302 362 440
#     4  10  22  45  70 107 136 190 244 295 364 427
#     4  10  22  44  71 100 139 184 243 291 358 437
#
# _framework density 26.341799000000002
#
# number of rings (size 3 to 8) (size 9 to 14) (size 15 to 20)
#    0.000    1.000    2.500    3.750    1.750    6.000 
#    4.500    0.000    0.000    0.000    0.000    0.000 
#    0.000    0.000    0.000    0.000    0.000    0.000 
#
# Total GULP energy -89590.573313 kJ/mol
# GULP energy per Si atom -5599.410832 kJ/mol
# Density = 2.628184 g / cm^3
# Si number density = 26.341799 Si / 1000 Ang^3
#
#
#
# Elastic Constant Matrix: (Units=GPa)
#
#
# Indices 1 2 3 4 5 6 
#
# 1 256.7287 32.0689 55.9424 -7.5719 41.1869 9.0591
# 2 32.0689 99.4610 8.3002 -10.2330 4.8364 0.1114
# 3 55.9424 8.3002 85.2648 0.3169 42.2228 6.1892
# 4 -7.5719 -10.2330 0.3169 31.2970 -7.5482 5.9726
# 5 41.1869 4.8364 42.2228 -7.5482 53.9220 -1.2095
# 6 9.0591 0.1114 6.1892 5.9726 -1.2095 37.0699
#
#
#
# Elastic Compliance Matrix: (Units=1/GPa)
#
#
# Indices 1 2 3 4 5 6 
#
# 1 0.004857 -0.001249 -0.002021 0.000502 -0.001968 -0.000991
# 2 -0.001249 0.010833 -0.000773 0.003533 0.001079 -0.000132
# 3 -0.002021 -0.000773 0.021024 -0.004147 -0.015495 -0.002851
# 4 0.000502 0.003533 -0.004147 0.036029 0.007479 -0.005002
# 5 -0.001968 0.001079 -0.015495 0.007479 0.033197 0.002943
# 6 -0.000991 -0.000132 -0.002851 -0.005002 0.002943 0.028596
#
#
# Mechanical properties :
#
#
# Convention : Reuss Voigt Hill
#
# Bulk Modulus (GPa) = 34.93018 70.45304 52.69161
# Shear Modulus (GPa) = 32.85922 47.46733 40.16327
#
# Velocity S-wave (km/s) = 3.53571 4.24958 3.90897
# Velocity P-wave (km/s) = 5.47334 7.13318 6.35766
#
# Compressibility (1/GPa) = 0.02862853
#
# Stress axis : x y z
#
# Youngs Moduli (GPa) = 205.89270 92.31420 47.56365
#
# Poissons Ratio (x) = 0.11530 0.09611
# Poissons Ratio (y) = 0.25715 0.03677
# Poissons Ratio (z) = 0.41604 0.07136
#
# Static dielectric constant tensor:
#      x y z
#    x 2.430810 -0.749330 0.484000 
#    y -0.749330 3.779750 -1.020570 
#    z 0.484000 -1.020570 2.767220 
# 
# From -- ./inp_files/461592.got.cif
#   From: 2010.05.17/outbox.cif.g08.bks.cpg/sg2_231_cif.got.tgz:461592.got - 2010.06.03 11:33:40.
