data_PCOD9034717
_publ_section_title
;
Structure prediction by ZEFSAII (Michael W. Deem and Ramdas Pophale) SiO2 
 PCOD9034717
Probable space group: P -1
;
_chemical_formula_sum "Si O2"
_cell_formula_units_Z 14
_cell_length_a 7.657587
_cell_length_b 21.541171
_cell_length_c 9.413119
_cell_angle_alpha 152.497175
_cell_angle_beta 70.831333
_cell_angle_gamma 118.271524
_cell_volume 615.216577
_symmetry_space_group_name_H-M "P -1"
_symmetry_group_IT_number 2
_symmetry_cell_setting 'triclinic'
loop_
_space_group_symop_operation_xyz
x,y,z
-x,-y,-z
loop_
_atom_site_type_symbol
_atom_site_label
_atom_site_fract_x
_atom_site_fract_y
_atom_site_fract_z
Si Si1 0.457856 0.941606 0.235709
Si Si2 0.387075 0.275725 0.156027
Si Si3 0.039845 0.551561 0.430145
Si Si4 0.675513 0.968799 0.967783
Si Si5 0.062738 0.876848 0.039348
Si Si6 0.569101 0.369245 0.708332
Si Si7 0.363150 0.570022 0.865127
O O1 0.262121 0.956571 0.248835
O O2 0.500000 0.000000 0.500000
O O3 0.450189 0.776762 0.924202
O O4 0.650701 0.013115 0.224107
O O5 0.368345 0.406877 0.521284
O O6 0.460835 0.336099 0.101352
O O7 0.166146 0.139623 0.917282
O O8 0.241050 0.573556 0.333977
O O9 0.000000 0.500000 0.500000
O O10 0.845076 0.441876 0.172383
O O11 0.033827 0.710109 0.735270
O O12 0.600989 0.791968 0.617201
O O13 0.872289 0.061643 0.012252
O O14 0.500000 0.000000 0.000000
O O15 0.500000 0.500000 0.000000
O O16 0.622153 0.361381 0.844284
#
# Coordination Sequence:
#
# PCOD9034717 Si02
#       7
#     2   2   2   2   2   2   2
#     4  11  23  40  66  96 131 180 231 279 341 420
#     4  10  23  43  67 101 143 169 237 288 345 408
#     4  11  23  44  71  99 142 184 228 287 357 411
#     4  10  22  45  67  94 140 182 226 286 350 410
#     4  10  23  44  70  93 140 189 217 286 358 404
#     4  12  25  42  73 106 137 179 240 287 347 422
#     4  10  24  41  70  99 134 184 229 286 345 421
#
# _framework density 22.756212999999999
#
# number of rings (size 3 to 8) (size 9 to 14) (size 15 to 20)
#    0.000    1.429    2.857    2.143   10.000    1.143 
#    0.000    0.000    0.000    0.000    0.000    0.000 
#    0.000    0.000    0.000    0.000    0.000    0.000 
#
# Total GULP energy -78084.042395 kJ/mol
# GULP energy per Si atom -5577.431600 kJ/mol
# Density = 2.270442 g / cm^3
# Si number density = 22.756213 Si / 1000 Ang^3
#
#
#
# Elastic Constant Matrix: (Units=GPa)
#
#
# Indices 1 2 3 4 5 6 
#
# 1 63.9344 31.5537 10.0880 -8.5677 8.0367 4.8223
# 2 31.5537 196.0105 52.1871 -19.4072 20.8918 5.6625
# 3 10.0880 52.1871 64.5408 -20.8982 4.2865 -3.7075
# 4 -8.5677 -19.4072 -20.8982 43.5573 -14.8266 5.6932
# 5 8.0367 20.8918 4.2865 -14.8266 38.2876 0.8783
# 6 4.8223 5.6625 -3.7075 5.6932 0.8783 37.8278
#
#
#
# Elastic Compliance Matrix: (Units=1/GPa)
#
#
# Indices 1 2 3 4 5 6 
#
# 1 0.017453 -0.002326 -0.000202 0.002066 -0.001522 -0.002172
# 2 -0.002326 0.007262 -0.005640 -0.000849 -0.003146 -0.001142
# 3 -0.000202 -0.005640 0.023052 0.009761 0.004283 0.001561
# 4 0.002066 -0.000849 0.009761 0.032137 0.011480 -0.004283
# 5 -0.001522 -0.003146 0.004283 0.011480 0.032152 -0.001390
# 6 -0.002172 -0.001142 0.001561 -0.004283 -0.001390 0.027713
#
#
# Mechanical properties :
#
#
# Convention : Reuss Voigt Hill
#
# Bulk Modulus (GPa) = 31.81627 56.90481 44.36054
# Shear Modulus (GPa) = 30.01506 39.31166 34.66336
#
# Velocity S-wave (km/s) = 3.63572 4.16085 3.90712
# Velocity P-wave (km/s) = 5.62462 6.93859 6.31587
#
# Compressibility (1/GPa) = 0.03143046
#
# Stress axis : x y z
#
# Youngs Moduli (GPa) = 57.29699 137.70061 43.37990
#
# Poissons Ratio (x) = 0.32035 0.00875
# Poissons Ratio (y) = 0.13330 0.24467
# Poissons Ratio (z) = 0.01156 0.77666
#
# Static dielectric constant tensor:
#      x y z
#    x 1.946430 -0.044920 0.042330 
#    y -0.044920 1.891080 0.053890 
#    z 0.042330 0.053890 1.924980 
# 
# From -- ./inp_files/201945.got.cif
#   From: 2010.05.17/outbox.cif.g08.bks.cpg/sg2_101_cif.got.tgz:201945.got - 2010.06.03 11:33:40.
