data_PCOD9034845
_publ_section_title
;
Structure prediction by ZEFSAII (Michael W. Deem and Ramdas Pophale) SiO2 
 PCOD9034845
Probable space group: P -1
;
_chemical_formula_sum "Si O2"
_cell_formula_units_Z 12
_cell_length_a 14.873870
_cell_length_b 23.646017
_cell_length_c 6.702803
_cell_angle_alpha 52.968536
_cell_angle_beta 115.628538
_cell_angle_gamma 160.351359
_cell_volume 547.432921
_symmetry_space_group_name_H-M "P -1"
_symmetry_group_IT_number 2
_symmetry_cell_setting 'triclinic'
loop_
_space_group_symop_operation_xyz
x,y,z
-x,-y,-z
loop_
_atom_site_type_symbol
_atom_site_label
_atom_site_fract_x
_atom_site_fract_y
_atom_site_fract_z
Si Si1 0.402379 0.516819 0.354913
Si Si2 0.335464 0.710578 0.294472
Si Si3 0.651010 0.818928 0.122279
Si Si4 0.775792 0.996838 0.485071
Si Si5 0.685485 0.052344 0.608689
Si Si6 0.146485 0.169247 0.191511
O O1 0.500000 0.500000 0.500000
O O2 0.593451 0.697114 0.302372
O O3 0.042422 0.292988 0.514550
O O4 0.513421 0.610536 0.037416
O O5 0.353872 0.654802 0.286976
O O6 0.534773 0.831256 0.426473
O O7 0.000000 0.500000 0.500000
O O8 0.486834 0.874111 0.957498
O O9 0.712345 0.893300 0.807041
O O10 0.929397 0.032571 0.077056
O O11 0.726019 0.034783 0.480271
O O12 0.093495 0.194329 0.251755
O O13 0.500000 0.000000 0.500000
O O14 0.000000 0.000000 0.500000
#
# Coordination Sequence:
#
# PCOD9034845 Si02
#       6
#     2   2   2   2   2   2
#     4  12  25  44  69 103 145 178 220 292 352 396
#     4  10  24  45  72  94 128 190 242 271 333 423
#     4  10  23  42  70 100 135 179 236 284 336 408
#     4  10  22  45  68  98 136 180 235 279 333 421
#     4  11  28  46  67 105 147 175 223 293 356 397
#     4  11  23  42  71 100 130 182 240 271 333 420
#
# _framework density 21.920494000000001
#
# number of rings (size 3 to 8) (size 9 to 14) (size 15 to 20)
#    0.000    1.333    1.667    3.500    7.000    2.667 
#    6.000    0.000    0.000    0.000    0.000    0.000 
#    0.000    0.000    0.000    0.000    0.000    0.000 
#
# Total GULP energy -66995.546299 kJ/mol
# GULP energy per Si atom -5582.962192 kJ/mol
# Density = 2.187060 g / cm^3
# Si number density = 21.920494 Si / 1000 Ang^3
#
#
#
# Elastic Constant Matrix: (Units=GPa)
#
#
# Indices 1 2 3 4 5 6 
#
# 1 170.1439 47.2634 62.9030 -10.2279 -7.9270 3.8791
# 2 47.2634 65.8012 40.4721 1.7064 -8.6521 8.4198
# 3 62.9030 40.4721 120.8986 1.9579 -18.6445 7.4923
# 4 -10.2279 1.7064 1.9579 41.2515 11.7521 -12.1273
# 5 -7.9270 -8.6521 -18.6445 11.7521 52.2261 -3.1401
# 6 3.8791 8.4198 7.4923 -12.1273 -3.1401 39.2996
#
#
#
# Elastic Compliance Matrix: (Units=1/GPa)
#
#
# Indices 1 2 3 4 5 6 
#
# 1 0.008428 -0.004539 -0.003216 0.003278 -0.001258 0.001665
# 2 -0.004539 0.022080 -0.004393 -0.003692 0.001965 -0.004427
# 3 -0.003216 -0.004393 0.012115 -0.002690 0.003619 -0.001592
# 4 0.003278 -0.003692 -0.002690 0.030278 -0.007302 0.009740
# 5 -0.001258 0.001965 0.003619 -0.007302 0.022129 -0.001472
# 6 0.001665 -0.004427 -0.001592 0.009740 -0.001472 0.029421
#
#
# Mechanical properties :
#
#
# Convention : Reuss Voigt Hill
#
# Bulk Modulus (GPa) = 54.56052 73.12453 63.84253
# Shear Modulus (GPa) = 32.28831 40.30245 36.29538
#
# Velocity S-wave (km/s) = 3.84210 4.29251 4.07353
# Velocity P-wave (km/s) = 6.68031 7.61570 7.16329
#
# Compressibility (1/GPa) = 0.01832827
#
# Stress axis : x y z
#
# Youngs Moduli (GPa) = 118.65897 45.29004 82.54043
#
# Poissons Ratio (x) = 0.20557 0.26542
# Poissons Ratio (y) = 0.53858 0.36257
# Poissons Ratio (z) = 0.38156 0.19895
#
# Static dielectric constant tensor:
#      x y z
#    x 1.862540 0.034600 0.004090 
#    y 0.034600 1.861500 -0.010470 
#    z 0.004090 -0.010470 1.825240 
# 
# From -- ./inp_files/30974.got.cif
#   From: 2010.05.17/outbox.cif.g08.bks.cpg/sg2_16_cif.got.tgz:30974.got - 2010.06.03 11:33:40.
