data_PCOD9034064
_publ_section_title
;
Structure prediction by ZEFSAII (Michael W. Deem and Ramdas Pophale) SiO2 
 PCOD9034064
Probable space group: P -1
;
_chemical_formula_sum "Si O2"
_cell_formula_units_Z 13
_cell_length_a 5.198687
_cell_length_b 11.139025
_cell_length_c 11.136526
_cell_angle_alpha 64.466522
_cell_angle_beta 99.949400
_cell_angle_gamma 96.800166
_cell_volume 572.460308
_symmetry_space_group_name_H-M "P -1"
_symmetry_group_IT_number 2
_symmetry_cell_setting 'triclinic'
loop_
_space_group_symop_operation_xyz
x,y,z
-x,-y,-z
loop_
_atom_site_type_symbol
_atom_site_label
_atom_site_fract_x
_atom_site_fract_y
_atom_site_fract_z
Si Si1 0.285295 0.531410 0.063997
Si Si2 0.572058 0.217877 0.885134
Si Si3 0.688439 0.617105 0.620272
Si Si4 0.781969 0.369258 0.602548
Si Si5 0.725654 0.929253 0.474115
Si Si6 0.877832 0.881499 0.249865
Si Si7 0.000000 0.000000 0.000000
O O1 0.359272 0.681279 0.047278
O O2 0.317495 0.443913 0.222768
O O3 0.500000 0.500000 0.000000
O O4 0.000000 0.500000 0.000000
O O5 0.610082 0.301605 0.727943
O O6 0.278484 0.150880 0.876644
O O7 0.777850 0.107672 0.955647
O O8 0.862884 0.515814 0.599530
O O9 0.411022 0.611518 0.531497
O O10 0.752342 0.773230 0.570505
O O11 0.988599 0.255721 0.647071
O O12 0.708642 0.929144 0.326557
O O13 0.500000 0.000000 0.500000
O O14 0.000000 0.000000 0.500000
O O15 0.066759 0.995117 0.160384
#
# Coordination Sequence:
#
# PCOD9034064 Si02
#       7
#     2   2   2   2   2   2   1
#     4  11  28  47  70 107 150 185 241 303 370 445
#     4  10  22  44  71 102 137 187 244 302 350 439
#     4  10  22  47  73 103 141 194 238 302 380 418
#     4   9  20  42  75 108 130 175 252 313 352 421
#     4  12  28  47  69 106 152 192 240 299 367 444
#     4  11  23  44  73 104 146 183 259 297 361 435
#     4  10  24  40  72 100 144 196 242 296 360 416
#
# _framework density 22.709
#
# number of rings (size 3 to 8) (size 9 to 14) (size 15 to 20)
#    0.000    1.538    1.538    1.385    8.615    5.538 
#    2.769    0.000    0.000    0.000    0.000    0.000 
#    0.000    0.000    0.000    0.000    0.000    0.000 
#
# Total GULP energy -72404.019986 kJ/mol
# GULP energy per Si atom -5569.539999 kJ/mol
# Density = 2.265731 g / cm^3
# Si number density = 22.709000 Si / 1000 Ang^3
#
#
#
# Elastic Constant Matrix: (Units=GPa)
#
#
# Indices 1 2 3 4 5 6 
#
# 1 128.1861 71.8589 38.0928 23.1544 20.6169 -24.1919
# 2 71.8589 130.5199 64.6949 16.9968 8.9890 -10.2177
# 3 38.0928 64.6949 150.5180 -0.0064 11.8534 -24.2971
# 4 23.1544 16.9968 -0.0064 43.0755 -4.6347 -1.7193
# 5 20.6169 8.9890 11.8534 -4.6347 37.3858 5.6288
# 6 -24.1919 -10.2177 -24.2971 -1.7193 5.6288 46.1466
#
#
#
# Elastic Compliance Matrix: (Units=1/GPa)
#
#
# Indices 1 2 3 4 5 6 
#
# 1 0.015550 -0.007033 0.001118 -0.006254 -0.009230 0.008076
# 2 -0.007033 0.013697 -0.004882 -0.001500 0.002486 -0.003584
# 3 0.001118 -0.004882 0.009493 0.001196 -0.003045 0.004919
# 4 -0.006254 -0.001500 0.001196 0.027842 0.007309 -0.002836
# 5 -0.009230 0.002486 -0.003045 0.007309 0.034593 -0.009838
# 6 0.008076 -0.003584 0.004919 -0.002836 -0.009838 0.028795
#
#
# Mechanical properties :
#
#
# Convention : Reuss Voigt Hill
#
# Bulk Modulus (GPa) = 58.32182 84.27970 71.30076
# Shear Modulus (GPa) = 31.79078 40.96007 36.37543
#
# Velocity S-wave (km/s) = 3.74561 4.25160 4.00660
# Velocity P-wave (km/s) = 6.66664 7.82911 7.27114
#
# Compressibility (1/GPa) = 0.01714624
#
# Stress axis : x y z
#
# Youngs Moduli (GPa) = 64.30997 73.00919 105.34108
#
# Poissons Ratio (x) = 0.51345 -0.11774
# Poissons Ratio (y) = 0.45227 0.51424
# Poissons Ratio (z) = -0.07188 0.35640
#
# Static dielectric constant tensor:
#      x y z
#    x 1.849210 -0.134060 -0.019300 
#    y -0.134060 1.876150 0.191150 
#    z -0.019300 0.191150 1.843230 
# 
# From -- ./inp_files/108445.got.cif
#   From: 2010.05.17/outbox.cif.g08.bks.cpg/sg2_55_cif.got.tgz:108445.got - 2010.06.03 11:33:40.
