data_PCOD9034007
_publ_section_title
;
Structure prediction by ZEFSAII (Michael W. Deem and Ramdas Pophale) SiO2 
 PCOD9034007
Probable space group: P -1
;
_chemical_formula_sum "Si O2"
_cell_formula_units_Z 14
_cell_length_a 18.369997
_cell_length_b 8.721004
_cell_length_c 8.789683
_cell_angle_alpha 119.116976
_cell_angle_beta 147.380990
_cell_angle_gamma 62.852971
_cell_volume 659.908243
_symmetry_space_group_name_H-M "P -1"
_symmetry_group_IT_number 2
_symmetry_cell_setting 'triclinic'
loop_
_space_group_symop_operation_xyz
x,y,z
-x,-y,-z
loop_
_atom_site_type_symbol
_atom_site_label
_atom_site_fract_x
_atom_site_fract_y
_atom_site_fract_z
Si Si1 0.150766 0.423865 0.049209
Si Si2 0.547368 0.668482 0.575241
Si Si3 0.490049 0.039494 0.823206
Si Si4 0.746302 0.664591 0.480649
Si Si5 0.008507 0.338587 0.313881
Si Si6 0.358491 0.694446 0.963315
Si Si7 0.945955 0.181905 0.419867
O O1 0.291762 0.358495 0.184149
O O2 0.172427 0.391037 0.249391
O O3 0.104087 0.617860 0.993985
O O4 0.028869 0.318109 0.725230
O O5 0.500000 0.500000 0.500000
O O6 0.510514 0.852233 0.685095
O O7 0.471221 0.683206 0.287205
O O8 0.348498 0.152973 0.586425
O O9 0.601181 0.167816 0.025427
O O10 0.500000 0.000000 0.000000
O O11 0.656258 0.502827 0.215151
O O12 0.847834 0.678162 0.524755
O O13 0.981246 0.182171 0.303127
O O14 0.000000 0.500000 0.500000
O O15 0.212979 0.765453 0.811319
O O16 0.000000 0.000000 0.500000
#
# Coordination Sequence:
#
# PCOD9034007 Si02
#       7
#     2   2   2   2   2   2   2
#     4  11  24  46  72 103 144 188 247 292 363 424
#     4  12  27  47  76 104 144 194 241 296 368 434
#     4  12  29  45  73 110 149 185 242 306 360 431
#     4  12  25  46  73 108 145 188 244 302 358 425
#     4  10  22  44  70  99 138 193 235 287 355 428
#     4  12  25  48  72 106 146 190 243 291 371 430
#     4  11  25  43  73 101 145 194 241 291 358 430
#
# _framework density 21.215070999999998
#
# number of rings (size 3 to 8) (size 9 to 14) (size 15 to 20)
#    0.000    0.571    4.286    3.857   12.000    0.000 
#    0.000    0.714    0.000    0.000    0.000    0.000 
#    0.000    0.000    0.000    0.000    0.000    0.000 
#
# Total GULP energy -78297.386434 kJ/mol
# GULP energy per Si atom -5592.670460 kJ/mol
# Density = 2.116678 g / cm^3
# Si number density = 21.215071 Si / 1000 Ang^3
#
#
#
# Elastic Constant Matrix: (Units=GPa)
#
#
# Indices 1 2 3 4 5 6 
#
# 1 159.4396 51.3735 37.8094 -3.8012 10.7891 27.2454
# 2 51.3735 116.6337 18.0346 -6.8818 7.1392 17.9346
# 3 37.8094 18.0346 76.5550 -18.9780 2.4267 7.0841
# 4 -3.8012 -6.8818 -18.9780 22.9660 -1.9998 -7.7456
# 5 10.7891 7.1392 2.4267 -1.9998 42.8148 -14.9419
# 6 27.2454 17.9346 7.0841 -7.7456 -14.9419 44.3425
#
#
#
# Elastic Compliance Matrix: (Units=1/GPa)
#
#
# Indices 1 2 3 4 5 6 
#
# 1 0.009460 -0.002518 -0.004751 -0.005653 -0.004206 -0.006440
# 2 -0.002518 0.010446 -0.000623 0.000961 -0.002117 -0.003124
# 3 -0.004751 -0.000623 0.019189 0.016339 0.002277 0.003727
# 4 -0.005653 0.000961 0.016339 0.061828 0.008115 0.014009
# 5 -0.004206 -0.002117 0.002277 0.008115 0.030131 0.014648
# 6 -0.006440 -0.003124 0.003727 0.014009 0.014648 0.034560
#
#
# Mechanical properties :
#
#
# Convention : Reuss Voigt Hill
#
# Bulk Modulus (GPa) = 42.89791 63.00701 52.95246
# Shear Modulus (GPa) = 26.43128 38.38538 32.40833
#
# Velocity S-wave (km/s) = 3.53352 4.25825 3.91270
# Velocity P-wave (km/s) = 6.07553 7.34443 6.73991
#
# Compressibility (1/GPa) = 0.02331116
#
# Stress axis : x y z
#
# Youngs Moduli (GPa) = 105.70326 95.73089 52.11246
#
# Poissons Ratio (x) = 0.24106 0.24760
# Poissons Ratio (y) = 0.26618 0.03245
# Poissons Ratio (z) = 0.50223 0.05962
#
# Static dielectric constant tensor:
#      x y z
#    x 1.754020 -0.012220 -0.009800 
#    y -0.012220 1.813900 0.000910 
#    z -0.009800 0.000910 1.741690 
# 
# From -- ./inp_files/156762.got.cif
#   From: 2010.05.17/outbox.cif.g08.bks.cpg/sg2_79_cif.got.tgz:156762.got - 2010.06.03 11:33:40.
