data_PCOD9034102
_publ_section_title
;
Structure prediction by ZEFSAII (Michael W. Deem and Ramdas Pophale) SiO2 
 PCOD9034102
Probable space group: P -1
;
_chemical_formula_sum "Si O2"
_cell_formula_units_Z 15
_cell_length_a 13.216758
_cell_length_b 4.752468
_cell_length_c 11.650337
_cell_angle_alpha 79.760078
_cell_angle_beta 107.299737
_cell_angle_gamma 68.649392
_cell_volume 616.145199
_symmetry_space_group_name_H-M "P -1"
_symmetry_group_IT_number 2
_symmetry_cell_setting 'triclinic'
loop_
_space_group_symop_operation_xyz
x,y,z
-x,-y,-z
loop_
_atom_site_type_symbol
_atom_site_label
_atom_site_fract_x
_atom_site_fract_y
_atom_site_fract_z
Si Si1 0.544989 0.293613 0.772998
Si Si2 0.674463 0.771740 0.197033
Si Si3 0.134077 0.451453 0.543183
Si Si4 0.226705 0.902898 0.442562
Si Si5 0.870127 0.039001 0.958534
Si Si6 0.675883 0.336270 0.041448
Si Si7 0.226651 0.290975 0.199772
Si Si8 0.500000 0.500000 0.500000
O O1 0.426673 0.257990 0.761147
O O2 0.594059 0.368216 0.901971
O O3 0.524735 0.533526 0.643693
O O4 0.642348 0.957870 0.776984
O O5 0.801689 0.564304 0.312566
O O6 0.653379 0.131297 0.146965
O O7 0.663761 0.655264 0.073513
O O8 0.145690 0.725030 0.451726
O O9 0.000000 0.500000 0.500000
O O10 0.215884 0.110102 0.537411
O O11 0.357736 0.645292 0.471517
O O12 0.191311 0.165984 0.311116
O O13 0.808221 0.134475 0.053567
O O14 0.793832 0.347815 0.830147
O O15 0.854624 0.742238 0.925892
O O16 0.000000 0.000000 0.000000
#
# Coordination Sequence:
#
# PCOD9034102 Si02
#       8
#     2   2   2   2   2   2   2   1
#     4  10  22  44  71 107 147 183 245 300 380 429
#     4  12  25  45  70 102 145 196 239 292 366 443
#     4  12  27  47  70 104 150 198 255 300 366 452
#     4  11  24  47  71 106 141 187 243 309 378 427
#     4  11  23  43  66  98 136 178 241 292 352 427
#     4  11  25  43  69 103 142 191 237 294 361 449
#     4  10  23  41  68 100 132 177 230 303 366 420
#     4  10  22  46  78 110 146 194 244 326 368 446
#
# _framework density 24.344913999999999
#
# number of rings (size 3 to 8) (size 9 to 14) (size 15 to 20)
#    0.000    1.067    1.333    4.800    0.000    5.867 
#    2.400    0.000    0.000    0.000    0.000    0.000 
#    0.000    0.000    0.000    0.000    0.000    0.000 
#
# Total GULP energy -83715.680923 kJ/mol
# GULP energy per Si atom -5581.045395 kJ/mol
# Density = 2.428950 g / cm^3
# Si number density = 24.344914 Si / 1000 Ang^3
#
#
#
# Elastic Constant Matrix: (Units=GPa)
#
#
# Indices 1 2 3 4 5 6 
#
# 1 135.5729 29.4181 44.8459 -4.6206 -1.2758 -11.1597
# 2 29.4181 56.3104 12.1407 7.9310 -3.8905 12.6450
# 3 44.8459 12.1407 101.4016 3.4169 -8.9209 -6.1110
# 4 -4.6206 7.9310 3.4169 20.6960 0.1994 -0.6869
# 5 -1.2758 -3.8905 -8.9209 0.1994 37.1657 -6.7969
# 6 -11.1597 12.6450 -6.1110 -0.6869 -6.7969 37.7138
#
#
#
# Elastic Compliance Matrix: (Units=1/GPa)
#
#
# Indices 1 2 3 4 5 6 
#
# 1 0.010690 -0.006666 -0.003870 0.005743 -0.000412 0.004801
# 2 -0.006666 0.025350 -0.000300 -0.011511 0.000468 -0.010646
# 3 -0.003870 -0.000300 0.012049 -0.002721 0.002998 0.001398
# 4 0.005743 -0.011511 -0.002721 0.054667 -0.000865 0.005958
# 5 -0.000412 0.000468 0.002998 -0.000865 0.028645 0.005354
# 6 0.004801 -0.010646 0.001398 0.005958 0.005354 0.032806
#
#
# Mechanical properties :
#
#
# Convention : Reuss Voigt Hill
#
# Bulk Modulus (GPa) = 37.85350 51.78826 44.82088
# Shear Modulus (GPa) = 25.68276 32.90711 29.29494
#
# Velocity S-wave (km/s) = 3.25153 3.68054 3.47267
# Velocity P-wave (km/s) = 5.44786 6.27541 5.87622
#
# Compressibility (1/GPa) = 0.02641764
#
# Stress axis : x y z
#
# Youngs Moduli (GPa) = 93.54737 39.44785 82.99479
#
# Poissons Ratio (x) = 0.26295 0.32119
# Poissons Ratio (y) = 0.62357 0.02487
# Poissons Ratio (z) = 0.36203 0.01182
#
# Static dielectric constant tensor:
#      x y z
#    x 1.889560 -0.003540 -0.001400 
#    y -0.003540 1.924120 -0.030630 
#    z -0.001400 -0.030630 1.948310 
# 
# From -- ./inp_files/409339.got.cif
#   From: 2010.05.17/outbox.cif.g08.bks.cpg/sg2_205_cif.got.tgz:409339.got - 2010.06.03 11:33:40.
