data_PCOD9034429
_publ_section_title
;
Structure prediction by ZEFSAII (Michael W. Deem and Ramdas Pophale) SiO2 
 PCOD9034429
Probable space group: P -1
;
_chemical_formula_sum "Si O2"
_cell_formula_units_Z 12
_cell_length_a 9.588731
_cell_length_b 9.601345
_cell_length_c 11.447139
_cell_angle_alpha 38.627508
_cell_angle_beta 53.035613
_cell_angle_gamma 77.292399
_cell_volume 454.993725
_symmetry_space_group_name_H-M "P -1"
_symmetry_group_IT_number 2
_symmetry_cell_setting 'triclinic'
loop_
_space_group_symop_operation_xyz
x,y,z
-x,-y,-z
loop_
_atom_site_type_symbol
_atom_site_label
_atom_site_fract_x
_atom_site_fract_y
_atom_site_fract_z
Si Si1 0.179228 0.535164 0.542516
Si Si2 0.550758 0.989400 0.314285
Si Si3 0.575083 0.594523 0.240229
Si Si4 0.646948 0.732254 0.858010
Si Si5 0.154831 0.908033 0.119564
Si Si6 0.903146 0.476290 0.937937
O O1 0.404940 0.597979 0.404096
O O2 0.056554 0.514962 0.732019
O O3 0.174224 0.745290 0.322180
O O4 0.067356 0.262891 0.708210
O O5 0.364199 0.033078 0.348587
O O6 0.695755 0.066411 0.076647
O O7 0.701019 0.195711 0.199468
O O8 0.468708 0.690475 0.573620
O O9 0.555249 0.695576 0.057313
O O10 0.785584 0.813092 0.044129
O O11 0.500000 0.500000 0.000000
O O12 0.837123 0.692761 0.808663
O O13 0.000000 0.500000 0.000000
#
# Coordination Sequence:
#
# PCOD9034429 Si02
#       6
#     2   2   2   2   2   2
#     4  10  23  45  79 109 147 196 249 319 362 446
#     4  10  23  45  78 109 146 195 254 308 369 446
#     4  12  24  44  81 108 146 197 251 312 372 447
#     4  10  24  47  73 106 150 198 248 302 373 449
#     4  10  22  44  74 113 145 191 257 308 377 433
#     4  10  24  47  74 112 155 196 249 306 381 445
#
# _framework density 26.373991
#
# number of rings (size 3 to 8) (size 9 to 14) (size 15 to 20)
#    0.000    1.667    1.667    1.000    2.333    9.333 
#    3.000    0.833    3.667    0.000    0.000    0.000 
#    0.000    0.000    0.000    0.000    0.000    0.000 
#
# Total GULP energy -67329.288815 kJ/mol
# GULP energy per Si atom -5610.774068 kJ/mol
# Density = 2.631396 g / cm^3
# Si number density = 26.373991 Si / 1000 Ang^3
#
#
#
# Elastic Constant Matrix: (Units=GPa)
#
#
# Indices 1 2 3 4 5 6 
#
# 1 168.7279 64.5219 45.7767 -7.7327 12.4124 13.0142
# 2 64.5219 146.4144 71.6872 -7.5238 -2.7870 24.3116
# 3 45.7767 71.6872 110.9435 -20.3699 6.4365 20.2014
# 4 -7.7327 -7.5238 -20.3699 54.1774 5.0807 -6.0557
# 5 12.4124 -2.7870 6.4365 5.0807 37.3448 0.3953
# 6 13.0142 24.3116 20.2014 -6.0557 0.3953 51.4485
#
#
#
# Elastic Compliance Matrix: (Units=1/GPa)
#
#
# Indices 1 2 3 4 5 6 
#
# 1 0.007501 -0.002820 -0.001008 0.000534 -0.002602 -0.000086
# 2 -0.002820 0.011574 -0.006370 -0.001765 0.003165 -0.002487
# 3 -0.001008 -0.006370 0.014970 0.004685 -0.003336 -0.002036
# 4 0.000534 -0.001765 0.004685 0.020566 -0.003929 0.001310
# 5 -0.002602 0.003165 -0.003336 -0.003929 0.028990 -0.000213
# 6 -0.000086 -0.002487 -0.002036 0.001310 -0.000213 0.021589
#
#
# Mechanical properties :
#
#
# Convention : Reuss Voigt Hill
#
# Bulk Modulus (GPa) = 73.26503 87.78416 80.52459
# Shear Modulus (GPa) = 38.42152 44.86746 41.64449
#
# Velocity S-wave (km/s) = 3.82094 4.12904 3.97797
# Velocity P-wave (km/s) = 6.87791 7.48923 7.19007
#
# Compressibility (1/GPa) = 0.01364908
#
# Stress axis : x y z
#
# Youngs Moduli (GPa) = 133.31546 86.40208 66.79917
#
# Poissons Ratio (x) = 0.24362 0.06736
# Poissons Ratio (y) = 0.37589 0.42551
# Poissons Ratio (z) = 0.13444 0.55038
#
# Static dielectric constant tensor:
#      x y z
#    x 2.051980 -0.002860 -0.006320 
#    y -0.002860 2.027050 -0.007490 
#    z -0.006320 -0.007490 2.076290 
# 
# From -- ./inp_files/237253.got.cif
#   From: 2010.05.17/outbox.cif.g08.bks.cpg/sg2_119_cif.got.tgz:237253.got - 2010.06.03 11:33:40.
