data_PCOD9034887
_publ_section_title
;
Structure prediction by ZEFSAII (Michael W. Deem and Ramdas Pophale) SiO2 
 PCOD9034887
Probable space group: P -1
;
_chemical_formula_sum "Si O2"
_cell_formula_units_Z 14
_cell_length_a 8.951444
_cell_length_b 8.047287
_cell_length_c 12.445750
_cell_angle_alpha 87.189774
_cell_angle_beta 48.103255
_cell_angle_gamma 111.272026
_cell_volume 564.367525
_symmetry_space_group_name_H-M "P -1"
_symmetry_group_IT_number 2
_symmetry_cell_setting 'triclinic'
loop_
_space_group_symop_operation_xyz
x,y,z
-x,-y,-z
loop_
_atom_site_type_symbol
_atom_site_label
_atom_site_fract_x
_atom_site_fract_y
_atom_site_fract_z
Si Si1 0.755999 0.683914 0.006178
Si Si2 0.750605 0.432362 0.182332
Si Si3 0.683328 0.396326 0.862001
Si Si4 0.242597 0.052092 0.699895
Si Si5 0.093409 0.353332 0.453249
Si Si6 0.631063 0.010825 0.598820
Si Si7 0.884294 0.643295 0.322222
O O1 0.707302 0.504422 0.958049
O O2 0.026154 0.856823 0.862789
O O3 0.693783 0.587530 0.155496
O O4 0.584908 0.752292 0.041196
O O5 0.548484 0.207997 0.264647
O O6 0.775541 0.459221 0.298690
O O7 0.000000 0.500000 0.000000
O O8 0.767998 0.571446 0.727437
O O9 0.849408 0.308552 0.789633
O O10 0.477287 0.111871 0.653705
O O11 0.286091 0.001619 0.560421
O O12 0.156070 0.200691 0.720837
O O13 0.214381 0.376556 0.509124
O O14 0.000000 0.500000 0.500000
O O15 0.864287 0.136558 0.553846
#
# Coordination Sequence:
#
# PCOD9034887 Si02
#       7
#     2   2   2   2   2   2   2
#     4  11  23  45  75  99 143 195 235 290 360 427
#     4  12  25  49  74 103 145 194 239 295 358 432
#     4  10  22  45  69 101 145 188 232 294 361 420
#     4  11  25  44  75 108 140 188 248 290 355 426
#     4  10  24  46  72 106 145 185 237 301 352 424
#     4  11  25  48  76 102 147 192 239 287 365 431
#     4  11  26  45  69 108 147 180 246 296 353 420
#
# _framework density 24.806532000000001
#
# number of rings (size 3 to 8) (size 9 to 14) (size 15 to 20)
#    0.000    1.143    4.286    0.000    8.000    6.857 
#    5.143    0.000    0.000    0.000    0.000    0.000 
#    0.000    0.000    0.000    0.000    0.000    0.000 
#
# Total GULP energy -78305.028700 kJ/mol
# GULP energy per Si atom -5593.216336 kJ/mol
# Density = 2.475007 g / cm^3
# Si number density = 24.806532 Si / 1000 Ang^3
#
#
#
# Elastic Constant Matrix: (Units=GPa)
#
#
# Indices 1 2 3 4 5 6 
#
# 1 101.9814 30.2969 40.7584 14.2309 1.0514 -12.7467
# 2 30.2969 71.6186 42.3329 -5.8854 1.9778 -0.8960
# 3 40.7584 42.3329 119.3121 -10.1610 8.9530 16.3032
# 4 14.2309 -5.8854 -10.1610 34.6913 0.9225 2.5177
# 5 1.0514 1.9778 8.9530 0.9225 49.0997 7.7803
# 6 -12.7467 -0.8960 16.3032 2.5177 7.7803 51.0310
#
#
#
# Elastic Compliance Matrix: (Units=1/GPa)
#
#
# Indices 1 2 3 4 5 6 
#
# 1 0.015031 -0.003873 -0.005307 -0.008801 0.000047 0.005809
# 2 -0.003873 0.018986 -0.005267 0.003202 0.000079 0.000878
# 3 -0.005307 -0.005267 0.013436 0.005674 -0.001313 -0.005790
# 4 -0.008801 0.003202 0.005674 0.035065 -0.000751 -0.005570
# 5 0.000047 0.000079 -0.001313 -0.000751 0.021050 -0.002740
# 6 0.005809 0.000878 -0.005790 -0.005570 -0.002740 0.023605
#
#
# Mechanical properties :
#
#
# Convention : Reuss Voigt Hill
#
# Bulk Modulus (GPa) = 53.88226 57.74316 55.81271
# Shear Modulus (GPa) = 30.81572 38.93265 34.87419
#
# Velocity S-wave (km/s) = 3.52837 3.96593 3.75353
# Velocity P-wave (km/s) = 6.19414 6.65578 6.42910
#
# Compressibility (1/GPa) = 0.01855899
#
# Stress axis : x y z
#
# Youngs Moduli (GPa) = 66.52804 52.66937 74.42667
#
# Poissons Ratio (x) = 0.20401 0.39500
# Poissons Ratio (y) = 0.25769 0.39198
# Poissons Ratio (z) = 0.35308 0.27739
#
# Static dielectric constant tensor:
#      x y z
#    x 2.065710 -0.013970 -0.027470 
#    y -0.013970 1.945080 0.024970 
#    z -0.027470 0.024970 1.993700 
# 
# From -- ./inp_files/378601.got.cif
#   From: 2010.05.17/outbox.cif.g08.bks.cpg/sg2_190_cif.got.tgz:378601.got - 2010.06.03 11:33:40.
