data_PCOD9034215
_publ_section_title
;
Structure prediction by ZEFSAII (Michael W. Deem and Ramdas Pophale) SiO2 
 PCOD9034215
Probable space group: P -1
;
_chemical_formula_sum "Si O2"
_cell_formula_units_Z 14
_cell_length_a 9.177757
_cell_length_b 9.425234
_cell_length_c 25.394444
_cell_angle_alpha 34.261960
_cell_angle_beta 144.187689
_cell_angle_gamma 120.680522
_cell_volume 632.573911
_symmetry_space_group_name_H-M "P -1"
_symmetry_group_IT_number 2
_symmetry_cell_setting 'triclinic'
loop_
_space_group_symop_operation_xyz
x,y,z
-x,-y,-z
loop_
_atom_site_type_symbol
_atom_site_label
_atom_site_fract_x
_atom_site_fract_y
_atom_site_fract_z
Si Si1 0.383509 0.266598 0.529634
Si Si2 0.828807 0.346595 0.743150
Si Si3 0.222417 0.412325 0.140419
Si Si4 0.150348 0.362245 0.935687
Si Si5 0.242974 0.875083 0.830847
Si Si6 0.193376 0.491885 0.511017
Si Si7 0.321564 0.835122 0.988769
O O1 0.500000 0.500000 0.500000
O O2 0.212070 0.388507 0.387690
O O3 0.208505 0.310042 0.519106
O O4 0.610111 0.929791 0.695756
O O5 0.517812 0.393847 0.651387
O O6 0.005239 0.317616 0.855909
O O7 0.008443 0.059718 0.849555
O O8 0.044719 0.578099 0.088958
O O9 0.423543 0.544355 0.140889
O O10 0.000000 0.500000 0.000000
O O11 0.185340 0.647075 0.852959
O O12 0.479599 0.117856 0.112595
O O13 0.312876 0.780949 0.941080
O O14 0.963385 0.178205 0.654888
O O15 0.000000 0.500000 0.500000
O O16 0.500000 0.000000 0.000000
#
# Coordination Sequence:
#
# PCOD9034215 Si02
#       7
#     2   2   2   2   2   2   2
#     4  10  22  44  72 103 141 192 235 295 367 428
#     4  11  24  46  73 101 146 193 235 297 368 428
#     4  12  25  42  74 105 141 192 248 289 364 441
#     4  11  25  43  73 106 140 186 246 305 357 429
#     4  11  24  45  71 103 146 190 239 302 368 428
#     4  11  25  41  71 105 143 188 242 292 364 432
#     4  12  25  47  72 105 147 193 241 301 363 433
#
# _framework density 22.131799000000001
#
# number of rings (size 3 to 8) (size 9 to 14) (size 15 to 20)
#    0.000    0.857    4.286    3.429    4.000    4.000 
#    0.000    0.714    0.000    0.000    0.000    0.000 
#    0.000    0.000    0.000    0.000    0.000    0.000 
#
# Total GULP energy -78256.620940 kJ/mol
# GULP energy per Si atom -5589.758639 kJ/mol
# Density = 2.208143 g / cm^3
# Si number density = 22.131799 Si / 1000 Ang^3
#
#
#
# Elastic Constant Matrix: (Units=GPa)
#
#
# Indices 1 2 3 4 5 6 
#
# 1 140.2773 30.9284 19.8789 -12.7248 9.0786 -6.1729
# 2 30.9284 73.6474 16.6421 -3.0849 1.7823 -3.9468
# 3 19.8789 16.6421 84.4994 -27.1119 8.9877 10.1416
# 4 -12.7248 -3.0849 -27.1119 29.2003 0.0056 2.4967
# 5 9.0786 1.7823 8.9877 0.0056 41.7332 -5.5426
# 6 -6.1729 -3.9468 10.1416 2.4967 -5.5426 39.5521
#
#
#
# Elastic Compliance Matrix: (Units=1/GPa)
#
#
# Indices 1 2 3 4 5 6 
#
# 1 0.008272 -0.003215 -0.000283 0.002947 -0.001516 0.000644
# 2 -0.003215 0.015769 -0.003927 -0.003593 0.001201 0.002474
# 3 -0.000283 -0.003927 0.020158 0.018821 -0.005112 -0.007509
# 4 0.002947 -0.003593 0.018821 0.053388 -0.005730 -0.008897
# 5 -0.001516 0.001201 -0.005112 -0.005730 0.026033 0.005204
# 6 0.000644 0.002474 -0.007509 -0.008897 0.005204 0.028847
#
#
# Mechanical properties :
#
#
# Convention : Reuss Voigt Hill
#
# Bulk Modulus (GPa) = 34.07290 48.14701 41.10995
# Shear Modulus (GPa) = 28.23287 37.49544 32.86415
#
# Velocity S-wave (km/s) = 3.57553 4.12052 3.85766
# Velocity P-wave (km/s) = 5.69866 6.66634 6.20140
#
# Compressibility (1/GPa) = 0.02934884
#
# Stress axis : x y z
#
# Youngs Moduli (GPa) = 120.89685 63.41693 49.60764
#
# Poissons Ratio (x) = 0.20388 0.01405
# Poissons Ratio (y) = 0.38868 0.19479
# Poissons Ratio (z) = 0.03424 0.24901
#
# Static dielectric constant tensor:
#      x y z
#    x 1.910630 0.055960 -0.004430 
#    y 0.055960 1.818200 0.005260 
#    z -0.004430 0.005260 1.822530 
# 
# From -- ./inp_files/244751.got.cif
#   From: 2010.05.17/outbox.cif.g08.bks.cpg/sg2_123_cif.got.tgz:244751.got - 2010.06.03 11:33:40.
