data_PCOD9034678
_publ_section_title
;
Structure prediction by ZEFSAII (Michael W. Deem and Ramdas Pophale) SiO2 
 PCOD9034678
Probable space group: P -1
;
_chemical_formula_sum "Si O2"
_cell_formula_units_Z 14
_cell_length_a 8.891789
_cell_length_b 9.030054
_cell_length_c 12.639454
_cell_angle_alpha 106.101574
_cell_angle_beta 53.819398
_cell_angle_gamma 127.440201
_cell_volume 645.115624
_symmetry_space_group_name_H-M "P -1"
_symmetry_group_IT_number 2
_symmetry_cell_setting 'triclinic'
loop_
_space_group_symop_operation_xyz
x,y,z
-x,-y,-z
loop_
_atom_site_type_symbol
_atom_site_label
_atom_site_fract_x
_atom_site_fract_y
_atom_site_fract_z
Si Si1 0.738893 0.524901 0.888230
Si Si2 0.377571 0.602926 0.604729
Si Si3 0.919878 0.337870 0.416908
Si Si4 0.966198 0.785304 0.245996
Si Si5 0.428359 0.906208 0.127008
Si Si6 0.804876 0.963599 0.495982
Si Si7 0.925340 0.137606 0.030090
O O1 0.659830 0.310762 0.886261
O O2 0.871806 0.609696 0.737858
O O3 0.922501 0.672940 0.927121
O O4 0.500000 0.500000 0.000000
O O5 0.500000 0.500000 0.500000
O O6 0.268271 0.659881 0.572326
O O7 0.172014 0.438072 0.725090
O O8 0.569485 0.799892 0.614378
O O9 0.000000 0.500000 0.500000
O O10 0.827867 0.147202 0.481256
O O11 0.829292 0.867757 0.361437
O O12 0.195239 0.885985 0.241257
O O13 0.021701 0.821912 0.107739
O O14 0.651494 0.023981 0.130644
O O15 0.500000 0.000000 0.000000
O O16 0.000000 0.000000 0.500000
O O17 0.000000 0.000000 0.000000
#
# Coordination Sequence:
#
# PCOD9034678 Si02
#       7
#     2   2   2   2   2   2   2
#     4  12  26  45  73 110 143 186 243 294 360 428
#     4  10  22  45  68 101 135 184 237 291 353 423
#     4  12  26  48  71 103 145 189 238 297 357 427
#     4  10  22  45  67 100 139 181 237 299 350 426
#     4  10  23  44  69  99 145 182 234 288 361 427
#     4  11  25  43  71 100 139 188 244 289 360 425
#     4  11  23  43  69 101 140 185 232 294 358 423
#
# _framework density 21.701537999999999
#
# number of rings (size 3 to 8) (size 9 to 14) (size 15 to 20)
#    0.000    1.143    2.857    3.000    2.000    6.857 
#    2.571    0.000    0.000    0.000    0.000    0.000 
#    0.000    0.000    0.000    0.000    0.000    0.000 
#
# Total GULP energy -78164.521756 kJ/mol
# GULP energy per Si atom -5583.180125 kJ/mol
# Density = 2.165214 g / cm^3
# Si number density = 21.701538 Si / 1000 Ang^3
#
#
#
# Elastic Constant Matrix: (Units=GPa)
#
#
# Indices 1 2 3 4 5 6 
#
# 1 147.9996 70.5091 37.0048 -20.0179 -6.7469 10.5109
# 2 70.5091 174.7973 41.5012 -22.3282 5.6137 10.3298
# 3 37.0048 41.5012 73.7452 -1.2755 -9.5089 5.7938
# 4 -20.0179 -22.3282 -1.2755 44.3108 -2.4071 2.2534
# 5 -6.7469 5.6137 -9.5089 -2.4071 36.0378 -4.4082
# 6 10.5109 10.3298 5.7938 2.2534 -4.4082 57.1724
#
#
#
# Elastic Compliance Matrix: (Units=1/GPa)
#
#
# Indices 1 2 3 4 5 6 
#
# 1 0.009269 -0.002695 -0.002820 0.002876 0.001489 -0.000930
# 2 -0.002695 0.008100 -0.003423 0.002672 -0.002605 -0.000927
# 3 -0.002820 -0.003423 0.017450 -0.002245 0.004435 -0.000201
# 4 0.002876 0.002672 -0.002245 0.025290 0.001011 -0.001703
# 5 0.001489 -0.002605 0.004435 0.001011 0.029917 0.002014
# 6 -0.000930 -0.000927 -0.000201 -0.001703 0.002014 0.018072
#
#
# Mechanical properties :
#
#
# Convention : Reuss Voigt Hill
#
# Bulk Modulus (GPa) = 59.01672 77.17470 68.09571
# Shear Modulus (GPa) = 37.98752 44.00600 40.99676
#
# Velocity S-wave (km/s) = 4.18838 4.50798 4.35111
# Velocity P-wave (km/s) = 7.11645 7.92053 7.52923
#
# Compressibility (1/GPa) = 0.01694435
#
# Stress axis : x y z
#
# Youngs Moduli (GPa) = 107.89179 123.45131 57.30554
#
# Poissons Ratio (x) = 0.33267 0.16157
# Poissons Ratio (y) = 0.29074 0.19617
# Poissons Ratio (z) = 0.30420 0.42259
#
# Static dielectric constant tensor:
#      x y z
#    x 1.685170 0.028550 -0.000820 
#    y 0.028550 1.768350 -0.011460 
#    z -0.000820 -0.011460 1.834460 
# 
# From -- ./inp_files/199227.got.cif
#   From: 2010.05.17/outbox.cif.g08.bks.cpg/sg2_100_cif.got.tgz:199227.got - 2010.06.03 11:33:40.
