data_PCOD9034340
_publ_section_title
;
Structure prediction by ZEFSAII (Michael W. Deem and Ramdas Pophale) SiO2 
 PCOD9034340
Probable space group: P -1
;
_chemical_formula_sum "Si O2"
_cell_formula_units_Z 16
_cell_length_a 9.800928
_cell_length_b 12.449084
_cell_length_c 8.280330
_cell_angle_alpha 67.921545
_cell_angle_beta 104.818479
_cell_angle_gamma 63.548347
_cell_volume 720.965904
_symmetry_space_group_name_H-M "P -1"
_symmetry_group_IT_number 2
_symmetry_cell_setting 'triclinic'
loop_
_space_group_symop_operation_xyz
x,y,z
-x,-y,-z
loop_
_atom_site_type_symbol
_atom_site_label
_atom_site_fract_x
_atom_site_fract_y
_atom_site_fract_z
Si Si1 0.678992 0.911759 0.349582
Si Si2 0.951992 0.148587 0.978962
Si Si3 0.192930 0.383332 0.551045
Si Si4 0.178127 0.913201 0.715104
Si Si5 0.536513 0.377198 0.199068
Si Si6 0.286429 0.116799 0.234570
Si Si7 0.795131 0.602313 0.837737
Si Si8 0.687627 0.422310 0.516594
O O1 0.736894 0.782037 0.313779
O O2 0.732462 0.894472 0.569521
O O3 0.768303 0.984694 0.268691
O O4 0.470139 0.994526 0.272420
O O5 0.851124 0.161618 0.104824
O O6 0.127046 0.130562 0.093708
O O7 0.837294 0.290027 0.749321
O O8 0.000000 0.000000 0.000000
O O9 0.201320 0.377571 0.362726
O O10 0.292874 0.451448 0.590261
O O11 0.000000 0.500000 0.500000
O O12 0.353535 0.783276 0.749710
O O13 0.000000 0.000000 0.500000
O O14 0.341788 0.434086 0.164012
O O15 0.668565 0.358173 0.386102
O O16 0.500000 0.500000 0.000000
O O17 0.277745 0.259738 0.149038
O O18 0.000000 0.500000 0.000000
O O19 0.500000 0.500000 0.500000
#
# Coordination Sequence:
#
# PCOD9034340 Si02
#       8
#     2   2   2   2   2   2   2   2
#     4  10  23  45  76 107 145 199 249 308 359 446
#     4  12  28  45  73 109 151 196 241 309 382 442
#     4  11  27  44  73 106 150 199 241 302 378 445
#     4  12  25  47  76 111 145 192 255 306 368 450
#     4  12  28  48  78 109 144 200 256 311 375 454
#     4  10  22  44  73 105 143 193 250 298 370 434
#     4  11  24  46  73 103 144 191 248 308 364 443
#     4  12  27  49  71 105 155 193 241 307 384 446
#
# _framework density 22.192450999999998
#
# number of rings (size 3 to 8) (size 9 to 14) (size 15 to 20)
#    0.000    0.750    3.750    2.250    8.750    0.000 
#    0.000    0.625    0.000    0.000    0.000    0.000 
#    0.000    0.000    0.000    0.000    0.000    0.000 
#
# Total GULP energy -89287.691751 kJ/mol
# GULP energy per Si atom -5580.480734 kJ/mol
# Density = 2.214194 g / cm^3
# Si number density = 22.192451 Si / 1000 Ang^3
#
#
#
# Elastic Constant Matrix: (Units=GPa)
#
#
# Indices 1 2 3 4 5 6 
#
# 1 143.4487 50.5728 37.5881 4.5977 25.0830 23.5550
# 2 50.5728 141.5293 10.3401 -7.3756 14.3366 12.0914
# 3 37.5881 10.3401 85.4325 -2.0677 21.7622 11.9865
# 4 4.5977 -7.3756 -2.0677 24.5413 3.0792 4.5812
# 5 25.0830 14.3366 21.7622 3.0792 30.4919 0.9034
# 6 23.5550 12.0914 11.9865 4.5812 0.9034 46.0135
#
#
#
# Elastic Compliance Matrix: (Units=1/GPa)
#
#
# Indices 1 2 3 4 5 6 
#
# 1 0.010057 -0.002686 -0.002345 -0.001586 -0.005070 -0.003574
# 2 -0.002686 0.008574 0.001225 0.003849 -0.003040 -0.001521
# 3 -0.002345 0.001225 0.015769 0.004058 -0.010209 -0.003433
# 4 -0.001586 0.003849 0.004058 0.044548 -0.007736 -0.005540
# 5 -0.005070 -0.003040 -0.010209 -0.007736 0.046288 0.005915
# 6 -0.003574 -0.001521 -0.003433 -0.005540 0.005915 0.025292
#
#
# Mechanical properties :
#
#
# Convention : Reuss Voigt Hill
#
# Bulk Modulus (GPa) = 37.33012 63.04581 50.18797
# Shear Modulus (GPa) = 29.92761 38.33664 34.13212
#
# Velocity S-wave (km/s) = 3.67624 4.16079 3.92600
# Velocity P-wave (km/s) = 5.90570 7.18006 6.57383
#
# Compressibility (1/GPa) = 0.02678802
#
# Stress axis : x y z
#
# Youngs Moduli (GPa) = 99.43498 116.62664 63.41503
#
# Poissons Ratio (x) = 0.31325 0.14871
# Poissons Ratio (y) = 0.26708 -0.07767
# Poissons Ratio (z) = 0.23317 -0.14284
#
# Static dielectric constant tensor:
#      x y z
#    x 1.763140 -0.013140 -0.082300 
#    y -0.013140 1.893560 -0.066700 
#    z -0.082300 -0.066700 1.868180 
# 
# From -- ./inp_files/186076.got.cif
#   From: 2010.05.17/outbox.cif.g08.bks.cpg/sg2_94_cif.got.tgz:186076.got - 2010.06.03 11:33:40.
