data_PCOD9034316
_publ_section_title
;
Structure prediction by ZEFSAII (Michael W. Deem and Ramdas Pophale) SiO2 
 PCOD9034316
Probable space group: P -1
;
_chemical_formula_sum "Si O2"
_cell_formula_units_Z 16
_cell_length_a 14.370769
_cell_length_b 17.601771
_cell_length_c 6.081893
_cell_angle_alpha 102.485310
_cell_angle_beta 71.919925
_cell_angle_gamma 153.120116
_cell_volume 654.598362
_symmetry_space_group_name_H-M "P -1"
_symmetry_group_IT_number 2
_symmetry_cell_setting 'triclinic'
loop_
_space_group_symop_operation_xyz
x,y,z
-x,-y,-z
loop_
_atom_site_type_symbol
_atom_site_label
_atom_site_fract_x
_atom_site_fract_y
_atom_site_fract_z
Si Si1 0.809225 0.560847 0.654670
Si Si2 0.188391 0.817525 0.208101
Si Si3 0.689102 0.244862 0.697111
Si Si4 0.559659 0.705475 0.572269
Si Si5 0.634373 0.896222 0.908668
Si Si6 0.350479 0.435870 0.892579
Si Si7 0.047923 0.082386 0.794212
Si Si8 0.032504 0.593747 0.799307
O O1 0.576169 0.395744 0.614471
O O2 0.978880 0.693620 0.421486
O O3 0.884685 0.535520 0.695583
O O4 0.809033 0.623978 0.886050
O O5 0.333654 0.860374 0.269844
O O6 0.302027 0.978337 0.172737
O O7 0.109048 0.712044 0.989800
O O8 0.772114 0.299787 0.422831
O O9 0.872069 0.407778 0.834753
O O10 0.488566 0.158770 0.823304
O O11 0.496577 0.742286 0.757531
O O12 0.481739 0.582361 0.718777
O O13 0.812309 0.877555 0.437929
O O14 0.830212 0.977401 0.862122
O O15 0.218245 0.273330 0.782742
O O16 0.500000 0.500000 0.000000
O O17 0.000000 0.000000 0.000000
#
# Coordination Sequence:
#
# PCOD9034316 Si02
#       8
#     2   2   2   2   2   2   2   2
#     4  11  23  42  73 102 137 185 242 287 355 414
#     4  11  24  44  69 108 138 185 231 299 358 427
#     4  10  23  43  69 101 139 183 237 290 353 431
#     4  12  27  47  71 103 144 194 244 287 352 432
#     4  12  26  44  69  99 152 182 232 290 369 413
#     4  12  25  46  76 100 140 190 248 293 347 419
#     4  12  28  47  71 108 146 189 237 298 359 422
#     4  10  22  44  73 101 137 179 243 294 344 428
#
# _framework density 24.442467000000001
#
# number of rings (size 3 to 8) (size 9 to 14) (size 15 to 20)
#    0.000    0.750    1.250    6.000    5.250    2.500 
#    0.000    0.000    0.000    0.000    0.000    0.000 
#    0.000    0.000    0.000    0.000    0.000    0.000 
#
# Total GULP energy -89447.242046 kJ/mol
# GULP energy per Si atom -5590.452628 kJ/mol
# Density = 2.438683 g / cm^3
# Si number density = 24.442467 Si / 1000 Ang^3
#
#
#
# Elastic Constant Matrix: (Units=GPa)
#
#
# Indices 1 2 3 4 5 6 
#
# 1 113.9672 28.1131 51.9208 -13.2807 -22.9454 -15.7625
# 2 28.1131 45.2638 17.8448 -18.4475 3.8590 -26.9640
# 3 51.9208 17.8448 118.5353 -27.9488 -45.9199 -11.0261
# 4 -13.2807 -18.4475 -27.9488 29.0480 4.4323 -2.0103
# 5 -22.9454 3.8590 -45.9199 4.4323 48.7106 -9.7333
# 6 -15.7625 -26.9640 -11.0261 -2.0103 -9.7333 53.5449
#
#
#
# Elastic Compliance Matrix: (Units=1/GPa)
#
#
# Indices 1 2 3 4 5 6 
#
# 1 0.012897 -0.009394 -0.004469 -0.004895 0.002744 -0.001539
# 2 -0.009394 0.062442 0.009375 0.046371 0.001775 0.032673
# 3 -0.004469 0.009375 0.023564 0.024461 0.019689 0.012755
# 4 -0.004895 0.046371 0.024461 0.085026 0.015946 0.033038
# 5 0.002744 0.001775 0.019689 0.015946 0.041571 0.013912
# 6 -0.001539 0.032673 0.012755 0.033038 0.013912 0.041072
#
#
# Mechanical properties :
#
#
# Convention : Reuss Voigt Hill
#
# Bulk Modulus (GPa) = 11.12014 52.61376 31.86695
# Shear Modulus (GPa) = 16.36526 38.25321 27.30924
#
# Velocity S-wave (km/s) = 2.59036 3.96034 3.34621
# Velocity P-wave (km/s) = 3.67505 6.51803 5.29106
#
# Compressibility (1/GPa) = 0.08992696
#
# Stress axis : x y z
#
# Youngs Moduli (GPa) = 77.53732 16.01476 42.43738
#
# Poissons Ratio (x) = 0.15045 0.18966
# Poissons Ratio (y) = 0.72840 -0.39785
# Poissons Ratio (z) = 0.34653 -0.15014
#
# Static dielectric constant tensor:
#      x y z
#    x 2.025770 0.053580 0.048500 
#    y 0.053580 2.057690 -0.010260 
#    z 0.048500 -0.010260 1.969620 
# 
# From -- ./inp_files/99808.got.cif
#   From: 2010.05.17/outbox.cif.g08.bks.cpg/sg2_50_cif.got.tgz:99808.got - 2010.06.03 11:33:40.
