data_PCOD9034674
_publ_section_title
;
Structure prediction by ZEFSAII (Michael W. Deem and Ramdas Pophale) SiO2 
 PCOD9034674
Probable space group: P -1
;
_chemical_formula_sum "Si O2"
_cell_formula_units_Z 14
_cell_length_a 11.133645
_cell_length_b 6.325893
_cell_length_c 12.050401
_cell_angle_alpha 49.735925
_cell_angle_beta 118.430748
_cell_angle_gamma 117.760989
_cell_volume 553.493815
_symmetry_space_group_name_H-M "P -1"
_symmetry_group_IT_number 2
_symmetry_cell_setting 'triclinic'
loop_
_space_group_symop_operation_xyz
x,y,z
-x,-y,-z
loop_
_atom_site_type_symbol
_atom_site_label
_atom_site_fract_x
_atom_site_fract_y
_atom_site_fract_z
Si Si1 0.149677 0.056374 0.606291
Si Si2 0.989354 0.783383 0.835359
Si Si3 0.296215 0.599963 0.226035
Si Si4 0.682130 0.315520 0.550321
Si Si5 0.342768 0.275392 0.163572
Si Si6 0.358531 0.710098 0.709646
Si Si7 0.813956 0.836164 0.069565
O O1 0.110758 0.897659 0.760199
O O2 0.265401 0.921613 0.640865
O O3 0.202032 0.397050 0.521655
O O4 0.000000 0.000000 0.500000
O O5 0.842977 0.663591 0.746469
O O6 0.029480 0.039882 0.857469
O O7 0.000000 0.500000 0.000000
O O8 0.370915 0.616332 0.372805
O O9 0.381302 0.527283 0.183988
O O10 0.247621 0.887027 0.076734
O O11 0.609447 0.249126 0.421390
O O12 0.720005 0.019992 0.699758
O O13 0.488755 0.249575 0.180952
O O14 0.225736 0.326403 0.009550
O O15 0.270895 0.392427 0.804465
#
# Coordination Sequence:
#
# PCOD9034674 Si02
#       7
#     2   2   2   2   2   2   2
#     4  12  26  46  70 101 141 177 231 291 343 406
#     4  10  22  45  67 100 135 178 226 285 344 402
#     4  10  23  45  70 100 141 181 227 283 344 408
#     4  11  24  45  68 101 136 186 227 279 341 405
#     4  11  26  45  69 102 142 185 232 276 336 418
#     4  12  27  44  69 105 139 182 235 282 338 410
#     4  10  24  44  68 105 135 182 227 285 341 400
#
# _framework density 25.293868
#
# number of rings (size 3 to 8) (size 9 to 14) (size 15 to 20)
#    0.000    1.143    2.857    1.714    4.000    6.286 
#    0.000    0.000    0.000    0.000    0.000    0.000 
#    0.000    0.000    0.000    0.000    0.000    0.000 
#
# Total GULP energy -78112.258637 kJ/mol
# GULP energy per Si atom -5579.447046 kJ/mol
# Density = 2.523630 g / cm^3
# Si number density = 25.293868 Si / 1000 Ang^3
#
#
#
# Elastic Constant Matrix: (Units=GPa)
#
#
# Indices 1 2 3 4 5 6 
#
# 1 85.8870 11.7142 10.5451 -4.2154 11.6993 4.5497
# 2 11.7142 49.0602 14.3090 0.9556 -3.7672 -1.3256
# 3 10.5451 14.3090 110.7047 2.0092 -23.2192 -1.1309
# 4 -4.2154 0.9556 2.0092 59.0619 6.4650 -17.8235
# 5 11.6993 -3.7672 -23.2192 6.4650 30.6980 -5.4060
# 6 4.5497 -1.3256 -1.1309 -17.8235 -5.4060 40.8039
#
#
#
# Elastic Compliance Matrix: (Units=1/GPa)
#
#
# Indices 1 2 3 4 5 6 
#
# 1 0.013734 -0.003222 -0.002689 0.001367 -0.008342 -0.002218
# 2 -0.003222 0.021969 -0.001931 -0.000466 0.002770 0.001183
# 3 -0.002689 -0.001931 0.011703 -0.001260 0.010144 0.001355
# 4 0.001367 -0.000466 -0.001260 0.019949 -0.004335 0.007937
# 5 -0.008342 0.002770 0.010144 -0.004335 0.045640 0.005454
# 6 -0.002218 0.001183 0.001355 0.007937 0.005454 0.029020
#
#
# Mechanical properties :
#
#
# Convention : Reuss Voigt Hill
#
# Bulk Modulus (GPa) = 31.52404 35.42092 33.47248
# Shear Modulus (GPa) = 29.71336 40.05168 34.88252
#
# Velocity S-wave (km/s) = 3.43115 3.98358 3.71764
# Velocity P-wave (km/s) = 5.30916 5.93234 5.62938
#
# Compressibility (1/GPa) = 0.03172182
#
# Stress axis : x y z
#
# Youngs Moduli (GPa) = 72.81336 45.51769 85.44812
#
# Poissons Ratio (x) = 0.14666 0.22976
# Poissons Ratio (y) = 0.23461 0.16502
# Poissons Ratio (z) = 0.19578 0.08791
#
# Static dielectric constant tensor:
#      x y z
#    x 2.029580 -0.074840 -0.033710 
#    y -0.074840 2.107090 0.094960 
#    z -0.033710 0.094960 1.973150 
# 
# From -- ./inp_files/409772.got.cif
#   From: 2010.05.17/outbox.cif.g08.bks.cpg/sg2_205_cif.got.tgz:409772.got - 2010.06.03 11:33:40.
