data_PCOD9034548
_publ_section_title
;
Structure prediction by ZEFSAII (Michael W. Deem and Ramdas Pophale) SiO2 
 PCOD9034548
Probable space group: P -1
;
_chemical_formula_sum "Si O2"
_cell_formula_units_Z 14
_cell_length_a 5.647914
_cell_length_b 19.740070
_cell_length_c 8.206933
_cell_angle_alpha 36.601191
_cell_angle_beta 108.739753
_cell_angle_gamma 105.625582
_cell_volume 516.529522
_symmetry_space_group_name_H-M "P -1"
_symmetry_group_IT_number 2
_symmetry_cell_setting 'triclinic'
loop_
_space_group_symop_operation_xyz
x,y,z
-x,-y,-z
loop_
_atom_site_type_symbol
_atom_site_label
_atom_site_fract_x
_atom_site_fract_y
_atom_site_fract_z
Si Si1 0.432089 0.691874 0.133586
Si Si2 0.931679 0.045541 0.156484
Si Si3 0.532473 0.203840 0.715565
Si Si4 0.266833 0.147937 0.306323
Si Si5 0.982174 0.815801 0.496787
Si Si6 0.815723 0.513566 0.674499
Si Si7 0.259718 0.607069 0.797566
O O1 0.394049 0.762654 0.150968
O O2 0.684434 0.620339 0.358017
O O3 0.225293 0.594197 0.243316
O O4 0.487467 0.780595 0.828251
O O5 0.112561 0.123753 0.154667
O O6 0.735618 0.975729 0.368396
O O7 0.086891 0.943465 0.310005
O O8 0.750483 0.121835 0.861944
O O9 0.258116 0.154545 0.725828
O O10 0.531762 0.319017 0.388585
O O11 0.118887 0.215175 0.282970
O O12 0.095938 0.704471 0.659691
O O13 0.086853 0.544811 0.744876
O O14 0.666944 0.475045 0.881465
#
# Coordination Sequence:
#
# PCOD9034548 Si02
#       7
#     2   2   2   2   2   2   2
#     4  11  23  43  66  95 132 162 221 268 309 380
#     4   9  22  41  66  99 126 170 212 252 332 371
#     4  12  24  40  68  99 129 169 208 264 323 382
#     4   9  21  44  65  93 131 167 214 260 312 388
#     4  10  22  45  63  95 133 165 207 271 302 393
#     4  10  24  45  62  94 125 176 215 263 321 366
#     4  11  24  45  66  94 131 167 219 259 323 377
#
# _framework density 27.103967999999998
#
# number of rings (size 3 to 8) (size 9 to 14) (size 15 to 20)
#    0.857    0.857    1.429    2.143    2.000    2.286 
#   12.857    0.000    0.000    0.000    0.000    0.000 
#    0.000    0.000    0.000    0.000    0.000    0.000 
#
# Total GULP energy -78323.109688 kJ/mol
# GULP energy per Si atom -5594.507835 kJ/mol
# Density = 2.704228 g / cm^3
# Si number density = 27.103968 Si / 1000 Ang^3
#
#
#
# Elastic Constant Matrix: (Units=GPa)
#
#
# Indices 1 2 3 4 5 6 
#
# 1 47.1978 46.8317 8.4909 -20.8084 2.1673 -3.7836
# 2 46.8317 185.5118 8.6690 -14.8038 14.9387 2.8778
# 3 8.4909 8.6690 106.2623 -18.2064 -2.2673 -0.7670
# 4 -20.8084 -14.8038 -18.2064 37.1017 0.7712 0.3846
# 5 2.1673 14.9387 -2.2673 0.7712 48.9422 -4.2952
# 6 -3.7836 2.8778 -0.7670 0.3846 -4.2952 42.9618
#
#
#
# Elastic Compliance Matrix: (Units=1/GPa)
#
#
# Indices 1 2 3 4 5 6 
#
# 1 0.037349 -0.008161 0.000818 0.018034 0.000923 0.003781
# 2 -0.008161 0.007518 -0.000301 -0.001667 -0.002045 -0.001417
# 3 0.000818 -0.000301 0.010304 0.005383 0.000472 0.000275
# 4 0.018034 -0.001667 0.005383 0.039040 -0.000533 0.001393
# 5 0.000923 -0.002045 0.000472 -0.000533 0.021253 0.002356
# 6 0.003781 -0.001417 0.000275 0.001393 0.002356 0.023932
#
#
# Mechanical properties :
#
#
# Convention : Reuss Voigt Hill
#
# Bulk Modulus (GPa) = 25.07212 51.88390 38.47801
# Shear Modulus (GPa) = 29.76572 44.13318 36.94945
#
# Velocity S-wave (km/s) = 3.31751 4.03959 3.69623
# Velocity P-wave (km/s) = 4.89336 6.39858 5.69591
#
# Compressibility (1/GPa) = 0.03988493
#
# Stress axis : x y z
#
# Youngs Moduli (GPa) = 26.77435 133.00826 97.04858
#
# Poissons Ratio (x) = 1.08544 -0.07940
# Poissons Ratio (y) = 0.21850 0.02920
# Poissons Ratio (z) = -0.02191 0.04001
#
# Static dielectric constant tensor:
#      x y z
#    x 2.107760 -0.030680 -0.025980 
#    y -0.030680 2.054420 0.062900 
#    z -0.025980 0.062900 2.105040 
# 
# From -- ./inp_files/140481.got.cif
#   From: 2010.05.17/outbox.cif.g08.bks.cpg/sg2_71_cif.got.tgz:140481.got - 2010.06.03 11:33:40.
