data_PCOD9034999
_publ_section_title
;
Structure prediction by ZEFSAII (Michael W. Deem and Ramdas Pophale) SiO2 
 PCOD9034999
Probable space group: P -1
;
_chemical_formula_sum "Si O2"
_cell_formula_units_Z 16
_cell_length_a 7.324259
_cell_length_b 9.086141
_cell_length_c 13.135023
_cell_angle_alpha 104.180840
_cell_angle_beta 57.414429
_cell_angle_gamma 80.448403
_cell_volume 664.920197
_symmetry_space_group_name_H-M "P -1"
_symmetry_group_IT_number 2
_symmetry_cell_setting 'triclinic'
loop_
_space_group_symop_operation_xyz
x,y,z
-x,-y,-z
loop_
_atom_site_type_symbol
_atom_site_label
_atom_site_fract_x
_atom_site_fract_y
_atom_site_fract_z
Si Si1 0.015548 0.733250 0.840047
Si Si2 0.553761 0.041586 0.722484
Si Si3 0.805089 0.373069 0.447266
Si Si4 0.618680 0.353939 0.097998
Si Si5 0.243389 0.365929 0.939045
Si Si6 0.320876 0.305694 0.342746
Si Si7 0.284098 0.944019 0.534540
Si Si8 0.849150 0.068199 0.826904
O O1 0.136154 0.625028 0.688663
O O2 0.199825 0.701815 0.870912
O O3 0.925398 0.917871 0.857631
O O4 0.807522 0.688982 0.944336
O O5 0.328955 0.206166 0.815621
O O6 0.730690 0.042178 0.580775
O O7 0.663834 0.044860 0.800212
O O8 0.514581 0.872133 0.699402
O O9 0.672364 0.549921 0.563163
O O10 0.686352 0.241517 0.479838
O O11 0.057294 0.309596 0.417807
O O12 0.581501 0.538161 0.108583
O O13 0.393218 0.336907 0.213321
O O14 0.735697 0.233341 0.950872
O O15 0.000000 0.500000 0.000000
O O16 0.500000 0.000000 0.500000
O O17 0.067691 0.052182 0.686476
#
# Coordination Sequence:
#
# PCOD9034999 Si02
#       8
#     2   2   2   2   2   2   2   2
#     4  10  22  45  70 100 150 185 245 305 361 436
#     4  12  25  46  75 104 150 191 245 307 362 442
#     4  10  24  48  71 106 150 191 248 304 360 444
#     4  11  25  43  70 103 147 197 244 305 366 436
#     4  10  25  45  69 103 149 189 243 303 366 433
#     4  11  24  44  74 105 146 194 249 295 369 432
#     4  11  26  46  74 108 150 194 242 305 371 435
#     4  11  25  45  72 111 145 190 252 297 375 437
#
# _framework density 24.063039
#
# number of rings (size 3 to 8) (size 9 to 14) (size 15 to 20)
#    0.000    1.250    2.500    2.250    8.750    3.000 
#    4.500    0.000    0.000    0.000    0.000    0.000 
#    0.000    0.000    0.000    0.000    0.000    0.000 
#
# Total GULP energy -89594.306766 kJ/mol
# GULP energy per Si atom -5599.644173 kJ/mol
# Density = 2.400827 g / cm^3
# Si number density = 24.063039 Si / 1000 Ang^3
#
#
#
# Elastic Constant Matrix: (Units=GPa)
#
#
# Indices 1 2 3 4 5 6 
#
# 1 73.7394 34.1523 16.8852 6.0831 6.1772 4.3166
# 2 34.1523 149.1768 106.3745 2.1096 -3.6942 30.3116
# 3 16.8852 106.3745 170.1361 9.5064 16.1671 22.8237
# 4 6.0831 2.1096 9.5064 61.0302 5.4147 4.8793
# 5 6.1772 -3.6942 16.1671 5.4147 47.2300 -1.5285
# 6 4.3166 30.3116 22.8237 4.8793 -1.5285 27.2840
#
#
#
# Elastic Compliance Matrix: (Units=1/GPa)
#
#
# Indices 1 2 3 4 5 6 
#
# 1 0.015924 -0.005516 0.001955 -0.001609 -0.002931 0.002096
# 2 -0.005516 0.016451 -0.008927 0.001768 0.004537 -0.009998
# 3 0.001955 -0.008927 0.011846 -0.001271 -0.004874 -0.000347
# 4 -0.001609 0.001768 -0.001271 0.017100 -0.001299 -0.003777
# 5 -0.002931 0.004537 -0.004874 -0.001299 0.023763 0.001064
# 6 0.002096 -0.009998 -0.000347 -0.003777 0.001064 0.048453
#
#
# Mechanical properties :
#
#
# Convention : Reuss Voigt Hill
#
# Bulk Modulus (GPa) = 51.95931 78.65291 65.30611
# Shear Modulus (GPa) = 30.31693 42.81820 36.56756
#
# Velocity S-wave (km/s) = 3.55335 4.22289 3.90251
# Velocity P-wave (km/s) = 6.20282 7.51892 6.89236
#
# Compressibility (1/GPa) = 0.01924583
#
# Stress axis : x y z
#
# Youngs Moduli (GPa) = 62.79980 60.78837 84.41959
#
# Poissons Ratio (x) = 0.33529 -0.16508
# Poissons Ratio (y) = 0.34638 0.75359
# Poissons Ratio (z) = -0.12280 0.54264
#
# Static dielectric constant tensor:
#      x y z
#    x 2.021710 0.005180 -0.044460 
#    y 0.005180 1.908120 -0.002580 
#    z -0.044460 -0.002580 1.911190 
# 
# From -- ./inp_files/495143.got.cif
#   From: 2010.05.17/outbox.cif.g08.bks.cpg/sg2_248_cif.got.tgz:495143.got - 2010.06.03 11:33:40.
