data_PCOD9034607
_publ_section_title
;
Structure prediction by ZEFSAII (Michael W. Deem and Ramdas Pophale) SiO2 
 PCOD9034607
Probable space group: P -1
;
_chemical_formula_sum "Si O2"
_cell_formula_units_Z 16
_cell_length_a 11.690817
_cell_length_b 6.630679
_cell_length_c 11.288615
_cell_angle_alpha 100.288803
_cell_angle_beta 93.037992
_cell_angle_gamma 126.253981
_cell_volume 680.297358
_symmetry_space_group_name_H-M "P -1"
_symmetry_group_IT_number 2
_symmetry_cell_setting 'triclinic'
loop_
_space_group_symop_operation_xyz
x,y,z
-x,-y,-z
loop_
_atom_site_type_symbol
_atom_site_label
_atom_site_fract_x
_atom_site_fract_y
_atom_site_fract_z
Si Si1 0.815159 0.445468 0.454835
Si Si2 0.371208 0.973220 0.415207
Si Si3 0.645562 0.949373 0.027782
Si Si4 0.648789 0.650815 0.406917
Si Si5 0.723642 0.309883 0.865911
Si Si6 0.079724 0.853435 0.650375
Si Si7 0.471446 0.554267 0.169746
Si Si8 0.021699 0.817607 0.907857
O O1 0.768689 0.272713 0.551941
O O2 0.685333 0.455475 0.414811
O O3 0.863045 0.320039 0.354276
O O4 0.956148 0.723656 0.530291
O O5 0.348135 0.897297 0.267905
O O6 0.500000 0.000000 0.500000
O O7 0.367838 0.210659 0.470469
O O8 0.546411 0.679482 0.922049
O O9 0.653083 0.163261 0.971570
O O10 0.584794 0.837910 0.144532
O O11 0.814032 0.073032 0.049596
O O12 0.516405 0.554947 0.304194
O O13 0.786386 0.869521 0.358594
O O14 0.678575 0.492480 0.853993
O O15 0.897654 0.512662 0.897139
O O16 0.016313 0.855885 0.771173
O O17 0.000000 0.000000 0.000000
#
# Coordination Sequence:
#
# PCOD9034607 Si02
#       8
#     2   2   2   2   2   2   2   2
#     4  10  23  43  68  96 133 182 222 280 344 408
#     4  11  24  40  64 102 140 167 220 285 341 412
#     4  11  26  46  68  97 132 188 233 277 338 405
#     4  11  23  41  72 100 132 181 224 277 350 410
#     4  12  25  46  70  97 141 183 225 284 351 405
#     4  10  22  45  65  96 139 171 231 285 333 412
#     4  11  24  46  68 100 138 175 236 284 328 418
#     4  12  24  47  69  98 139 181 227 293 340 403
#
# _framework density 23.519124999999999
#
# number of rings (size 3 to 8) (size 9 to 14) (size 15 to 20)
#    0.000    1.000    5.000    1.125    1.750    2.500 
#    9.000    0.000    0.000    0.000    0.000    0.000 
#    0.000    0.000    0.000    0.000    0.000    0.000 
#
# Total GULP energy -89394.661268 kJ/mol
# GULP energy per Si atom -5587.166329 kJ/mol
# Density = 2.346559 g / cm^3
# Si number density = 23.519125 Si / 1000 Ang^3
#
#
#
# Elastic Constant Matrix: (Units=GPa)
#
#
# Indices 1 2 3 4 5 6 
#
# 1 90.4377 17.9615 19.7047 -7.8658 5.8210 -9.2011
# 2 17.9615 102.8003 37.7765 -15.7994 7.1069 11.7232
# 3 19.7047 37.7765 105.0028 -1.7197 -10.4404 -8.4743
# 4 -7.8658 -15.7994 -1.7197 31.8453 1.0415 -3.2522
# 5 5.8210 7.1069 -10.4404 1.0415 37.8573 0.5230
# 6 -9.2011 11.7232 -8.4743 -3.2522 0.5230 44.0707
#
#
#
# Elastic Compliance Matrix: (Units=1/GPa)
#
#
# Indices 1 2 3 4 5 6 
#
# 1 0.012368 -0.001229 -0.001838 0.002705 -0.002291 0.002782
# 2 -0.001229 0.013555 -0.005296 0.005814 -0.003915 -0.004405
# 3 -0.001838 -0.005296 0.012466 -0.002236 0.004732 0.003201
# 4 0.002705 0.005814 -0.002236 0.035059 -0.003105 0.001212
# 5 -0.002291 -0.003915 0.004732 -0.003105 0.028880 0.000901
# 6 0.002782 -0.004405 0.003201 0.001212 0.000901 0.025138
#
#
# Mechanical properties :
#
#
# Convention : Reuss Voigt Hill
#
# Bulk Modulus (GPa) = 46.15947 49.90290 48.03118
# Shear Modulus (GPa) = 33.02286 37.60788 35.31537
#
# Velocity S-wave (km/s) = 3.75118 4.00313 3.87920
# Velocity P-wave (km/s) = 6.19925 6.52923 6.36638
#
# Compressibility (1/GPa) = 0.02166403
#
# Stress axis : x y z
#
# Youngs Moduli (GPa) = 80.85667 73.77471 80.21971
#
# Poissons Ratio (x) = 0.09065 0.14742
# Poissons Ratio (y) = 0.09936 0.42481
# Poissons Ratio (z) = 0.14859 0.39068
#
# Static dielectric constant tensor:
#      x y z
#    x 1.911880 0.021960 -0.000060 
#    y 0.021960 1.916940 -0.022000 
#    z -0.000060 -0.022000 1.885390 
# 
# From -- ./inp_files/94504.got.cif
#   From: 2010.05.17/outbox.cif.g08.bks.cpg/sg2_48_cif.got.tgz:94504.got - 2010.06.03 11:33:40.
