data_PCOD9034040
_publ_section_title
;
Structure prediction by ZEFSAII (Michael W. Deem and Ramdas Pophale) SiO2 
 PCOD9034040
Probable space group: P -1
;
_chemical_formula_sum "Si O2"
_cell_formula_units_Z 13
_cell_length_a 13.979354
_cell_length_b 5.752843
_cell_length_c 18.758163
_cell_angle_alpha 90.666708
_cell_angle_beta 20.064247
_cell_angle_gamma 92.343412
_cell_volume 515.531705
_symmetry_space_group_name_H-M "P -1"
_symmetry_group_IT_number 2
_symmetry_cell_setting 'triclinic'
loop_
_space_group_symop_operation_xyz
x,y,z
-x,-y,-z
loop_
_atom_site_type_symbol
_atom_site_label
_atom_site_fract_x
_atom_site_fract_y
_atom_site_fract_z
Si Si1 0.336559 0.880571 0.833065
Si Si2 0.974331 0.663297 0.202280
Si Si3 0.230008 0.714267 0.328334
Si Si4 0.057817 0.007491 0.583465
Si Si5 0.728113 0.599549 0.898945
Si Si6 0.951848 0.264924 0.097820
Si Si7 0.500000 0.000000 0.500000
O O1 0.154330 0.699361 0.908123
O O2 0.656767 0.855034 0.591031
O O3 0.241781 0.807800 0.979145
O O4 0.242472 0.143116 0.890546
O O5 0.917677 0.438356 0.188767
O O6 0.061778 0.578953 0.218714
O O7 0.708754 0.811474 0.387949
O O8 0.186688 0.866731 0.427685
O O9 0.000000 0.500000 0.500000
O O10 0.541676 0.648963 0.098394
O O11 0.156316 0.843309 0.307383
O O12 0.902257 0.828624 0.747006
O O13 0.500000 0.500000 0.000000
O O14 0.728187 0.049681 0.277039
#
# Coordination Sequence:
#
# PCOD9034040 Si02
#       7
#     2   2   2   2   2   2   1
#     4  10  23  43  71 105 136 195 242 302 376 434
#     4  11  24  46  72 102 149 191 246 311 367 446
#     4  11  23  46  71 102 148 194 247 300 361 445
#     4  11  25  44  73 104 149 192 247 307 362 444
#     4  12  26  46  72 110 147 198 246 300 377 442
#     4  10  22  44  71 100 145 182 248 304 372 443
#     4  10  24  44  70 106 138 188 250 304 368 434
#
# _framework density 25.216684999999998
#
# number of rings (size 3 to 8) (size 9 to 14) (size 15 to 20)
#    0.000    1.231    1.538    3.231    4.308    1.231 
#   11.077    0.000    0.000    0.000    0.000    0.000 
#    0.000    0.000    0.000    0.000    0.000    0.000 
#
# Total GULP energy -72474.973120 kJ/mol
# GULP energy per Si atom -5574.997932 kJ/mol
# Density = 2.515929 g / cm^3
# Si number density = 25.216685 Si / 1000 Ang^3
#
#
#
# Elastic Constant Matrix: (Units=GPa)
#
#
# Indices 1 2 3 4 5 6 
#
# 1 106.4413 34.8094 15.8206 6.6611 -6.8105 -11.5459
# 2 34.8094 59.8943 35.4403 16.6179 -11.9718 -12.4786
# 3 15.8206 35.4403 141.7366 18.1866 -2.4996 -14.9905
# 4 6.6611 16.6179 18.1866 52.0641 -7.0557 4.0918
# 5 -6.8105 -11.9718 -2.4996 -7.0557 39.9775 4.2567
# 6 -11.5459 -12.4786 -14.9905 4.0918 4.2567 48.7145
#
#
#
# Elastic Compliance Matrix: (Units=1/GPa)
#
#
# Indices 1 2 3 4 5 6 
#
# 1 0.011699 -0.007020 0.000504 0.000466 -0.000113 0.001100
# 2 -0.007020 0.026981 -0.004743 -0.005654 0.005184 0.003810
# 3 0.000504 -0.004743 0.008595 -0.001875 -0.001322 0.001822
# 4 0.000466 -0.005654 -0.001875 0.022279 0.002629 -0.004016
# 5 -0.000113 0.005184 -0.001322 0.002629 0.027109 -0.001695
# 6 0.001100 0.003810 0.001822 -0.004016 -0.001695 0.022811
#
#
# Mechanical properties :
#
#
# Convention : Reuss Voigt Hill
#
# Bulk Modulus (GPa) = 40.39241 53.35697 46.87469
# Shear Modulus (GPa) = 33.27931 42.95136 38.11534
#
# Velocity S-wave (km/s) = 3.63676 4.13157 3.89204
# Velocity P-wave (km/s) = 5.80410 6.63062 6.23108
#
# Compressibility (1/GPa) = 0.02475713
#
# Stress axis : x y z
#
# Youngs Moduli (GPa) = 85.48036 37.06312 116.34528
#
# Poissons Ratio (x) = 0.26018 -0.05864
# Poissons Ratio (y) = 0.60006 0.55183
# Poissons Ratio (z) = -0.04309 0.17579
#
# Static dielectric constant tensor:
#      x y z
#    x 2.265150 0.135030 -0.038260 
#    y 0.135030 2.156710 -0.057350 
#    z -0.038260 -0.057350 1.951410 
# 
# From -- ./inp_files/596575.got.cif
#   From: 2010.05.17/outbox.cif.g08.bks.cpg/sg2_299_cif.got.tgz:596575.got - 2010.06.03 11:33:40.
