data_PCOD9034234
_publ_section_title
;
Structure prediction by ZEFSAII (Michael W. Deem and Ramdas Pophale) SiO2 
 PCOD9034234
Probable space group: P -1
;
_chemical_formula_sum "Si O2"
_cell_formula_units_Z 12
_cell_length_a 4.741266
_cell_length_b 16.005363
_cell_length_c 8.881792
_cell_angle_alpha 41.132938
_cell_angle_beta 87.768392
_cell_angle_gamma 84.961270
_cell_volume 441.269022
_symmetry_space_group_name_H-M "P -1"
_symmetry_group_IT_number 2
_symmetry_cell_setting 'triclinic'
loop_
_space_group_symop_operation_xyz
x,y,z
-x,-y,-z
loop_
_atom_site_type_symbol
_atom_site_label
_atom_site_fract_x
_atom_site_fract_y
_atom_site_fract_z
Si Si1 0.033345 0.745532 0.789816
Si Si2 0.121604 0.072026 0.047126
Si Si3 0.906912 0.690970 0.544211
Si Si4 0.181358 0.550029 0.294587
Si Si5 0.377229 0.753616 0.200597
Si Si6 0.533163 0.877754 0.492888
O O1 0.019755 0.661998 0.749974
O O2 0.808486 0.870891 0.605884
O O3 0.343273 0.790860 0.712503
O O4 0.002764 0.652909 0.054368
O O5 0.666831 0.816994 0.135671
O O6 0.308780 0.979717 0.280062
O O7 0.000000 0.000000 0.000000
O O8 0.830737 0.139005 0.028085
O O9 0.747746 0.575436 0.636525
O O10 0.686587 0.808811 0.439094
O O11 0.170728 0.723588 0.387447
O O12 0.411011 0.629760 0.263166
O O13 0.000000 0.500000 0.500000
#
# Coordination Sequence:
#
# PCOD9034234 Si02
#       6
#     2   2   2   2   2   2
#     4  10  22  44  72 106 144 189 241 291 357 431
#     4  12  26  45  74 104 147 188 247 301 350 431
#     4   9  23  43  73 106 149 184 245 287 356 427
#     4  10  23  51  71 109 147 193 233 299 367 436
#     4  11  26  42  71 111 145 190 237 300 363 420
#     4  10  24  42  71 110 136 187 252 293 350 412
#
# _framework density 27.194295
#
# number of rings (size 3 to 8) (size 9 to 14) (size 15 to 20)
#    1.000    0.667    0.000    3.000    7.000    2.000 
#    3.000   10.000    0.000    0.000    0.000    0.000 
#    0.000    0.000    0.000    0.000    0.000    0.000 
#
# Total GULP energy -66999.391114 kJ/mol
# GULP energy per Si atom -5583.282593 kJ/mol
# Density = 2.713240 g / cm^3
# Si number density = 27.194295 Si / 1000 Ang^3
#
#
#
# Elastic Constant Matrix: (Units=GPa)
#
#
# Indices 1 2 3 4 5 6 
#
# 1 200.4714 49.4751 46.3522 -0.7277 -6.8932 12.3918
# 2 49.4751 126.8372 26.8444 4.8099 -4.3689 29.7911
# 3 46.3522 26.8444 158.4587 10.3003 1.8600 2.9977
# 4 -0.7277 4.8099 10.3003 39.4271 -5.7667 -0.0486
# 5 -6.8932 -4.3689 1.8600 -5.7667 38.1718 -15.2349
# 6 12.3918 29.7911 2.9977 -0.0486 -15.2349 37.5551
#
#
#
# Elastic Compliance Matrix: (Units=1/GPa)
#
#
# Indices 1 2 3 4 5 6 
#
# 1 0.005850 -0.002032 -0.001444 0.000899 0.001133 0.000257
# 2 -0.002032 0.010992 -0.000957 -0.001573 -0.002962 -0.009177
# 3 -0.001444 -0.000957 0.007021 -0.001870 -0.000867 0.000321
# 4 0.000899 -0.001573 -0.001870 0.026865 0.005471 0.003355
# 5 0.001133 -0.002962 -0.000867 0.005471 0.033112 0.015485
# 6 0.000257 -0.009177 0.000321 0.003355 0.015485 0.040083
#
#
# Mechanical properties :
#
#
# Convention : Reuss Voigt Hill
#
# Bulk Modulus (GPa) = 66.67679 81.23452 73.95566
# Shear Modulus (GPa) = 36.28803 47.23717 41.76260
#
# Velocity S-wave (km/s) = 3.65690 4.17228 3.92307
# Velocity P-wave (km/s) = 6.51172 7.29022 6.91194
#
# Compressibility (1/GPa) = 0.01499772
#
# Stress axis : x y z
#
# Youngs Moduli (GPa) = 170.94732 90.97298 142.43181
#
# Poissons Ratio (x) = 0.18484 0.20561
# Poissons Ratio (y) = 0.34734 0.13634
# Poissons Ratio (z) = 0.24677 0.08708
#
# Static dielectric constant tensor:
#      x y z
#    x 2.049590 0.055390 0.085050 
#    y 0.055390 2.200770 -0.026610 
#    z 0.085050 -0.026610 2.282980 
# 
# From -- ./inp_files/137157.got.cif
#   From: 2010.05.17/outbox.cif.g08.bks.cpg/sg2_69_cif.got.tgz:137157.got - 2010.06.03 11:33:40.
