data_PCOD9034505
_publ_section_title
;
Structure prediction by ZEFSAII (Michael W. Deem and Ramdas Pophale) SiO2 
 PCOD9034505
Probable space group: P -1
;
_chemical_formula_sum "Si O2"
_cell_formula_units_Z 10
_cell_length_a 12.592203
_cell_length_b 13.188305
_cell_length_c 6.450556
_cell_angle_alpha 36.863543
_cell_angle_beta 134.296254
_cell_angle_gamma 145.582739
_cell_volume 360.904294
_symmetry_space_group_name_H-M "P -1"
_symmetry_group_IT_number 2
_symmetry_cell_setting 'triclinic'
loop_
_space_group_symop_operation_xyz
x,y,z
-x,-y,-z
loop_
_atom_site_type_symbol
_atom_site_label
_atom_site_fract_x
_atom_site_fract_y
_atom_site_fract_z
Si Si1 0.192924 0.948885 0.298611
Si Si2 0.164068 0.506072 0.468989
Si Si3 0.916255 0.166872 0.187178
Si Si4 0.291367 0.355794 0.539297
Si Si5 0.440618 0.944490 0.253965
O O1 0.363880 0.932394 0.557894
O O2 0.253900 0.174617 0.938435
O O3 0.999719 0.736218 0.287571
O O4 0.144174 0.934538 0.500023
O O5 0.256843 0.496388 0.404643
O O6 0.334244 0.687495 0.550769
O O7 0.061069 0.613247 0.121721
O O8 0.124433 0.235253 0.336197
O O9 0.725762 0.030155 0.008458
O O10 0.500000 0.500000 0.500000
O O11 0.500000 0.000000 0.000000
#
# Coordination Sequence:
#
# PCOD9034505 Si02
#       5
#     2   2   2   2   2
#     4  10  17  32  57  81 101 136 176 216 258 300
#     4   9  18  35  60  76 103 132 183 214 252 309
#     4   8  17  35  55  76  99 132 180 212 246 307
#     4  11  21  32  51  81 113 139 166 213 269 308
#     4   8  17  30  60  83  93 128 188 221 244 297
#
# _framework density 27.708175000000001
#
# number of rings (size 3 to 8) (size 9 to 14) (size 15 to 20)
#    1.200    1.600    0.000    4.800    0.000    0.800 
#    0.000    5.000    0.000   16.800    0.000    0.000 
#    0.000    0.000    0.000    0.000    0.000    0.000 
#
# Total GULP energy -55931.495700 kJ/mol
# GULP energy per Si atom -5593.149570 kJ/mol
# Density = 2.764511 g / cm^3
# Si number density = 27.708175 Si / 1000 Ang^3
#
#
#
# Elastic Constant Matrix: (Units=GPa)
#
#
# Indices 1 2 3 4 5 6 
#
# 1 61.3159 56.7605 0.9106 10.6087 13.8708 11.1552
# 2 56.7605 247.0181 65.7935 20.7891 -12.4514 17.0192
# 3 0.9106 65.7935 138.3858 2.5547 -18.6259 -0.0142
# 4 10.6087 20.7891 2.5547 60.2752 2.6761 -0.6152
# 5 13.8708 -12.4514 -18.6259 2.6761 24.7311 0.9887
# 6 11.1552 17.0192 -0.0142 -0.6152 0.9887 72.4775
#
#
#
# Elastic Compliance Matrix: (Units=1/GPa)
#
#
# Indices 1 2 3 4 5 6 
#
# 1 0.027887 -0.007253 0.000818 -0.001648 -0.018404 -0.002352
# 2 -0.007253 0.006783 -0.002366 -0.001228 0.005856 -0.000567
# 3 0.000818 -0.002366 0.009036 0.000065 0.005134 0.000362
# 4 -0.001648 -0.001228 0.000065 0.017378 -0.001554 0.000711
# 5 -0.018404 0.005856 0.005134 -0.001554 0.057714 0.000658
# 6 -0.002352 -0.000567 0.000362 0.000711 0.000658 0.014290
#
#
# Mechanical properties :
#
#
# Convention : Reuss Voigt Hill
#
# Bulk Modulus (GPa) = 38.30950 77.07211 57.69081
# Shear Modulus (GPa) = 31.36955 53.04713 42.20834
#
# Velocity S-wave (km/s) = 3.36838 4.38024 3.90720
# Velocity P-wave (km/s) = 5.38368 7.31150 6.42036
#
# Compressibility (1/GPa) = 0.02610319
#
# Stress axis : x y z
#
# Youngs Moduli (GPa) = 35.85873 147.43293 110.67409
#
# Poissons Ratio (x) = 1.06930 -0.09051
# Poissons Ratio (y) = 0.26008 0.26188
# Poissons Ratio (z) = -0.02933 0.34885
#
# Static dielectric constant tensor:
#      x y z
#    x 2.401400 -0.013490 -0.084150 
#    y -0.013490 2.158700 0.005980 
#    z -0.084150 0.005980 2.103790 
# 
# From -- ./inp_files/146387.got.cif
#   From: 2010.05.17/outbox.cif.g08.bks.cpg/sg2_74_cif.got.tgz:146387.got - 2010.06.03 11:33:40.
