data_PCOD9034137
_publ_section_title
;
Structure prediction by ZEFSAII (Michael W. Deem and Ramdas Pophale) SiO2 
 PCOD9034137
Probable space group: P -1
;
_chemical_formula_sum "Si O2"
_cell_formula_units_Z 14
_cell_length_a 11.185421
_cell_length_b 15.048397
_cell_length_c 9.378671
_cell_angle_alpha 121.935745
_cell_angle_beta 65.023387
_cell_angle_gamma 154.870298
_cell_volume 561.856543
_symmetry_space_group_name_H-M "P -1"
_symmetry_group_IT_number 2
_symmetry_cell_setting 'triclinic'
loop_
_space_group_symop_operation_xyz
x,y,z
-x,-y,-z
loop_
_atom_site_type_symbol
_atom_site_label
_atom_site_fract_x
_atom_site_fract_y
_atom_site_fract_z
Si Si1 0.220419 0.041513 0.445958
Si Si2 0.087257 0.573786 0.357140
Si Si3 0.582514 0.173179 0.054775
Si Si4 0.562914 0.600698 0.340099
Si Si5 0.448682 0.277122 0.802447
Si Si6 0.156872 0.766736 0.267057
Si Si7 0.485021 0.319053 0.151509
O O1 0.443316 0.287690 0.488643
O O2 0.200202 0.055892 0.637575
O O3 0.309846 0.984421 0.342837
O O4 0.906483 0.827446 0.357345
O O5 0.310514 0.640566 0.267039
O O6 0.178368 0.753542 0.411767
O O7 0.000000 0.500000 0.500000
O O8 0.827402 0.373521 0.211465
O O9 0.379618 0.132967 0.110629
O O10 0.700727 0.228872 0.885327
O O11 0.500000 0.000000 0.000000
O O12 0.461851 0.557326 0.194033
O O13 0.429904 0.400590 0.297598
O O14 0.398140 0.258815 0.977660
O O15 0.830819 0.550808 0.192264
#
# Coordination Sequence:
#
# PCOD9034137 Si02
#       7
#     2   2   2   2   2   2   2
#     4   8  18  30  55  86 112 143 187 236 276 340
#     4  11  23  37  56  85 117 153 191 236 282 335
#     4  11  23  37  57  83 117 152 191 234 290 334
#     4   8  17  32  53  88 112 144 192 225 288 338
#     4  10  17  32  56  84 114 145 190 231 278 334
#     4  10  19  39  57  79 119 151 186 232 294 336
#     4  10  17  35  59  79 113 151 187 231 282 345
#
# _framework density 24.917393000000001
#
# number of rings (size 3 to 8) (size 9 to 14) (size 15 to 20)
#    0.857    1.429    2.857    1.286    2.000    1.714 
#    0.000    0.000    0.000   18.000    0.000    0.000 
#    0.000    0.000    0.000    0.000    0.000    0.000 
#
# Total GULP energy -78003.893622 kJ/mol
# GULP energy per Si atom -5571.706687 kJ/mol
# Density = 2.486068 g / cm^3
# Si number density = 24.917393 Si / 1000 Ang^3
#
#
#
# Elastic Constant Matrix: (Units=GPa)
#
#
# Indices 1 2 3 4 5 6 
#
# 1 169.0365 46.4589 53.3477 5.8512 3.9501 -59.9847
# 2 46.4589 56.1482 13.8502 -1.0122 -3.3019 -28.3462
# 3 53.3477 13.8502 90.6068 -7.3293 -2.3153 -16.6470
# 4 5.8512 -1.0122 -7.3293 24.1044 -9.1305 -4.0825
# 5 3.9501 -3.3019 -2.3153 -9.1305 52.1353 7.6289
# 6 -59.9847 -28.3462 -16.6470 -4.0825 7.6289 49.4960
#
#
#
# Elastic Compliance Matrix: (Units=1/GPa)
#
#
# Indices 1 2 3 4 5 6 
#
# 1 0.013331 -0.003721 -0.005462 -0.004497 -0.004097 0.012449
# 2 -0.003721 0.026467 0.000564 0.004492 0.001156 0.011031
# 3 -0.005462 0.000564 0.014521 0.006466 0.002410 -0.001250
# 4 -0.004497 0.004492 0.006466 0.048512 0.009131 0.001892
# 5 -0.004097 0.001156 0.002410 0.009131 0.022172 -0.006158
# 6 0.012449 0.011031 -0.001250 0.001892 -0.006158 0.042293
#
#
# Mechanical properties :
#
#
# Convention : Reuss Voigt Hill
#
# Bulk Modulus (GPa) = 26.96584 60.34502 43.65543
# Shear Modulus (GPa) = 25.39443 38.62277 32.00860
#
# Velocity S-wave (km/s) = 3.19587 3.94132 3.58800
# Velocity P-wave (km/s) = 4.94608 6.70690 5.89263
#
# Compressibility (1/GPa) = 0.03708395
#
# Stress axis : x y z
#
# Youngs Moduli (GPa) = 75.01084 37.78272 68.86517
#
# Poissons Ratio (x) = 0.14057 0.37612
# Poissons Ratio (y) = 0.27908 -0.03887
# Poissons Ratio (z) = 0.40969 -0.02133
#
# Static dielectric constant tensor:
#      x y z
#    x 2.095410 -0.264750 -0.002250 
#    y -0.264750 2.410830 -0.055860 
#    z -0.002250 -0.055860 2.004290 
# 
# From -- ./inp_files/273709.got.cif
#   From: 2010.05.17/outbox.cif.g08.bks.cpg/sg2_137_cif.got.tgz:273709.got - 2010.06.03 11:33:40.
