data_PCOD9034853
_publ_section_title
;
Structure prediction by ZEFSAII (Michael W. Deem and Ramdas Pophale) SiO2 
 PCOD9034853
Probable space group: P -1
;
_chemical_formula_sum "Si O2"
_cell_formula_units_Z 16
_cell_length_a 10.895362
_cell_length_b 9.581718
_cell_length_c 13.818132
_cell_angle_alpha 88.908105
_cell_angle_beta 148.285240
_cell_angle_gamma 101.949684
_cell_volume 706.457304
_symmetry_space_group_name_H-M "P -1"
_symmetry_group_IT_number 2
_symmetry_cell_setting 'triclinic'
loop_
_space_group_symop_operation_xyz
x,y,z
-x,-y,-z
loop_
_atom_site_type_symbol
_atom_site_label
_atom_site_fract_x
_atom_site_fract_y
_atom_site_fract_z
Si Si1 0.870676 0.650083 0.769878
Si Si2 0.587123 0.499236 0.393592
Si Si3 0.675427 0.428458 0.943271
Si Si4 0.332614 0.804037 0.573320
Si Si5 0.114173 0.241679 0.855585
Si Si6 0.765219 0.044584 0.308565
Si Si7 0.826855 0.955478 0.789928
Si Si8 0.570227 0.222082 0.047595
O O1 0.790865 0.576815 0.611480
O O2 0.670446 0.553840 0.715875
O O3 0.863907 0.815037 0.764802
O O4 0.141573 0.648662 0.975570
O O5 0.560524 0.598556 0.284572
O O6 0.616224 0.348831 0.374818
O O7 0.631178 0.372828 0.024826
O O8 0.817126 0.607058 0.039551
O O9 0.049262 0.751012 0.346444
O O10 0.348902 0.908209 0.674010
O O11 0.539884 0.897918 0.633195
O O12 0.932114 0.100489 0.793173
O O13 0.364053 0.218393 0.989015
O O14 0.566053 0.904151 0.121905
O O15 0.789563 0.180241 0.247003
O O16 0.000000 0.000000 0.500000
O O17 0.000000 0.000000 0.000000
#
# Coordination Sequence:
#
# PCOD9034853 Si02
#       8
#     2   2   2   2   2   2   2   2
#     4  10  23  43  68 104 135 179 235 286 341 413
#     4  10  22  45  68  98 144 178 228 289 345 410
#     4  12  25  43  72  99 139 189 228 284 347 406
#     4  11  23  45  69 102 136 185 230 286 355 409
#     4  12  24  47  68 100 144 180 233 290 343 415
#     4  11  24  47  72  99 140 180 231 293 342 407
#     4  11  25  43  72 101 139 180 229 290 351 413
#     4  11  27  44  69 102 137 185 237 279 344 421
#
# _framework density 22.648216999999999
#
# number of rings (size 3 to 8) (size 9 to 14) (size 15 to 20)
#    0.000    1.000    2.500    4.125    5.250    2.000 
#    0.000    1.250    0.000    0.000    0.000    0.000 
#    0.000    0.000    0.000    0.000    0.000    0.000 
#
# Total GULP energy -89475.073741 kJ/mol
# GULP energy per Si atom -5592.192109 kJ/mol
# Density = 2.259667 g / cm^3
# Si number density = 22.648217 Si / 1000 Ang^3
#
#
#
# Elastic Constant Matrix: (Units=GPa)
#
#
# Indices 1 2 3 4 5 6 
#
# 1 83.7465 61.1819 30.5087 -15.0537 -2.4009 -26.6578
# 2 61.1819 110.4888 33.9968 -16.2618 -2.9001 2.7746
# 3 30.5087 33.9968 87.3561 -32.6462 3.6977 5.5700
# 4 -15.0537 -16.2618 -32.6462 44.5734 -4.6084 -11.7071
# 5 -2.4009 -2.9001 3.6977 -4.6084 23.8201 -2.7146
# 6 -26.6578 2.7746 5.5700 -11.7071 -2.7146 31.7267
#
#
#
# Elastic Compliance Matrix: (Units=1/GPa)
#
#
# Indices 1 2 3 4 5 6 
#
# 1 0.062210 -0.030332 -0.005477 0.025031 0.015846 0.066477
# 2 -0.030332 0.025220 -0.000950 -0.010704 -0.005551 -0.031950
# 3 -0.005477 -0.000950 0.017579 0.009322 -0.002088 -0.004344
# 4 0.025031 -0.010704 0.009322 0.045143 0.012847 0.038088
# 5 0.015846 -0.005551 -0.002088 0.012847 0.048338 0.023043
# 6 0.066477 -0.031950 -0.004344 0.038088 0.023043 0.106958
#
#
# Mechanical properties :
#
#
# Convention : Reuss Voigt Hill
#
# Bulk Modulus (GPa) = 31.75508 59.21847 45.48677
# Shear Modulus (GPa) = 12.83817 30.41765 21.62791
#
# Velocity S-wave (km/s) = 2.38345 3.66874 3.09358
# Velocity P-wave (km/s) = 4.65036 6.64455 5.73480
#
# Compressibility (1/GPa) = 0.03149102
#
# Stress axis : x y z
#
# Youngs Moduli (GPa) = 16.07460 39.65073 56.88589
#
# Poissons Ratio (x) = 1.20269 0.31157
# Poissons Ratio (y) = 0.48758 0.05403
# Poissons Ratio (z) = 0.08804 0.03766
#
# Static dielectric constant tensor:
#      x y z
#    x 1.834010 0.053300 -0.019530 
#    y 0.053300 1.877690 -0.045930 
#    z -0.019530 -0.045930 1.857320 
# 
# From -- ./inp_files/515714.got.cif
#   From: 2010.05.17/outbox.cif.g08.bks.cpg/sg2_258_cif.got.tgz:515714.got - 2010.06.03 11:33:40.
