data_PCOD9034835
_publ_section_title
;
Structure prediction by ZEFSAII (Michael W. Deem and Ramdas Pophale) SiO2 
 PCOD9034835
Probable space group: P -1
;
_chemical_formula_sum "Si O2"
_cell_formula_units_Z 14
_cell_length_a 11.782089
_cell_length_b 9.400167
_cell_length_c 5.258457
_cell_angle_alpha 92.990099
_cell_angle_beta 98.895077
_cell_angle_gamma 80.894549
_cell_volume 567.909122
_symmetry_space_group_name_H-M "P -1"
_symmetry_group_IT_number 2
_symmetry_cell_setting 'triclinic'
loop_
_space_group_symop_operation_xyz
x,y,z
-x,-y,-z
loop_
_atom_site_type_symbol
_atom_site_label
_atom_site_fract_x
_atom_site_fract_y
_atom_site_fract_z
Si Si1 0.764738 0.729006 0.775882
Si Si2 0.258108 0.955375 0.022504
Si Si3 0.813409 0.447526 0.068008
Si Si4 0.370095 0.461998 0.592587
Si Si5 0.881780 0.102391 0.536137
Si Si6 0.992294 0.666298 0.584222
Si Si7 0.404239 0.685538 0.233593
O O1 0.654306 0.665119 0.618899
O O2 0.862212 0.745507 0.596349
O O3 0.732628 0.875605 0.935127
O O4 0.827080 0.595254 0.950630
O O5 0.167263 0.931167 0.211596
O O6 0.373697 0.850547 0.152276
O O7 0.211359 0.912226 0.725792
O O8 0.754730 0.492602 0.322512
O O9 0.931782 0.341279 0.132094
O O10 0.709439 0.376256 0.906879
O O11 0.407224 0.610501 0.509742
O O12 0.467432 0.385674 0.813212
O O13 0.928481 0.254694 0.565203
O O14 0.000000 0.000000 0.500000
O O15 0.000000 0.500000 0.500000
#
# Coordination Sequence:
#
# PCOD9034835 Si02
#       7
#     2   2   2   2   2   2   2
#     4  11  26  40  64 100 136 178 222 288 340 414
#     4  12  27  46  69 103 142 183 231 276 350 411
#     4  11  22  41  66  97 130 174 233 281 348 398
#     4  10  22  45  68  97 132 176 237 287 341 398
#     4  12  27  46  70 101 144 185 225 277 347 417
#     4  12  24  41  69  98 136 178 224 287 341 413
#     4  10  23  43  70  96 132 180 233 289 337 410
#
# _framework density 24.651831999999999
#
# number of rings (size 3 to 8) (size 9 to 14) (size 15 to 20)
#    0.000    0.857    4.286    2.143    6.000    0.571 
#    0.000    0.714    0.000    0.000    0.000    0.000 
#    0.000    0.000    0.000    0.000    0.000    0.000 
#
# Total GULP energy -78147.838619 kJ/mol
# GULP energy per Si atom -5581.988473 kJ/mol
# Density = 2.459572 g / cm^3
# Si number density = 24.651832 Si / 1000 Ang^3
#
#
#
# Elastic Constant Matrix: (Units=GPa)
#
#
# Indices 1 2 3 4 5 6 
#
# 1 90.2033 6.5107 6.6590 1.5375 24.8950 -7.1616
# 2 6.5107 63.5532 0.3843 9.1804 9.4710 8.3236
# 3 6.6590 0.3843 57.2348 2.4229 3.2010 5.7262
# 4 1.5375 9.1804 2.4229 32.7243 -1.3125 7.7487
# 5 24.8950 9.4710 3.2010 -1.3125 29.0856 -12.1950
# 6 -7.1616 8.3236 5.7262 7.7487 -12.1950 46.1270
#
#
#
# Elastic Compliance Matrix: (Units=1/GPa)
#
#
# Indices 1 2 3 4 5 6 
#
# 1 0.014673 0.000774 -0.000819 -0.001124 -0.013219 -0.001066
# 2 0.000774 0.018274 0.000971 -0.004428 -0.008986 -0.004930
# 3 -0.000819 0.000971 0.018085 -0.000940 -0.002980 -0.003177
# 4 -0.001124 -0.004428 -0.000940 0.033010 0.002230 -0.004215
# 5 -0.013219 -0.008986 -0.002980 0.002230 0.054960 0.014095
# 6 -0.001066 -0.004930 -0.003177 -0.004215 0.014095 0.027232
#
#
# Mechanical properties :
#
#
# Convention : Reuss Voigt Hill
#
# Bulk Modulus (GPa) = 18.90969 26.45549 22.68259
# Shear Modulus (GPa) = 27.47066 34.74985 31.11025
#
# Velocity S-wave (km/s) = 3.34180 3.75857 3.55630
# Velocity P-wave (km/s) = 4.75158 5.43974 5.10727
#
# Compressibility (1/GPa) = 0.05288294
#
# Stress axis : x y z
#
# Youngs Moduli (GPa) = 68.15055 54.72192 55.29444
#
# Poissons Ratio (x) = -0.04233 0.04528
# Poissons Ratio (y) = -0.05272 -0.05367
# Poissons Ratio (z) = 0.05581 -0.05311
#
# Static dielectric constant tensor:
#      x y z
#    x 2.044760 0.040700 -0.001730 
#    y 0.040700 2.030150 0.000440 
#    z -0.001730 0.000440 2.092820 
# 
# From -- ./inp_files/26962.got.cif
#   From: 2010.05.17/outbox.cif.g08.bks.cpg/sg2_14_cif.got.tgz:26962.got - 2010.06.03 11:33:40.
