data_PCOD9034691
_publ_section_title
;
Structure prediction by ZEFSAII (Michael W. Deem and Ramdas Pophale) SiO2 
 PCOD9034691
Probable space group: P -1
;
_chemical_formula_sum "Si O2"
_cell_formula_units_Z 14
_cell_length_a 12.964211
_cell_length_b 10.120802
_cell_length_c 7.753594
_cell_angle_alpha 59.596364
_cell_angle_beta 107.439683
_cell_angle_gamma 64.318829
_cell_volume 588.639687
_symmetry_space_group_name_H-M "P -1"
_symmetry_group_IT_number 2
_symmetry_cell_setting 'triclinic'
loop_
_space_group_symop_operation_xyz
x,y,z
-x,-y,-z
loop_
_atom_site_type_symbol
_atom_site_label
_atom_site_fract_x
_atom_site_fract_y
_atom_site_fract_z
Si Si1 0.168989 0.181680 0.915190
Si Si2 0.677575 0.328611 0.226576
Si Si3 0.671159 0.774051 0.280830
Si Si4 0.207480 0.473912 0.817747
Si Si5 0.873892 0.375351 0.837752
Si Si6 0.676199 0.296755 0.655842
Si Si7 0.944053 0.880854 0.560995
O O1 0.211420 0.214798 0.731253
O O2 0.211578 0.289074 0.986016
O O3 0.999843 0.298563 0.808290
O O4 0.278487 0.925449 0.149591
O O5 0.722833 0.451754 0.094332
O O6 0.706936 0.289254 0.472022
O O7 0.763804 0.095493 0.339965
O O8 0.500000 0.500000 0.000000
O O9 0.704015 0.609900 0.263778
O O10 0.732891 0.639620 0.577743
O O11 0.500000 0.000000 0.000000
O O12 0.030350 0.703863 0.571629
O O13 0.794892 0.290187 0.819519
O O14 0.980015 0.267550 0.131742
O O15 0.500000 0.500000 0.500000
O O16 0.000000 0.000000 0.500000
#
# Coordination Sequence:
#
# PCOD9034691 Si02
#       7
#     2   2   2   2   2   2   2
#     4  10  23  42  71 102 138 179 232 294 348 414
#     4  11  24  47  67  99 143 187 231 287 355 425
#     4  10  22  45  67 103 142 175 225 297 356 413
#     4   9  23  46  67  97 144 175 236 286 351 425
#     4  12  23  45  75  98 140 187 241 289 347 424
#     4  12  25  42  70 107 138 181 240 289 358 417
#     4  10  24  46  69 101 138 187 242 284 349 423
#
# _framework density 23.783649
#
# number of rings (size 3 to 8) (size 9 to 14) (size 15 to 20)
#    0.857    0.571    2.857    1.714    4.000    0.571 
#    2.571    1.429    0.000    0.000    0.000    0.000 
#    0.000    0.000    0.000    0.000    0.000    0.000 
#
# Total GULP energy -77953.807454 kJ/mol
# GULP energy per Si atom -5568.129104 kJ/mol
# Density = 2.372952 g / cm^3
# Si number density = 23.783649 Si / 1000 Ang^3
#
#
#
# Elastic Constant Matrix: (Units=GPa)
#
#
# Indices 1 2 3 4 5 6 
#
# 1 99.6278 17.0256 18.0717 -22.4317 -1.8443 19.6077
# 2 17.0256 97.9061 34.9542 -41.5728 -1.7398 -2.9740
# 3 18.0717 34.9542 113.6480 -45.5021 -5.0449 4.7762
# 4 -22.4317 -41.5728 -45.5021 54.8139 -3.6602 -4.9643
# 5 -1.8443 -1.7398 -5.0449 -3.6602 52.4578 -11.4827
# 6 19.6077 -2.9740 4.7762 -4.9643 -11.4827 38.3020
#
#
#
# Elastic Compliance Matrix: (Units=1/GPa)
#
#
# Indices 1 2 3 4 5 6 
#
# 1 0.012194 -0.000651 0.000078 0.003980 -0.000615 -0.005971
# 2 -0.000651 0.015594 0.000103 0.012132 0.002173 0.003755
# 3 0.000078 0.000103 0.013409 0.011426 0.002188 0.000433
# 4 0.003980 0.012132 0.011426 0.039288 0.005293 0.004159
# 5 -0.000615 0.002173 0.002188 0.005293 0.021286 0.007278
# 6 -0.005971 0.003755 0.000433 0.004159 0.007278 0.032124
#
#
# Mechanical properties :
#
#
# Convention : Reuss Voigt Hill
#
# Bulk Modulus (GPa) = 24.83982 50.14276 37.49129
# Shear Modulus (GPa) = 33.72584 45.19010 39.45797
#
# Velocity S-wave (km/s) = 3.76975 4.36368 4.07755
# Velocity P-wave (km/s) = 5.42354 6.82038 6.16167
#
# Compressibility (1/GPa) = 0.04025795
#
# Stress axis : x y z
#
# Youngs Moduli (GPa) = 82.00552 64.12641 74.57822
#
# Poissons Ratio (x) = 0.04174 -0.00583
# Poissons Ratio (y) = 0.05338 -0.00769
# Poissons Ratio (z) = -0.00641 -0.00661
#
# Static dielectric constant tensor:
#      x y z
#    x 1.906890 0.017370 0.054740 
#    y 0.017370 2.081860 0.069480 
#    z 0.054740 0.069480 1.980150 
# 
# From -- ./inp_files/306762.got.cif
#   From: 2010.05.17/outbox.cif.g08.bks.cpg/sg2_154_cif.got.tgz:306762.got - 2010.06.03 11:33:40.
