data_PCOD9034622
_publ_section_title
;
Structure prediction by ZEFSAII (Michael W. Deem and Ramdas Pophale) SiO2 
 PCOD9034622
Probable space group: P -1
;
_chemical_formula_sum "Si O2"
_cell_formula_units_Z 16
_cell_length_a 14.723995
_cell_length_b 14.371713
_cell_length_c 8.633815
_cell_angle_alpha 95.331714
_cell_angle_beta 121.491411
_cell_angle_gamma 36.925588
_cell_volume 723.992981
_symmetry_space_group_name_H-M "P -1"
_symmetry_group_IT_number 2
_symmetry_cell_setting 'triclinic'
loop_
_space_group_symop_operation_xyz
x,y,z
-x,-y,-z
loop_
_atom_site_type_symbol
_atom_site_label
_atom_site_fract_x
_atom_site_fract_y
_atom_site_fract_z
Si Si1 0.052665 0.395033 0.291151
Si Si2 0.429397 0.496400 0.088237
Si Si3 0.450447 0.990851 0.785515
Si Si4 0.799620 0.969110 0.014238
Si Si5 0.944254 0.655683 0.064761
Si Si6 0.049349 0.059058 0.144164
Si Si7 0.122477 0.873270 0.433618
Si Si8 0.561439 0.731130 0.012551
O O1 0.251160 0.192956 0.537819
O O2 0.000259 0.387751 0.075333
O O3 0.820336 0.566868 0.208856
O O4 0.087487 0.474729 0.273998
O O5 0.633730 0.362372 0.365101
O O6 0.500000 0.500000 0.000000
O O7 0.188174 0.710869 0.979036
O O8 0.439891 0.377864 0.041856
O O9 0.683917 0.820491 0.871309
O O10 0.500000 0.000000 0.000000
O O11 0.421698 0.904497 0.793110
O O12 0.947178 0.937506 0.212998
O O13 0.930213 0.771451 0.129989
O O14 0.801934 0.988761 0.837088
O O15 0.557370 0.158467 0.911297
O O16 0.165739 0.931866 0.381706
O O17 0.000000 0.000000 0.000000
O O18 0.000000 0.000000 0.500000
#
# Coordination Sequence:
#
# PCOD9034622 Si02
#       8
#     2   2   2   2   2   2   2   2
#     4  10  24  44  72  95 134 182 225 285 343 412
#     4  12  23  42  68  98 132 180 227 275 337 409
#     4  11  23  45  69 101 137 173 230 287 341 410
#     4  11  22  43  64  98 141 171 226 284 335 403
#     4  10  22  45  66 101 135 173 230 280 345 411
#     4  10  23  42  64  93 134 171 223 284 329 397
#     4  11  22  43  68  95 137 181 224 279 339 396
#     4  11  24  41  66  98 134 177 234 272 343 408
#
# _framework density 22.099663
#
# number of rings (size 3 to 8) (size 9 to 14) (size 15 to 20)
#    0.000    1.250    3.750    1.875    0.000    7.000 
#    2.250    2.500    0.000    0.000    0.000    0.000 
#    0.000    0.000    0.000    0.000    0.000    0.000 
#
# Total GULP energy -89360.331874 kJ/mol
# GULP energy per Si atom -5585.020742 kJ/mol
# Density = 2.204936 g / cm^3
# Si number density = 22.099663 Si / 1000 Ang^3
#
#
#
# Elastic Constant Matrix: (Units=GPa)
#
#
# Indices 1 2 3 4 5 6 
#
# 1 125.3910 51.9094 45.9928 -7.0706 -37.0321 -6.0855
# 2 51.9094 122.1911 29.1230 -12.5251 -22.6462 0.0243
# 3 45.9928 29.1230 119.1886 -27.9045 -33.5622 -11.0921
# 4 -7.0706 -12.5251 -27.9045 29.6060 7.1671 2.7510
# 5 -37.0321 -22.6462 -33.5622 7.1671 30.8213 -3.4624
# 6 -6.0855 0.0243 -11.0921 2.7510 -3.4624 56.0730
#
#
#
# Elastic Compliance Matrix: (Units=1/GPa)
#
#
# Indices 1 2 3 4 5 6 
#
# 1 0.013781 -0.003309 -0.000993 -0.002626 0.013913 0.002288
# 2 -0.003309 0.010447 0.000403 0.003216 0.003365 -0.000234
# 3 -0.000993 0.000403 0.015355 0.010793 0.013678 0.003245
# 4 -0.002626 0.003216 0.010793 0.044576 0.000562 -0.000303
# 5 0.013913 0.003365 0.013678 0.000562 0.067335 0.008344
# 6 0.002288 -0.000234 0.003245 -0.000303 0.008344 0.019254
#
#
# Mechanical properties :
#
#
# Convention : Reuss Voigt Hill
#
# Bulk Modulus (GPa) = 31.46144 68.98013 50.22078
# Shear Modulus (GPa) = 26.43511 39.28309 32.85910
#
# Velocity S-wave (km/s) = 3.46233 4.22067 3.86017
# Velocity P-wave (km/s) = 5.50007 7.41842 6.53007
#
# Compressibility (1/GPa) = 0.03178494
#
# Stress axis : x y z
#
# Youngs Moduli (GPa) = 72.56282 95.72214 65.12331
#
# Poissons Ratio (x) = 0.31673 0.06470
# Poissons Ratio (y) = 0.24010 -0.02624
# Poissons Ratio (z) = 0.07209 -0.03857
#
# Static dielectric constant tensor:
#      x y z
#    x 1.822550 0.025070 -0.037790 
#    y 0.025070 1.832910 0.029230 
#    z -0.037790 0.029230 1.847230 
# 
# From -- ./inp_files/313182.got.cif
#   From: 2010.05.17/outbox.cif.g08.bks.cpg/sg2_157_cif.got.tgz:313182.got - 2010.06.03 11:33:40.
