data_PCOD9034237
_publ_section_title
;
Structure prediction by ZEFSAII (Michael W. Deem and Ramdas Pophale) SiO2 
 PCOD9034237
Probable space group: P -1
;
_chemical_formula_sum "Si O2"
_cell_formula_units_Z 16
_cell_length_a 8.090121
_cell_length_b 12.379138
_cell_length_c 14.873136
_cell_angle_alpha 135.849241
_cell_angle_beta 122.760114
_cell_angle_gamma 88.421011
_cell_volume 687.451041
_symmetry_space_group_name_H-M "P -1"
_symmetry_group_IT_number 2
_symmetry_cell_setting 'triclinic'
loop_
_space_group_symop_operation_xyz
x,y,z
-x,-y,-z
loop_
_atom_site_type_symbol
_atom_site_label
_atom_site_fract_x
_atom_site_fract_y
_atom_site_fract_z
Si Si1 0.709493 0.230612 0.926867
Si Si2 0.855893 0.744669 0.912218
Si Si3 0.730548 0.225543 0.226830
Si Si4 0.971521 0.678888 0.329852
Si Si5 0.675336 0.727803 0.157785
Si Si6 0.554551 0.186700 0.344938
Si Si7 0.110710 0.198212 0.246388
Si Si8 0.423395 0.563585 0.801564
O O1 0.454855 0.183166 0.785399
O O2 0.609711 0.049915 0.857119
O O3 0.851279 0.454992 0.132620
O O4 0.933218 0.238069 0.955020
O O5 0.876089 0.710479 0.792471
O O6 0.590622 0.581989 0.780891
O O7 0.916054 0.957796 0.050209
O O8 0.681722 0.274297 0.339185
O O9 0.716959 0.354555 0.227501
O O10 0.990295 0.258963 0.316791
O O11 0.500000 0.000000 0.000000
O O12 0.936689 0.793008 0.311337
O O13 0.789029 0.642948 0.337008
O O14 0.241843 0.764024 0.493374
O O15 0.500000 0.500000 0.000000
O O16 0.627121 0.713162 0.027816
O O17 0.374888 0.237956 0.354045
#
# Coordination Sequence:
#
# PCOD9034237 Si02
#       8
#     2   2   2   2   2   2   2   2
#     4   9  19  37  61  82 112 156 191 242 296 334
#     4  10  17  32  56  86 117 150 194 235 291 351
#     4  12  19  34  62  89 118 155 191 235 294 347
#     4  10  22  41  57  83 118 152 202 243 286 345
#     4   8  17  36  59  81 110 152 199 243 287 337
#     4  11  23  38  60  89 120 156 193 236 291 358
#     4  10  19  33  53  89 126 149 190 241 279 353
#     4  10  18  33  58  86 113 154 197 238 290 350
#
# _framework density 23.274386
#
# number of rings (size 3 to 8) (size 9 to 14) (size 15 to 20)
#    0.000    2.250    2.500    4.500    0.000    1.000 
#    2.250    6.875    0.000    1.500    0.000    0.000 
#    0.000    0.000    0.000    0.000    0.000    0.000 
#
# Total GULP energy -89135.895400 kJ/mol
# GULP energy per Si atom -5570.993462 kJ/mol
# Density = 2.322141 g / cm^3
# Si number density = 23.274386 Si / 1000 Ang^3
#
#
#
# Elastic Constant Matrix: (Units=GPa)
#
#
# Indices 1 2 3 4 5 6 
#
# 1 143.8898 37.1185 31.5400 -22.4519 35.1977 -15.2365
# 2 37.1185 81.1487 20.5828 -18.2806 8.5923 -28.8132
# 3 31.5400 20.5828 86.5286 -18.3769 21.2830 -16.6277
# 4 -22.4519 -18.2806 -18.3769 37.0015 -18.5783 15.8484
# 5 35.1977 8.5923 21.2830 -18.5783 29.4882 -9.8902
# 6 -15.2365 -28.8132 -16.6277 15.8484 -9.8902 28.8974
#
#
#
# Elastic Compliance Matrix: (Units=1/GPa)
#
#
# Indices 1 2 3 4 5 6 
#
# 1 0.011040 -0.004963 -0.000470 -0.001260 -0.013276 -0.003251
# 2 -0.004963 0.021610 -0.001097 0.003269 0.009054 0.019605
# 3 -0.000470 -0.001097 0.014911 0.000827 -0.008003 0.004045
# 4 -0.001260 0.003269 0.000827 0.046706 0.024649 -0.014108
# 5 -0.013276 0.009054 -0.008003 0.024649 0.071200 0.008273
# 6 -0.003251 0.019605 0.004045 -0.014108 0.008273 0.065336
#
#
# Mechanical properties :
#
#
# Convention : Reuss Voigt Hill
#
# Bulk Modulus (GPa) = 28.98479 54.44998 41.71739
# Shear Modulus (GPa) = 19.57998 33.89914 26.73956
#
# Velocity S-wave (km/s) = 2.90361 3.82055 3.39320
# Velocity P-wave (km/s) = 4.87050 6.55040 5.77190
#
# Compressibility (1/GPa) = 0.03450085
#
# Stress axis : x y z
#
# Youngs Moduli (GPa) = 90.58168 46.27422 67.06601
#
# Poissons Ratio (x) = 0.22965 0.03155
# Poissons Ratio (y) = 0.44954 0.07355
# Poissons Ratio (z) = 0.04261 0.05075
#
# Static dielectric constant tensor:
#      x y z
#    x 1.949180 -0.002620 0.032630 
#    y -0.002620 1.858480 0.003790 
#    z 0.032630 0.003790 2.068310 
# 
# From -- ./inp_files/499341.got.cif
#   From: 2010.05.17/outbox.cif.g08.bks.cpg/sg2_250_cif.got.tgz:499341.got - 2010.06.03 11:33:40.
