data_PCOD9034034
_publ_section_title
;
Structure prediction by ZEFSAII (Michael W. Deem and Ramdas Pophale) SiO2 
 PCOD9034034
Probable space group: P -1
;
_chemical_formula_sum "Si O2"
_cell_formula_units_Z 11
_cell_length_a 9.074774
_cell_length_b 12.152969
_cell_length_c 15.379163
_cell_angle_alpha 34.324906
_cell_angle_beta 34.143785
_cell_angle_gamma 56.806478
_cell_volume 484.687880
_symmetry_space_group_name_H-M "P -1"
_symmetry_group_IT_number 2
_symmetry_cell_setting 'triclinic'
loop_
_space_group_symop_operation_xyz
x,y,z
-x,-y,-z
loop_
_atom_site_type_symbol
_atom_site_label
_atom_site_fract_x
_atom_site_fract_y
_atom_site_fract_z
Si Si1 0.627331 0.659539 0.253456
Si Si2 0.750149 0.361475 0.780128
Si Si3 0.500000 0.000000 0.000000
Si Si4 0.297960 0.702919 0.647100
Si Si5 0.655864 0.423701 0.107354
Si Si6 0.232810 0.839807 0.921252
O O1 0.500000 0.500000 0.500000
O O2 0.462131 0.797910 0.215125
O O3 0.644982 0.504165 0.270444
O O4 0.953688 0.824994 0.013674
O O5 0.600736 0.506953 0.796518
O O6 0.000000 0.500000 0.500000
O O7 0.859909 0.269759 0.868218
O O8 0.528762 0.156675 0.968001
O O9 0.334038 0.723414 0.720031
O O10 0.526025 0.916430 0.350790
O O11 0.967139 0.632857 0.825001
O O12 0.641023 0.298478 0.107599
#
# Coordination Sequence:
#
# PCOD9034034 Si02
#       6
#     2   2   1   2   2   2
#     4  11  24  44  67 104 145 182 235 291 351 420
#     4  12  27  45  69 107 143 181 236 293 351 426
#     4  12  26  42  68  96 142 190 216 284 362 408
#     4  10  22  44  71 100 139 184 237 288 347 419
#     4  10  23  45  70 101 142 181 234 296 344 419
#     4  11  25  43  76 102 134 191 236 292 353 415
#
# _framework density 22.695018000000001
#
# number of rings (size 3 to 8) (size 9 to 14) (size 15 to 20)
#    0.000    1.091    1.818    3.273    2.545    5.091 
#    0.000    0.000    0.000    0.000    0.000    0.000 
#    0.000    0.000    0.000    0.000    0.000    0.000 
#
# Total GULP energy -61297.765591 kJ/mol
# GULP energy per Si atom -5572.524145 kJ/mol
# Density = 2.264336 g / cm^3
# Si number density = 22.695018 Si / 1000 Ang^3
#
#
#
# Elastic Constant Matrix: (Units=GPa)
#
#
# Indices 1 2 3 4 5 6 
#
# 1 52.2745 7.3546 32.5148 -13.4750 22.2130 13.7255
# 2 7.3546 84.7069 26.9550 -7.0586 2.8707 8.7493
# 3 32.5148 26.9550 142.6667 -1.9395 20.3581 -13.6787
# 4 -13.4750 -7.0586 -1.9395 23.3298 1.3398 3.6557
# 5 22.2130 2.8707 20.3581 1.3398 36.2641 10.3921
# 6 13.7255 8.7493 -13.6787 3.6557 10.3921 25.7795
#
#
#
# Elastic Compliance Matrix: (Units=1/GPa)
#
#
# Indices 1 2 3 4 5 6 
#
# 1 0.054223 0.007758 -0.014684 0.039385 -0.016030 -0.038416
# 2 0.007758 0.015464 -0.006132 0.010878 0.001273 -0.014688
# 3 -0.014684 -0.006132 0.013839 -0.012180 -0.003703 0.020462
# 4 0.039385 0.010878 -0.012180 0.074362 -0.010124 -0.037587
# 5 -0.016030 0.001273 -0.003703 -0.010124 0.042484 -0.009553
# 6 -0.038416 -0.014688 0.020462 -0.037587 -0.009553 0.084267
#
#
# Mechanical properties :
#
#
# Convention : Reuss Voigt Hill
#
# Bulk Modulus (GPa) = 17.41865 45.92188 31.67026
# Shear Modulus (GPa) = 15.15653 31.26293 23.20973
#
# Velocity S-wave (km/s) = 2.58705 3.71553 3.20141
# Velocity P-wave (km/s) = 4.07622 6.21974 5.25836
#
# Compressibility (1/GPa) = 0.05740975
#
# Stress axis : x y z
#
# Youngs Moduli (GPa) = 18.44247 64.66826 72.25847
#
# Poissons Ratio (x) = -0.50170 1.06104
# Poissons Ratio (y) = -0.14308 0.44308
# Poissons Ratio (z) = 0.27081 0.39654
#
# Static dielectric constant tensor:
#      x y z
#    x 1.888730 0.000150 -0.042560 
#    y 0.000150 1.841320 0.047280 
#    z -0.042560 0.047280 1.803900 
# 
# From -- ./inp_files/35487.got.cif
#   From: 2010.05.17/outbox.cif.g08.bks.cpg/sg2_18_cif.got.tgz:35487.got - 2010.06.03 11:33:40.
