data_PCOD9034326
_publ_section_title
;
Structure prediction by ZEFSAII (Michael W. Deem and Ramdas Pophale) SiO2 
 PCOD9034326
Probable space group: P -1
;
_chemical_formula_sum "Si O2"
_cell_formula_units_Z 16
_cell_length_a 20.361517
_cell_length_b 9.890788
_cell_length_c 11.725400
_cell_angle_alpha 41.297690
_cell_angle_beta 139.430756
_cell_angle_gamma 154.343661
_cell_volume 646.102318
_symmetry_space_group_name_H-M "P -1"
_symmetry_group_IT_number 2
_symmetry_cell_setting 'triclinic'
loop_
_space_group_symop_operation_xyz
x,y,z
-x,-y,-z
loop_
_atom_site_type_symbol
_atom_site_label
_atom_site_fract_x
_atom_site_fract_y
_atom_site_fract_z
Si Si1 0.125743 0.316471 0.543617
Si Si2 0.547402 0.370254 0.210436
Si Si3 0.558258 0.555080 0.356144
Si Si4 0.213656 0.709835 0.854121
Si Si5 0.768739 0.289462 0.779306
Si Si6 0.954117 0.757396 0.266860
Si Si7 0.695492 0.594737 0.744271
Si Si8 0.963526 0.222077 0.011310
O O1 0.273026 0.407319 0.719640
O O2 0.212524 0.607196 0.389680
O O3 0.047982 0.285563 0.573995
O O4 0.000000 0.000000 0.500000
O O5 0.531073 0.380192 0.318341
O O6 0.410668 0.994412 0.236331
O O7 0.500000 0.500000 0.000000
O O8 0.622414 0.523149 0.567642
O O9 0.406440 0.436568 0.279802
O O10 0.680130 0.923426 0.242949
O O11 0.156772 0.567396 0.742389
O O12 0.058756 0.491457 0.868153
O O13 0.295418 0.629200 0.062532
O O14 0.839541 0.170620 0.944181
O O15 0.893589 0.607100 0.820197
O O16 0.128335 0.037597 0.266043
O O17 0.897335 0.904530 0.081465
#
# Coordination Sequence:
#
# PCOD9034326 Si02
#       8
#     2   2   2   2   2   2   2   2
#     4  12  26  47  74 106 148 185 238 302 360 431
#     4  12  28  46  73 107 145 189 241 301 354 436
#     4  11  26  46  71 103 145 183 239 291 363 419
#     4  11  25  43  74 102 140 189 233 292 360 431
#     4  11  25  44  75 103 142 189 241 295 364 425
#     4  11  24  45  72 101 140 183 236 288 357 432
#     4  10  24  46  69 100 141 187 229 296 350 427
#     4  10  22  44  73 102 140 188 235 297 363 425
#
# _framework density 24.76388
#
# number of rings (size 3 to 8) (size 9 to 14) (size 15 to 20)
#    0.000    1.000    1.250    4.500   12.250    2.500 
#    6.750    0.000    0.000    0.000    0.000    0.000 
#    0.000    0.000    0.000    0.000    0.000    0.000 
#
# Total GULP energy -89658.015354 kJ/mol
# GULP energy per Si atom -5603.625960 kJ/mol
# Density = 2.470752 g / cm^3
# Si number density = 24.763880 Si / 1000 Ang^3
#
#
#
# Elastic Constant Matrix: (Units=GPa)
#
#
# Indices 1 2 3 4 5 6 
#
# 1 76.3860 18.4335 9.1857 8.3239 -12.7518 6.5671
# 2 18.4335 103.6338 31.6382 -1.2227 4.9122 2.0795
# 3 9.1857 31.6382 93.6932 -0.2520 -12.8726 6.9880
# 4 8.3239 -1.2227 -0.2520 40.0371 7.2440 -2.7752
# 5 -12.7518 4.9122 -12.8726 7.2440 48.7014 2.2871
# 6 6.5671 2.0795 6.9880 -2.7752 2.2871 36.4578
#
#
#
# Elastic Compliance Matrix: (Units=1/GPa)
#
#
# Indices 1 2 3 4 5 6 
#
# 1 0.015460 -0.003147 0.000520 -0.004506 0.005332 -0.003382
# 2 -0.003147 0.011639 -0.004161 0.001670 -0.003395 0.001041
# 3 0.000520 -0.004161 0.012804 -0.001104 0.004229 -0.002660
# 4 -0.004506 0.001670 -0.001104 0.027250 -0.005852 0.003369
# 5 0.005332 -0.003395 0.004229 -0.005852 0.024427 -0.003555
# 6 -0.003382 0.001041 -0.002660 0.003369 -0.003555 0.028968
#
#
# Mechanical properties :
#
#
# Convention : Reuss Voigt Hill
#
# Bulk Modulus (GPa) = 37.98468 43.58087 40.78277
# Shear Modulus (GPa) = 34.98926 39.33628 37.16277
#
# Velocity S-wave (km/s) = 3.76295 3.98987 3.87807
# Velocity P-wave (km/s) = 5.85250 6.23395 6.04624
#
# Compressibility (1/GPa) = 0.02632641
#
# Stress axis : x y z
#
# Youngs Moduli (GPa) = 64.68226 85.91645 78.10138
#
# Poissons Ratio (x) = 0.27034 -0.04057
# Poissons Ratio (y) = 0.20353 0.32501
# Poissons Ratio (z) = -0.03360 0.35753
#
# Static dielectric constant tensor:
#      x y z
#    x 1.938540 0.030220 0.027520 
#    y 0.030220 1.911890 0.036800 
#    z 0.027520 0.036800 2.020780 
# 
# From -- ./inp_files/474851.got.cif
#   From: 2010.05.17/outbox.cif.g08.bks.cpg/sg2_238_cif.got.tgz:474851.got - 2010.06.03 11:33:40.
