data_PCOD9034729
_publ_section_title
;
Structure prediction by ZEFSAII (Michael W. Deem and Ramdas Pophale) SiO2 
 PCOD9034729
Probable space group: P -1
;
_chemical_formula_sum "Si O2"
_cell_formula_units_Z 12
_cell_length_a 13.651304
_cell_length_b 10.141323
_cell_length_c 6.257859
_cell_angle_alpha 68.389685
_cell_angle_beta 76.349745
_cell_angle_gamma 127.428760
_cell_volume 500.410094
_symmetry_space_group_name_H-M "P -1"
_symmetry_group_IT_number 2
_symmetry_cell_setting 'triclinic'
loop_
_space_group_symop_operation_xyz
x,y,z
-x,-y,-z
loop_
_atom_site_type_symbol
_atom_site_label
_atom_site_fract_x
_atom_site_fract_y
_atom_site_fract_z
Si Si1 0.583639 0.954230 0.888111
Si Si2 0.195921 0.143364 0.445698
Si Si3 0.298107 0.545963 0.015249
Si Si4 0.994097 0.807087 0.378086
Si Si5 0.269686 0.011382 0.825373
Si Si6 0.815493 0.324691 0.233493
O O1 0.748186 0.185507 0.567473
O O2 0.468971 0.771394 0.874277
O O3 0.500000 0.000000 0.000000
O O4 0.612160 0.870450 0.108413
O O5 0.280437 0.356573 0.134174
O O6 0.070338 0.101858 0.668936
O O7 0.101515 0.938764 0.457520
O O8 0.297494 0.162973 0.545881
O O9 0.165298 0.446134 0.321494
O O10 0.243668 0.577741 0.821061
O O11 0.097122 0.856158 0.107671
O O12 0.266208 0.856131 0.804187
O O13 0.000000 0.500000 0.000000
#
# Coordination Sequence:
#
# PCOD9034729 Si02
#       6
#     2   2   2   2   2   2
#     4  12  27  45  64 101 144 177 218 275 345 399
#     4   9  21  43  69 101 133 175 229 280 325 396
#     4  10  22  45  67  96 137 176 219 280 334 388
#     4   9  21  43  70 101 132 176 228 275 330 397
#     4  12  23  42  69  98 138 173 228 275 332 406
#     4  12  27  44  72  98 131 181 232 279 327 398
#
# _framework density 23.980332000000001
#
# number of rings (size 3 to 8) (size 9 to 14) (size 15 to 20)
#    1.000    0.333    1.667    4.000    2.333    2.000 
#    3.000    3.333    0.000    0.000    0.000    0.000 
#    0.000    0.000    0.000    0.000    0.000    0.000 
#
# Total GULP energy -67061.099893 kJ/mol
# GULP energy per Si atom -5588.424991 kJ/mol
# Density = 2.392575 g / cm^3
# Si number density = 23.980332 Si / 1000 Ang^3
#
#
#
# Elastic Constant Matrix: (Units=GPa)
#
#
# Indices 1 2 3 4 5 6 
#
# 1 148.5995 24.5659 53.0996 -6.3487 41.4388 12.5723
# 2 24.5659 47.2051 29.7344 -14.9393 4.6859 14.1680
# 3 53.0996 29.7344 77.0686 -11.7103 5.0233 -7.9673
# 4 -6.3487 -14.9393 -11.7103 25.3868 -2.3895 -4.4209
# 5 41.4388 4.6859 5.0233 -2.3895 54.2120 12.1224
# 6 12.5723 14.1680 -7.9673 -4.4209 12.1224 36.0587
#
#
#
# Elastic Compliance Matrix: (Units=1/GPa)
#
#
# Indices 1 2 3 4 5 6 
#
# 1 0.012230 0.000549 -0.008885 -0.002161 -0.007750 -0.004103
# 2 0.000549 0.040863 -0.016186 0.013642 0.002387 -0.018954
# 3 -0.008885 -0.016186 0.027312 0.003715 0.002441 0.015127
# 4 -0.002161 0.013642 0.003715 0.049048 0.001938 0.001576
# 5 -0.007750 0.002387 0.002441 0.001938 0.025361 -0.005985
# 6 -0.004103 -0.018954 0.015127 0.001576 -0.005985 0.042158
#
#
# Mechanical properties :
#
#
# Convention : Reuss Voigt Hill
#
# Bulk Modulus (GPa) = 31.88837 54.18587 43.03712
# Shear Modulus (GPa) = 19.49547 34.16306 26.82926
#
# Velocity S-wave (km/s) = 2.85437 3.77852 3.34848
# Velocity P-wave (km/s) = 4.91831 6.45611 5.73895
#
# Compressibility (1/GPa) = 0.03135940
#
# Stress axis : x y z
#
# Youngs Moduli (GPa) = 81.76753 24.47205 36.61458
#
# Poissons Ratio (x) = -0.01344 0.32534
# Poissons Ratio (y) = -0.04491 0.59265
# Poissons Ratio (z) = 0.72654 0.39611
#
# Static dielectric constant tensor:
#      x y z
#    x 1.933780 0.005410 0.012330 
#    y 0.005410 1.878270 -0.008490 
#    z 0.012330 -0.008490 1.926940 
# 
# From -- ./inp_files/91453.got.cif
#   From: 2010.05.17/outbox.cif.g08.bks.cpg/sg2_46_cif.got.tgz:91453.got - 2010.06.03 11:33:40.
