data_PCOD9034631
_publ_section_title
;
Structure prediction by ZEFSAII (Michael W. Deem and Ramdas Pophale) SiO2 
 PCOD9034631
Probable space group: P -1
;
_chemical_formula_sum "Si O2"
_cell_formula_units_Z 12
_cell_length_a 8.292904
_cell_length_b 8.598728
_cell_length_c 11.484928
_cell_angle_alpha 71.998317
_cell_angle_beta 130.986483
_cell_angle_gamma 75.211301
_cell_volume 452.794238
_symmetry_space_group_name_H-M "P -1"
_symmetry_group_IT_number 2
_symmetry_cell_setting 'triclinic'
loop_
_space_group_symop_operation_xyz
x,y,z
-x,-y,-z
loop_
_atom_site_type_symbol
_atom_site_label
_atom_site_fract_x
_atom_site_fract_y
_atom_site_fract_z
Si Si1 0.470351 0.663459 0.039263
Si Si2 0.089848 0.793173 0.030442
Si Si3 0.781314 0.716758 0.598962
Si Si4 0.703199 0.471951 0.433179
Si Si5 0.292290 0.304152 0.055384
Si Si6 0.702512 0.121743 0.494049
O O1 0.183107 0.791169 0.943717
O O2 0.688142 0.540025 0.276504
O O3 0.535960 0.787546 0.962011
O O4 0.500000 0.500000 0.000000
O O5 0.374177 0.597677 0.273600
O O6 0.840030 0.792779 0.932336
O O7 0.000000 0.000000 0.000000
O O8 0.786809 0.580794 0.529701
O O9 0.149544 0.776812 0.431774
O O10 0.024326 0.542830 0.841900
O O11 0.820997 0.891527 0.553150
O O12 0.485305 0.837157 0.494368
O O13 0.493020 0.276866 0.254281
#
# Coordination Sequence:
#
# PCOD9034631 Si02
#       6
#     2   2   2   2   2   2
#     4  10  23  42  71 107 146 187 243 306 355 436
#     4  10  23  42  71 106 141 191 243 288 366 432
#     4  11  24  41  70 108 143 191 244 295 361 438
#     4  10  22  45  66 103 151 182 240 309 349 427
#     4  12  23  45  76 100 143 197 235 296 370 425
#     4  11  23  42  71 105 146 190 243 296 361 438
#
# _framework density 26.502102000000001
#
# number of rings (size 3 to 8) (size 9 to 14) (size 15 to 20)
#    1.000    0.333    3.333    2.000    2.333    1.333 
#    0.000    2.500    0.000    0.000    0.000    0.000 
#    0.000    0.000    0.000    0.000    0.000    0.000 
#
# Total GULP energy -67131.759641 kJ/mol
# GULP energy per Si atom -5594.313303 kJ/mol
# Density = 2.644178 g / cm^3
# Si number density = 26.502102 Si / 1000 Ang^3
#
#
#
# Elastic Constant Matrix: (Units=GPa)
#
#
# Indices 1 2 3 4 5 6 
#
# 1 197.0770 67.6429 13.5461 17.4187 -13.1122 -6.5450
# 2 67.6429 224.9450 67.7505 27.0723 -25.6216 8.5883
# 3 13.5461 67.7505 80.7504 3.6955 -27.1969 9.4833
# 4 17.4187 27.0723 3.6955 36.6295 -5.5677 -4.3161
# 5 -13.1122 -25.6216 -27.1969 -5.5677 35.4033 1.9631
# 6 -6.5450 8.5883 9.4833 -4.3161 1.9631 24.0158
#
#
#
# Elastic Compliance Matrix: (Units=1/GPa)
#
#
# Indices 1 2 3 4 5 6 
#
# 1 0.005871 -0.001783 0.000783 -0.001178 0.001210 0.001618
# 2 -0.001783 0.007134 -0.005364 -0.004103 -0.000172 -0.001643
# 3 0.000783 -0.005364 0.022352 0.002655 0.014407 -0.007395
# 4 -0.001178 -0.004103 0.002655 0.031783 0.003325 0.005538
# 5 0.001210 -0.000172 0.014407 0.003325 0.040604 -0.008019
# 6 0.001618 -0.001643 -0.007395 0.005538 -0.008019 0.047238
#
#
# Mechanical properties :
#
#
# Convention : Reuss Voigt Hill
#
# Bulk Modulus (GPa) = 44.19211 88.96127 66.57669
# Shear Modulus (GPa) = 28.52988 42.79858 35.66423
#
# Velocity S-wave (km/s) = 3.28459 4.02296 3.67238
# Velocity P-wave (km/s) = 5.57636 7.43098 6.56945
#
# Compressibility (1/GPa) = 0.02262847
#
# Stress axis : x y z
#
# Youngs Moduli (GPa) = 170.33386 140.16861 44.73877
#
# Poissons Ratio (x) = 0.24997 -0.03503
# Poissons Ratio (y) = 0.30376 0.23997
# Poissons Ratio (z) = -0.13335 0.75184
#
# Static dielectric constant tensor:
#      x y z
#    x 2.115690 0.011310 0.016060 
#    y 0.011310 2.099620 -0.035030 
#    z 0.016060 -0.035030 2.148650 
# 
# From -- ./inp_files/376236.got.cif
#   From: 2010.05.17/outbox.cif.g08.bks.cpg/sg2_189_cif.got.tgz:376236.got - 2010.06.03 11:33:40.
