data_PCOD9034347
_publ_section_title
;
Structure prediction by ZEFSAII (Michael W. Deem and Ramdas Pophale) SiO2 
 PCOD9034347
Probable space group: P -1
;
_chemical_formula_sum "Si O2"
_cell_formula_units_Z 14
_cell_length_a 11.106213
_cell_length_b 5.480082
_cell_length_c 19.735100
_cell_angle_alpha 67.022152
_cell_angle_beta 30.333440
_cell_angle_gamma 78.963191
_cell_volume 530.434139
_symmetry_space_group_name_H-M "P -1"
_symmetry_group_IT_number 2
_symmetry_cell_setting 'triclinic'
loop_
_space_group_symop_operation_xyz
x,y,z
-x,-y,-z
loop_
_atom_site_type_symbol
_atom_site_label
_atom_site_fract_x
_atom_site_fract_y
_atom_site_fract_z
Si Si1 0.199108 0.766202 0.433157
Si Si2 0.598516 0.866205 0.830263
Si Si3 0.815930 0.396706 0.749635
Si Si4 0.104399 0.020596 0.046611
Si Si5 0.576123 0.005672 0.559812
Si Si6 0.314632 0.410140 0.791333
Si Si7 0.170014 0.160202 0.672059
O O1 0.406516 0.610870 0.339560
O O2 0.935316 0.545294 0.604956
O O3 0.230988 0.976259 0.333031
O O4 0.291761 0.935532 0.438983
O O5 0.647906 0.571056 0.843365
O O6 0.679199 0.075909 0.831919
O O7 0.318101 0.869747 0.950257
O O8 0.052277 0.400704 0.681669
O O9 0.860812 0.828087 0.146059
O O10 0.040004 0.028222 0.155305
O O11 0.202035 0.320695 0.930304
O O12 0.352757 0.712644 0.710362
O O13 0.428746 0.211973 0.582375
O O14 0.766195 0.969306 0.414225
#
# Coordination Sequence:
#
# PCOD9034347 Si02
#       7
#     2   2   2   2   2   2   2
#     4  11  23  45  75 110 138 185 255 317 357 424
#     4  11  28  46  75 105 151 203 247 294 358 444
#     4  12  26  47  72 108 153 200 242 299 361 443
#     4  10  24  46  68 110 148 193 241 303 371 444
#     4  11  24  43  76 111 140 189 242 317 375 428
#     4  10  22  44  73 106 143 184 246 313 373 424
#     4  11  25  44  71 108 150 188 242 302 377 441
#
# _framework density 26.393473
#
# number of rings (size 3 to 8) (size 9 to 14) (size 15 to 20)
#    0.000    1.143    2.857    1.714    4.000    7.429 
#    0.000    0.000    0.000    0.000    0.000    0.000 
#    0.000    0.000    0.000    0.000    0.000    0.000 
#
# Total GULP energy -78437.337887 kJ/mol
# GULP energy per Si atom -5602.666992 kJ/mol
# Density = 2.633340 g / cm^3
# Si number density = 26.393473 Si / 1000 Ang^3
#
#
#
# Elastic Constant Matrix: (Units=GPa)
#
#
# Indices 1 2 3 4 5 6 
#
# 1 103.5959 52.6314 25.0944 11.8932 5.0814 -2.2609
# 2 52.6314 154.0303 54.0018 11.9709 2.9995 -33.5127
# 3 25.0944 54.0018 118.7531 9.0146 40.9577 4.9304
# 4 11.8932 11.9709 9.0146 26.0444 -5.3598 -12.9824
# 5 5.0814 2.9995 40.9577 -5.3598 56.6121 9.0613
# 6 -2.2609 -33.5127 4.9304 -12.9824 9.0613 46.9419
#
#
#
# Elastic Compliance Matrix: (Units=1/GPa)
#
#
# Indices 1 2 3 4 5 6 
#
# 1 0.012750 -0.005098 0.000726 -0.006280 -0.001258 -0.004596
# 2 -0.005098 0.012143 -0.006300 0.004421 0.003241 0.009682
# 3 0.000726 -0.006300 0.015795 -0.008296 -0.010935 -0.006305
# 4 -0.006280 0.004421 -0.008296 0.052086 0.008628 0.016464
# 5 -0.001258 0.003241 -0.010935 0.008628 0.026217 0.000727
# 6 -0.004596 0.009682 -0.006305 0.016464 0.000727 0.033069
#
#
# Mechanical properties :
#
#
# Convention : Reuss Voigt Hill
#
# Bulk Modulus (GPa) = 51.69831 71.09272 61.39551
# Shear Modulus (GPa) = 27.80057 42.22981 35.01519
#
# Velocity S-wave (km/s) = 3.24900 4.00435 3.64629
# Velocity P-wave (km/s) = 5.80558 6.95514 6.40620
#
# Compressibility (1/GPa) = 0.01934299
#
# Stress axis : x y z
#
# Youngs Moduli (GPa) = 78.43385 82.35331 63.30967
#
# Poissons Ratio (x) = 0.41986 -0.04594
# Poissons Ratio (y) = 0.39987 0.39884
# Poissons Ratio (z) = -0.05691 0.51881
#
# Static dielectric constant tensor:
#      x y z
#    x 2.051860 -0.000940 0.000640 
#    y -0.000940 2.096980 -0.026540 
#    z 0.000640 -0.026540 2.070150 
# 
# From -- ./inp_files/72425.got.cif
#   From: 2010.05.17/outbox.cif.g08.bks.cpg/sg2_37_cif.got.tgz:72425.got - 2010.06.03 11:33:40.
