data_PCOD9034003
_publ_section_title
;
Structure prediction by ZEFSAII (Michael W. Deem and Ramdas Pophale) SiO2 
 PCOD9034003
Probable space group: P -1
;
_chemical_formula_sum "Si O2"
_cell_formula_units_Z 14
_cell_length_a 10.426440
_cell_length_b 11.043766
_cell_length_c 10.968718
_cell_angle_alpha 118.840052
_cell_angle_beta 44.652363
_cell_angle_gamma 86.392627
_cell_volume 584.431437
_symmetry_space_group_name_H-M "P -1"
_symmetry_group_IT_number 2
_symmetry_cell_setting 'triclinic'
loop_
_space_group_symop_operation_xyz
x,y,z
-x,-y,-z
loop_
_atom_site_type_symbol
_atom_site_label
_atom_site_fract_x
_atom_site_fract_y
_atom_site_fract_z
Si Si1 0.522824 0.508397 0.133501
Si Si2 0.036212 0.140421 0.566816
Si Si3 0.165080 0.725326 0.852323
Si Si4 0.246203 0.206292 0.266835
Si Si5 0.279015 0.119476 0.613438
Si Si6 0.541483 0.671179 0.419301
Si Si7 0.891686 0.439334 0.415534
O O1 0.485049 0.670023 0.313401
O O2 0.326972 0.506669 0.326805
O O3 0.500000 0.500000 0.000000
O O4 0.800950 0.324625 0.876771
O O5 0.062907 0.188301 0.437647
O O6 0.265745 0.060720 0.458889
O O7 0.000000 0.000000 0.500000
O O8 0.307112 0.785269 0.725265
O O9 0.338168 0.532856 0.715910
O O10 0.080090 0.676066 0.771668
O O11 0.934984 0.854651 0.157671
O O12 0.203301 0.361042 0.457161
O O13 0.142702 0.310963 0.258901
O O14 0.500000 0.000000 0.000000
O O15 0.282797 0.284684 0.668607
O O16 0.500000 0.000000 0.500000
#
# Coordination Sequence:
#
# PCOD9034003 Si02
#       7
#     2   2   2   2   2   2   2
#     4  11  22  42  71  97 133 181 233 289 344 424
#     4  12  27  46  68 100 140 184 233 293 359 422
#     4  10  22  44  70  99 134 178 233 293 346 424
#     4  11  24  42  65 100 141 184 229 290 349 426
#     4  12  28  44  70 105 141 186 232 296 355 425
#     4  10  23  44  72 100 132 183 236 284 352 420
#     4  10  23  41  69 101 133 184 235 285 361 417
#
# _framework density 23.954906000000001
#
# number of rings (size 3 to 8) (size 9 to 14) (size 15 to 20)
#    0.000    1.143    2.857    2.143    6.000    0.571 
#    2.571    0.000    0.000    0.000    0.000    0.000 
#    0.000    0.000    0.000    0.000    0.000    0.000 
#
# Total GULP energy -78091.996959 kJ/mol
# GULP energy per Si atom -5577.999783 kJ/mol
# Density = 2.390038 g / cm^3
# Si number density = 23.954906 Si / 1000 Ang^3
#
#
#
# Elastic Constant Matrix: (Units=GPa)
#
#
# Indices 1 2 3 4 5 6 
#
# 1 110.8524 20.5875 -1.0807 1.7818 7.2453 -9.4089
# 2 20.5875 80.1183 18.5339 0.6231 10.8863 10.1648
# 3 -1.0807 18.5339 82.0512 -5.2071 -12.0002 -9.4207
# 4 1.7818 0.6231 -5.2071 28.4289 -12.3378 -5.0249
# 5 7.2453 10.8863 -12.0002 -12.3378 35.4601 2.4191
# 6 -9.4089 10.1648 -9.4207 -5.0249 2.4191 46.6039
#
#
#
# Elastic Compliance Matrix: (Units=1/GPa)
#
#
# Indices 1 2 3 4 5 6 
#
# 1 0.009903 -0.002972 0.000944 -0.000360 -0.001112 0.002857
# 2 -0.002972 0.016477 -0.005953 -0.005766 -0.008090 -0.005599
# 3 0.000944 -0.005953 0.016031 0.008036 0.009507 0.005102
# 4 -0.000360 -0.005766 0.008036 0.046852 0.020400 0.006802
# 5 -0.001112 -0.008090 0.009507 0.020400 0.040986 0.003534
# 6 0.002857 -0.005599 0.005102 0.006802 0.003534 0.024837
#
#
# Mechanical properties :
#
#
# Convention : Reuss Voigt Hill
#
# Bulk Modulus (GPa) = 37.80716 38.78924 38.29820
# Shear Modulus (GPa) = 27.79898 37.76400 32.78149
#
# Velocity S-wave (km/s) = 3.41027 3.97478 3.70329
# Velocity P-wave (km/s) = 5.59674 6.10679 5.85732
#
# Compressibility (1/GPa) = 0.02645001
#
# Stress axis : x y z
#
# Youngs Moduli (GPa) = 100.97833 60.69174 62.37972
#
# Poissons Ratio (x) = 0.18037 -0.05891
# Poissons Ratio (y) = 0.30009 0.37134
# Poissons Ratio (z) = -0.09536 0.36129
#
# Static dielectric constant tensor:
#      x y z
#    x 2.003560 -0.070650 -0.046440 
#    y -0.070650 2.028410 0.059120 
#    z -0.046440 0.059120 1.998730 
# 
# From -- ./inp_files/426425.got.cif
#   From: 2010.05.17/outbox.cif.g08.bks.cpg/sg2_214_cif.got.tgz:426425.got - 2010.06.03 11:33:40.
