data_PCOD9034713
_publ_section_title
;
Structure prediction by ZEFSAII (Michael W. Deem and Ramdas Pophale) SiO2 
 PCOD9034713
Probable space group: P -1
;
_chemical_formula_sum "Si O2"
_cell_formula_units_Z 14
_cell_length_a 24.871827
_cell_length_b 7.226206
_cell_length_c 14.570220
_cell_angle_alpha 133.334483
_cell_angle_beta 18.566707
_cell_angle_gamma 139.300319
_cell_volume 537.054487
_symmetry_space_group_name_H-M "P -1"
_symmetry_group_IT_number 2
_symmetry_cell_setting 'triclinic'
loop_
_space_group_symop_operation_xyz
x,y,z
-x,-y,-z
loop_
_atom_site_type_symbol
_atom_site_label
_atom_site_fract_x
_atom_site_fract_y
_atom_site_fract_z
Si Si1 0.746904 0.107565 0.167749
Si Si2 0.412710 0.515452 0.787821
Si Si3 0.157956 0.512769 0.359813
Si Si4 0.252153 0.831342 0.028284
Si Si5 0.237050 0.879503 0.526129
Si Si6 0.353807 0.631984 0.414668
Si Si7 0.096803 0.015601 0.635086
O O1 0.704722 0.312501 0.371198
O O2 0.583447 0.779876 0.339651
O O3 0.765772 0.186946 0.058316
O O4 0.932975 0.086559 0.892959
O O5 0.602186 0.801100 0.602680
O O6 0.282621 0.442665 0.064613
O O7 0.312459 0.604111 0.898745
O O8 0.958914 0.251304 0.622628
O O9 0.274646 0.692664 0.322117
O O10 0.106729 0.751920 0.479297
O O11 0.425119 0.142025 0.881513
O O12 0.076720 0.924064 0.744406
O O13 0.224413 0.707633 0.579902
O O14 0.293947 0.298926 0.393653
#
# Coordination Sequence:
#
# PCOD9034713 Si02
#       7
#     2   2   2   2   2   2   2
#     4  12  25  40  68  94 133 169 208 265 318 379
#     4  11  22  44  65  98 128 167 212 264 318 378
#     4  10  22  45  67  93 131 162 218 263 316 379
#     4  11  24  42  65  98 125 172 211 261 320 370
#     4   9  22  41  68  95 123 172 209 264 321 366
#     4  11  24  44  65  96 130 164 220 258 317 383
#     4  10  23  42  63  95 128 167 210 261 317 370
#
# _framework density 26.06812
#
# number of rings (size 3 to 8) (size 9 to 14) (size 15 to 20)
#    0.857    0.571    1.429    3.429    0.000    4.571 
#    2.571    1.429    0.000    0.000    0.000    0.000 
#    0.000    0.000    0.000    0.000    0.000    0.000 
#
# Total GULP energy -78386.319826 kJ/mol
# GULP energy per Si atom -5599.022845 kJ/mol
# Density = 2.600879 g / cm^3
# Si number density = 26.068120 Si / 1000 Ang^3
#
#
#
# Elastic Constant Matrix: (Units=GPa)
#
#
# Indices 1 2 3 4 5 6 
#
# 1 184.4531 30.3547 7.2954 -10.3396 -7.0576 -14.0925
# 2 30.3547 100.6478 47.5512 -20.0861 12.5812 1.5724
# 3 7.2954 47.5512 53.0397 -6.2464 -2.3572 -2.5013
# 4 -10.3396 -20.0861 -6.2464 25.1352 -2.5434 -1.9318
# 5 -7.0576 12.5812 -2.3572 -2.5434 33.0053 -6.3563
# 6 -14.0925 1.5724 -2.5013 -1.9318 -6.3563 34.9844
#
#
#
# Elastic Compliance Matrix: (Units=1/GPa)
#
#
# Indices 1 2 3 4 5 6 
#
# 1 0.006375 -0.003501 0.002735 0.001158 0.003686 0.003654
# 2 -0.003501 0.024961 -0.021331 0.011564 -0.011973 -0.005594
# 3 0.002735 -0.021331 0.037912 -0.004729 0.012360 0.006756
# 4 0.001158 0.011564 -0.004729 0.048464 -0.000335 0.002224
# 5 0.003686 -0.011973 0.012360 -0.000335 0.038407 0.009866
# 6 0.003654 -0.005594 0.006756 0.002224 0.009866 0.032706
#
#
# Mechanical properties :
#
#
# Convention : Reuss Voigt Hill
#
# Bulk Modulus (GPa) = 39.91509 56.50479 48.20994
# Shear Modulus (GPa) = 20.71496 35.48760 28.10128
#
# Velocity S-wave (km/s) = 2.82201 3.69364 3.28684
# Velocity P-wave (km/s) = 5.09543 6.31771 5.73920
#
# Compressibility (1/GPa) = 0.02505318
#
# Stress axis : x y z
#
# Youngs Moduli (GPa) = 156.87222 40.06198 26.37685
#
# Poissons Ratio (x) = 0.14027 -0.07213
# Poissons Ratio (y) = 0.54927 0.56264
# Poissons Ratio (z) = -0.42901 0.85455
#
# Static dielectric constant tensor:
#      x y z
#    x 2.078150 0.015020 -0.061410 
#    y 0.015020 2.031180 -0.038250 
#    z -0.061410 -0.038250 2.058490 
# 
# From -- ./inp_files/543856.got.cif
#   From: 2010.05.17/outbox.cif.g08.bks.cpg/sg2_272_cif.got.tgz:543856.got - 2010.06.03 11:33:40.
