data_PCOD9034156
_publ_section_title
;
Structure prediction by ZEFSAII (Michael W. Deem and Ramdas Pophale) SiO2 
 PCOD9034156
Probable space group: P -1
;
_chemical_formula_sum "Si O2"
_cell_formula_units_Z 11
_cell_length_a 7.001207
_cell_length_b 5.081210
_cell_length_c 12.847599
_cell_angle_alpha 91.650972
_cell_angle_beta 82.969409
_cell_angle_gamma 73.966445
_cell_volume 435.025837
_symmetry_space_group_name_H-M "P -1"
_symmetry_group_IT_number 2
_symmetry_cell_setting 'triclinic'
loop_
_space_group_symop_operation_xyz
x,y,z
-x,-y,-z
loop_
_atom_site_type_symbol
_atom_site_label
_atom_site_fract_x
_atom_site_fract_y
_atom_site_fract_z
Si Si1 0.500000 0.500000 0.000000
Si Si2 0.319102 0.899131 0.555669
Si Si3 0.463399 0.450393 0.270177
Si Si4 0.954621 0.264248 0.933249
Si Si5 0.923867 0.339859 0.594423
Si Si6 0.374367 0.115700 0.842370
O O1 0.279297 0.648162 0.073239
O O2 0.590971 0.735997 0.052533
O O3 0.411664 0.681748 0.636942
O O4 0.223009 0.797020 0.460600
O O5 0.500000 0.000000 0.500000
O O6 0.126845 0.126427 0.615844
O O7 0.228796 0.485777 0.308507
O O8 0.517058 0.732206 0.245229
O O9 0.544314 0.217894 0.171246
O O10 0.136310 0.191661 0.838531
O O11 0.000000 0.500000 0.000000
O O12 0.000000 0.000000 0.000000
O O13 0.000000 0.500000 0.500000
#
# Coordination Sequence:
#
# PCOD9034156 Si02
#       6
#     1   2   2   2   2   2
#     4  10  24  50  74  96 142 190 230 294 366 424
#     4  11  24  46  70  99 145 197 236 299 360 428
#     4  12  26  46  69 108 150 181 245 303 349 422
#     4  10  22  44  71  98 129 179 232 281 358 430
#     4  11  25  44  74 104 139 200 248 282 366 439
#     4  11  26  45  71 108 142 187 240 299 359 428
#
# _framework density 25.285854
#
# number of rings (size 3 to 8) (size 9 to 14) (size 15 to 20)
#    0.000    1.091    1.818    3.818    5.091    8.000 
#    0.000    3.636    0.000    0.000    0.000    0.000 
#    0.000    0.000    0.000    0.000    0.000    0.000 
#
# Total GULP energy -61312.346492 kJ/mol
# GULP energy per Si atom -5573.849681 kJ/mol
# Density = 2.522830 g / cm^3
# Si number density = 25.285854 Si / 1000 Ang^3
#
#
#
# Elastic Constant Matrix: (Units=GPa)
#
#
# Indices 1 2 3 4 5 6 
#
# 1 227.4385 46.7853 33.1261 14.2457 -44.8743 -19.3643
# 2 46.7853 113.4980 -3.1245 5.5562 -9.6607 -9.1063
# 3 33.1261 -3.1245 79.8770 22.7355 -9.8923 -6.1678
# 4 14.2457 5.5562 22.7355 46.1079 -7.1119 -9.6417
# 5 -44.8743 -9.6607 -9.8923 -7.1119 49.4269 10.9246
# 6 -19.3643 -9.1063 -6.1678 -9.6417 10.9246 61.3267
#
#
#
# Elastic Compliance Matrix: (Units=1/GPa)
#
#
# Indices 1 2 3 4 5 6 
#
# 1 0.006078 -0.002133 -0.002053 0.000228 0.004587 0.000615
# 2 -0.002133 0.009855 0.001667 -0.001191 -0.000019 0.000773
# 3 -0.002053 0.001667 0.015536 -0.007155 0.000555 -0.000062
# 4 0.000228 -0.001191 -0.007155 0.026170 0.001645 0.002997
# 5 0.004587 -0.000019 0.000555 0.001645 0.025350 -0.002756
# 6 0.000615 0.000773 -0.000062 0.002997 -0.002756 0.017571
#
#
# Mechanical properties :
#
#
# Convention : Reuss Voigt Hill
#
# Bulk Modulus (GPa) = 37.83724 63.82080 50.82902
# Shear Modulus (GPa) = 43.70306 54.30740 49.00523
#
# Velocity S-wave (km/s) = 4.16186 4.63940 4.40710
# Velocity P-wave (km/s) = 6.17180 7.34801 6.78544
#
# Compressibility (1/GPa) = 0.02642899
#
# Stress axis : x y z
#
# Youngs Moduli (GPa) = 164.53436 101.47447 64.36512
#
# Poissons Ratio (x) = 0.21647 0.13216
# Poissons Ratio (y) = 0.35099 -0.10727
# Poissons Ratio (z) = 0.33783 -0.16912
#
# Static dielectric constant tensor:
#      x y z
#    x 1.856500 -0.057830 0.042070 
#    y -0.057830 1.971670 0.045890 
#    z 0.042070 0.045890 2.360280 
# 
# From -- ./inp_files/478081.got.cif
#   From: 2010.05.17/outbox.cif.g08.bks.cpg/sg2_240_cif.got.tgz:478081.got - 2010.06.03 11:33:40.
