data_PCOD9034784
_publ_section_title
;
Structure prediction by ZEFSAII (Michael W. Deem and Ramdas Pophale) SiO2 
 PCOD9034784
Probable space group: P -1
;
_chemical_formula_sum "Si O2"
_cell_formula_units_Z 14
_cell_length_a 5.298120
_cell_length_b 12.105863
_cell_length_c 12.621989
_cell_angle_alpha 89.221645
_cell_angle_beta 66.357643
_cell_angle_gamma 126.020848
_cell_volume 564.803761
_symmetry_space_group_name_H-M "P -1"
_symmetry_group_IT_number 2
_symmetry_cell_setting 'triclinic'
loop_
_space_group_symop_operation_xyz
x,y,z
-x,-y,-z
loop_
_atom_site_type_symbol
_atom_site_label
_atom_site_fract_x
_atom_site_fract_y
_atom_site_fract_z
Si Si1 0.501183 0.626790 0.030766
Si Si2 0.690163 0.682360 0.624714
Si Si3 0.231446 0.971198 0.638180
Si Si4 0.400490 0.721048 0.464366
Si Si5 0.704392 0.056273 0.132158
Si Si6 0.432705 0.391351 0.749455
Si Si7 0.638740 0.183907 0.956747
O O1 0.377325 0.592173 0.173959
O O2 0.282802 0.671317 0.017449
O O3 0.500000 0.500000 0.000000
O O4 0.900351 0.784630 0.947758
O O5 0.478720 0.686382 0.565151
O O6 0.461814 0.529413 0.723504
O O7 0.851347 0.816236 0.675084
O O8 0.040372 0.703006 0.523754
O O9 0.364708 0.968541 0.731447
O O10 0.500000 0.000000 0.500000
O O11 0.263381 0.110764 0.621559
O O12 0.395434 0.626905 0.377468
O O13 0.631048 0.917333 0.093194
O O14 0.492699 0.080282 0.084974
O O15 0.020972 0.249523 0.840833
#
# Coordination Sequence:
#
# PCOD9034784 Si02
#       7
#     2   2   2   2   2   2   2
#     4  11  24  44  66 103 138 180 235 294 366 420
#     4  11  25  46  67 107 142 190 229 294 352 414
#     4  10  23  44  69 101 141 182 233 290 353 418
#     4  11  25  44  71 102 145 185 243 282 352 423
#     4  10  22  45  68 103 135 185 236 289 352 419
#     4  11  25  41  71 100 135 186 231 296 348 424
#     4  10  24  43  73  99 136 186 238 291 353 422
#
# _framework density 24.787371
#
# number of rings (size 3 to 8) (size 9 to 14) (size 15 to 20)
#    0.000    1.429    0.000    3.429    8.000    4.571 
#   10.286    0.000    0.000    0.000    0.000    0.000 
#    0.000    0.000    0.000    0.000    0.000    0.000 
#
# Total GULP energy -78204.324386 kJ/mol
# GULP energy per Si atom -5586.023170 kJ/mol
# Density = 2.473095 g / cm^3
# Si number density = 24.787371 Si / 1000 Ang^3
#
#
#
# Elastic Constant Matrix: (Units=GPa)
#
#
# Indices 1 2 3 4 5 6 
#
# 1 30.9390 -1.9640 22.5424 5.2332 -2.5921 -2.4999
# 2 -1.9640 138.8515 36.3871 -18.2818 5.9405 -27.0553
# 3 22.5424 36.3871 137.6192 -12.3475 36.4897 0.4938
# 4 5.2332 -18.2818 -12.3475 38.0419 4.9072 2.4667
# 5 -2.5921 5.9405 36.4897 4.9072 39.4259 -6.7992
# 6 -2.4999 -27.0553 0.4938 2.4667 -6.7992 26.1974
#
#
#
# Elastic Compliance Matrix: (Units=1/GPa)
#
#
# Indices 1 2 3 4 5 6 
#
# 1 0.051752 0.006281 -0.017885 -0.014274 0.024126 0.019368
# 2 0.006281 0.011356 -0.005624 0.001068 0.006177 0.013936
# 3 -0.017885 -0.005624 0.018007 0.009166 -0.020559 -0.014053
# 4 -0.014274 0.001068 0.009166 0.034183 -0.015144 -0.007582
# 5 0.024126 0.006177 -0.020559 -0.015144 0.051026 0.023739
# 6 0.019368 0.013936 -0.014053 -0.007582 0.023739 0.061553
#
#
# Mechanical properties :
#
#
# Convention : Reuss Voigt Hill
#
# Bulk Modulus (GPa) = 21.43134 46.81562 34.12348
# Shear Modulus (GPa) = 17.99296 37.42931 27.71113
#
# Velocity S-wave (km/s) = 2.69716 3.89011 3.34721
# Velocity P-wave (km/s) = 4.28537 6.25341 5.36048
#
# Compressibility (1/GPa) = 0.04666064
#
# Stress axis : x y z
#
# Youngs Moduli (GPa) = 19.32274 88.05679 55.53408
#
# Poissons Ratio (x) = -0.55312 0.99324
# Poissons Ratio (y) = -0.12137 0.31231
# Poissons Ratio (z) = 0.34559 0.49521
#
# Static dielectric constant tensor:
#      x y z
#    x 2.144680 0.008850 -0.021760 
#    y 0.008850 2.051100 -0.021060 
#    z -0.021760 -0.021060 1.911520 
# 
# From -- ./inp_files/72147.got.cif
#   From: 2010.05.17/outbox.cif.g08.bks.cpg/sg2_37_cif.got.tgz:72147.got - 2010.06.03 11:33:40.
