data_PCOD9034230
_publ_section_title
;
Structure prediction by ZEFSAII (Michael W. Deem and Ramdas Pophale) SiO2 
 PCOD9034230
Probable space group: P -1
;
_chemical_formula_sum "Si O2"
_cell_formula_units_Z 14
_cell_length_a 16.331375
_cell_length_b 21.853293
_cell_length_c 12.662234
_cell_angle_alpha 26.468637
_cell_angle_beta 34.616827
_cell_angle_gamma 18.486709
_cell_volume 627.754723
_symmetry_space_group_name_H-M "P -1"
_symmetry_group_IT_number 2
_symmetry_cell_setting 'triclinic'
loop_
_space_group_symop_operation_xyz
x,y,z
-x,-y,-z
loop_
_atom_site_type_symbol
_atom_site_label
_atom_site_fract_x
_atom_site_fract_y
_atom_site_fract_z
Si Si1 0.676673 0.994239 0.814023
Si Si2 0.278453 0.522519 0.866139
Si Si3 0.096653 0.699179 0.140890
Si Si4 0.548268 0.033466 0.283286
Si Si5 0.822101 0.102561 0.632645
Si Si6 0.257474 0.797816 0.967739
Si Si7 0.445204 0.860560 0.520284
O O1 0.989438 0.715958 0.918480
O O2 0.618866 0.155173 0.715861
O O3 0.633173 0.083317 0.604655
O O4 0.500000 0.000000 0.000000
O O5 0.270261 0.673566 0.578803
O O6 0.387854 0.302773 0.029995
O O7 0.486912 0.385543 0.949106
O O8 0.275466 0.438914 0.303842
O O9 0.269590 0.651641 0.110806
O O10 0.853158 0.828221 0.262561
O O11 0.979719 0.895533 0.874287
O O12 0.500000 0.000000 0.500000
O O13 0.469762 0.992155 0.337844
O O14 0.000000 0.000000 0.500000
O O15 0.245306 0.934816 0.689354
O O16 0.000000 0.000000 0.000000
#
# Coordination Sequence:
#
# PCOD9034230 Si02
#       7
#     2   2   2   2   2   2   2
#     4  11  25  46  72 108 145 189 234 297 363 418
#     4  11  24  47  70  99 153 180 235 295 359 418
#     4  12  25  45  78 107 138 193 245 288 360 432
#     4  12  26  46  71 107 146 188 238 303 359 415
#     4  10  22  44  72 106 144 182 234 301 356 416
#     4  12  23  46  71 107 139 183 237 297 360 420
#     4  12  25  44  73 105 142 189 246 287 350 440
#
# _framework density 22.301704999999998
#
# number of rings (size 3 to 8) (size 9 to 14) (size 15 to 20)
#    0.000    0.571    2.857    6.000    2.000    1.143 
#    5.143    0.000    0.000    0.000    0.000    0.000 
#    0.000    0.000    0.000    0.000    0.000    0.000 
#
# Total GULP energy -78351.531177 kJ/mol
# GULP energy per Si atom -5596.537941 kJ/mol
# Density = 2.225095 g / cm^3
# Si number density = 22.301705 Si / 1000 Ang^3
#
#
#
# Elastic Constant Matrix: (Units=GPa)
#
#
# Indices 1 2 3 4 5 6 
#
# 1 134.9815 42.3262 66.6657 -14.1048 -29.0882 -9.4615
# 2 42.3262 116.7040 63.1958 12.3392 -9.0765 -11.3918
# 3 66.6657 63.1958 130.6929 -0.5799 -7.4700 8.7205
# 4 -14.1048 12.3392 -0.5799 32.5720 3.0168 -8.5203
# 5 -29.0882 -9.0765 -7.4700 3.0168 60.8505 -2.7666
# 6 -9.4615 -11.3918 8.7205 -8.5203 -2.7666 37.1008
#
#
#
# Elastic Compliance Matrix: (Units=1/GPa)
#
#
# Indices 1 2 3 4 5 6 
#
# 1 0.013251 -0.001082 -0.006339 0.007268 0.005334 0.006604
# 2 -0.001082 0.013250 -0.006095 -0.004588 0.001132 0.004256
# 3 -0.006339 -0.006095 0.014181 -0.001904 -0.002443 -0.007441
# 4 0.007268 -0.004588 -0.001904 0.037987 0.001114 0.009699
# 5 0.005334 0.001132 -0.002443 0.001114 0.018977 0.003953
# 6 0.006604 0.004256 -0.007441 0.009699 0.003953 0.034216
#
#
# Mechanical properties :
#
#
# Convention : Reuss Voigt Hill
#
# Bulk Modulus (GPa) = 73.26410 80.75041 77.00726
# Shear Modulus (GPa) = 30.59178 40.11740 35.35459
#
# Velocity S-wave (km/s) = 3.70770 4.24589 3.98588
# Velocity P-wave (km/s) = 7.15905 7.76682 7.46912
#
# Compressibility (1/GPa) = 0.01364925
#
# Stress axis : x y z
#
# Youngs Moduli (GPa) = 75.46816 75.47227 70.51833
#
# Poissons Ratio (x) = 0.08165 0.44705
# Poissons Ratio (y) = 0.08165 0.42979
# Poissons Ratio (z) = 0.47843 0.45998
#
# Static dielectric constant tensor:
#      x y z
#    x 1.849480 0.015360 -0.029280 
#    y 0.015360 1.834630 -0.006210 
#    z -0.029280 -0.006210 1.843730 
# 
# From -- ./inp_files/263123.got.cif
#   From: 2010.05.17/outbox.cif.g08.bks.cpg/sg2_132_cif.got.tgz:263123.got - 2010.06.03 11:33:40.
