data_PCOD9034803
_publ_section_title
;
Structure prediction by ZEFSAII (Michael W. Deem and Ramdas Pophale) SiO2 
 PCOD9034803
Probable space group: P -1
;
_chemical_formula_sum "Si O2"
_cell_formula_units_Z 14
_cell_length_a 8.931465
_cell_length_b 15.609005
_cell_length_c 5.029778
_cell_angle_alpha 64.070546
_cell_angle_beta 89.308070
_cell_angle_gamma 115.495173
_cell_volume 551.612181
_symmetry_space_group_name_H-M "P -1"
_symmetry_group_IT_number 2
_symmetry_cell_setting 'triclinic'
loop_
_space_group_symop_operation_xyz
x,y,z
-x,-y,-z
loop_
_atom_site_type_symbol
_atom_site_label
_atom_site_fract_x
_atom_site_fract_y
_atom_site_fract_z
Si Si1 0.380924 0.726552 0.742764
Si Si2 0.078609 0.077970 0.141572
Si Si3 0.634485 0.914788 0.171160
Si Si4 0.411933 0.384348 0.013554
Si Si5 0.055236 0.580258 0.638754
Si Si6 0.178209 0.309869 0.621829
Si Si7 0.641000 0.096370 0.182801
O O1 0.565378 0.820145 0.513337
O O2 0.438774 0.648047 0.996850
O O3 0.296359 0.789845 0.820011
O O4 0.253777 0.661536 0.592507
O O5 0.274889 0.105126 0.052648
O O6 0.086702 0.192811 0.930164
O O7 0.000000 0.000000 0.500000
O O8 0.000000 0.000000 0.000000
O O9 0.736990 0.033087 0.149316
O O10 0.455507 0.896018 0.083252
O O11 0.271202 0.310308 0.342287
O O12 0.500000 0.500000 0.000000
O O13 0.317401 0.382393 0.744281
O O14 0.000000 0.500000 0.500000
O O15 0.954645 0.648413 0.508983
O O16 0.000000 0.500000 0.000000
O O17 0.500000 0.000000 0.500000
#
# Coordination Sequence:
#
# PCOD9034803 Si02
#       7
#     2   2   2   2   2   2   2
#     4  11  24  44  80 107 152 207 259 325 390 470
#     4  12  28  47  75 109 158 210 260 320 393 476
#     4  10  22  45  68 112 146 198 269 316 383 470
#     4  12  25  46  81 113 148 203 268 327 391 470
#     4  12  29  52  75 114 160 203 262 331 408 473
#     4  12  26  51  75 113 161 202 258 328 403 473
#     4   9  21  39  71 103 147 189 254 318 380 457
#
# _framework density 25.380147000000001
#
# number of rings (size 3 to 8) (size 9 to 14) (size 15 to 20)
#    0.000    0.857    1.429    4.714    6.000    3.429 
#    2.571    0.000    0.000    0.000    0.000    0.000 
#    0.000    0.000    0.000    0.000    0.000    0.000 
#
# Total GULP energy -78213.635098 kJ/mol
# GULP energy per Si atom -5586.688221 kJ/mol
# Density = 2.532238 g / cm^3
# Si number density = 25.380147 Si / 1000 Ang^3
#
#
#
# Elastic Constant Matrix: (Units=GPa)
#
#
# Indices 1 2 3 4 5 6 
#
# 1 105.4736 50.8298 38.8465 -6.3920 17.6171 -11.7902
# 2 50.8298 147.8481 52.0536 -4.3505 7.7538 -7.9315
# 3 38.8465 52.0536 146.2960 4.0100 11.4454 -11.7003
# 4 -6.3920 -4.3505 4.0100 57.0164 3.8328 12.4751
# 5 17.6171 7.7538 11.4454 3.8328 40.1740 -7.4427
# 6 -11.7902 -7.9315 -11.7003 12.4751 -7.4427 50.4095
#
#
#
# Elastic Compliance Matrix: (Units=1/GPa)
#
#
# Indices 1 2 3 4 5 6 
#
# 1 0.012706 -0.003421 -0.001770 0.001351 -0.004342 0.001047
# 2 -0.003421 0.008718 -0.002236 0.000408 0.000418 0.000013
# 3 -0.001770 -0.002236 0.008303 -0.001193 -0.000796 0.001339
# 4 0.001351 0.000408 -0.001193 0.019127 -0.003099 -0.005088
# 5 -0.004342 0.000418 -0.000796 -0.003099 0.027933 0.003757
# 6 0.001047 0.000013 0.001339 -0.005088 0.003757 0.022209
#
#
# Mechanical properties :
#
#
# Convention : Reuss Voigt Hill
#
# Bulk Modulus (GPa) = 67.24208 75.89749 71.56979
# Shear Modulus (GPa) = 42.08427 46.71252 44.39840
#
# Velocity S-wave (km/s) = 4.07647 4.29478 4.18704
# Velocity P-wave (km/s) = 6.97913 7.38665 7.18578
#
# Compressibility (1/GPa) = 0.01487164
#
# Stress axis : x y z
#
# Youngs Moduli (GPa) = 78.70301 114.70367 120.43532
#
# Poissons Ratio (x) = 0.39245 0.21318
# Poissons Ratio (y) = 0.26928 0.26933
# Poissons Ratio (z) = 0.13931 0.25652
#
# Static dielectric constant tensor:
#      x y z
#    x 2.089540 -0.042890 -0.254850 
#    y -0.042890 2.018340 0.058140 
#    z -0.254850 0.058140 1.700590 
# 
# From -- ./inp_files/76960.got.cif
#   From: 2010.05.17/outbox.cif.g08.bks.cpg/sg2_39_cif.got.tgz:76960.got - 2010.06.03 11:33:40.
