data_PCOD9034415
_publ_section_title
;
Structure prediction by ZEFSAII (Michael W. Deem and Ramdas Pophale) SiO2 
 PCOD9034415
Probable space group: P -1
;
_chemical_formula_sum "Si O2"
_cell_formula_units_Z 11
_cell_length_a 13.506034
_cell_length_b 11.732042
_cell_length_c 4.954562
_cell_angle_alpha 66.849697
_cell_angle_beta 64.191746
_cell_angle_gamma 38.664437
_cell_volume 439.574680
_symmetry_space_group_name_H-M "P -1"
_symmetry_group_IT_number 2
_symmetry_cell_setting 'triclinic'
loop_
_space_group_symop_operation_xyz
x,y,z
-x,-y,-z
loop_
_atom_site_type_symbol
_atom_site_label
_atom_site_fract_x
_atom_site_fract_y
_atom_site_fract_z
Si Si1 0.389630 0.705621 0.849693
Si Si2 0.900835 0.471716 0.883944
Si Si3 0.500000 0.000000 0.000000
Si Si4 0.158719 0.205989 0.431638
Si Si5 0.681365 0.646588 0.448002
Si Si6 0.167513 0.930704 0.419177
O O1 0.518572 0.702170 0.611814
O O2 0.271487 0.776562 0.673799
O O3 0.500000 0.500000 0.000000
O O4 0.279781 0.840593 0.104472
O O5 0.926552 0.598819 0.764978
O O6 0.769000 0.574435 0.699008
O O7 0.067781 0.273153 0.765967
O O8 0.808671 0.486720 0.228607
O O9 0.370388 0.180040 0.784241
O O10 0.651787 0.920641 0.701249
O O11 0.136470 0.094340 0.415170
O O12 0.000000 0.000000 0.500000
#
# Coordination Sequence:
#
# PCOD9034415 Si02
#       6
#     2   2   1   2   2   2
#     4  12  28  53  78 114 156 211 269 319 389 462
#     4  10  25  45  76 111 155 199 244 318 403 465
#     4  10  22  44  74 108 144 188 252 316 384 442
#     4  10  24  47  75 114 154 198 251 318 389 464
#     4  11  24  47  76 112 149 201 251 328 387 463
#     4  12  28  52  80 115 156 210 264 326 383 466
#
# _framework density 25.024189
#
# number of rings (size 3 to 8) (size 9 to 14) (size 15 to 20)
#    0.000    1.091    1.818    2.182    5.091   13.818 
#    0.000    0.000    0.000    0.000    0.000    0.000 
#    0.000    0.000    0.000    0.000    0.000    0.000 
#
# Total GULP energy -61372.319625 kJ/mol
# GULP energy per Si atom -5579.301784 kJ/mol
# Density = 2.496723 g / cm^3
# Si number density = 25.024189 Si / 1000 Ang^3
#
#
#
# Elastic Constant Matrix: (Units=GPa)
#
#
# Indices 1 2 3 4 5 6 
#
# 1 127.8148 82.2903 65.5978 29.8463 -2.9038 -23.8745
# 2 82.2903 136.4121 71.1327 40.6055 -21.0824 -22.5211
# 3 65.5978 71.1327 147.4240 34.4432 6.9149 -6.5487
# 4 29.8463 40.6055 34.4432 71.8964 -25.1503 6.2510
# 5 -2.9038 -21.0824 6.9149 -25.1503 31.1652 -9.3892
# 6 -23.8745 -22.5211 -6.5487 6.2510 -9.3892 38.8724
#
#
#
# Elastic Compliance Matrix: (Units=1/GPa)
#
#
# Indices 1 2 3 4 5 6 
#
# 1 0.014687 -0.006646 -0.002284 -0.002905 -0.003649 0.004371
# 2 -0.006646 0.018896 -0.006571 0.000251 0.016767 0.009768
# 3 -0.002284 -0.006571 0.012728 -0.005791 -0.013803 -0.005469
# 4 -0.002905 0.000251 -0.005791 0.025265 0.021096 -0.001582
# 5 -0.003649 0.016767 -0.013803 0.021096 0.068705 0.018350
# 6 0.004371 0.009768 -0.005469 -0.001582 0.018350 0.037834
#
#
# Mechanical properties :
#
#
# Convention : Reuss Voigt Hill
#
# Bulk Modulus (GPa) = 65.32872 94.41027 79.86950
# Shear Modulus (GPa) = 23.34046 41.22882 32.28464
#
# Velocity S-wave (km/s) = 3.05735 4.06342 3.59574
# Velocity P-wave (km/s) = 6.21499 7.73464 7.01608
#
# Compressibility (1/GPa) = 0.01530720
#
# Stress axis : x y z
#
# Youngs Moduli (GPa) = 68.08625 52.92173 78.56926
#
# Poissons Ratio (x) = 0.35173 0.17947
# Poissons Ratio (y) = 0.45252 0.51630
# Poissons Ratio (z) = 0.15553 0.34776
#
# Static dielectric constant tensor:
#      x y z
#    x 1.996990 0.034890 0.058330 
#    y 0.034890 2.019180 -0.016590 
#    z 0.058330 -0.016590 1.998440 
# 
# From -- ./inp_files/91314.got.cif
#   From: 2010.05.17/outbox.cif.g08.bks.cpg/sg2_46_cif.got.tgz:91314.got - 2010.06.03 11:33:40.
