data_PCOD9034445
_publ_section_title
;
Structure prediction by ZEFSAII (Michael W. Deem and Ramdas Pophale) SiO2 
 PCOD9034445
Probable space group: P -1
;
_chemical_formula_sum "Si O2"
_cell_formula_units_Z 14
_cell_length_a 22.119119
_cell_length_b 8.351004
_cell_length_c 5.009809
_cell_angle_alpha 99.640953
_cell_angle_beta 102.585626
_cell_angle_gamma 43.400362
_cell_volume 620.496423
_symmetry_space_group_name_H-M "P -1"
_symmetry_group_IT_number 2
_symmetry_cell_setting 'triclinic'
loop_
_space_group_symop_operation_xyz
x,y,z
-x,-y,-z
loop_
_atom_site_type_symbol
_atom_site_label
_atom_site_fract_x
_atom_site_fract_y
_atom_site_fract_z
Si Si1 0.944251 0.538590 0.211299
Si Si2 0.769417 0.067128 0.285114
Si Si3 0.458878 0.166674 0.757075
Si Si4 0.168292 0.732194 0.306509
Si Si5 0.684980 0.477944 0.948392
Si Si6 0.074891 0.794135 0.723951
Si Si7 0.577546 0.460596 0.438758
O O1 0.940005 0.354240 0.207311
O O2 0.000000 0.500000 0.500000
O O3 0.843109 0.796613 0.203926
O O4 0.000000 0.500000 0.000000
O O5 0.817196 0.110597 0.534356
O O6 0.671156 0.207175 0.350981
O O7 0.744662 0.219639 0.045215
O O8 0.469341 0.340627 0.777887
O O9 0.500000 0.000000 0.500000
O O10 0.355063 0.358510 0.787458
O O11 0.500000 0.000000 0.000000
O O12 0.257697 0.513894 0.178419
O O13 0.152468 0.656663 0.535857
O O14 0.097420 0.856559 0.028338
O O15 0.612001 0.527455 0.707717
O O16 0.000000 0.000000 0.500000
O O17 0.500000 0.500000 0.500000
#
# Coordination Sequence:
#
# PCOD9034445 Si02
#       7
#     2   2   2   2   2   2   2
#     4  12  29  48  73 108 151 190 241 301 371 434
#     4  10  24  45  75 102 145 203 243 297 369 437
#     4  11  22  42  68 104 138 180 241 287 359 422
#     4  11  23  45  72 101 141 187 247 291 361 429
#     4  10  22  44  74  99 144 197 240 288 378 418
#     4  12  26  44  72 110 140 185 244 305 366 433
#     4  10  23  45  74 107 144 194 245 296 363 436
#
# _framework density 22.562578999999999
#
# number of rings (size 3 to 8) (size 9 to 14) (size 15 to 20)
#    0.000    1.143    2.857    2.143    6.000    2.286 
#    5.143    0.000    0.000    0.000    0.000    0.000 
#    0.000    0.000    0.000    0.000    0.000    0.000 
#
# Total GULP energy -78026.053040 kJ/mol
# GULP energy per Si atom -5573.289503 kJ/mol
# Density = 2.251123 g / cm^3
# Si number density = 22.562579 Si / 1000 Ang^3
#
#
#
# Elastic Constant Matrix: (Units=GPa)
#
#
# Indices 1 2 3 4 5 6 
#
# 1 137.6865 70.6780 53.4330 3.9329 -37.9509 -19.2482
# 2 70.6780 158.7269 45.4604 1.8832 -31.0939 -0.4878
# 3 53.4330 45.4604 161.9254 -3.8316 -37.2709 -1.7838
# 4 3.9329 1.8832 -3.8316 46.0616 -14.5602 -7.3429
# 5 -37.9509 -31.0939 -37.2709 -14.5602 50.4680 2.3672
# 6 -19.2482 -0.4878 -1.7838 -7.3429 2.3672 21.8754
#
#
#
# Elastic Compliance Matrix: (Units=1/GPa)
#
#
# Indices 1 2 3 4 5 6 
#
# 1 0.013437 -0.004245 -0.001512 0.002893 0.006650 0.011856
# 2 -0.004245 0.008734 -0.000669 -0.000073 0.001853 -0.003820
# 3 -0.001512 -0.000669 0.008097 0.002384 0.005139 -0.000441
# 4 0.002893 -0.000073 0.002384 0.026870 0.011148 0.010551
# 5 0.006650 0.001853 0.005139 0.011148 0.032663 0.006520
# 6 0.011856 -0.003820 -0.000441 0.010551 0.006520 0.058861
#
#
# Mechanical properties :
#
#
# Convention : Reuss Voigt Hill
#
# Bulk Modulus (GPa) = 57.41939 88.60906 73.01423
# Shear Modulus (GPa) = 29.88302 42.93215 36.40759
#
# Velocity S-wave (km/s) = 3.64325 4.36685 4.02136
# Velocity P-wave (km/s) = 6.57281 8.04883 7.34798
#
# Compressibility (1/GPa) = 0.01741572
#
# Stress axis : x y z
#
# Youngs Moduli (GPa) = 74.42223 114.49471 123.50536
#
# Poissons Ratio (x) = 0.48604 0.18678
# Poissons Ratio (y) = 0.31593 0.08256
# Poissons Ratio (z) = 0.11255 0.07654
#
# Static dielectric constant tensor:
#      x y z
#    x 1.891810 -0.077580 -0.022280 
#    y -0.077580 1.926150 0.043260 
#    z -0.022280 0.043260 1.950080 
# 
# From -- ./inp_files/117041.got.cif
#   From: 2010.05.17/outbox.cif.g08.bks.cpg/sg2_59_cif.got.tgz:117041.got - 2010.06.03 11:33:40.
