data_PCOD9034630
_publ_section_title
;
Structure prediction by ZEFSAII (Michael W. Deem and Ramdas Pophale) SiO2 
 PCOD9034630
Probable space group: P -1
;
_chemical_formula_sum "Si O2"
_cell_formula_units_Z 16
_cell_length_a 10.934240
_cell_length_b 22.725051
_cell_length_c 5.332328
_cell_angle_alpha 69.093443
_cell_angle_beta 79.534111
_cell_angle_gamma 31.179856
_cell_volume 619.519932
_symmetry_space_group_name_H-M "P -1"
_symmetry_group_IT_number 2
_symmetry_cell_setting 'triclinic'
loop_
_space_group_symop_operation_xyz
x,y,z
-x,-y,-z
loop_
_atom_site_type_symbol
_atom_site_label
_atom_site_fract_x
_atom_site_fract_y
_atom_site_fract_z
Si Si1 0.924137 0.972051 0.727365
Si Si2 0.713279 0.461770 0.268092
Si Si3 0.791029 0.381186 0.860725
Si Si4 0.160453 0.414356 0.325258
Si Si5 0.534979 0.794059 0.142624
Si Si6 0.846977 0.876845 0.948030
Si Si7 0.526176 0.302288 0.012950
Si Si8 0.464998 0.957350 0.765535
O O1 0.182923 0.827871 0.920314
O O2 0.000000 0.000000 0.500000
O O3 0.736968 0.080853 0.833157
O O4 0.792064 0.965695 0.678379
O O5 0.874307 0.369822 0.578406
O O6 0.499604 0.503026 0.242787
O O7 0.591329 0.580949 0.205315
O O8 0.842288 0.404710 0.037184
O O9 0.907660 0.261845 0.034126
O O10 0.279664 0.295948 0.554611
O O11 0.000000 0.500000 0.500000
O O12 0.411018 0.343005 0.272603
O O13 0.000000 0.500000 0.000000
O O14 0.553237 0.724008 0.074952
O O15 0.550525 0.848285 0.877533
O O16 0.797948 0.922512 0.180300
O O17 0.670871 0.893090 0.982194
O O18 0.500000 0.000000 0.500000
#
# Coordination Sequence:
#
# PCOD9034630 Si02
#       8
#     2   2   2   2   2   2   2   2
#     4  11  23  44  76 113 150 199 244 328 396 466
#     4  10  24  41  70 102 145 184 242 294 373 436
#     4  10  22  45  66 103 141 194 237 299 359 445
#     4  12  27  50  74 107 150 209 260 311 379 464
#     4  11  26  47  75 117 153 204 261 319 395 465
#     4  10  23  45  69 104 146 189 260 301 384 443
#     4  12  25  46  75 110 158 192 252 320 393 462
#     4  10  25  45  72 105 146 201 255 316 368 463
#
# _framework density 25.826446000000001
#
# number of rings (size 3 to 8) (size 9 to 14) (size 15 to 20)
#    0.000    1.250    3.750    0.375    5.250    3.000 
#    2.250    0.000    0.000    0.000    0.000    0.000 
#    0.000    0.000    0.000    0.000    0.000    0.000 
#
# Total GULP energy -89113.643283 kJ/mol
# GULP energy per Si atom -5569.602705 kJ/mol
# Density = 2.576766 g / cm^3
# Si number density = 25.826446 Si / 1000 Ang^3
#
#
#
# Elastic Constant Matrix: (Units=GPa)
#
#
# Indices 1 2 3 4 5 6 
#
# 1 95.7744 34.1660 34.2580 -6.8370 -27.2969 25.0017
# 2 34.1660 155.3701 64.3902 -2.3574 2.4336 15.4785
# 3 34.2580 64.3902 165.8145 -17.4825 -13.1927 27.3561
# 4 -6.8370 -2.3574 -17.4825 47.2361 7.1725 -9.8657
# 5 -27.2969 2.4336 -13.1927 7.1725 30.4300 -2.8787
# 6 25.0017 15.4785 27.3561 -9.8657 -2.8787 57.7733
#
#
#
# Elastic Compliance Matrix: (Units=1/GPa)
#
#
# Indices 1 2 3 4 5 6 
#
# 1 0.017782 -0.003493 -0.000188 -0.001359 0.015891 -0.006111
# 2 -0.003493 0.008520 -0.003089 -0.000382 -0.005029 0.000376
# 3 -0.000188 -0.003089 0.008105 0.001860 0.002920 -0.002465
# 4 -0.001359 -0.000382 0.001860 0.023212 -0.005523 0.003499
# 5 0.015891 -0.005029 0.002920 -0.005523 0.049578 -0.005385
# 6 -0.006111 0.000376 -0.002465 0.003499 -0.005385 0.021349
#
#
# Mechanical properties :
#
#
# Convention : Reuss Voigt Hill
#
# Bulk Modulus (GPa) = 47.92600 75.84306 61.88453
# Shear Modulus (GPa) = 33.54759 46.03088 39.78923
#
# Velocity S-wave (km/s) = 3.60802 4.22633 3.92936
# Velocity P-wave (km/s) = 5.99619 7.29698 6.67833
#
# Compressibility (1/GPa) = 0.02086550
#
# Stress axis : x y z
#
# Youngs Moduli (GPa) = 56.23693 117.36846 123.38754
#
# Poissons Ratio (x) = 0.40997 0.02323
# Poissons Ratio (y) = 0.19644 0.38118
# Poissons Ratio (z) = 0.01059 0.36259
#
# Static dielectric constant tensor:
#      x y z
#    x 2.329450 -0.051810 0.201950 
#    y -0.051810 2.125490 0.020620 
#    z 0.201950 0.020620 2.258150 
# 
# From -- ./inp_files/84210.got.cif
#   From: 2010.05.17/outbox.cif.g08.bks.cpg/sg2_43_cif.got.tgz:84210.got - 2010.06.03 11:33:40.
