data_PCOD9034698
_publ_section_title
;
Structure prediction by ZEFSAII (Michael W. Deem and Ramdas Pophale) SiO2 
 PCOD9034698
Probable space group: P -1
;
_chemical_formula_sum "Si O2"
_cell_formula_units_Z 16
_cell_length_a 5.605951
_cell_length_b 10.771728
_cell_length_c 11.498151
_cell_angle_alpha 75.095169
_cell_angle_beta 76.635362
_cell_angle_gamma 75.219419
_cell_volume 638.500367
_symmetry_space_group_name_H-M "P -1"
_symmetry_group_IT_number 2
_symmetry_cell_setting 'triclinic'
loop_
_space_group_symop_operation_xyz
x,y,z
-x,-y,-z
loop_
_atom_site_type_symbol
_atom_site_label
_atom_site_fract_x
_atom_site_fract_y
_atom_site_fract_z
Si Si1 0.574239 0.847482 0.556322
Si Si2 0.755986 0.525810 0.175331
Si Si3 0.884552 0.952338 0.899977
Si Si4 0.852481 0.334835 0.008875
Si Si5 0.017536 0.895909 0.632117
Si Si6 0.769904 0.440644 0.433656
Si Si7 0.952372 0.705242 0.373562
Si Si8 0.351968 0.777071 0.146231
O O1 0.305421 0.818777 0.622040
O O2 0.693745 0.780913 0.439206
O O3 0.781692 0.828457 0.641316
O O4 0.500000 0.000000 0.500000
O O5 0.710851 0.436841 0.093794
O O6 0.764433 0.426878 0.302078
O O7 0.563108 0.660302 0.200549
O O8 0.009372 0.574094 0.107031
O O9 0.932378 0.793259 0.947424
O O10 0.983647 0.956203 0.752831
O O11 0.635834 0.070622 0.886966
O O12 0.000000 0.000000 0.000000
O O13 0.663084 0.269323 0.972980
O O14 0.000000 0.000000 0.500000
O O15 0.500000 0.500000 0.500000
O O16 0.932578 0.555400 0.390252
O O17 0.870377 0.313308 0.528947
O O18 0.089538 0.765328 0.241198
#
# Coordination Sequence:
#
# PCOD9034698 Si02
#       8
#     2   2   2   2   2   2   2   2
#     4  10  23  41  70 102 145 186 234 290 370 441
#     4  11  23  42  72  94 135 186 235 293 355 434
#     4  10  24  46  70 105 146 188 249 302 372 441
#     4  10  24  45  63  98 139 181 239 289 359 433
#     4  10  22  45  67 107 143 194 236 299 368 442
#     4  11  24  42  65 100 132 180 234 298 357 430
#     4  11  24  40  67 102 139 177 233 299 366 434
#     4  11  21  44  68 100 133 182 232 296 362 428
#
# _framework density 25.058719
#
# number of rings (size 3 to 8) (size 9 to 14) (size 15 to 20)
#    0.000    1.500    2.500    1.875    3.500    2.500 
#    9.000    0.000    0.000    0.000    0.000    0.000 
#    0.000    0.000    0.000    0.000    0.000    0.000 
#
# Total GULP energy -89098.035109 kJ/mol
# GULP energy per Si atom -5568.627194 kJ/mol
# Density = 2.500168 g / cm^3
# Si number density = 25.058719 Si / 1000 Ang^3
#
#
#
# Elastic Constant Matrix: (Units=GPa)
#
#
# Indices 1 2 3 4 5 6 
#
# 1 93.4737 15.5952 24.0771 8.5127 0.6817 -7.8213
# 2 15.5952 117.6649 35.2466 -2.2616 -12.3699 -3.6451
# 3 24.0771 35.2466 149.0299 16.9483 -1.1880 8.3533
# 4 8.5127 -2.2616 16.9483 43.7094 -2.8608 -6.6327
# 5 0.6817 -12.3699 -1.1880 -2.8608 19.1968 -6.6120
# 6 -7.8213 -3.6451 8.3533 -6.6327 -6.6120 27.6214
#
#
#
# Elastic Compliance Matrix: (Units=1/GPa)
#
#
# Indices 1 2 3 4 5 6 
#
# 1 0.011693 -0.000967 -0.001720 -0.001156 -0.000150 0.003390
# 2 -0.000967 0.010654 -0.002932 0.003204 0.008889 0.004916
# 3 -0.001720 -0.002932 0.008419 -0.004133 -0.003753 -0.005311
# 4 -0.001156 0.003204 -0.004133 0.027011 0.009343 0.010068
# 5 -0.000150 0.008889 -0.003753 0.009343 0.065978 0.020303
# 6 0.003390 0.004916 -0.005311 0.010068 0.020303 0.046696
#
#
# Mechanical properties :
#
#
# Convention : Reuss Voigt Hill
#
# Bulk Modulus (GPa) = 51.21449 56.66736 53.94093
# Shear Modulus (GPa) = 26.56754 37.12215 31.84485
#
# Velocity S-wave (km/s) = 3.25962 3.85308 3.56871
# Velocity P-wave (km/s) = 5.88634 6.51597 6.20914
#
# Compressibility (1/GPa) = 0.01952572
#
# Stress axis : x y z
#
# Youngs Moduli (GPa) = 85.52384 93.86421 118.77508
#
# Poissons Ratio (x) = 0.09081 0.20430
# Poissons Ratio (y) = 0.08274 0.34831
# Poissons Ratio (z) = 0.14710 0.27526
#
# Static dielectric constant tensor:
#      x y z
#    x 1.919290 -0.072540 0.099560 
#    y -0.072540 2.002320 0.044580 
#    z 0.099560 0.044580 2.051150 
# 
# From -- ./inp_files/364275.got.cif
#   From: 2010.05.17/outbox.cif.g08.bks.cpg/sg2_183_cif.got.tgz:364275.got - 2010.06.03 11:33:40.
