data_PCOD9034176
_publ_section_title
;
Structure prediction by ZEFSAII (Michael W. Deem and Ramdas Pophale) SiO2 
 PCOD9034176
Probable space group: P -1
;
_chemical_formula_sum "Si O2"
_cell_formula_units_Z 14
_cell_length_a 23.111671
_cell_length_b 5.228834
_cell_length_c 9.769544
_cell_angle_alpha 130.385534
_cell_angle_beta 133.183219
_cell_angle_gamma 56.247902
_cell_volume 642.208331
_symmetry_space_group_name_H-M "P -1"
_symmetry_group_IT_number 2
_symmetry_cell_setting 'triclinic'
loop_
_space_group_symop_operation_xyz
x,y,z
-x,-y,-z
loop_
_atom_site_type_symbol
_atom_site_label
_atom_site_fract_x
_atom_site_fract_y
_atom_site_fract_z
Si Si1 0.437063 0.801726 0.701521
Si Si2 0.618084 0.394654 0.160863
Si Si3 0.570480 0.192932 0.724927
Si Si4 0.781633 0.638518 0.482030
Si Si5 0.696547 0.236958 0.733721
Si Si6 0.095303 0.930555 0.610683
Si Si7 0.189434 0.433720 0.796236
O O1 0.409080 0.747830 0.791630
O O2 0.527443 0.587194 0.756629
O O3 0.375379 0.648754 0.451518
O O4 0.424457 0.201153 0.782375
O O5 0.712654 0.414321 0.313020
O O6 0.593597 0.199159 0.922336
O O7 0.650620 0.080759 0.726643
O O8 0.500000 0.000000 0.500000
O O9 0.869437 0.391556 0.544222
O O10 0.775140 0.754964 0.352471
O O11 0.761466 0.950436 0.661194
O O12 0.740532 0.510495 0.969331
O O13 0.141914 0.795778 0.780566
O O14 0.127391 0.246296 0.707826
O O15 0.000000 0.000000 0.500000
#
# Coordination Sequence:
#
# PCOD9034176 Si02
#       7
#     2   2   2   2   2   2   2
#     4  11  26  42  67  91 132 177 225 284 333 377
#     4  11  24  45  65  92 131 180 224 273 338 394
#     4  12  24  43  63  98 133 176 230 289 326 385
#     4   9  23  41  68  95 133 173 213 269 331 385
#     4  11  24  45  65 103 130 177 234 269 328 402
#     4  10  22  44  72 100 134 171 213 261 333 399
#     4  10  23  43  70  96 133 176 214 268 327 393
#
# _framework density 21.799778
#
# number of rings (size 3 to 8) (size 9 to 14) (size 15 to 20)
#    0.857    0.571    1.429    3.429    4.000    6.857 
#    0.000    1.429    0.000    0.000    0.000    0.000 
#    0.000    0.000    0.000    0.000    0.000    0.000 
#
# Total GULP energy -78281.994523 kJ/mol
# GULP energy per Si atom -5591.571037 kJ/mol
# Density = 2.175016 g / cm^3
# Si number density = 21.799778 Si / 1000 Ang^3
#
#
#
# Elastic Constant Matrix: (Units=GPa)
#
#
# Indices 1 2 3 4 5 6 
#
# 1 140.3511 37.2297 52.3676 9.1695 -10.9633 0.6498
# 2 37.2297 71.5219 14.1448 -4.7900 -11.9063 2.5441
# 3 52.3676 14.1448 104.1589 -4.0766 -24.4467 12.6226
# 4 9.1695 -4.7900 -4.0766 23.2305 3.6836 -0.8812
# 5 -10.9633 -11.9063 -24.4467 3.6836 30.2233 0.3565
# 6 0.6498 2.5441 12.6226 -0.8812 0.3565 48.6318
#
#
#
# Elastic Compliance Matrix: (Units=1/GPa)
#
#
# Indices 1 2 3 4 5 6 
#
# 1 0.010867 -0.005332 -0.005624 -0.006003 -0.001994 0.001499
# 2 -0.005332 0.017758 0.002071 0.005106 0.006130 -0.001348
# 3 -0.005624 0.002071 0.015299 0.003471 0.010775 -0.004020
# 4 -0.006003 0.005106 0.003471 0.047571 -0.003154 -0.000203
# 5 -0.001994 0.006130 0.010775 -0.003154 0.043920 -0.003470
# 6 0.001499 -0.001348 -0.004020 -0.000203 -0.003470 0.021678
#
#
# Mechanical properties :
#
#
# Convention : Reuss Voigt Hill
#
# Bulk Modulus (GPa) = 38.23411 58.16846 48.20129
# Shear Modulus (GPa) = 27.23584 34.56978 30.90281
#
# Velocity S-wave (km/s) = 3.53847 3.98651 3.76915
# Velocity P-wave (km/s) = 5.85416 6.92320 6.41100
#
# Compressibility (1/GPa) = 0.02615465
#
# Stress axis : x y z
#
# Youngs Moduli (GPa) = 92.01908 56.31277 65.36298
#
# Poissons Ratio (x) = 0.30025 0.36762
# Poissons Ratio (y) = 0.49063 -0.13537
# Poissons Ratio (z) = 0.51754 -0.11663
#
# Static dielectric constant tensor:
#      x y z
#    x 1.772130 -0.000080 -0.023750 
#    y -0.000080 1.886800 0.025900 
#    z -0.023750 0.025900 1.805720 
# 
# From -- ./inp_files/340756.got.cif
#   From: 2010.05.17/outbox.cif.g08.bks.cpg/sg2_171_cif.got.tgz:340756.got - 2010.06.03 11:33:40.
