data_PCOD9034241
_publ_section_title
;
Structure prediction by ZEFSAII (Michael W. Deem and Ramdas Pophale) SiO2 
 PCOD9034241
Probable space group: P -1
;
_chemical_formula_sum "Si O2"
_cell_formula_units_Z 16
_cell_length_a 7.962521
_cell_length_b 14.586016
_cell_length_c 19.386202
_cell_angle_alpha 159.684752
_cell_angle_beta 49.874851
_cell_angle_gamma 130.356099
_cell_volume 589.765592
_symmetry_space_group_name_H-M "P -1"
_symmetry_group_IT_number 2
_symmetry_cell_setting 'triclinic'
loop_
_space_group_symop_operation_xyz
x,y,z
-x,-y,-z
loop_
_atom_site_type_symbol
_atom_site_label
_atom_site_fract_x
_atom_site_fract_y
_atom_site_fract_z
Si Si1 0.725047 0.354162 0.762042
Si Si2 0.732086 0.604877 0.137060
Si Si3 0.393770 0.019411 0.966320
Si Si4 0.414163 0.120045 0.822272
Si Si5 0.992317 0.798908 0.736340
Si Si6 0.849984 0.561132 0.366993
Si Si7 0.854127 0.061385 0.815618
Si Si8 0.703438 0.815246 0.447152
O O1 0.475203 0.250071 0.729917
O O2 0.888312 0.432996 0.710729
O O3 0.813744 0.126783 0.622351
O O4 0.698832 0.631944 0.001733
O O5 0.735015 0.677165 0.268441
O O6 0.634794 0.298944 0.922859
O O7 0.038405 0.272660 0.875487
O O8 0.277631 0.717349 0.768966
O O9 0.608241 0.126805 0.940790
O O10 0.500000 0.000000 0.000000
O O11 0.197566 0.191390 0.149964
O O12 0.473280 0.897764 0.597053
O O13 0.233571 0.957750 0.806513
O O14 0.000000 0.500000 0.500000
O O15 0.935072 0.963233 0.799204
O O16 0.767155 0.632005 0.362849
O O17 0.818866 0.798560 0.592469
#
# Coordination Sequence:
#
# PCOD9034241 Si02
#       8
#     2   2   2   2   2   2   2   2
#     4  10  22  44  72 107 155 195 252 312 384 440
#     4  10  24  46  78 115 154 201 249 313 388 451
#     4  10  24  49  71 105 147 205 248 314 387 441
#     4  10  25  44  76 112 149 199 255 325 384 436
#     4  11  25  49  81 109 142 202 266 318 375 453
#     4  12  25  46  73 111 158 202 248 318 384 455
#     4  11  25  46  77 107 159 200 249 309 387 459
#     4  12  24  42  77 115 156 200 254 308 386 467
#
# _framework density 27.129422000000002
#
# number of rings (size 3 to 8) (size 9 to 14) (size 15 to 20)
#    0.750    0.500    2.500    2.250    7.000    0.000 
#    4.500    2.500    0.000    0.000    0.000    0.000 
#    0.000    0.000    0.000    0.000    0.000    0.000 
#
# Total GULP energy -89482.416454 kJ/mol
# GULP energy per Si atom -5592.651028 kJ/mol
# Density = 2.706767 g / cm^3
# Si number density = 27.129422 Si / 1000 Ang^3
#
#
#
# Elastic Constant Matrix: (Units=GPa)
#
#
# Indices 1 2 3 4 5 6 
#
# 1 99.8869 84.9294 45.8425 1.1541 8.3768 13.6357
# 2 84.9294 219.5424 101.9287 -14.9101 -2.3437 27.2851
# 3 45.8425 101.9287 172.8406 -7.4571 11.2589 34.7556
# 4 1.1541 -14.9101 -7.4571 62.2248 -3.4343 -4.1283
# 5 8.3768 -2.3437 11.2589 -3.4343 37.8980 -0.5121
# 6 13.6357 27.2851 34.7556 -4.1283 -0.5121 59.7367
#
#
#
# Elastic Compliance Matrix: (Units=1/GPa)
#
#
# Indices 1 2 3 4 5 6 
#
# 1 0.015745 -0.006040 -0.000273 -0.002048 -0.003970 -0.000852
# 2 -0.006040 0.008784 -0.003626 0.001931 0.003125 -0.000364
# 3 -0.000273 -0.003626 0.008875 -0.000189 -0.002865 -0.003483
# 4 -0.002048 0.001931 -0.000189 0.016725 0.002156 0.000870
# 5 -0.003970 0.003125 -0.002865 0.002156 0.028525 0.001539
# 6 -0.000852 -0.000364 -0.003483 0.000870 0.001539 0.019201
#
#
# Mechanical properties :
#
#
# Convention : Reuss Voigt Hill
#
# Bulk Modulus (GPa) = 73.91957 106.40790 90.16374
# Shear Modulus (GPa) = 40.90326 49.27651 45.08989
#
# Velocity S-wave (km/s) = 3.88713 4.26649 4.08122
# Velocity P-wave (km/s) = 6.88858 7.97358 7.45086
#
# Compressibility (1/GPa) = 0.01352822
#
# Stress axis : x y z
#
# Youngs Moduli (GPa) = 63.51364 113.83826 112.67789
#
# Poissons Ratio (x) = 0.68756 0.03071
# Poissons Ratio (y) = 0.38361 0.40852
# Poissons Ratio (z) = 0.01731 0.41273
#
# Static dielectric constant tensor:
#      x y z
#    x 2.229270 -0.004310 -0.044730 
#    y -0.004310 2.127510 -0.027700 
#    z -0.044730 -0.027700 2.056980 
# 
# From -- ./inp_files/590510.got.cif
#   From: 2010.05.17/outbox.cif.g08.bks.cpg/sg2_296_cif.got.tgz:590510.got - 2010.06.03 11:33:40.
