data_PCOD9034109
_publ_section_title
;
Structure prediction by ZEFSAII (Michael W. Deem and Ramdas Pophale) SiO2 
 PCOD9034109
Probable space group: P -1
;
_chemical_formula_sum "Si O2"
_cell_formula_units_Z 14
_cell_length_a 11.072300
_cell_length_b 17.060997
_cell_length_c 7.750291
_cell_angle_alpha 52.225254
_cell_angle_beta 118.920106
_cell_angle_gamma 149.808811
_cell_volume 578.068667
_symmetry_space_group_name_H-M "P -1"
_symmetry_group_IT_number 2
_symmetry_cell_setting 'triclinic'
loop_
_space_group_symop_operation_xyz
x,y,z
-x,-y,-z
loop_
_atom_site_type_symbol
_atom_site_label
_atom_site_fract_x
_atom_site_fract_y
_atom_site_fract_z
Si Si1 0.878824 0.841569 0.243758
Si Si2 0.788269 0.151858 0.495747
Si Si3 0.303114 0.316105 0.014498
Si Si4 0.731839 0.234746 0.019497
Si Si5 0.358282 0.208501 0.506368
Si Si6 0.100483 0.488070 0.440438
Si Si7 0.236511 0.935408 0.952942
O O1 0.670949 0.682795 0.176133
O O2 0.776770 0.819938 0.385580
O O3 0.294712 0.212622 0.268631
O O4 0.000000 0.000000 0.000000
O O5 0.859814 0.250612 0.236111
O O6 0.911790 0.291640 0.537570
O O7 0.500000 0.000000 0.500000
O O8 0.920958 0.124798 0.628550
O O9 0.500000 0.500000 0.000000
O O10 0.036398 0.203924 0.999554
O O11 0.746635 0.166519 0.963496
O O12 0.846807 0.407644 0.824263
O O13 0.440373 0.075999 0.049839
O O14 0.639861 0.396961 0.476245
O O15 0.310895 0.062520 0.689664
O O16 0.000000 0.500000 0.500000
#
# Coordination Sequence:
#
# PCOD9034109 Si02
#       7
#     2   2   2   2   2   2   2
#     4  12  28  49  78 112 152 198 256 312 371 454
#     4  12  28  47  76 113 150 196 253 308 377 449
#     4  12  26  43  73 107 149 196 245 307 377 442
#     4  10  24  44  77 101 149 197 244 311 374 438
#     4  11  26  49  76 107 154 198 253 311 380 446
#     4  11  28  49  75 109 150 196 253 312 375 452
#     4  10  22  44  71 108 146 192 248 304 368 449
#
# _framework density 24.218575999999999
#
# number of rings (size 3 to 8) (size 9 to 14) (size 15 to 20)
#    0.000    0.857    1.429    3.429   14.000    3.429 
#    0.000    0.000    0.000    0.000    0.000    0.000 
#    0.000    0.000    0.000    0.000    0.000    0.000 
#
# Total GULP energy -78330.864078 kJ/mol
# GULP energy per Si atom -5595.061720 kJ/mol
# Density = 2.416345 g / cm^3
# Si number density = 24.218576 Si / 1000 Ang^3
#
#
#
# Elastic Constant Matrix: (Units=GPa)
#
#
# Indices 1 2 3 4 5 6 
#
# 1 113.2884 50.5996 30.0818 2.8463 21.5545 17.3477
# 2 50.5996 141.4542 26.2212 -4.1548 14.0892 5.1159
# 3 30.0818 26.2212 145.0120 29.8881 35.1232 13.3925
# 4 2.8463 -4.1548 29.8881 29.9168 -0.4356 4.4316
# 5 21.5545 14.0892 35.1232 -0.4356 43.6339 1.4147
# 6 17.3477 5.1159 13.3925 4.4316 1.4147 33.0149
#
#
#
# Elastic Compliance Matrix: (Units=1/GPa)
#
#
# Indices 1 2 3 4 5 6 
#
# 1 0.012262 -0.003741 -0.000052 -0.000884 -0.004638 -0.005525
# 2 -0.003741 0.008728 -0.001575 0.003022 0.000301 0.000833
# 3 -0.000052 -0.001575 0.012195 -0.012141 -0.009318 -0.002647
# 4 -0.000884 0.003022 -0.012141 0.046458 0.009753 -0.001733
# 5 -0.004638 0.000301 -0.009318 0.009753 0.032597 0.003464
# 6 -0.005525 0.000833 -0.002647 -0.001733 0.003464 0.034221
#
#
# Mechanical properties :
#
#
# Convention : Reuss Voigt Hill
#
# Bulk Modulus (GPa) = 44.54226 68.17332 56.35779
# Shear Modulus (GPa) = 30.36185 40.83659 35.59922
#
# Velocity S-wave (km/s) = 3.54455 4.11075 3.83810
# Velocity P-wave (km/s) = 5.93156 7.12330 6.55457
#
# Compressibility (1/GPa) = 0.02245059
#
# Stress axis : x y z
#
# Youngs Moduli (GPa) = 81.55110 114.57056 82.00028
#
# Poissons Ratio (x) = 0.42861 0.00423
# Poissons Ratio (y) = 0.30508 0.12914
# Poissons Ratio (z) = 0.00421 0.18044
#
# Static dielectric constant tensor:
#      x y z
#    x 1.933910 -0.023890 -0.045630 
#    y -0.023890 1.992060 -0.013080 
#    z -0.045630 -0.013080 2.071370 
# 
# From -- ./inp_files/318579.got.cif
#   From: 2010.05.17/outbox.cif.g08.bks.cpg/sg2_160_cif.got.tgz:318579.got - 2010.06.03 11:33:40.
