data_PCOD9034662
_publ_section_title
;
Structure prediction by ZEFSAII (Michael W. Deem and Ramdas Pophale) SiO2 
 PCOD9034662
Probable space group: P -1
;
_chemical_formula_sum "Si O2"
_cell_formula_units_Z 14
_cell_length_a 9.544163
_cell_length_b 6.953954
_cell_length_c 8.719626
_cell_angle_alpha 94.799243
_cell_angle_beta 105.995047
_cell_angle_gamma 94.582786
_cell_volume 551.152359
_symmetry_space_group_name_H-M "P -1"
_symmetry_group_IT_number 2
_symmetry_cell_setting 'triclinic'
loop_
_space_group_symop_operation_xyz
x,y,z
-x,-y,-z
loop_
_atom_site_type_symbol
_atom_site_label
_atom_site_fract_x
_atom_site_fract_y
_atom_site_fract_z
Si Si1 0.838329 0.098083 0.269904
Si Si2 0.354742 0.396552 0.529132
Si Si3 0.106032 0.684067 0.412549
Si Si4 0.444995 0.132800 0.791372
Si Si5 0.108301 0.547808 0.893557
Si Si6 0.730469 0.985134 0.724052
Si Si7 0.741758 0.780422 0.018306
O O1 0.935148 0.195391 0.441820
O O2 0.847154 0.236210 0.134375
O O3 0.674937 0.054207 0.288266
O O4 0.851166 0.888631 0.186234
O O5 0.500000 0.500000 0.500000
O O6 0.228849 0.541009 0.487152
O O7 0.394006 0.322937 0.704667
O O8 0.312816 0.191563 0.416727
O O9 0.172477 0.843538 0.320553
O O10 0.975032 0.550848 0.285184
O O11 0.594525 0.083293 0.761363
O O12 0.416282 0.170435 0.965724
O O13 0.247648 0.445194 0.981977
O O14 0.000000 0.500000 0.000000
O O15 0.791564 0.872110 0.878533
#
# Coordination Sequence:
#
# PCOD9034662 Si02
#       7
#     2   2   2   2   2   2   2
#     4  10  24  45  67  97 135 172 222 276 324 388
#     4  12  23  41  69 101 133 172 218 269 331 392
#     4  12  25  41  73  99 135 174 222 272 329 395
#     4  10  22  45  66  97 138 167 221 269 330 390
#     4  12  26  47  67  98 134 174 229 272 327 397
#     4  12  22  43  67 105 133 176 216 271 335 393
#     4  10  25  43  68  95 134 179 215 274 331 385
#
# _framework density 25.401326000000001
#
# number of rings (size 3 to 8) (size 9 to 14) (size 15 to 20)
#    0.857    0.000    2.857    4.714    0.000    4.000 
#    0.000    1.429    0.000    0.000    0.000    0.000 
#    0.000    0.000    0.000    0.000    0.000    0.000 
#
# Total GULP energy -78285.149816 kJ/mol
# GULP energy per Si atom -5591.796415 kJ/mol
# Density = 2.534351 g / cm^3
# Si number density = 25.401326 Si / 1000 Ang^3
#
#
#
# Elastic Constant Matrix: (Units=GPa)
#
#
# Indices 1 2 3 4 5 6 
#
# 1 73.5356 34.1099 0.5904 -23.5467 -10.1523 -3.3699
# 2 34.1099 105.1236 -6.5573 -39.1806 -10.7284 10.2841
# 3 0.5904 -6.5573 76.6729 -21.4273 -18.2110 7.3027
# 4 -23.5467 -39.1806 -21.4273 41.8115 10.2574 -3.9708
# 5 -10.1523 -10.7284 -18.2110 10.2574 34.0699 -9.5763
# 6 -3.3699 10.2841 7.3027 -3.9708 -9.5763 50.2566
#
#
#
# Elastic Compliance Matrix: (Units=1/GPa)
#
#
# Indices 1 2 3 4 5 6 
#
# 1 0.018174 -0.002268 0.002897 0.008782 0.004391 0.002792
# 2 -0.002268 0.018410 0.007851 0.019039 0.002733 -0.003035
# 3 0.002897 0.007851 0.020764 0.017333 0.008829 -0.001378
# 4 0.008782 0.019039 0.017333 0.055248 0.000880 -0.001293
# 5 0.004391 0.002733 0.008829 0.000880 0.037571 0.005681
# 6 0.002792 -0.003035 -0.001378 -0.001293 0.005681 0.021887
#
#
# Mechanical properties :
#
#
# Convention : Reuss Voigt Hill
#
# Bulk Modulus (GPa) = 13.45746 34.62423 24.04084
# Shear Modulus (GPa) = 27.79906 40.37356 34.08631
#
# Velocity S-wave (km/s) = 3.31175 3.99109 3.66718
# Velocity P-wave (km/s) = 4.46464 5.90752 5.23602
#
# Compressibility (1/GPa) = 0.07430823
#
# Stress axis : x y z
#
# Youngs Moduli (GPa) = 55.02368 54.31791 48.16140
#
# Poissons Ratio (x) = 0.12319 -0.13954
# Poissons Ratio (y) = 0.12479 -0.37811
# Poissons Ratio (z) = -0.15943 -0.42644
#
# Static dielectric constant tensor:
#      x y z
#    x 2.023010 -0.040720 0.051410 
#    y -0.040720 1.938570 -0.004510 
#    z 0.051410 -0.004510 2.032480 
# 
# From -- ./inp_files/36910.got.cif
#   From: 2010.05.17/outbox.cif.g08.bks.cpg/sg2_19_cif.got.tgz:36910.got - 2010.06.03 11:33:40.
