data_PCOD9034463
_publ_section_title
;
Structure prediction by ZEFSAII (Michael W. Deem and Ramdas Pophale) SiO2 
 PCOD9034463
Probable space group: P -1
;
_chemical_formula_sum "Si O2"
_cell_formula_units_Z 16
_cell_length_a 22.174337
_cell_length_b 10.101521
_cell_length_c 12.932050
_cell_angle_alpha 139.210839
_cell_angle_beta 144.289522
_cell_angle_gamma 24.220990
_cell_volume 691.981386
_symmetry_space_group_name_H-M "P -1"
_symmetry_group_IT_number 2
_symmetry_cell_setting 'triclinic'
loop_
_space_group_symop_operation_xyz
x,y,z
-x,-y,-z
loop_
_atom_site_type_symbol
_atom_site_label
_atom_site_fract_x
_atom_site_fract_y
_atom_site_fract_z
Si Si1 0.885619 0.792473 0.266088
Si Si2 0.233933 0.673261 0.959086
Si Si3 0.603609 0.794663 0.621829
Si Si4 0.991968 0.687437 0.687771
Si Si5 0.558812 0.030918 0.911883
Si Si6 0.989739 0.283341 0.824788
Si Si7 0.443115 0.425619 0.288007
Si Si8 0.723641 0.196624 0.474560
O O1 0.001548 0.441565 0.271488
O O2 0.956427 0.799031 0.269331
O O3 0.841618 0.007507 0.427489
O O4 0.716220 0.935164 0.087611
O O5 0.138708 0.621945 0.839792
O O6 0.395813 0.360973 0.935684
O O7 0.302617 0.690813 0.164756
O O8 0.109468 0.976439 0.886881
O O9 0.799236 0.520203 0.716618
O O10 0.592946 0.574211 0.502367
O O11 0.500000 0.000000 0.500000
O O12 0.536388 0.038699 0.762965
O O13 0.000000 0.500000 0.500000
O O14 0.828973 0.056949 0.643539
O O15 0.591405 0.749780 0.827087
O O16 0.000000 0.500000 0.000000
O O17 0.500000 0.500000 0.500000
O O18 0.618099 0.152549 0.307489
#
# Coordination Sequence:
#
# PCOD9034463 Si02
#       8
#     2   2   2   2   2   2   2   2
#     4  11  24  45  78 102 150 194 248 307 371 445
#     4  12  26  47  82 107 150 199 257 306 369 460
#     4  12  29  48  70 104 157 192 246 310 376 444
#     4  10  22  44  75 110 145 188 247 319 362 439
#     4  12  24  46  75 111 142 197 252 302 371 446
#     4  12  29  49  72 110 145 196 255 304 374 443
#     4  12  25  44  74 113 150 194 247 312 381 442
#     4  11  24  46  70 110 146 190 250 305 381 442
#
# _framework density 23.122008000000001
#
# number of rings (size 3 to 8) (size 9 to 14) (size 15 to 20)
#    0.000    0.500    6.250    1.875    3.500    5.000 
#    0.000    2.500    0.000    0.000    0.000    0.000 
#    0.000    0.000    0.000    0.000    0.000    0.000 
#
# Total GULP energy -89435.568347 kJ/mol
# GULP energy per Si atom -5589.723022 kJ/mol
# Density = 2.306938 g / cm^3
# Si number density = 23.122008 Si / 1000 Ang^3
#
#
#
# Elastic Constant Matrix: (Units=GPa)
#
#
# Indices 1 2 3 4 5 6 
#
# 1 106.8300 15.2383 45.9245 -13.1257 -15.9473 10.3859
# 2 15.2383 111.3086 48.4536 -18.8364 -18.8691 19.0715
# 3 45.9245 48.4536 127.9470 -23.3463 -14.7947 5.6932
# 4 -13.1257 -18.8364 -23.3463 40.8727 6.1025 -6.4228
# 5 -15.9473 -18.8691 -14.7947 6.1025 52.0315 -6.5018
# 6 10.3859 19.0715 5.6932 -6.4228 -6.5018 35.8419
#
#
#
# Elastic Compliance Matrix: (Units=1/GPa)
#
#
# Indices 1 2 3 4 5 6 
#
# 1 0.011700 0.001247 -0.004047 0.001229 0.002399 -0.002755
# 2 0.001247 0.012425 -0.004139 0.002509 0.002746 -0.005367
# 3 -0.004047 -0.004139 0.011440 0.003629 0.000370 0.002275
# 4 0.001229 0.002509 0.003629 0.028624 -0.000697 0.002735
# 5 0.002399 0.002746 0.000370 -0.000697 0.021328 0.001529
# 6 -0.002755 -0.005367 0.002275 0.002735 0.001529 0.031961
#
#
# Mechanical properties :
#
#
# Convention : Reuss Voigt Hill
#
# Bulk Modulus (GPa) = 46.11338 62.81316 54.46327
# Shear Modulus (GPa) = 36.07926 41.51385 38.79655
#
# Velocity S-wave (km/s) = 3.95446 4.24184 4.10067
# Velocity P-wave (km/s) = 6.39039 7.15653 6.78428
#
# Compressibility (1/GPa) = 0.02168568
#
# Stress axis : x y z
#
# Youngs Moduli (GPa) = 85.47258 80.48515 87.41588
#
# Poissons Ratio (x) = -0.10035 0.35381
# Poissons Ratio (y) = -0.10657 0.36178
# Poissons Ratio (z) = 0.34594 0.33309
#
# Static dielectric constant tensor:
#      x y z
#    x 2.102700 -0.023020 -0.007330 
#    y -0.023020 1.912640 0.022690 
#    z -0.007330 0.022690 1.875600 
# 
# From -- ./inp_files/470150.got.cif
#   From: 2010.05.17/outbox.cif.g08.bks.cpg/sg2_236_cif.got.tgz:470150.got - 2010.06.03 11:33:40.
