data_PCOD9034987
_publ_section_title
;
Structure prediction by ZEFSAII (Michael W. Deem and Ramdas Pophale) SiO2 
 PCOD9034987
Probable space group: P -1
;
_chemical_formula_sum "Si O2"
_cell_formula_units_Z 16
_cell_length_a 9.288478
_cell_length_b 15.658848
_cell_length_c 8.887857
_cell_angle_alpha 62.844182
_cell_angle_beta 35.608581
_cell_angle_gamma 59.162986
_cell_volume 644.230665
_symmetry_space_group_name_H-M "P -1"
_symmetry_group_IT_number 2
_symmetry_cell_setting 'triclinic'
loop_
_space_group_symop_operation_xyz
x,y,z
-x,-y,-z
loop_
_atom_site_type_symbol
_atom_site_label
_atom_site_fract_x
_atom_site_fract_y
_atom_site_fract_z
Si Si1 0.180204 0.300024 0.170412
Si Si2 0.161430 0.795400 0.651880
Si Si3 0.879910 0.299506 0.913324
Si Si4 0.285293 0.439485 0.738580
Si Si5 0.268902 0.015687 0.061503
Si Si6 0.041483 0.507760 0.287023
Si Si7 0.590951 0.844004 0.411435
Si Si8 0.612069 0.162502 0.090818
O O1 0.933917 0.271798 0.333708
O O2 0.346152 0.205760 0.194660
O O3 0.113914 0.396461 0.254443
O O4 0.337582 0.339177 0.872453
O O5 0.442536 0.806682 0.431492
O O6 0.121723 0.747345 0.883768
O O7 0.974123 0.907239 0.718106
O O8 0.779672 0.417441 0.932335
O O9 0.174836 0.247528 0.658063
O O10 0.718669 0.256604 0.964454
O O11 0.500000 0.500000 0.500000
O O12 0.210185 0.430272 0.638351
O O13 0.000000 0.500000 0.000000
O O14 0.324460 0.069230 0.816562
O O15 0.225642 0.915080 0.107058
O O16 0.500000 0.000000 0.000000
O O17 0.000000 0.500000 0.500000
O O18 0.424368 0.878160 0.677469
#
# Coordination Sequence:
#
# PCOD9034987 Si02
#       8
#     2   2   2   2   2   2   2   2
#     4  11  23  46  68 103 140 187 236 295 357 426
#     4  10  22  45  69  99 134 176 235 281 346 422
#     4  10  23  43  65  98 134 178 228 281 351 413
#     4  10  24  46  71 104 142 193 246 301 364 433
#     4  11  23  44  68 102 136 174 227 291 351 420
#     4  11  24  43  66 103 140 185 236 292 359 430
#     4  10  24  44  70  97 135 184 225 286 352 426
#     4  11  24  44  69  97 139 175 233 289 348 432
#
# _framework density 24.835826000000001
#
# number of rings (size 3 to 8) (size 9 to 14) (size 15 to 20)
#    0.000    1.500    2.500    1.125    1.750    8.500 
#    9.000    0.000    0.000    0.000    0.000    0.000 
#    0.000    0.000    0.000    0.000    0.000    0.000 
#
# Total GULP energy -89304.877339 kJ/mol
# GULP energy per Si atom -5581.554834 kJ/mol
# Density = 2.477930 g / cm^3
# Si number density = 24.835826 Si / 1000 Ang^3
#
#
#
# Elastic Constant Matrix: (Units=GPa)
#
#
# Indices 1 2 3 4 5 6 
#
# 1 125.1577 26.5266 21.7348 1.2864 10.0677 23.6798
# 2 26.5266 98.6142 1.1203 4.9281 6.9767 40.9110
# 3 21.7348 1.1203 36.4450 -4.8046 -5.3783 8.8653
# 4 1.2864 4.9281 -4.8046 27.8494 2.7845 4.0375
# 5 10.0677 6.9767 -5.3783 2.7845 40.0001 -8.6818
# 6 23.6798 40.9110 8.8653 4.0375 -8.6818 52.3416
#
#
#
# Elastic Compliance Matrix: (Units=1/GPa)
#
#
# Indices 1 2 3 4 5 6 
#
# 1 0.010181 -0.000911 -0.005818 -0.000409 -0.003923 -0.003527
# 2 -0.000911 0.016432 0.002621 0.000109 -0.005278 -0.013759
# 3 -0.005818 0.002621 0.033376 0.005863 0.004034 -0.004852
# 4 -0.000409 0.000109 0.005863 0.037804 -0.002683 -0.004254
# 5 -0.003923 -0.005278 0.004034 -0.002683 0.029890 0.010382
# 6 -0.003527 -0.013759 -0.004852 -0.004254 0.010382 0.034327
#
#
# Mechanical properties :
#
#
# Convention : Reuss Voigt Hill
#
# Bulk Modulus (GPa) = 19.31571 39.88668 29.60120
# Shear Modulus (GPa) = 26.66890 38.09390 32.38140
#
# Velocity S-wave (km/s) = 3.28046 3.92066 3.61476
# Velocity P-wave (km/s) = 4.70561 6.04900 5.41910
#
# Compressibility (1/GPa) = 0.05177133
#
# Stress axis : x y z
#
# Youngs Moduli (GPa) = 98.22679 60.85763 29.96127
#
# Poissons Ratio (x) = 0.05545 0.17432
# Poissons Ratio (y) = 0.08949 -0.07852
# Poissons Ratio (z) = 0.57150 -0.15948
#
# Static dielectric constant tensor:
#      x y z
#    x 1.930770 0.006180 -0.045490 
#    y 0.006180 2.008910 0.001050 
#    z -0.045490 0.001050 2.154000 
# 
# From -- ./inp_files/206133.got.cif
#   From: 2010.05.17/outbox.cif.g08.bks.cpg/sg2_104_cif.got.tgz:206133.got - 2010.06.03 11:33:40.
