data_PCOD9034621
_publ_section_title
;
Structure prediction by ZEFSAII (Michael W. Deem and Ramdas Pophale) SiO2 
 PCOD9034621
Probable space group: P -1
;
_chemical_formula_sum "Si O2"
_cell_formula_units_Z 16
_cell_length_a 8.584076
_cell_length_b 9.046624
_cell_length_c 15.163708
_cell_angle_alpha 98.135049
_cell_angle_beta 69.464090
_cell_angle_gamma 45.940110
_cell_volume 649.568863
_symmetry_space_group_name_H-M "P -1"
_symmetry_group_IT_number 2
_symmetry_cell_setting 'triclinic'
loop_
_space_group_symop_operation_xyz
x,y,z
-x,-y,-z
loop_
_atom_site_type_symbol
_atom_site_label
_atom_site_fract_x
_atom_site_fract_y
_atom_site_fract_z
Si Si1 0.097679 0.970124 0.151481
Si Si2 0.537126 0.202701 0.234405
Si Si3 0.801334 0.043956 0.478603
Si Si4 0.135352 0.393346 0.802383
Si Si5 0.263471 0.093579 0.996735
Si Si6 0.836497 0.329398 0.780289
Si Si7 0.835160 0.424309 0.353274
Si Si8 0.275614 0.145275 0.386262
O O1 0.818146 0.082955 0.193318
O O2 0.992356 0.173995 0.255298
O O3 0.209337 0.972848 0.043088
O O4 0.296011 0.707728 0.138428
O O5 0.352398 0.450691 0.235357
O O6 0.384402 0.233410 0.349771
O O7 0.624544 0.011382 0.131480
O O8 0.762115 0.905032 0.515920
O O9 0.935052 0.919989 0.346680
O O10 0.499714 0.340829 0.556144
O O11 0.000000 0.000000 0.500000
O O12 0.100498 0.487172 0.718983
O O13 0.000849 0.606991 0.914708
O O14 0.972511 0.354882 0.820286
O O15 0.466438 0.138841 0.727216
O O16 0.500000 0.000000 0.000000
O O17 0.989111 0.335817 0.406904
#
# Coordination Sequence:
#
# PCOD9034621 Si02
#       8
#     2   2   2   2   2   2   2   2
#     4  11  25  43  68 100 138 179 224 286 341 399
#     4  12  24  44  69 104 138 178 227 285 341 409
#     4  11  26  43  69 104 139 184 230 279 339 408
#     4  10  22  45  66 101 133 175 231 281 335 411
#     4  11  23  46  74  97 138 183 227 279 349 409
#     4  12  24  44  68 100 143 173 230 286 330 406
#     4  10  22  45  69  94 140 183 227 277 338 405
#     4  11  23  44  70  99 136 181 229 277 345 400
#
# _framework density 24.631722
#
# number of rings (size 3 to 8) (size 9 to 14) (size 15 to 20)
#    0.000    1.000    3.750    2.625    0.000    8.500 
#    0.000    0.000    0.000    0.000    0.000    0.000 
#    0.000    0.000    0.000    0.000    0.000    0.000 
#
# Total GULP energy -89562.521304 kJ/mol
# GULP energy per Si atom -5597.657582 kJ/mol
# Density = 2.457566 g / cm^3
# Si number density = 24.631722 Si / 1000 Ang^3
#
#
#
# Elastic Constant Matrix: (Units=GPa)
#
#
# Indices 1 2 3 4 5 6 
#
# 1 74.4920 13.0162 -1.3014 -16.1092 -13.0188 -1.6740
# 2 13.0162 137.4690 32.2549 -11.5201 -17.4740 7.0154
# 3 -1.3014 32.2549 79.7066 -10.2410 10.9977 10.2053
# 4 -16.1092 -11.5201 -10.2410 46.2500 6.9003 -11.5266
# 5 -13.0188 -17.4740 10.9977 6.9003 29.2579 4.4012
# 6 -1.6740 7.0154 10.2053 -11.5266 4.4012 38.6536
#
#
#
# Elastic Compliance Matrix: (Units=1/GPa)
#
#
# Indices 1 2 3 4 5 6 
#
# 1 0.015521 -0.000534 0.000196 0.004958 0.005102 0.001615
# 2 -0.000534 0.009423 -0.004712 -0.000356 0.007463 -0.001445
# 3 0.000196 -0.004712 0.016407 0.003630 -0.009555 -0.001298
# 4 0.004958 -0.000356 0.003630 0.027158 -0.007012 0.008218
# 5 0.005102 0.007463 -0.009555 -0.007012 0.047063 -0.006061
# 6 0.001615 -0.001445 -0.001298 0.008218 -0.006061 0.029686
#
#
# Mechanical properties :
#
#
# Convention : Reuss Voigt Hill
#
# Bulk Modulus (GPa) = 31.99991 42.17857 37.08924
# Shear Modulus (GPa) = 30.16109 39.34547 34.75328
#
# Velocity S-wave (km/s) = 3.50306 4.00102 3.76029
# Velocity P-wave (km/s) = 5.42046 6.20525 5.82608
#
# Compressibility (1/GPa) = 0.03125009
#
# Stress axis : x y z
#
# Youngs Moduli (GPa) = 64.42875 106.12121 60.94920
#
# Poissons Ratio (x) = 0.05667 -0.01194
# Poissons Ratio (y) = 0.03441 0.28722
# Poissons Ratio (z) = -0.01262 0.50009
#
# Static dielectric constant tensor:
#      x y z
#    x 1.935750 0.031920 -0.024910 
#    y 0.031920 2.041610 0.017610 
#    z -0.024910 0.017610 1.932110 
# 
# From -- ./inp_files/556218.got.cif
#   From: 2010.05.17/outbox.cif.g08.bks.cpg/sg2_279_cif.got.tgz:556218.got - 2010.06.03 11:33:40.
