data_PCOD9034304
_publ_section_title
;
Structure prediction by ZEFSAII (Michael W. Deem and Ramdas Pophale) SiO2 
 PCOD9034304
Probable space group: P -1
;
_chemical_formula_sum "Si O2"
_cell_formula_units_Z 12
_cell_length_a 8.967304
_cell_length_b 8.986136
_cell_length_c 13.054058
_cell_angle_alpha 68.674001
_cell_angle_beta 35.033781
_cell_angle_gamma 86.159423
_cell_volume 507.422010
_symmetry_space_group_name_H-M "P -1"
_symmetry_group_IT_number 2
_symmetry_cell_setting 'triclinic'
loop_
_space_group_symop_operation_xyz
x,y,z
-x,-y,-z
loop_
_atom_site_type_symbol
_atom_site_label
_atom_site_fract_x
_atom_site_fract_y
_atom_site_fract_z
Si Si1 0.370360 0.771766 0.669562
Si Si2 0.788437 0.869769 0.238148
Si Si3 0.687571 0.141915 0.945293
Si Si4 0.273336 0.522969 0.272728
Si Si5 0.240091 0.367828 0.860190
Si Si6 0.292443 0.156604 0.332489
O O1 0.520892 0.868886 0.455016
O O2 0.262486 0.559639 0.769686
O O3 0.611683 0.829717 0.607594
O O4 0.076559 0.765890 0.884775
O O5 0.660337 0.698213 0.280143
O O6 0.008104 0.858206 0.202730
O O7 0.000000 0.000000 0.000000
O O8 0.714690 0.333858 0.851721
O O9 0.524544 0.113674 0.151243
O O10 0.500000 0.000000 0.000000
O O11 0.547364 0.606813 0.171849
O O12 0.268757 0.341054 0.278774
O O13 0.000000 0.500000 0.500000
O O14 0.000000 0.000000 0.500000
#
# Coordination Sequence:
#
# PCOD9034304 Si02
#       6
#     2   2   2   2   2   2
#     4  10  22  44  72  99 140 183 236 297 356 428
#     4  12  25  43  71 104 141 188 238 298 362 429
#     4  12  24  45  69 103 147 186 241 298 355 435
#     4  11  24  45  72 105 143 189 240 297 366 432
#     4  10  22  45  69 103 137 180 238 292 362 431
#     4  11  23  44  71 107 143 188 239 297 362 431
#
# _framework density 23.648954
#
# number of rings (size 3 to 8) (size 9 to 14) (size 15 to 20)
#    0.000    1.000    1.667    6.000    0.000    0.667 
#    6.000    0.000    0.000    0.000    0.000    0.000 
#    0.000    0.000    0.000    0.000    0.000    0.000 
#
# Total GULP energy -67045.077085 kJ/mol
# GULP energy per Si atom -5587.089757 kJ/mol
# Density = 2.359513 g / cm^3
# Si number density = 23.648954 Si / 1000 Ang^3
#
#
#
# Elastic Constant Matrix: (Units=GPa)
#
#
# Indices 1 2 3 4 5 6 
#
# 1 63.4975 28.2770 33.9205 -15.2341 -4.9799 2.7869
# 2 28.2770 114.8378 44.4313 20.2922 5.6101 16.5482
# 3 33.9205 44.4313 154.0640 21.9898 2.0634 11.5670
# 4 -15.2341 20.2922 21.9898 52.2390 2.3841 4.6787
# 5 -4.9799 5.6101 2.0634 2.3841 36.3311 3.2486
# 6 2.7869 16.5482 11.5670 4.6787 3.2486 46.3001
#
#
#
# Elastic Compliance Matrix: (Units=1/GPa)
#
#
# Indices 1 2 3 4 5 6 
#
# 1 0.024436 -0.006286 -0.005320 0.011574 0.003803 0.000669
# 2 -0.006286 0.012218 -0.001064 -0.005770 -0.002041 -0.002997
# 3 -0.005320 -0.001064 0.008720 -0.004693 -0.000667 -0.000957
# 4 0.011574 -0.005770 -0.004693 0.026709 0.001012 -0.000232
# 5 0.003803 -0.002041 -0.000667 0.001012 0.028461 -0.001432
# 6 0.000669 -0.002997 -0.000957 -0.000232 -0.001432 0.022992
#
#
# Mechanical properties :
#
#
# Convention : Reuss Voigt Hill
#
# Bulk Modulus (GPa) = 49.91585 60.62853 55.27219
# Shear Modulus (GPa) = 32.14338 42.02542 37.08440
#
# Velocity S-wave (km/s) = 3.69072 4.22008 3.96425
# Velocity P-wave (km/s) = 6.27014 7.03122 6.66156
#
# Compressibility (1/GPa) = 0.02003372
#
# Stress axis : x y z
#
# Youngs Moduli (GPa) = 40.92393 81.84372 114.68445
#
# Poissons Ratio (x) = 0.51444 0.61016
# Poissons Ratio (y) = 0.25723 0.12202
# Poissons Ratio (z) = 0.21773 0.08708
#
# Static dielectric constant tensor:
#      x y z
#    x 1.951490 -0.011280 0.223230 
#    y -0.011280 1.957350 -0.000980 
#    z 0.223230 -0.000980 2.926170 
# 
# From -- ./inp_files/173583.got.cif
#   From: 2010.05.17/outbox.cif.g08.bks.cpg/sg2_87_cif.got.tgz:173583.got - 2010.06.03 11:33:40.
