data_PCOD9034394
_publ_section_title
;
Structure prediction by ZEFSAII (Michael W. Deem and Ramdas Pophale) SiO2 
 PCOD9034394
Probable space group: P -1
;
_chemical_formula_sum "Si O2"
_cell_formula_units_Z 10
_cell_length_a 6.464060
_cell_length_b 10.883152
_cell_length_c 14.812598
_cell_angle_alpha 29.641820
_cell_angle_beta 55.024584
_cell_angle_gamma 63.767086
_cell_volume 418.219849
_symmetry_space_group_name_H-M "P -1"
_symmetry_group_IT_number 2
_symmetry_cell_setting 'triclinic'
loop_
_space_group_symop_operation_xyz
x,y,z
-x,-y,-z
loop_
_atom_site_type_symbol
_atom_site_label
_atom_site_fract_x
_atom_site_fract_y
_atom_site_fract_z
Si Si1 0.785678 0.791625 0.644775
Si Si2 0.428605 0.178170 0.499853
Si Si3 0.209685 0.991325 0.054360
Si Si4 0.734481 0.705692 0.337280
Si Si5 0.945719 0.552598 0.086154
O O1 0.795366 0.785832 0.537546
O O2 0.836750 0.546838 0.841975
O O3 0.519220 0.902379 0.649369
O O4 0.000000 0.000000 0.500000
O O5 0.360019 0.207831 0.599935
O O6 0.675160 0.381064 0.285384
O O7 0.237837 0.104428 0.874464
O O8 0.092174 0.174920 0.038471
O O9 0.040163 0.716863 0.271661
O O10 0.500000 0.000000 0.000000
O O11 0.500000 0.500000 0.500000
O O12 0.000000 0.500000 0.000000
#
# Coordination Sequence:
#
# PCOD9034394 Si02
#       5
#     2   2   2   2   2
#     4   9  22  41  68 103 139 182 237 300 368 434
#     4  10  22  44  74 104 138 195 244 302 373 437
#     4  11  28  48  73 108 151 200 247 304 371 444
#     4  11  25  50  74 106 146 194 258 303 367 438
#     4  11  25  44  70 109 148 189 242 306 374 433
#
# _framework density 23.910869999999999
#
# number of rings (size 3 to 8) (size 9 to 14) (size 15 to 20)
#    0.000    1.600    2.000    0.000   11.200    6.400 
#    0.000    0.000    0.000    0.000    0.000    0.000 
#    0.000    0.000    0.000    0.000    0.000    0.000 
#
# Total GULP energy -55733.272247 kJ/mol
# GULP energy per Si atom -5573.327225 kJ/mol
# Density = 2.385645 g / cm^3
# Si number density = 23.910870 Si / 1000 Ang^3
#
#
#
# Elastic Constant Matrix: (Units=GPa)
#
#
# Indices 1 2 3 4 5 6 
#
# 1 172.4768 59.8307 63.2151 -4.6634 -5.1263 16.5099
# 2 59.8307 158.8686 56.9676 23.2773 21.1003 32.8444
# 3 63.2151 56.9676 126.4673 9.6351 -34.7977 4.1420
# 4 -4.6634 23.2773 9.6351 32.4209 -0.7928 4.2324
# 5 -5.1263 21.1003 -34.7977 -0.7928 56.2377 1.2427
# 6 16.5099 32.8444 4.1420 4.2324 1.2427 33.3053
#
#
#
# Elastic Compliance Matrix: (Units=1/GPa)
#
#
# Indices 1 2 3 4 5 6 
#
# 1 0.008027 -0.001641 -0.003713 0.003721 -0.000846 -0.002341
# 2 -0.001641 0.014183 -0.007399 -0.007027 -0.009905 -0.010991
# 3 -0.003713 -0.007399 0.016333 -0.000651 0.012386 0.006726
# 4 0.003721 -0.007027 -0.000651 0.036642 0.003081 0.000395
# 5 -0.000846 -0.009905 0.012386 0.003081 0.028970 0.007175
# 6 -0.002341 -0.010991 0.006726 0.000395 0.007175 0.040870
#
#
# Mechanical properties :
#
#
# Convention : Reuss Voigt Hill
#
# Bulk Modulus (GPa) = 76.69439 90.87106 83.78272
# Shear Modulus (GPa) = 28.59152 42.91273 35.75213
#
# Velocity S-wave (km/s) = 3.46172 4.24098 3.87101
# Velocity P-wave (km/s) = 6.93706 7.87831 7.42262
#
# Compressibility (1/GPa) = 0.01303876
#
# Stress axis : x y z
#
# Youngs Moduli (GPa) = 124.57255 70.50788 61.22398
#
# Poissons Ratio (x) = 0.11567 0.22734
# Poissons Ratio (y) = 0.20436 0.45298
# Poissons Ratio (z) = 0.46256 0.52167
#
# Static dielectric constant tensor:
#      x y z
#    x 2.102540 -0.009380 -0.033830 
#    y -0.009380 1.851850 0.056700 
#    z -0.033830 0.056700 1.880510 
# 
# From -- ./inp_files/98755.got.cif
#   From: 2010.05.17/outbox.cif.g08.bks.cpg/sg2_50_cif.got.tgz:98755.got - 2010.06.03 11:33:40.
