data_PCOD9034165
_publ_section_title
;
Structure prediction by ZEFSAII (Michael W. Deem and Ramdas Pophale) SiO2 
 PCOD9034165
Probable space group: P -1
;
_chemical_formula_sum "Si O2"
_cell_formula_units_Z 12
_cell_length_a 14.067427
_cell_length_b 8.511650
_cell_length_c 7.714318
_cell_angle_alpha 50.954243
_cell_angle_beta 141.815075
_cell_angle_gamma 114.052114
_cell_volume 436.043225
_symmetry_space_group_name_H-M "P -1"
_symmetry_group_IT_number 2
_symmetry_cell_setting 'triclinic'
loop_
_space_group_symop_operation_xyz
x,y,z
-x,-y,-z
loop_
_atom_site_type_symbol
_atom_site_label
_atom_site_fract_x
_atom_site_fract_y
_atom_site_fract_z
Si Si1 0.460094 0.319762 0.207788
Si Si2 0.239250 0.852027 0.324295
Si Si3 0.514394 0.782643 0.276233
Si Si4 0.073007 0.164555 0.604389
Si Si5 0.219860 0.635697 0.780188
Si Si6 0.187585 0.444766 0.331464
O O1 0.577208 0.138570 0.404224
O O2 0.506154 0.250199 0.524014
O O3 0.500000 0.500000 0.000000
O O4 0.280266 0.421941 0.918211
O O5 0.175491 0.809264 0.448708
O O6 0.228998 0.651095 0.330982
O O7 0.149254 0.044420 0.962556
O O8 0.684981 0.647099 0.565775
O O9 0.372950 0.688181 0.054971
O O10 0.500000 0.000000 0.000000
O O11 0.200261 0.251348 0.614383
O O12 0.929481 0.343347 0.328081
O O13 0.000000 0.000000 0.500000
O O14 0.000000 0.500000 0.000000
#
# Coordination Sequence:
#
# PCOD9034165 Si02
#       6
#     2   2   2   2   2   2
#     4  10  22  44  71  99 135 183 232 290 350 417
#     4  11  24  45  68 102 142 183 240 293 357 419
#     4  12  25  44  72 107 141 184 241 293 356 428
#     4  12  24  44  69 100 144 188 234 293 356 424
#     4  11  24  45  71  99 141 191 232 292 358 422
#     4  12  25  42  71 104 139 186 240 294 354 429
#
# _framework density 27.520205000000001
#
# number of rings (size 3 to 8) (size 9 to 14) (size 15 to 20)
#    0.000    0.667    3.333    5.000    0.000    0.667 
#    6.000    2.500    0.000    0.000    0.000    0.000 
#    0.000    0.000    0.000    0.000    0.000    0.000 
#
# Total GULP energy -67007.509452 kJ/mol
# GULP energy per Si atom -5583.959121 kJ/mol
# Density = 2.745757 g / cm^3
# Si number density = 27.520205 Si / 1000 Ang^3
#
#
#
# Elastic Constant Matrix: (Units=GPa)
#
#
# Indices 1 2 3 4 5 6 
#
# 1 224.4004 28.0411 55.2426 -7.8140 -5.8277 27.8394
# 2 28.0411 127.5357 25.2619 -12.8216 -17.3036 20.8916
# 3 55.2426 25.2619 176.7099 -13.4717 -2.5159 12.4319
# 4 -7.8140 -12.8216 -13.4717 18.0649 4.9441 -7.0769
# 5 -5.8277 -17.3036 -2.5159 4.9441 78.6404 -5.4812
# 6 27.8394 20.8916 12.4319 -7.0769 -5.4812 28.8695
#
#
#
# Elastic Compliance Matrix: (Units=1/GPa)
#
#
# Indices 1 2 3 4 5 6 
#
# 1 0.005368 -0.000220 -0.001374 -0.000662 0.000028 -0.004583
# 2 -0.000220 0.009426 -0.000611 0.003723 0.001445 -0.005159
# 3 -0.001374 -0.000611 0.006473 0.003822 -0.000279 -0.000136
# 4 -0.000662 0.003723 0.003822 0.065924 -0.002416 0.012000
# 5 0.000028 0.001445 -0.000279 -0.002416 0.013247 0.000971
# 6 -0.004583 -0.005159 -0.000136 0.012000 0.000971 0.045975
#
#
# Mechanical properties :
#
#
# Convention : Reuss Voigt Hill
#
# Bulk Modulus (GPa) = 59.32927 82.85969 71.09448
# Shear Modulus (GPa) = 31.96041 53.12165 42.54103
#
# Velocity S-wave (km/s) = 3.41155 4.39826 3.93595
# Velocity P-wave (km/s) = 6.09290 7.48111 6.82240
#
# Compressibility (1/GPa) = 0.01685509
#
# Stress axis : x y z
#
# Youngs Moduli (GPa) = 186.27563 106.09279 154.48763
#
# Poissons Ratio (x) = 0.02336 0.21233
# Poissons Ratio (y) = 0.04102 0.09445
# Poissons Ratio (z) = 0.25603 0.06486
#
# Static dielectric constant tensor:
#      x y z
#    x 2.085970 0.008390 -0.097910 
#    y 0.008390 2.286450 0.080560 
#    z -0.097910 0.080560 2.367240 
# 
# From -- ./inp_files/300101.got.cif
#   From: 2010.05.17/outbox.cif.g08.bks.cpg/sg2_151_cif.got.tgz:300101.got - 2010.06.03 11:33:40.
