data_PCOD9034911
_publ_section_title
;
Structure prediction by ZEFSAII (Michael W. Deem and Ramdas Pophale) SiO2 
 PCOD9034911
Probable space group: P -1
;
_chemical_formula_sum "Si O2"
_cell_formula_units_Z 14
_cell_length_a 21.494383
_cell_length_b 5.653935
_cell_length_c 5.851252
_cell_angle_alpha 106.438136
_cell_angle_beta 117.052673
_cell_angle_gamma 62.785911
_cell_volume 560.656205
_symmetry_space_group_name_H-M "P -1"
_symmetry_group_IT_number 2
_symmetry_cell_setting 'triclinic'
loop_
_space_group_symop_operation_xyz
x,y,z
-x,-y,-z
loop_
_atom_site_type_symbol
_atom_site_label
_atom_site_fract_x
_atom_site_fract_y
_atom_site_fract_z
Si Si1 0.771305 0.266747 0.130615
Si Si2 0.462799 0.000144 0.187587
Si Si3 0.360812 0.749433 0.796173
Si Si4 0.749065 0.788302 0.535012
Si Si5 0.920165 0.587519 0.757754
Si Si6 0.670799 0.578418 0.696083
Si Si7 0.926885 0.013634 0.520788
O O1 0.713875 0.188956 0.164251
O O2 0.764404 0.551064 0.306318
O O3 0.856425 0.065058 0.249158
O O4 0.734586 0.315952 0.835042
O O5 0.386894 0.269923 0.161524
O O6 0.500000 0.000000 0.500000
O O7 0.500000 0.000000 0.000000
O O8 0.429849 0.767383 0.054435
O O9 0.375315 0.482684 0.605088
O O10 0.328251 0.981390 0.618888
O O11 0.832653 0.789977 0.707221
O O12 0.721247 0.722195 0.712002
O O13 0.908373 0.302907 0.686545
O O14 0.937293 0.751426 0.614735
O O15 0.000000 0.500000 0.000000
O O16 0.000000 0.000000 0.500000
#
# Coordination Sequence:
#
# PCOD9034911 Si02
#       7
#     2   2   2   2   2   2   2
#     4  10  23  43  71 104 142 194 259 318 383 472
#     4  12  29  51  76 113 158 197 253 332 407 491
#     4  11  24  47  75 103 148 195 258 314 392 477
#     4  10  22  45  69 103 145 193 261 318 383 469
#     4  11  24  43  67 101 155 201 260 329 399 465
#     4  11  26  44  77 108 139 202 260 315 396 482
#     4  11  24  43  67 108 152 200 261 330 397 464
#
# _framework density 24.970739999999999
#
# number of rings (size 3 to 8) (size 9 to 14) (size 15 to 20)
#    0.000    1.143    2.857    1.714    8.000    2.286 
#    0.000    0.000    0.000    0.000    0.000    0.000 
#    0.000    0.000    0.000    0.000    0.000    0.000 
#
# Total GULP energy -78006.008051 kJ/mol
# GULP energy per Si atom -5571.857718 kJ/mol
# Density = 2.491391 g / cm^3
# Si number density = 24.970740 Si / 1000 Ang^3
#
#
#
# Elastic Constant Matrix: (Units=GPa)
#
#
# Indices 1 2 3 4 5 6 
#
# 1 171.8572 18.5017 62.6267 -3.3423 8.1074 -4.4913
# 2 18.5017 61.9511 26.0449 -6.4386 -7.3401 -10.8148
# 3 62.6267 26.0449 169.9991 -1.4852 30.3196 3.3880
# 4 -3.3423 -6.4386 -1.4852 48.5454 6.3620 5.9272
# 5 8.1074 -7.3401 30.3196 6.3620 40.3211 -3.4927
# 6 -4.4913 -10.8148 3.3880 5.9272 -3.4927 31.0898
#
#
#
# Elastic Compliance Matrix: (Units=1/GPa)
#
#
# Indices 1 2 3 4 5 6 
#
# 1 0.006816 -0.000743 -0.002496 0.000111 0.000442 0.001027
# 2 -0.000743 0.020698 -0.004474 0.000495 0.007929 0.008376
# 3 -0.002496 -0.004474 0.008912 0.000969 -0.007507 -0.003916
# 4 0.000111 0.000495 0.000969 0.021853 -0.004507 -0.004590
# 5 0.000442 0.007929 -0.007507 -0.004507 0.033224 0.008232
# 6 0.001027 0.008376 -0.003916 -0.004590 0.008232 0.037454
#
#
# Mechanical properties :
#
#
# Convention : Reuss Voigt Hill
#
# Bulk Modulus (GPa) = 47.61691 68.68377 58.15034
# Shear Modulus (GPa) = 33.02859 43.76684 38.39771
#
# Velocity S-wave (km/s) = 3.64083 4.19110 3.92562
# Velocity P-wave (km/s) = 6.06504 7.14043 6.62459
#
# Compressibility (1/GPa) = 0.02100094
#
# Stress axis : x y z
#
# Youngs Moduli (GPa) = 146.70589 48.31417 112.20202
#
# Poissons Ratio (x) = 0.03592 0.28000
# Poissons Ratio (y) = 0.10907 0.50198
# Poissons Ratio (z) = 0.36611 0.21615
#
# Static dielectric constant tensor:
#      x y z
#    x 2.361250 0.500710 -0.471840 
#    y 0.500710 2.888250 -0.455570 
#    z -0.471840 -0.455570 2.537320 
# 
# From -- ./inp_files/8161.got.cif
#   From: 2010.05.17/outbox.cif.g08.bks.cpg/sg2_5_cif.got.tgz:8161.got - 2010.06.03 11:33:40.
