data_PCOD9034210
_publ_section_title
;
Structure prediction by ZEFSAII (Michael W. Deem and Ramdas Pophale) SiO2 
 PCOD9034210
Probable space group: P -1
;
_chemical_formula_sum "Si O2"
_cell_formula_units_Z 16
_cell_length_a 5.426517
_cell_length_b 23.645979
_cell_length_c 9.403535
_cell_angle_alpha 46.951864
_cell_angle_beta 128.480732
_cell_angle_gamma 117.052542
_cell_volume 689.313882
_symmetry_space_group_name_H-M "P -1"
_symmetry_group_IT_number 2
_symmetry_cell_setting 'triclinic'
loop_
_space_group_symop_operation_xyz
x,y,z
-x,-y,-z
loop_
_atom_site_type_symbol
_atom_site_label
_atom_site_fract_x
_atom_site_fract_y
_atom_site_fract_z
Si Si1 0.747348 0.679323 0.215835
Si Si2 0.322341 0.787985 0.336102
Si Si3 0.605213 0.187397 0.982280
Si Si4 0.059913 0.567449 0.698526
Si Si5 0.728809 0.047659 0.889556
Si Si6 0.773013 0.732632 0.829535
Si Si7 0.636512 0.010264 0.376459
Si Si8 0.185208 0.400072 0.134791
O O1 0.084480 0.720284 0.313082
O O2 0.800409 0.595283 0.445233
O O3 0.526925 0.741416 0.100363
O O4 0.680843 0.679687 0.023839
O O5 0.159125 0.869623 0.151535
O O6 0.498307 0.768748 0.576549
O O7 0.529112 0.802515 0.243251
O O8 0.552900 0.097197 0.153983
O O9 0.980513 0.204421 0.119293
O O10 0.428489 0.589666 0.751261
O O11 0.951856 0.603713 0.748337
O O12 0.055410 0.475651 0.883171
O O13 0.515308 0.057492 0.659255
O O14 0.500000 0.000000 0.000000
O O15 0.000000 0.000000 0.000000
O O16 0.913688 0.675853 0.860447
O O17 0.500000 0.000000 0.500000
O O18 0.000000 0.000000 0.500000
#
# Coordination Sequence:
#
# PCOD9034210 Si02
#       8
#     2   2   2   2   2   2   2   2
#     4  11  25  42  68 103 139 180 225 290 339 404
#     4  11  24  45  67  95 137 180 226 285 341 411
#     4  11  26  44  67  98 142 179 228 290 345 405
#     4  10  22  44  73 100 141 181 227 281 340 398
#     4  12  25  45  70  96 128 179 230 276 344 408
#     4  11  25  42  69 105 135 183 232 275 346 412
#     4  12  27  47  70  98 138 177 229 292 344 406
#     4  10  22  44  72 103 135 186 229 275 337 416
#
# _framework density 23.211486000000001
#
# number of rings (size 3 to 8) (size 9 to 14) (size 15 to 20)
#    0.000    1.000    2.500    3.000    8.750    1.500 
#    0.000    0.625    0.000    0.000    0.000    0.000 
#    0.000    0.000    0.000    0.000    0.000    0.000 
#
# Total GULP energy -89263.532143 kJ/mol
# GULP energy per Si atom -5578.970759 kJ/mol
# Density = 2.315866 g / cm^3
# Si number density = 23.211486 Si / 1000 Ang^3
#
#
#
# Elastic Constant Matrix: (Units=GPa)
#
#
# Indices 1 2 3 4 5 6 
#
# 1 107.7525 -1.0493 45.7489 0.2248 0.1767 -23.9092
# 2 -1.0493 49.7882 8.3665 -0.6533 8.8637 -10.4838
# 3 45.7489 8.3665 152.6718 6.6975 -1.5444 -7.7811
# 4 0.2248 -0.6533 6.6975 35.6601 -14.4357 1.3228
# 5 0.1767 8.8637 -1.5444 -14.4357 27.2046 -3.0024
# 6 -23.9092 -10.4838 -7.7811 1.3228 -3.0024 34.7855
#
#
#
# Elastic Compliance Matrix: (Units=1/GPa)
#
#
# Indices 1 2 3 4 5 6 
#
# 1 0.012758 0.002725 -0.003538 0.000288 -0.000049 0.008784
# 2 0.002725 0.023579 -0.001655 -0.003017 -0.008513 0.007989
# 3 -0.003538 -0.001655 0.007703 -0.001348 0.000158 -0.001142
# 4 0.000288 -0.003017 -0.001348 0.036424 0.020160 -0.000658
# 5 -0.000049 -0.008513 0.000158 0.020160 0.050351 0.001015
# 6 0.008784 0.007989 -0.001142 -0.000658 0.001015 0.037050
#
#
# Mechanical properties :
#
#
# Convention : Reuss Voigt Hill
#
# Bulk Modulus (GPa) = 25.57249 46.26052 35.91650
# Shear Modulus (GPa) = 26.90561 36.67312 31.78937
#
# Velocity S-wave (km/s) = 3.40832 3.97918 3.70476
# Velocity P-wave (km/s) = 5.15073 6.40977 5.81442
#
# Compressibility (1/GPa) = 0.03910453
#
# Stress axis : x y z
#
# Youngs Moduli (GPa) = 78.38501 42.41065 129.81390
#
# Poissons Ratio (x) = -0.11559 0.45924
# Poissons Ratio (y) = -0.21364 0.21490
# Poissons Ratio (z) = 0.27730 0.07021
#
# Static dielectric constant tensor:
#      x y z
#    x 1.958290 0.063450 -0.021100 
#    y 0.063450 2.021240 0.025250 
#    z -0.021100 0.025250 1.945880 
# 
# From -- ./inp_files/117508.got.cif
#   From: 2010.05.17/outbox.cif.g08.bks.cpg/sg2_59_cif.got.tgz:117508.got - 2010.06.03 11:33:40.
