data_PCOD9034728
_publ_section_title
;
Structure prediction by ZEFSAII (Michael W. Deem and Ramdas Pophale) SiO2 
 PCOD9034728
Probable space group: P -1
;
_chemical_formula_sum "Si O2"
_cell_formula_units_Z 15
_cell_length_a 18.830613
_cell_length_b 5.085843
_cell_length_c 25.312285
_cell_angle_alpha 67.794684
_cell_angle_beta 19.782202
_cell_angle_gamma 58.288995
_cell_volume 638.067362
_symmetry_space_group_name_H-M "P -1"
_symmetry_group_IT_number 2
_symmetry_cell_setting 'triclinic'
loop_
_space_group_symop_operation_xyz
x,y,z
-x,-y,-z
loop_
_atom_site_type_symbol
_atom_site_label
_atom_site_fract_x
_atom_site_fract_y
_atom_site_fract_z
Si Si1 0.114537 0.357034 0.720735
Si Si2 0.443405 0.618163 0.590380
Si Si3 0.295853 0.522233 0.076940
Si Si4 0.826567 0.458635 0.005220
Si Si5 0.373626 0.185553 0.158309
Si Si6 0.515627 0.153735 0.229081
Si Si7 0.000000 0.500000 0.500000
Si Si8 0.218614 0.227983 0.830184
O O1 0.301110 0.448946 0.559158
O O2 0.959222 0.317668 0.787901
O O3 0.265224 0.015171 0.675137
O O4 0.933157 0.594533 0.876245
O O5 0.500000 0.500000 0.500000
O O6 0.337564 0.420287 0.706909
O O7 0.251027 0.415874 0.174113
O O8 0.405356 0.753252 0.989581
O O9 0.503123 0.192207 0.922853
O O10 0.687463 0.301852 0.085759
O O11 0.631257 0.782909 0.151400
O O12 0.051896 0.188789 0.906096
O O13 0.198866 0.296030 0.324248
O O14 0.240268 0.383766 0.380468
O O15 0.570571 0.084429 0.259202
O O16 0.000000 0.500000 0.000000
#
# Coordination Sequence:
#
# PCOD9034728 Si02
#       8
#     2   2   2   2   2   2   1   2
#     4  11  23  39  70  97 137 179 226 284 346 417
#     4  11  24  41  61 104 137 171 226 286 349 402
#     4  10  23  46  71  98 136 190 231 282 344 425
#     4  11  22  44  71  99 133 187 232 281 342 426
#     4  10  24  45  70 102 136 180 240 284 346 410
#     4  11  26  42  71 101 138 184 229 287 354 410
#     4  12  26  48  70 110 144 180 238 304 350 420
#     4  10  22  45  67  96 136 179 227 275 340 421
#
# _framework density 23.508492
#
# number of rings (size 3 to 8) (size 9 to 14) (size 15 to 20)
#    0.000    1.333    1.333    3.600    1.867    4.267 
#    9.600    0.000    0.000    0.000    0.000    0.000 
#    0.000    0.000    0.000    0.000    0.000    0.000 
#
# Total GULP energy -83523.092709 kJ/mol
# GULP energy per Si atom -5568.206181 kJ/mol
# Density = 2.345499 g / cm^3
# Si number density = 23.508492 Si / 1000 Ang^3
#
#
#
# Elastic Constant Matrix: (Units=GPa)
#
#
# Indices 1 2 3 4 5 6 
#
# 1 135.5196 15.9473 61.7760 -1.5453 -27.4007 -13.9502
# 2 15.9473 58.2375 23.0387 -12.9718 -3.8891 -7.7623
# 3 61.7760 23.0387 95.2201 -25.2857 -18.8349 -28.7897
# 4 -1.5453 -12.9718 -25.2857 19.3169 2.8374 3.2892
# 5 -27.4007 -3.8891 -18.8349 2.8374 68.3790 4.8057
# 6 -13.9502 -7.7623 -28.7897 3.2892 4.8057 33.9555
#
#
#
# Elastic Compliance Matrix: (Units=1/GPa)
#
#
# Indices 1 2 3 4 5 6 
#
# 1 0.014404 -0.003047 -0.015359 -0.020331 0.002648 -0.006207
# 2 -0.003047 0.021261 0.002385 0.016509 -0.000326 0.004077
# 3 -0.015359 0.002385 0.040195 0.048801 0.001384 0.023392
# 4 -0.020331 0.016509 0.048801 0.120904 -0.000551 0.025164
# 5 0.002648 -0.000326 0.001384 -0.000551 0.016073 -0.000035
# 6 -0.006207 0.004077 0.023392 0.025164 -0.000035 0.045233
#
#
# Mechanical properties :
#
#
# Convention : Reuss Voigt Hill
#
# Bulk Modulus (GPa) = 22.82238 54.50013 38.66125
# Shear Modulus (GPa) = 16.40863 36.87798 26.64331
#
# Velocity S-wave (km/s) = 2.64481 3.96499 3.37018
# Velocity P-wave (km/s) = 4.36531 6.64793 5.62365
#
# Compressibility (1/GPa) = 0.04381664
#
# Stress axis : x y z
#
# Youngs Moduli (GPa) = 69.42743 47.03491 24.87881
#
# Poissons Ratio (x) = 0.14332 0.38212
# Poissons Ratio (y) = 0.21155 -0.05933
# Poissons Ratio (z) = 1.06635 -0.11217
#
# Static dielectric constant tensor:
#      x y z
#    x 1.914340 -0.038570 0.008420 
#    y -0.038570 1.876200 0.007420 
#    z 0.008420 0.007420 1.962030 
# 
# From -- ./inp_files/612564.got.cif
#   From: 2010.05.17/outbox.cif.g08.bks.cpg/sg2_307_cif.got.tgz:612564.got - 2010.06.03 11:33:40.
