data_PCOD9034928
_publ_section_title
;
Structure prediction by ZEFSAII (Michael W. Deem and Ramdas Pophale) SiO2 
 PCOD9034928
Probable space group: P -1
;
_chemical_formula_sum "Si O2"
_cell_formula_units_Z 10
_cell_length_a 15.865113
_cell_length_b 7.399984
_cell_length_c 5.360641
_cell_angle_alpha 60.709447
_cell_angle_beta 62.685405
_cell_angle_gamma 62.025331
_cell_volume 462.756182
_symmetry_space_group_name_H-M "P -1"
_symmetry_group_IT_number 2
_symmetry_cell_setting 'triclinic'
loop_
_space_group_symop_operation_xyz
x,y,z
-x,-y,-z
loop_
_atom_site_type_symbol
_atom_site_label
_atom_site_fract_x
_atom_site_fract_y
_atom_site_fract_z
Si Si1 0.398096 0.654811 0.914075
Si Si2 0.882614 0.547474 0.135858
Si Si3 0.519500 0.857516 0.320505
Si Si4 0.777447 0.546385 0.782164
Si Si5 0.713573 0.900325 0.961826
O O1 0.441009 0.727684 0.551470
O O2 0.500000 0.500000 0.000000
O O3 0.318531 0.531642 0.059697
O O4 0.344026 0.858132 0.032445
O O5 0.845246 0.479512 0.491787
O O6 0.842180 0.457652 0.004109
O O7 0.818961 0.804913 0.021408
O O8 0.000000 0.500000 0.000000
O O9 0.500000 0.000000 0.500000
O O10 0.639757 0.757860 0.235232
O O11 0.500000 0.000000 0.000000
O O12 0.739380 0.811871 0.703794
#
# Coordination Sequence:
#
# PCOD9034928 Si02
#       5
#     2   2   2   2   2
#     4  11  24  42  68 104 140 180 224 275 327 408
#     4  10  22  45  69  90 130 176 222 283 344 392
#     4  10  23  39  61  91 134 178 210 259 329 391
#     4  10  24  41  67  98 129 172 230 270 336 402
#     4   9  24  39  65  92 138 172 223 264 339 390
#
# _framework density 21.609649000000001
#
# number of rings (size 3 to 8) (size 9 to 14) (size 15 to 20)
#    1.200    0.800    0.000    1.800   11.200    4.000 
#    0.000    2.000    0.000    0.000    0.000    0.000 
#    0.000    0.000    0.000    0.000    0.000    0.000 
#
# Total GULP energy -55674.493285 kJ/mol
# GULP energy per Si atom -5567.449328 kJ/mol
# Density = 2.156046 g / cm^3
# Si number density = 21.609649 Si / 1000 Ang^3
#
#
#
# Elastic Constant Matrix: (Units=GPa)
#
#
# Indices 1 2 3 4 5 6 
#
# 1 186.9843 71.9179 88.5616 22.9970 -16.5218 -15.4562
# 2 71.9179 101.5377 51.8300 20.0956 -10.8950 -1.0281
# 3 88.5616 51.8300 156.8171 24.7664 10.1930 -4.8108
# 4 22.9970 20.0956 24.7664 24.7125 -2.8658 -1.1044
# 5 -16.5218 -10.8950 10.1930 -2.8658 38.6728 13.8219
# 6 -15.4562 -1.0281 -4.8108 -1.1044 13.8219 41.2509
#
#
#
# Elastic Compliance Matrix: (Units=1/GPa)
#
#
# Indices 1 2 3 4 5 6 
#
# 1 0.009308 -0.004044 -0.003907 -0.001013 0.003129 0.001856
# 2 -0.004044 0.015430 -0.002144 -0.006330 0.003714 -0.002794
# 3 -0.003907 -0.002144 0.010679 -0.005960 -0.006106 0.001615
# 4 -0.001013 -0.006330 -0.005960 0.052905 0.003646 -0.001038
# 5 0.003129 0.003714 -0.006106 0.003646 0.033954 -0.010727
# 6 0.001856 -0.002794 0.001615 -0.001038 -0.010727 0.028622
#
#
# Mechanical properties :
#
#
# Convention : Reuss Voigt Hill
#
# Bulk Modulus (GPa) = 65.66206 96.66200 81.16203
# Shear Modulus (GPa) = 28.38280 36.46256 32.42268
#
# Velocity S-wave (km/s) = 3.62806 4.11217 3.87768
# Velocity P-wave (km/s) = 6.92834 8.20820 7.59528
#
# Compressibility (1/GPa) = 0.01522949
#
# Stress axis : x y z
#
# Youngs Moduli (GPa) = 107.43386 64.80947 93.63887
#
# Poissons Ratio (x) = 0.26207 0.36582
# Poissons Ratio (y) = 0.43443 0.20072
# Poissons Ratio (z) = 0.41971 0.13892
#
# Static dielectric constant tensor:
#      x y z
#    x 1.853590 0.069690 0.046820 
#    y 0.069690 1.873490 -0.109760 
#    z 0.046820 -0.109760 1.810410 
# 
# From -- ./inp_files/103052.got.cif
#   From: 2010.05.17/outbox.cif.g08.bks.cpg/sg2_52_cif.got.tgz:103052.got - 2010.06.03 11:33:40.
