data_PCOD9034867
_publ_section_title
;
Structure prediction by ZEFSAII (Michael W. Deem and Ramdas Pophale) SiO2 
 PCOD9034867
Probable space group: P -1
;
_chemical_formula_sum "Si O2"
_cell_formula_units_Z 16
_cell_length_a 8.832179
_cell_length_b 8.901550
_cell_length_c 20.620000
_cell_angle_alpha 55.236228
_cell_angle_beta 130.383412
_cell_angle_gamma 87.698761
_cell_volume 766.966573
_symmetry_space_group_name_H-M "P -1"
_symmetry_group_IT_number 2
_symmetry_cell_setting 'triclinic'
loop_
_space_group_symop_operation_xyz
x,y,z
-x,-y,-z
loop_
_atom_site_type_symbol
_atom_site_label
_atom_site_fract_x
_atom_site_fract_y
_atom_site_fract_z
Si Si1 0.973888 0.024014 0.854875
Si Si2 0.473719 0.499672 0.653957
Si Si3 0.875673 0.684742 0.236396
Si Si4 0.940681 0.730383 0.393892
Si Si5 0.521249 0.380494 0.842982
Si Si6 0.556071 0.744857 0.824047
Si Si7 0.027654 0.331987 0.140079
Si Si8 0.738447 0.722822 0.648107
O O1 0.089216 0.148615 0.833849
O O2 0.675543 0.235465 0.742178
O O3 0.988525 0.866196 0.840866
O O4 0.163959 0.833593 0.010965
O O5 0.426808 0.465024 0.722734
O O6 0.623068 0.601379 0.671710
O O7 0.205999 0.681872 0.495079
O O8 0.902033 0.721134 0.309574
O O9 0.617412 0.718777 0.145386
O O10 0.107754 0.414300 0.341350
O O11 0.000000 0.500000 0.500000
O O12 0.685670 0.982134 0.290718
O O13 0.459062 0.601479 0.811421
O O14 0.728206 0.724223 0.817681
O O15 0.764702 0.592219 0.978146
O O16 0.074343 0.317069 0.232992
O O17 0.500000 0.000000 0.500000
#
# Coordination Sequence:
#
# PCOD9034867 Si02
#       8
#     2   2   2   2   2   2   2   2
#     4  10  24  42  69  97 137 173 219 277 338 400
#     4  11  24  42  66  97 133 178 225 271 329 407
#     4  11  27  43  64 100 136 176 220 276 340 396
#     4  12  26  43  66 100 134 177 219 279 336 392
#     4  11  22  44  68 101 130 175 224 279 330 393
#     4  10  24  42  72  98 132 171 228 282 322 392
#     4  10  22  45  69 100 129 177 226 271 333 393
#     4  11  27  43  69  97 138 181 217 275 334 407
#
# _framework density 20.861402999999999
#
# number of rings (size 3 to 8) (size 9 to 14) (size 15 to 20)
#    0.000    1.250    2.500    1.500    7.000    4.500 
#    0.000    2.500    0.000    0.000    0.000    0.000 
#    0.000    0.000    0.000    0.000    0.000    0.000 
#
# Total GULP energy -89442.633449 kJ/mol
# GULP energy per Si atom -5590.164591 kJ/mol
# Density = 2.081392 g / cm^3
# Si number density = 20.861403 Si / 1000 Ang^3
#
#
#
# Elastic Constant Matrix: (Units=GPa)
#
#
# Indices 1 2 3 4 5 6 
#
# 1 37.0250 26.5523 16.0359 3.3437 8.7796 0.8875
# 2 26.5523 109.8120 66.1744 -6.6549 9.9792 -0.6068
# 3 16.0359 66.1744 127.4792 -22.6799 16.0607 -16.4219
# 4 3.3437 -6.6549 -22.6799 29.1853 3.0701 6.4313
# 5 8.7796 9.9792 16.0607 3.0701 28.8425 2.6573
# 6 0.8875 -0.6068 -16.4219 6.4313 2.6573 30.6079
#
#
#
# Elastic Compliance Matrix: (Units=1/GPa)
#
#
# Indices 1 2 3 4 5 6 
#
# 1 0.035033 -0.007988 -0.000245 -0.005364 -0.007234 0.000449
# 2 -0.007988 0.015605 -0.008024 -0.001155 0.001964 -0.003692
# 3 -0.000245 -0.008024 0.015565 0.009573 -0.007465 0.006835
# 4 -0.005364 -0.001155 0.009573 0.043567 -0.007639 -0.003223
# 5 -0.007234 0.001964 -0.007465 -0.007639 0.041695 -0.005771
# 6 0.000449 -0.003692 0.006835 -0.003223 -0.005771 0.037431
#
#
# Mechanical properties :
#
#
# Convention : Reuss Voigt Hill
#
# Bulk Modulus (GPa) = 29.68491 54.64905 42.16698
# Shear Modulus (GPa) = 21.49255 28.76405 25.12830
#
# Velocity S-wave (km/s) = 3.21324 3.71727 3.47441
# Velocity P-wave (km/s) = 5.29406 6.68410 6.02927
#
# Compressibility (1/GPa) = 0.03368715
#
# Stress axis : x y z
#
# Youngs Moduli (GPa) = 28.54471 64.08399 64.24864
#
# Poissons Ratio (x) = 0.51193 0.01575
# Poissons Ratio (y) = 0.22803 0.51552
# Poissons Ratio (z) = 0.00700 0.51420
#
# Static dielectric constant tensor:
#      x y z
#    x 1.758240 0.033800 0.028680 
#    y 0.033800 1.736950 0.008360 
#    z 0.028680 0.008360 1.731390 
# 
# From -- ./inp_files/185044.got.cif
#   From: 2010.05.17/outbox.cif.g08.bks.cpg/sg2_93_cif.got.tgz:185044.got - 2010.06.03 11:33:40.
