data_PCOD9034830
_publ_section_title
;
Structure prediction by ZEFSAII (Michael W. Deem and Ramdas Pophale) SiO2 
 PCOD9034830
Probable space group: P -1
;
_chemical_formula_sum "Si O2"
_cell_formula_units_Z 16
_cell_length_a 21.242169
_cell_length_b 8.519301
_cell_length_c 8.895407
_cell_angle_alpha 129.303829
_cell_angle_beta 104.189807
_cell_angle_gamma 116.111355
_cell_volume 734.686600
_symmetry_space_group_name_H-M "P -1"
_symmetry_group_IT_number 2
_symmetry_cell_setting 'triclinic'
loop_
_space_group_symop_operation_xyz
x,y,z
-x,-y,-z
loop_
_atom_site_type_symbol
_atom_site_label
_atom_site_fract_x
_atom_site_fract_y
_atom_site_fract_z
Si Si1 0.388431 0.344440 0.350847
Si Si2 0.074068 0.285741 0.092684
Si Si3 0.615535 0.799930 0.176410
Si Si4 0.255512 0.721573 0.689884
Si Si5 0.173967 0.343811 0.897511
Si Si6 0.875789 0.960605 0.629818
Si Si7 0.388352 0.630326 0.263613
Si Si8 0.251037 0.955241 0.311144
O O1 0.500000 0.500000 0.500000
O O2 0.396493 0.574914 0.406308
O O3 0.345204 0.258934 0.440950
O O4 0.298180 0.984701 0.997090
O O5 0.170197 0.599457 0.445551
O O6 0.113081 0.225625 0.949081
O O7 0.000000 0.000000 0.000000
O O8 0.995227 0.244066 0.937243
O O9 0.695343 0.003804 0.485044
O O10 0.641879 0.043521 0.220086
O O11 0.500000 0.500000 0.000000
O O12 0.629462 0.622056 0.990571
O O13 0.199969 0.394196 0.541965
O O14 0.123549 0.090038 0.577928
O O15 0.289191 0.530148 0.112061
O O16 0.186683 0.603316 0.997603
O O17 0.822497 0.041520 0.684869
O O18 0.500000 0.000000 0.500000
#
# Coordination Sequence:
#
# PCOD9034830 Si02
#       8
#     2   2   2   2   2   2   2   2
#     4  11  24  43  69 104 142 184 233 286 350 418
#     4  10  24  44  75 100 133 185 238 288 350 418
#     4  11  22  42  67 100 139 184 228 282 352 420
#     4  10  22  45  68  96 142 179 229 289 342 418
#     4  12  23  47  70  97 149 178 224 297 345 413
#     4  11  25  45  70 106 134 185 240 285 358 405
#     4  11  25  41  68 103 141 186 229 278 357 421
#     4  12  24  41  70 102 139 182 234 288 344 417
#
# _framework density 21.777992999999999
#
# number of rings (size 3 to 8) (size 9 to 14) (size 15 to 20)
#    0.000    1.000    3.750    3.375    3.500    0.500 
#    0.000    3.750    0.000    0.000    0.000    0.000 
#    0.000    0.000    0.000    0.000    0.000    0.000 
#
# Total GULP energy -89324.478250 kJ/mol
# GULP energy per Si atom -5582.779891 kJ/mol
# Density = 2.172843 g / cm^3
# Si number density = 21.777993 Si / 1000 Ang^3
#
#
#
# Elastic Constant Matrix: (Units=GPa)
#
#
# Indices 1 2 3 4 5 6 
#
# 1 126.7902 19.8427 35.0456 -7.7276 -1.3897 12.7861
# 2 19.8427 139.0122 18.5026 2.8119 -2.7716 23.7764
# 3 35.0456 18.5026 81.9100 -7.2742 6.6905 -0.5075
# 4 -7.7276 2.8119 -7.2742 37.8548 -1.1275 0.0266
# 5 -1.3897 -2.7716 6.6905 -1.1275 29.7398 2.4034
# 6 12.7861 23.7764 -0.5075 0.0266 2.4034 37.0137
#
#
#
# Elastic Compliance Matrix: (Units=1/GPa)
#
#
# Indices 1 2 3 4 5 6 
#
# 1 0.009465 -0.000245 -0.004040 0.001225 0.001639 -0.003275
# 2 -0.000245 0.008501 -0.002076 -0.001027 0.001654 -0.005511
# 3 -0.004040 -0.002076 0.014930 0.002080 -0.003920 0.003187
# 4 0.001225 -0.001027 0.002080 0.027158 0.000506 0.000213
# 5 0.001639 0.001654 -0.003920 0.000506 0.035077 -0.003961
# 6 -0.003275 -0.005511 0.003187 0.000213 -0.003961 0.031989
#
#
# Mechanical properties :
#
#
# Convention : Reuss Voigt Hill
#
# Bulk Modulus (GPa) = 49.56625 54.94379 52.25502
# Shear Modulus (GPa) = 34.11410 39.20976 36.66193
#
# Velocity S-wave (km/s) = 3.96213 4.24775 4.10742
# Velocity P-wave (km/s) = 6.61366 7.02436 6.82210
#
# Compressibility (1/GPa) = 0.02017502
#
# Stress axis : x y z
#
# Youngs Moduli (GPa) = 105.65389 117.62822 66.97753
#
# Poissons Ratio (x) = 0.02886 0.27056
# Poissons Ratio (y) = 0.02592 0.13904
# Poissons Ratio (z) = 0.42679 0.24418
#
# Static dielectric constant tensor:
#      x y z
#    x 1.784550 0.024080 -0.004450 
#    y 0.024080 1.848950 0.031600 
#    z -0.004450 0.031600 1.904050 
# 
# From -- ./inp_files/329634.got.cif
#   From: 2010.05.17/outbox.cif.g08.bks.cpg/sg2_165_cif.got.tgz:329634.got - 2010.06.03 11:33:40.
