data_PCOD9034752
_publ_section_title
;
Structure prediction by ZEFSAII (Michael W. Deem and Ramdas Pophale) SiO2 
 PCOD9034752
Probable space group: P -1
;
_chemical_formula_sum "Si O2"
_cell_formula_units_Z 14
_cell_length_a 7.110521
_cell_length_b 17.956441
_cell_length_c 12.621151
_cell_angle_alpha 159.291987
_cell_angle_beta 93.755492
_cell_angle_gamma 85.201962
_cell_volume 567.454714
_symmetry_space_group_name_H-M "P -1"
_symmetry_group_IT_number 2
_symmetry_cell_setting 'triclinic'
loop_
_space_group_symop_operation_xyz
x,y,z
-x,-y,-z
loop_
_atom_site_type_symbol
_atom_site_label
_atom_site_fract_x
_atom_site_fract_y
_atom_site_fract_z
Si Si1 0.651812 0.520826 0.125834
Si Si2 0.934851 0.418367 0.275387
Si Si3 0.258045 0.066885 0.773098
Si Si4 0.973666 0.193755 0.334323
Si Si5 0.066278 0.194838 0.573467
Si Si6 0.649468 0.164331 0.826150
Si Si7 0.430086 0.874435 0.728364
O O1 0.841000 0.587042 0.160708
O O2 0.573585 0.717944 0.460027
O O3 0.500000 0.500000 0.000000
O O4 0.662684 0.319293 0.934050
O O5 0.924011 0.614039 0.455314
O O6 0.000000 0.500000 0.500000
O O7 0.740633 0.300446 0.105817
O O8 0.098618 0.256155 0.019851
O O9 0.435998 0.108351 0.762825
O O10 0.345408 0.039434 0.857411
O O11 0.141260 0.860983 0.469707
O O12 0.750248 0.254608 0.417157
O O13 0.049203 0.114141 0.344134
O O14 0.000000 0.000000 0.000000
O O15 0.217121 0.051430 0.455996
O O16 0.500000 0.000000 0.000000
#
# Coordination Sequence:
#
# PCOD9034752 Si02
#       7
#     2   2   2   2   2   2   2
#     4  12  26  47  75 105 143 192 240 292 360 430
#     4  11  23  36  62 101 139 183 235 290 358 426
#     4  10  23  41  67 101 139 180 237 293 357 423
#     4  11  21  40  65  99 146 184 233 296 359 422
#     4  10  22  45  67  98 141 182 231 295 355 416
#     4  11  23  44  71  97 141 184 238 292 355 421
#     4  11  24  41  71 102 140 188 236 290 356 423
#
# _framework density 24.671571
#
# number of rings (size 3 to 8) (size 9 to 14) (size 15 to 20)
#    0.000    1.143    2.857    4.286    4.000    1.143 
#    0.000    3.571    0.000    0.000    0.000    0.000 
#    0.000    0.000    0.000    0.000    0.000    0.000 
#
# Total GULP energy -78338.809626 kJ/mol
# GULP energy per Si atom -5595.629259 kJ/mol
# Density = 2.461542 g / cm^3
# Si number density = 24.671571 Si / 1000 Ang^3
#
#
#
# Elastic Constant Matrix: (Units=GPa)
#
#
# Indices 1 2 3 4 5 6 
#
# 1 202.1817 57.5427 61.0663 -7.0152 32.9130 20.6137
# 2 57.5427 145.9148 53.4914 14.3987 17.9929 -11.0851
# 3 61.0663 53.4914 109.7557 -2.9617 18.8438 8.2609
# 4 -7.0152 14.3987 -2.9617 45.3556 8.6696 9.5783
# 5 32.9130 17.9929 18.8438 8.6696 41.8941 7.2880
# 6 20.6137 -11.0851 8.2609 9.5783 7.2880 35.1368
#
#
#
# Elastic Compliance Matrix: (Units=1/GPa)
#
#
# Indices 1 2 3 4 5 6 
#
# 1 0.007470 -0.002554 -0.001777 0.003636 -0.003862 -0.004961
# 2 -0.002554 0.010676 -0.004365 -0.005515 -0.000790 0.007560
# 3 -0.001777 -0.004365 0.013047 0.003254 -0.002619 -0.003746
# 4 0.003636 -0.005515 0.003254 0.028025 -0.005826 -0.011069
# 5 -0.003862 -0.000790 -0.002619 -0.005826 0.029974 -0.001997
# 6 -0.004961 0.007560 -0.003746 -0.011069 -0.001997 0.038068
#
#
# Mechanical properties :
#
#
# Convention : Reuss Voigt Hill
#
# Bulk Modulus (GPa) = 72.45346 89.11701 80.78523
# Shear Modulus (GPa) = 33.50039 43.52741 38.51390
#
# Velocity S-wave (km/s) = 3.68890 4.20488 3.95532
# Velocity P-wave (km/s) = 6.89746 7.73140 7.32630
#
# Compressibility (1/GPa) = 0.01380196
#
# Stress axis : x y z
#
# Youngs Moduli (GPa) = 133.86344 93.66431 76.64868
#
# Poissons Ratio (x) = 0.23921 0.13621
# Poissons Ratio (y) = 0.34188 0.33454
# Poissons Ratio (z) = 0.23789 0.40881
#
# Static dielectric constant tensor:
#      x y z
#    x 1.933550 0.032500 -0.013450 
#    y 0.032500 1.900450 0.001800 
#    z -0.013450 0.001800 1.980300 
# 
# From -- ./inp_files/403677.got.cif
#   From: 2010.05.17/outbox.cif.g08.bks.cpg/sg2_202_cif.got.tgz:403677.got - 2010.06.03 11:33:40.
