data_PCOD9034240
_publ_section_title
;
Structure prediction by ZEFSAII (Michael W. Deem and Ramdas Pophale) SiO2 
 PCOD9034240
Probable space group: P -1
;
_chemical_formula_sum "Si O2"
_cell_formula_units_Z 16
_cell_length_a 22.835066
_cell_length_b 5.544386
_cell_length_c 4.687467
_cell_angle_alpha 96.975766
_cell_angle_beta 82.488248
_cell_angle_gamma 113.940522
_cell_volume 536.216861
_symmetry_space_group_name_H-M "P -1"
_symmetry_group_IT_number 2
_symmetry_cell_setting 'triclinic'
loop_
_space_group_symop_operation_xyz
x,y,z
-x,-y,-z
loop_
_atom_site_type_symbol
_atom_site_label
_atom_site_fract_x
_atom_site_fract_y
_atom_site_fract_z
Si Si1 0.426271 0.559042 0.918094
Si Si2 0.684954 0.724741 0.648467
Si Si3 0.875376 0.017913 0.181333
Si Si4 0.915497 0.525871 0.653384
Si Si5 0.455054 0.079296 0.754999
Si Si6 0.251183 0.968713 0.879986
Si Si7 0.207389 0.464543 0.440581
Si Si8 0.002800 0.686700 0.208964
O O1 0.428100 0.301582 0.713784
O O2 0.404902 0.784167 0.827559
O O3 0.384732 0.447854 0.212998
O O4 0.498716 0.751448 0.994478
O O5 0.703755 0.790124 0.318539
O O6 0.733851 0.599279 0.713638
O O7 0.710110 0.999500 0.850173
O O8 0.819903 0.039202 0.020350
O O9 0.836392 0.762596 0.350005
O O10 0.891524 0.250777 0.442523
O O11 0.939734 0.072780 0.956791
O O12 0.845845 0.533941 0.754879
O O13 0.953700 0.524514 0.939601
O O14 0.952105 0.762168 0.433607
O O15 0.500000 0.000000 0.500000
O O16 0.237314 0.717291 0.658482
O O17 0.000000 0.500000 0.500000
#
# Coordination Sequence:
#
# PCOD9034240 Si02
#       8
#     2   2   2   2   2   2   2   2
#     4  10  24  42  71 108 146 191 248 296 359 431
#     4  11  26  46  68 105 141 184 239 292 347 429
#     4   9  20  38  59  90 123 169 217 283 340 426
#     4   9  19  39  60  90 124 167 212 289 344 428
#     4  10  22  44  72 107 148 194 240 300 363 420
#     4  10  25  44  66  97 140 181 232 291 353 414
#     4  10  23  43  67  95 130 180 229 282 361 418
#     4   9  18  36  61  87 127 159 218 282 351 418
#
# _framework density 29.83867
#
# number of rings (size 3 to 8) (size 9 to 14) (size 15 to 20)
#    0.000    2.250    0.000    0.375    8.750    3.500 
#    9.000    5.625    0.000    0.000    0.000    0.000 
#    0.000    0.000    0.000    0.000    0.000    0.000 
#
# Total GULP energy -89237.643611 kJ/mol
# GULP energy per Si atom -5577.352726 kJ/mol
# Density = 2.977076 g / cm^3
# Si number density = 29.838670 Si / 1000 Ang^3
#
#
#
# Elastic Constant Matrix: (Units=GPa)
#
#
# Indices 1 2 3 4 5 6 
#
# 1 110.5628 34.8346 48.8266 -11.6759 -17.1370 -4.7452
# 2 34.8346 173.3859 61.4962 -11.0394 -15.9738 -10.7481
# 3 48.8266 61.4962 201.8998 -13.9907 -15.7288 -11.1401
# 4 -11.6759 -11.0394 -13.9907 54.6621 3.4593 -2.3669
# 5 -17.1370 -15.9738 -15.7288 3.4593 52.7342 0.4990
# 6 -4.7452 -10.7481 -11.1401 -2.3669 0.4990 37.6423
#
#
#
# Elastic Compliance Matrix: (Units=1/GPa)
#
#
# Indices 1 2 3 4 5 6 
#
# 1 0.010823 -0.001128 -0.001950 0.001450 0.002494 0.000523
# 2 -0.001128 0.006791 -0.001581 0.000711 0.001159 0.001358
# 3 -0.001950 -0.001581 0.006076 0.000829 0.000634 0.001145
# 4 0.001450 0.000711 0.000829 0.019060 -0.000334 0.001834
# 5 0.002494 0.001159 0.000634 -0.000334 0.020331 0.000543
# 6 0.000523 0.001358 0.001145 0.001834 0.000543 0.027467
#
#
# Mechanical properties :
#
#
# Convention : Reuss Voigt Hill
#
# Bulk Modulus (GPa) = 69.58183 86.24038 77.91111
# Shear Modulus (GPa) = 47.77460 51.72045 49.74753
#
# Velocity S-wave (km/s) = 4.00571 4.16785 4.08759
# Velocity P-wave (km/s) = 6.69061 7.21985 6.96026
#
# Compressibility (1/GPa) = 0.01437157
#
# Stress axis : x y z
#
# Youngs Moduli (GPa) = 92.39177 147.24821 164.57713
#
# Poissons Ratio (x) = 0.16615 0.32096
# Poissons Ratio (y) = 0.10425 0.26021
# Poissons Ratio (z) = 0.18019 0.23281
#
# Static dielectric constant tensor:
#      x y z
#    x 3.223800 -0.218800 -0.291840 
#    y -0.218800 2.435430 0.066840 
#    z -0.291840 0.066840 2.560310 
# 
# From -- ./inp_files/125910.got.cif
#   From: 2010.05.17/outbox.cif.g08.bks.cpg/sg2_63_cif.got.tgz:125910.got - 2010.06.03 11:33:40.
