data_PCOD9034213
_publ_section_title
;
Structure prediction by ZEFSAII (Michael W. Deem and Ramdas Pophale) SiO2 
 PCOD9034213
Probable space group: P -1
;
_chemical_formula_sum "Si O2"
_cell_formula_units_Z 16
_cell_length_a 7.392435
_cell_length_b 7.140053
_cell_length_c 18.728765
_cell_angle_alpha 122.011503
_cell_angle_beta 56.923916
_cell_angle_gamma 113.795166
_cell_volume 693.266461
_symmetry_space_group_name_H-M "P -1"
_symmetry_group_IT_number 2
_symmetry_cell_setting 'triclinic'
loop_
_space_group_symop_operation_xyz
x,y,z
-x,-y,-z
loop_
_atom_site_type_symbol
_atom_site_label
_atom_site_fract_x
_atom_site_fract_y
_atom_site_fract_z
Si Si1 0.762809 0.020829 0.765365
Si Si2 0.149866 0.891750 0.390845
Si Si3 0.502342 0.146071 0.458049
Si Si4 0.879593 0.957946 0.887179
Si Si5 0.609635 0.491553 0.897618
Si Si6 0.815376 0.483049 0.377012
Si Si7 0.730673 0.219445 0.194822
Si Si8 0.213948 0.613294 0.936329
O O1 0.879395 0.011566 0.662183
O O2 0.872957 0.967496 0.804778
O O3 0.724685 0.276652 0.828157
O O4 0.523699 0.871013 0.781287
O O5 0.058636 0.625936 0.359010
O O6 0.394550 0.981152 0.384338
O O7 0.000000 0.000000 0.500000
O O8 0.733209 0.289136 0.412979
O O9 0.345336 0.332249 0.542409
O O10 0.500000 0.000000 0.500000
O O11 0.127978 0.981283 0.866535
O O12 0.769568 0.717255 0.890291
O O13 0.748507 0.140058 0.986276
O O14 0.414259 0.485302 0.881976
O O15 0.500000 0.500000 0.000000
O O16 0.772802 0.368667 0.286358
O O17 0.816672 0.358318 0.134637
O O18 0.000000 0.500000 0.000000
#
# Coordination Sequence:
#
# PCOD9034213 Si02
#       8
#     2   2   2   2   2   2   2   2
#     4  12  25  47  72 103 145 186 245 299 360 436
#     4  10  23  45  71 100 141 186 228 296 361 421
#     4  10  22  44  72 103 137 180 231 291 360 429
#     4  12  26  46  69 101 141 190 241 294 363 428
#     4  12  23  43  71  98 140 187 235 299 359 424
#     4  10  23  44  67 100 144 177 231 296 349 430
#     4  12  25  45  70 104 144 187 242 297 357 432
#     4  12  25  44  69 102 144 190 237 301 359 425
#
# _framework density 23.079151
#
# number of rings (size 3 to 8) (size 9 to 14) (size 15 to 20)
#    0.000    0.750    3.750    3.750    1.750    3.500 
#    2.250    0.000    0.000    0.000    0.000    0.000 
#    0.000    0.000    0.000    0.000    0.000    0.000 
#
# Total GULP energy -89563.247277 kJ/mol
# GULP energy per Si atom -5597.702955 kJ/mol
# Density = 2.302662 g / cm^3
# Si number density = 23.079151 Si / 1000 Ang^3
#
#
#
# Elastic Constant Matrix: (Units=GPa)
#
#
# Indices 1 2 3 4 5 6 
#
# 1 71.8227 33.4150 0.7553 -20.3921 10.4822 -16.5732
# 2 33.4150 151.6865 39.5949 -27.0691 14.4686 7.3728
# 3 0.7553 39.5949 113.6459 -31.0613 19.8595 -16.4967
# 4 -20.3921 -27.0691 -31.0613 42.9895 -5.6328 8.9874
# 5 10.4822 14.4686 19.8595 -5.6328 32.0816 -12.6741
# 6 -16.5732 7.3728 -16.4967 8.9874 -12.6741 37.0146
#
#
#
# Elastic Compliance Matrix: (Units=1/GPa)
#
#
# Indices 1 2 3 4 5 6 
#
# 1 0.021416 -0.004895 0.005971 0.008903 -0.002952 0.010053
# 2 -0.004895 0.009593 -0.003092 0.002570 -0.003207 -0.007202
# 3 0.005971 -0.003092 0.014113 0.009219 -0.005521 0.005450
# 4 0.008903 0.002570 0.009219 0.035721 -0.004549 -0.002648
# 5 -0.002952 -0.003207 -0.005521 -0.004549 0.040931 0.011976
# 6 0.010053 -0.007202 0.005450 -0.002648 0.011976 0.040125
#
#
# Mechanical properties :
#
#
# Convention : Reuss Voigt Hill
#
# Bulk Modulus (GPa) = 24.33725 53.85396 39.09560
# Shear Modulus (GPa) = 27.83553 39.97646 33.90600
#
# Velocity S-wave (km/s) = 3.47665 4.16642 3.83707
# Velocity P-wave (km/s) = 5.16567 6.82133 6.05040
#
# Compressibility (1/GPa) = 0.04108928
#
# Stress axis : x y z
#
# Youngs Moduli (GPa) = 46.69466 104.24801 70.85831
#
# Poissons Ratio (x) = 0.51027 -0.42311
# Poissons Ratio (y) = 0.22856 0.21912
# Poissons Ratio (z) = -0.27883 0.32237
#
# Static dielectric constant tensor:
#      x y z
#    x 1.918970 0.040910 -0.024840 
#    y 0.040910 1.887150 0.014980 
#    z -0.024840 0.014980 1.866230 
# 
# From -- ./inp_files/553712.got.cif
#   From: 2010.05.17/outbox.cif.g08.bks.cpg/sg2_277_cif.got.tgz:553712.got - 2010.06.03 11:33:40.
