data_PCOD9034888
_publ_section_title
;
Structure prediction by ZEFSAII (Michael W. Deem and Ramdas Pophale) SiO2 
 PCOD9034888
Probable space group: P -1
;
_chemical_formula_sum "Si O2"
_cell_formula_units_Z 12
_cell_length_a 7.949622
_cell_length_b 13.437830
_cell_length_c 5.223008
_cell_angle_alpha 79.066193
_cell_angle_beta 60.144346
_cell_angle_gamma 77.457522
_cell_volume 470.155589
_symmetry_space_group_name_H-M "P -1"
_symmetry_group_IT_number 2
_symmetry_cell_setting 'triclinic'
loop_
_space_group_symop_operation_xyz
x,y,z
-x,-y,-z
loop_
_atom_site_type_symbol
_atom_site_label
_atom_site_fract_x
_atom_site_fract_y
_atom_site_fract_z
Si Si1 0.089434 0.223405 0.575976
Si Si2 0.275539 0.017812 0.759972
Si Si3 0.094162 0.417733 0.758090
Si Si4 0.583509 0.731998 0.097777
Si Si5 0.387943 0.544861 0.306177
Si Si6 0.767079 0.104671 0.631002
O O1 0.995843 0.329649 0.731495
O O2 0.278020 0.244581 0.253810
O O3 0.931277 0.175250 0.547551
O O4 0.174510 0.134613 0.752930
O O5 0.177986 0.953844 0.646272
O O6 0.500000 0.000000 0.500000
O O7 0.255779 0.970934 0.076995
O O8 0.192127 0.493715 0.465783
O O9 0.267912 0.339826 0.799032
O O10 0.000000 0.500000 0.000000
O O11 0.412419 0.662687 0.209525
O O12 0.451487 0.831660 0.259908
O O13 0.500000 0.500000 0.500000
O O14 0.500000 0.500000 0.000000
#
# Coordination Sequence:
#
# PCOD9034888 Si02
#       6
#     2   2   2   2   2   2
#     4  12  27  47  78 111 154 202 261 315 390 463
#     4  12  26  51  79 113 156 201 250 319 390 460
#     4  11  27  48  77 112 157 207 264 326 384 462
#     4  11  26  46  76 107 153 202 258 311 392 455
#     4  10  22  45  69 101 145 195 247 309 373 439
#     4  12  29  47  80 114 156 198 255 319 387 463
#
# _framework density 25.523464000000001
#
# number of rings (size 3 to 8) (size 9 to 14) (size 15 to 20)
#    0.000    0.667    3.333    2.500    7.000    3.333 
#    0.000    0.000    0.000    0.000    0.000    0.000 
#    0.000    0.000    0.000    0.000    0.000    0.000 
#
# Total GULP energy -67142.061540 kJ/mol
# GULP energy per Si atom -5595.171795 kJ/mol
# Density = 2.546537 g / cm^3
# Si number density = 25.523464 Si / 1000 Ang^3
#
#
#
# Elastic Constant Matrix: (Units=GPa)
#
#
# Indices 1 2 3 4 5 6 
#
# 1 128.5530 50.4482 6.4044 -13.3283 -11.3461 4.7908
# 2 50.4482 197.8141 33.6112 -4.7781 8.3499 -8.3787
# 3 6.4044 33.6112 104.2953 -17.6414 -6.9501 -5.2873
# 4 -13.3283 -4.7781 -17.6414 41.7890 4.7674 -6.2504
# 5 -11.3461 8.3499 -6.9501 4.7674 38.9029 -3.5153
# 6 4.7908 -8.3787 -5.2873 -6.2504 -3.5153 58.1554
#
#
#
# Elastic Compliance Matrix: (Units=1/GPa)
#
#
# Indices 1 2 3 4 5 6 
#
# 1 0.009327 -0.002621 0.000888 0.002610 0.003067 -0.000599
# 2 -0.002621 0.006186 -0.002057 -0.000626 -0.002319 0.000713
# 3 0.000888 -0.002057 0.011209 0.004718 0.002242 0.001292
# 4 0.002610 -0.000626 0.004718 0.027280 -0.001336 0.002975
# 5 0.003067 -0.002319 0.002242 -0.001336 0.027766 0.001152
# 6 -0.000599 0.000713 0.001292 0.002975 0.001152 0.017854
#
#
# Mechanical properties :
#
#
# Convention : Reuss Voigt Hill
#
# Bulk Modulus (GPa) = 52.24300 67.95445 60.09872
# Shear Modulus (GPa) = 44.02043 50.44936 47.23490
#
# Velocity S-wave (km/s) = 4.15746 4.45071 4.30658
# Velocity P-wave (km/s) = 6.59993 7.28655 6.95172
#
# Compressibility (1/GPa) = 0.01914132
#
# Stress axis : x y z
#
# Youngs Moduli (GPa) = 107.21524 161.65040 89.21098
#
# Poissons Ratio (x) = 0.42373 -0.07918
# Poissons Ratio (y) = 0.28104 0.18350
# Poissons Ratio (z) = -0.09516 0.33250
#
# Static dielectric constant tensor:
#      x y z
#    x 2.176340 0.039820 0.035140 
#    y 0.039820 2.060320 0.000630 
#    z 0.035140 0.000630 1.945350 
# 
# From -- ./inp_files/26388.got.cif
#   From: 2010.05.17/outbox.cif.g08.bks.cpg/sg2_14_cif.got.tgz:26388.got - 2010.06.03 11:33:40.
