data_PCOD9034335
_publ_section_title
;
Structure prediction by ZEFSAII (Michael W. Deem and Ramdas Pophale) SiO2 
 PCOD9034335
Probable space group: P -1
;
_chemical_formula_sum "Si O2"
_cell_formula_units_Z 14
_cell_length_a 9.908855
_cell_length_b 17.089397
_cell_length_c 8.962511
_cell_angle_alpha 31.622584
_cell_angle_beta 43.535275
_cell_angle_gamma 52.856837
_cell_volume 547.731542
_symmetry_space_group_name_H-M "P -1"
_symmetry_group_IT_number 2
_symmetry_cell_setting 'triclinic'
loop_
_space_group_symop_operation_xyz
x,y,z
-x,-y,-z
loop_
_atom_site_type_symbol
_atom_site_label
_atom_site_fract_x
_atom_site_fract_y
_atom_site_fract_z
Si Si1 0.472167 0.067306 0.150619
Si Si2 0.184644 0.175193 0.954857
Si Si3 0.939750 0.055084 0.793272
Si Si4 0.507293 0.270752 0.297449
Si Si5 0.903243 0.420364 0.848492
Si Si6 0.545181 0.356567 0.798695
Si Si7 0.007438 0.632202 0.664265
O O1 0.443942 0.900396 0.507383
O O2 0.332986 0.091331 0.081098
O O3 0.707214 0.077197 0.917275
O O4 0.445961 0.206826 0.052853
O O5 0.326333 0.252527 0.588597
O O6 0.059803 0.291442 0.960749
O O7 0.030570 0.066253 0.163181
O O8 0.039679 0.218572 0.453582
O O9 0.000000 0.000000 0.000000
O O10 0.692995 0.342816 0.116975
O O11 0.493758 0.360080 0.008199
O O12 0.000000 0.500000 0.500000
O O13 0.884341 0.555583 0.757276
O O14 0.500000 0.500000 0.500000
O O15 0.778628 0.340956 0.622886
O O16 0.000000 0.500000 0.000000
#
# Coordination Sequence:
#
# PCOD9034335 Si02
#       7
#     2   2   2   2   2   2   2
#     4  10  24  45  75 108 150 195 255 308 374 449
#     4  11  26  49  80 112 150 196 256 314 372 449
#     4  10  22  44  73 104 146 195 245 302 372 445
#     4  11  25  47  78 105 152 200 247 314 377 444
#     4  12  26  47  74 113 151 192 259 304 379 453
#     4  11  24  46  69 108 147 196 251 303 381 454
#     4  11  26  45  68 104 152 189 239 311 372 441
#
# _framework density 25.559965999999999
#
# number of rings (size 3 to 8) (size 9 to 14) (size 15 to 20)
#    0.000    1.143    1.429    3.857    8.000    4.571 
#    2.571    0.000    0.000    0.000    0.000    0.000 
#    0.000    0.000    0.000    0.000    0.000    0.000 
#
# Total GULP energy -78331.055583 kJ/mol
# GULP energy per Si atom -5595.075399 kJ/mol
# Density = 2.550179 g / cm^3
# Si number density = 25.559966 Si / 1000 Ang^3
#
#
#
# Elastic Constant Matrix: (Units=GPa)
#
#
# Indices 1 2 3 4 5 6 
#
# 1 140.4468 81.5774 56.3690 -13.6491 6.8115 17.5116
# 2 81.5774 30.2468 55.7762 38.0555 -47.5785 -42.0550
# 3 56.3690 55.7762 149.1698 -14.2056 -10.3191 9.0226
# 4 -13.6491 38.0555 -14.2056 36.4128 20.6599 6.0450
# 5 6.8115 -47.5785 -10.3191 20.6599 53.9861 -15.1628
# 6 17.5116 -42.0550 9.0226 6.0450 -15.1628 27.7482
#
#
#
# Elastic Compliance Matrix: (Units=1/GPa)
#
#
# Indices 1 2 3 4 5 6 
#
# 1 0.006364 0.002338 -0.003603 -0.003513 0.002745 0.002964
# 2 0.002338 -0.000970 0.000151 0.006420 -0.005685 -0.007500
# 3 -0.003603 0.000151 0.008113 0.000074 0.002443 0.001184
# 4 -0.003513 0.006420 0.000074 0.016369 0.002597 0.009776
# 5 0.002745 -0.005685 0.002443 0.002597 0.011047 -0.005672
# 6 0.002964 -0.007500 0.001184 0.009776 -0.005672 0.017187
#
#
# Mechanical properties :
#
#
# Convention : Reuss Voigt Hill
#
# Bulk Modulus (GPa) = 88.65946 78.58987 83.62467
# Shear Modulus (GPa) = 78.00589 32.03880 55.02235
#
# Velocity S-wave (km/s) = 5.53037 3.54429 4.64473
# Velocity P-wave (km/s) = 8.69150 6.89661 7.84556
#
# Compressibility (1/GPa) = 0.01127911
#
# Stress axis : x y z
#
# Youngs Moduli (GPa) = 157.12673 -1030.48617 123.25641
#
# Poissons Ratio (x) = 2.40901 0.44409
# Poissons Ratio (y) = -0.36732 -0.01864
# Poissons Ratio (z) = 0.56612 0.15585
#
# Static dielectric constant tensor:
#      x y z
#    x 2.033490 -0.032150 0.013700 
#    y -0.032150 2.011110 -0.030000 
#    z 0.013700 -0.030000 1.982500 
# 
# From -- ./inp_files/216301.got.cif
#   From: 2010.05.17/outbox.cif.g08.bks.cpg/sg2_109_cif.got.tgz:216301.got - 2010.06.03 11:33:40.
