data_PCOD9034776
_publ_section_title
;
Structure prediction by ZEFSAII (Michael W. Deem and Ramdas Pophale) SiO2 
 PCOD9034776
Probable space group: P -1
;
_chemical_formula_sum "Si O2"
_cell_formula_units_Z 13
_cell_length_a 15.038237
_cell_length_b 12.573008
_cell_length_c 11.342250
_cell_angle_alpha 134.364033
_cell_angle_beta 31.655511
_cell_angle_gamma 152.267820
_cell_volume 510.656280
_symmetry_space_group_name_H-M "P -1"
_symmetry_group_IT_number 2
_symmetry_cell_setting 'triclinic'
loop_
_space_group_symop_operation_xyz
x,y,z
-x,-y,-z
loop_
_atom_site_type_symbol
_atom_site_label
_atom_site_fract_x
_atom_site_fract_y
_atom_site_fract_z
Si Si1 0.279904 0.895199 0.041595
Si Si2 0.392482 0.356391 0.684842
Si Si3 0.155768 0.968422 0.026518
Si Si4 0.500000 0.000000 0.500000
Si Si5 0.284317 0.371510 0.247058
Si Si6 0.505035 0.254634 0.245559
Si Si7 0.820515 0.241307 0.549547
O O1 0.575334 0.112589 0.815283
O O2 0.273712 0.725188 0.969178
O O3 0.084457 0.800087 0.079842
O O4 0.277312 0.010369 0.240429
O O5 0.579011 0.457257 0.663641
O O6 0.443579 0.273522 0.459444
O O7 0.443017 0.560363 0.742252
O O8 0.075111 0.144324 0.890545
O O9 0.217332 0.154590 0.178458
O O10 0.392645 0.060122 0.754860
O O11 0.698575 0.081714 0.447717
O O12 0.031387 0.285466 0.416373
O O13 0.500000 0.500000 0.000000
O O14 0.000000 0.500000 0.500000
#
# Coordination Sequence:
#
# PCOD9034776 Si02
#       7
#     2   2   2   1   2   2   2
#     4  10  22  45  68 102 139 178 234 290 344 396
#     4  11  25  46  69 102 136 186 234 280 349 411
#     4  11  24  42  70  98 140 176 232 288 344 412
#     4  10  24  42  66 100 130 174 224 280 340 414
#     4  12  25  44  68 102 141 180 228 288 350 412
#     4  10  23  46  68 100 142 182 240 280 332 419
#     4  11  25  43  71  98 137 181 226 287 348 411
#
# _framework density 25.457435
#
# number of rings (size 3 to 8) (size 9 to 14) (size 15 to 20)
#    0.000    1.231    1.538    3.692    2.154    9.846 
#   11.077    0.000    0.000    0.000    0.000    0.000 
#    0.000    0.000    0.000    0.000    0.000    0.000 
#
# Total GULP energy -72484.840308 kJ/mol
# GULP energy per Si atom -5575.756947 kJ/mol
# Density = 2.539949 g / cm^3
# Si number density = 25.457435 Si / 1000 Ang^3
#
#
#
# Elastic Constant Matrix: (Units=GPa)
#
#
# Indices 1 2 3 4 5 6 
#
# 1 164.5723 49.9765 28.3117 13.3356 -1.0827 45.8000
# 2 49.9765 85.2448 42.1297 20.7290 5.0793 22.1127
# 3 28.3117 42.1297 115.0705 25.4889 0.2446 20.4811
# 4 13.3356 20.7290 25.4889 42.0479 4.3281 -8.7772
# 5 -1.0827 5.0793 0.2446 4.3281 40.6108 -0.2867
# 6 45.8000 22.1127 20.4811 -8.7772 -0.2867 54.2950
#
#
#
# Elastic Compliance Matrix: (Units=1/GPa)
#
#
# Indices 1 2 3 4 5 6 
#
# 1 0.009244 -0.003149 0.001020 -0.003660 0.000971 -0.007486
# 2 -0.003149 0.018226 -0.003657 -0.006526 -0.001677 -0.004451
# 3 0.001020 -0.003657 0.012278 -0.007156 0.001137 -0.005153
# 4 -0.003660 -0.006526 -0.007156 0.035769 -0.002950 0.014211
# 5 0.000971 -0.001677 0.001137 -0.002950 0.025161 -0.000909
# 6 -0.007486 -0.004451 -0.005153 0.014211 -0.000909 0.030782
#
#
# Mechanical properties :
#
#
# Convention : Reuss Voigt Hill
#
# Bulk Modulus (GPa) = 35.49214 67.30256 51.39735
# Shear Modulus (GPa) = 32.80345 43.68873 38.24609
#
# Velocity S-wave (km/s) = 3.59355 4.14714 3.88023
# Velocity P-wave (km/s) = 5.58481 7.03039 6.34888
#
# Compressibility (1/GPa) = 0.02817526
#
# Stress axis : x y z
#
# Youngs Moduli (GPa) = 108.18378 54.86695 81.44495
#
# Poissons Ratio (x) = 0.17279 -0.08305
# Poissons Ratio (y) = 0.34070 0.29782
# Poissons Ratio (z) = -0.11032 0.20063
#
# Static dielectric constant tensor:
#      x y z
#    x 2.037150 -0.069770 -0.023260 
#    y -0.069770 2.092990 -0.053020 
#    z -0.023260 -0.053020 1.956610 
# 
# From -- ./inp_files/454068.got.cif
#   From: 2010.05.17/outbox.cif.g08.bks.cpg/sg2_228_cif.got.tgz:454068.got - 2010.06.03 11:33:40.
