data_PCOD9034793
_publ_section_title
;
Structure prediction by ZEFSAII (Michael W. Deem and Ramdas Pophale) SiO2 
 PCOD9034793
Probable space group: P -1
;
_chemical_formula_sum "Si O2"
_cell_formula_units_Z 16
_cell_length_a 8.516455
_cell_length_b 15.915305
_cell_length_c 18.724201
_cell_angle_alpha 22.969863
_cell_angle_beta 139.377708
_cell_angle_gamma 142.260444
_cell_volume 601.105243
_symmetry_space_group_name_H-M "P -1"
_symmetry_group_IT_number 2
_symmetry_cell_setting 'triclinic'
loop_
_space_group_symop_operation_xyz
x,y,z
-x,-y,-z
loop_
_atom_site_type_symbol
_atom_site_label
_atom_site_fract_x
_atom_site_fract_y
_atom_site_fract_z
Si Si1 0.368440 0.562129 0.476002
Si Si2 0.228726 0.275023 0.265090
Si Si3 0.528551 0.929595 0.886106
Si Si4 0.777596 0.381606 0.396254
Si Si5 0.767560 0.233307 0.345956
Si Si6 0.982365 0.446360 0.932276
Si Si7 0.292236 0.081299 0.197847
Si Si8 0.278489 0.080877 0.892383
O O1 0.500000 0.500000 0.500000
O O2 0.345094 0.351879 0.685923
O O3 0.072399 0.548091 0.373034
O O4 0.518148 0.831018 0.332971
O O5 0.511163 0.423425 0.277932
O O6 0.020452 0.330691 0.198021
O O7 0.189074 0.007029 0.461526
O O8 0.199217 0.364835 0.105887
O O9 0.612090 0.851398 0.901808
O O10 0.275731 0.757426 0.973285
O O11 0.738478 0.962336 0.995254
O O12 0.746974 0.269818 0.393877
O O13 0.747857 0.187201 0.596885
O O14 0.984000 0.456814 0.211432
O O15 0.512344 0.209149 0.230739
O O16 0.001512 0.069476 0.119730
O O17 0.500000 0.000000 0.000000
#
# Coordination Sequence:
#
# PCOD9034793 Si02
#       8
#     2   2   2   2   2   2   2   2
#     4  11  26  49  74 106 143 190 244 302 364 436
#     4  10  22  45  68 104 148 186 238 300 366 429
#     4  12  27  45  75 105 152 196 239 307 360 439
#     4  10  25  46  76 105 143 194 249 297 370 433
#     4  11  24  47  77 106 146 198 238 308 362 430
#     4  11  26  41  68 111 144 188 245 292 359 438
#     4  10  23  46  73 109 148 188 250 298 369 434
#     4  11  25  45  72 110 144 191 245 300 368 434
#
# _framework density 26.617635
#
# number of rings (size 3 to 8) (size 9 to 14) (size 15 to 20)
#    0.000    1.250    1.250    3.750    3.500    9.500 
#    0.000    1.250    0.000    0.000    0.000    0.000 
#    0.000    0.000    0.000    0.000    0.000    0.000 
#
# Total GULP energy -89639.724582 kJ/mol
# GULP energy per Si atom -5602.482786 kJ/mol
# Density = 2.655705 g / cm^3
# Si number density = 26.617635 Si / 1000 Ang^3
#
#
#
# Elastic Constant Matrix: (Units=GPa)
#
#
# Indices 1 2 3 4 5 6 
#
# 1 109.6837 26.8468 63.2565 1.2948 -20.0117 10.3084
# 2 26.8468 88.7065 47.0804 3.7661 1.7476 21.0755
# 3 63.2565 47.0804 194.7888 -10.7870 -18.7963 11.8355
# 4 1.2948 3.7661 -10.7870 49.6129 9.3709 -1.8118
# 5 -20.0117 1.7476 -18.7963 9.3709 53.1308 5.9868
# 6 10.3084 21.0755 11.8355 -1.8118 5.9868 48.3901
#
#
#
# Elastic Compliance Matrix: (Units=1/GPa)
#
#
# Indices 1 2 3 4 5 6 
#
# 1 0.012274 -0.001624 -0.003196 -0.001717 0.004039 -0.001690
# 2 -0.001624 0.014644 -0.002906 -0.001658 -0.001239 -0.005230
# 3 -0.003196 -0.002906 0.007060 0.001640 0.001084 0.000147
# 4 -0.001717 -0.001658 0.001640 0.021517 -0.004031 0.001991
# 5 0.004039 -0.001239 0.001084 -0.004031 0.021866 -0.003442
# 6 -0.001690 -0.005230 0.000147 0.001991 -0.003442 0.023768
#
#
# Mechanical properties :
#
#
# Convention : Reuss Voigt Hill
#
# Bulk Modulus (GPa) = 53.97416 74.17183 64.07299
# Shear Modulus (GPa) = 40.73122 47.29311 44.01217
#
# Velocity S-wave (km/s) = 3.91606 4.21973 4.07073
# Velocity P-wave (km/s) = 6.38506 7.18803 6.79841
#
# Compressibility (1/GPa) = 0.01852739
#
# Stress axis : x y z
#
# Youngs Moduli (GPa) = 81.47529 68.28638 141.63329
#
# Poissons Ratio (x) = 0.11087 0.45267
# Poissons Ratio (y) = 0.13228 0.41157
# Poissons Ratio (z) = 0.26040 0.19843
#
# Static dielectric constant tensor:
#      x y z
#    x 2.061250 0.019990 0.037930 
#    y 0.019990 2.163340 0.001310 
#    z 0.037930 0.001310 2.038310 
# 
# From -- ./inp_files/591202.got.cif
#   From: 2010.05.17/outbox.cif.g08.bks.cpg/sg2_296_cif.got.tgz:591202.got - 2010.06.03 11:33:40.
