data_PCOD9034231
_publ_section_title
;
Structure prediction by ZEFSAII (Michael W. Deem and Ramdas Pophale) SiO2 
 PCOD9034231
Probable space group: P -1
;
_chemical_formula_sum "Si O2"
_cell_formula_units_Z 14
_cell_length_a 12.479966
_cell_length_b 9.275350
_cell_length_c 8.230366
_cell_angle_alpha 46.820063
_cell_angle_beta 50.054203
_cell_angle_gamma 62.231447
_cell_volume 532.013661
_symmetry_space_group_name_H-M "P -1"
_symmetry_group_IT_number 2
_symmetry_cell_setting 'triclinic'
loop_
_space_group_symop_operation_xyz
x,y,z
-x,-y,-z
loop_
_atom_site_type_symbol
_atom_site_label
_atom_site_fract_x
_atom_site_fract_y
_atom_site_fract_z
Si Si1 0.783431 0.203082 0.278655
Si Si2 0.761355 0.809452 0.121385
Si Si3 0.711400 0.777011 0.553749
Si Si4 0.161835 0.807159 0.385871
Si Si5 0.614470 0.568780 0.211861
Si Si6 0.932392 0.529097 0.718850
Si Si7 0.439726 0.825109 0.947722
O O1 0.791603 0.171839 0.489045
O O2 0.658543 0.364457 0.239397
O O3 0.756346 0.000035 0.372974
O O4 0.911041 0.323056 0.989251
O O5 0.770301 0.726597 0.357186
O O6 0.744909 0.642014 0.133188
O O7 0.615203 0.947279 0.165236
O O8 0.866847 0.973823 0.832462
O O9 0.542862 0.774586 0.736561
O O10 0.786541 0.644606 0.722387
O O11 0.030908 0.673745 0.606248
O O12 0.292579 0.724857 0.207672
O O13 0.500000 0.500000 0.500000
O O14 0.542138 0.753160 0.047013
O O15 0.000000 0.500000 0.500000
#
# Coordination Sequence:
#
# PCOD9034231 Si02
#       7
#     2   2   2   2   2   2   2
#     4  12  26  46  79 103 144 190 251 288 360 424
#     4  10  24  43  75 106 151 186 236 293 372 413
#     4  12  26  49  74 107 148 191 234 301 361 431
#     4  10  25  47  72 107 144 186 244 295 356 423
#     4  12  21  42  73 112 143 185 240 301 351 428
#     4  12  29  50  72 106 147 192 243 296 363 427
#     4  10  22  44  72 106 144 183 241 291 354 424
#
# _framework density 26.315113
#
# number of rings (size 3 to 8) (size 9 to 14) (size 15 to 20)
#    0.857    0.000    2.857    3.857    2.000    2.857 
#    0.000    2.143    0.000    0.000    0.000    0.000 
#    0.000    0.000    0.000    0.000    0.000    0.000 
#
# Total GULP energy -78353.943275 kJ/mol
# GULP energy per Si atom -5596.710234 kJ/mol
# Density = 2.625522 g / cm^3
# Si number density = 26.315113 Si / 1000 Ang^3
#
#
#
# Elastic Constant Matrix: (Units=GPa)
#
#
# Indices 1 2 3 4 5 6 
#
# 1 94.7154 26.8886 33.4860 -10.7983 14.4949 4.3887
# 2 26.8886 58.2144 22.2417 -14.4947 1.6072 -6.9436
# 3 33.4860 22.2417 166.1519 -3.6485 2.9930 6.8501
# 4 -10.7983 -14.4947 -3.6485 36.2811 -8.9122 -7.2437
# 5 14.4949 1.6072 2.9930 -8.9122 40.5567 3.9643
# 6 4.3887 -6.9436 6.8501 -7.2437 3.9643 41.4111
#
#
#
# Elastic Compliance Matrix: (Units=1/GPa)
#
#
# Indices 1 2 3 4 5 6 
#
# 1 0.013544 -0.005566 -0.001836 0.000252 -0.004272 -0.001612
# 2 -0.005566 0.023602 -0.002138 0.009474 0.002678 0.006302
# 3 -0.001836 -0.002138 0.006710 -0.000974 0.000174 -0.001461
# 4 0.000252 0.009474 -0.000974 0.034329 0.006455 0.007110
# 5 -0.004272 0.002678 0.000174 0.006455 0.027545 -0.000635
# 6 -0.001612 0.006302 -0.001461 0.007110 -0.000635 0.026922
#
#
# Mechanical properties :
#
#
# Convention : Reuss Voigt Hill
#
# Bulk Modulus (GPa) = 40.35905 53.81270 47.08587
# Shear Modulus (GPa) = 31.25164 39.41416 35.33290
#
# Velocity S-wave (km/s) = 3.44989 3.87431 3.66824
# Velocity P-wave (km/s) = 5.58919 6.36455 5.98943
#
# Compressibility (1/GPa) = 0.02477759
#
# Stress axis : x y z
#
# Youngs Moduli (GPa) = 73.83205 42.36900 149.02259
#
# Poissons Ratio (x) = 0.23584 0.27355
# Poissons Ratio (y) = 0.41097 0.31856
# Poissons Ratio (z) = 0.13553 0.09057
#
# Static dielectric constant tensor:
#      x y z
#    x 2.070960 -0.046200 -0.037920 
#    y -0.046200 2.069080 0.088920 
#    z -0.037920 0.088920 2.066450 
# 
# From -- ./inp_files/293883.got.cif
#   From: 2010.05.17/outbox.cif.g08.bks.cpg/sg2_147_cif.got.tgz:293883.got - 2010.06.03 11:33:40.
