data_PCOD9034757
_publ_section_title
;
Structure prediction by ZEFSAII (Michael W. Deem and Ramdas Pophale) SiO2 
 PCOD9034757
Probable space group: P -1
;
_chemical_formula_sum "Si O2"
_cell_formula_units_Z 14
_cell_length_a 15.656573
_cell_length_b 12.333061
_cell_length_c 22.321289
_cell_angle_alpha 27.670926
_cell_angle_beta 160.315798
_cell_angle_gamma 150.795046
_cell_volume 652.907460
_symmetry_space_group_name_H-M "P -1"
_symmetry_group_IT_number 2
_symmetry_cell_setting 'triclinic'
loop_
_space_group_symop_operation_xyz
x,y,z
-x,-y,-z
loop_
_atom_site_type_symbol
_atom_site_label
_atom_site_fract_x
_atom_site_fract_y
_atom_site_fract_z
Si Si1 0.584136 0.685918 0.277267
Si Si2 0.943262 0.218126 0.114730
Si Si3 0.441955 0.759428 0.844033
Si Si4 0.682974 0.819599 0.713547
Si Si5 0.056202 0.859792 0.046771
Si Si6 0.892054 0.976546 0.568509
Si Si7 0.081078 0.356138 0.364146
O O1 0.467603 0.436218 0.288535
O O2 0.705659 0.642888 0.443258
O O3 0.369690 0.843190 0.060035
O O4 0.830727 0.837257 0.330343
O O5 0.064726 0.087154 0.207907
O O6 0.114165 0.202547 0.293739
O O7 0.000000 0.500000 0.000000
O O8 0.210314 0.718841 0.761177
O O9 0.314849 0.864100 0.651782
O O10 0.500000 0.500000 0.000000
O O11 0.713007 0.965924 0.925285
O O12 0.797766 0.793307 0.867519
O O13 0.500000 0.000000 0.500000
O O14 0.124980 0.616521 0.234432
O O15 0.000000 0.000000 0.000000
O O16 0.894007 0.833177 0.578022
#
# Coordination Sequence:
#
# PCOD9034757 Si02
#       7
#     2   2   2   2   2   2   2
#     4  10  22  45  67  99 143 174 225 290 348 410
#     4  10  23  42  65  97 139 175 224 279 346 414
#     4  11  25  44  71 106 141 179 239 289 352 409
#     4  11  26  43  66  99 137 184 232 282 350 416
#     4  12  26  45  74 100 141 188 232 291 351 420
#     4  11  25  44  73 103 137 186 230 295 346 414
#     4  11  24  45  75 106 141 182 237 295 341 414
#
# _framework density 21.442547999999999
#
# number of rings (size 3 to 8) (size 9 to 14) (size 15 to 20)
#    0.000    1.143    1.429    4.714   12.000    0.571 
#    0.000    0.714    0.000    0.000    0.000    0.000 
#    0.000    0.000    0.000    0.000    0.000    0.000 
#
# Total GULP energy -78162.230651 kJ/mol
# GULP energy per Si atom -5583.016475 kJ/mol
# Density = 2.139374 g / cm^3
# Si number density = 21.442548 Si / 1000 Ang^3
#
#
#
# Elastic Constant Matrix: (Units=GPa)
#
#
# Indices 1 2 3 4 5 6 
#
# 1 86.2995 28.7568 55.2045 -1.2481 -15.7168 -21.7727
# 2 28.7568 106.9928 48.2276 -5.0539 -3.6937 0.6397
# 3 55.2045 48.2276 169.7497 -22.5213 -8.8521 -15.2058
# 4 -1.2481 -5.0539 -22.5213 48.5705 1.6298 -4.4157
# 5 -15.7168 -3.6937 -8.8521 1.6298 44.7047 -2.1560
# 6 -21.7727 0.6397 -15.2058 -4.4157 -2.1560 30.1853
#
#
#
# Elastic Compliance Matrix: (Units=1/GPa)
#
#
# Indices 1 2 3 4 5 6 
#
# 1 0.019631 -0.003323 -0.004092 -0.000818 0.006450 0.012510
# 2 -0.003323 0.011398 -0.002635 -0.000463 -0.000929 -0.004099
# 3 -0.004092 -0.002635 0.008659 0.003820 0.000017 0.002027
# 4 -0.000818 -0.000463 0.003820 0.022720 -0.000173 0.004655
# 5 0.006450 -0.000929 0.000017 -0.000173 0.024880 0.006432
# 6 0.012510 -0.004099 0.002027 0.004655 0.006432 0.044401
#
#
# Mechanical properties :
#
#
# Convention : Reuss Voigt Hill
#
# Bulk Modulus (GPa) = 51.04605 69.71330 60.37968
# Shear Modulus (GPa) = 31.58222 40.08231 35.83226
#
# Velocity S-wave (km/s) = 3.84197 4.32822 4.09232
# Velocity P-wave (km/s) = 6.59838 7.58684 7.10981
#
# Compressibility (1/GPa) = 0.01959015
#
# Stress axis : x y z
#
# Youngs Moduli (GPa) = 50.93892 87.73735 115.48111
#
# Poissons Ratio (x) = 0.29153 0.47252
# Poissons Ratio (y) = 0.16926 0.30425
# Poissons Ratio (z) = 0.20843 0.23116
#
# Static dielectric constant tensor:
#      x y z
#    x 1.846530 0.077780 0.009870 
#    y 0.077780 1.804060 0.028190 
#    z 0.009870 0.028190 1.800090 
# 
# From -- ./inp_files/380991.got.cif
#   From: 2010.05.17/outbox.cif.g08.bks.cpg/sg2_191_cif.got.tgz:380991.got - 2010.06.03 11:33:40.
