data_PCOD9034120
_publ_section_title
;
Structure prediction by ZEFSAII (Michael W. Deem and Ramdas Pophale) SiO2 
 PCOD9034120
Probable space group: P -1
;
_chemical_formula_sum "Si O2"
_cell_formula_units_Z 12
_cell_length_a 7.826798
_cell_length_b 14.542021
_cell_length_c 10.783448
_cell_angle_alpha 139.290315
_cell_angle_beta 41.572377
_cell_angle_gamma 124.689637
_cell_volume 531.182872
_symmetry_space_group_name_H-M "P -1"
_symmetry_group_IT_number 2
_symmetry_cell_setting 'triclinic'
loop_
_space_group_symop_operation_xyz
x,y,z
-x,-y,-z
loop_
_atom_site_type_symbol
_atom_site_label
_atom_site_fract_x
_atom_site_fract_y
_atom_site_fract_z
Si Si1 0.181396 0.047515 0.842180
Si Si2 0.902885 0.392409 0.712590
Si Si3 0.328865 0.368066 0.066627
Si Si4 0.423961 0.395782 0.321275
Si Si5 0.246040 0.041314 0.533875
Si Si6 0.912677 0.247437 0.810077
O O1 0.089615 0.021229 0.725700
O O2 0.450295 0.965990 0.621225
O O3 0.229077 0.214115 0.996076
O O4 0.000000 0.000000 0.000000
O O5 0.864583 0.545962 0.827999
O O6 0.965637 0.362405 0.791960
O O7 0.146877 0.329782 0.443324
O O8 0.603214 0.343789 0.823617
O O9 0.381377 0.445226 0.250415
O O10 0.500000 0.500000 0.500000
O O11 0.674373 0.298173 0.073041
O O12 0.168083 0.194748 0.684129
O O13 0.180680 0.901887 0.349210
#
# Coordination Sequence:
#
# PCOD9034120 Si02
#       6
#     2   2   2   2   2   2
#     4  11  24  43  72 100 132 180 227 273 332 400
#     4  10  22  44  71  92 138 176 215 286 333 390
#     4  10  23  45  67 100 135 175 226 273 337 399
#     4  11  24  41  65 102 136 175 222 272 336 401
#     4  10  23  45  67  97 136 176 224 272 332 398
#     4  10  23  45  67  97 135 176 224 274 335 395
#
# _framework density 22.591087999999999
#
# number of rings (size 3 to 8) (size 9 to 14) (size 15 to 20)
#    0.000    1.667    3.333    0.500    4.667    4.000 
#    3.000    3.333    0.000    0.000    0.000    0.000 
#    0.000    0.000    0.000    0.000    0.000    0.000 
#
# Total GULP energy -66897.045532 kJ/mol
# GULP energy per Si atom -5574.753794 kJ/mol
# Density = 2.253967 g / cm^3
# Si number density = 22.591088 Si / 1000 Ang^3
#
#
#
# Elastic Constant Matrix: (Units=GPa)
#
#
# Indices 1 2 3 4 5 6 
#
# 1 78.7574 47.9971 67.5734 18.2305 -12.5075 -29.6285
# 2 47.9971 105.4410 73.2141 -18.3966 -22.6201 -29.4479
# 3 67.5734 73.2141 168.0357 -13.5136 7.2487 -23.4801
# 4 18.2305 -18.3966 -13.5136 43.0323 1.3660 -7.0825
# 5 -12.5075 -22.6201 7.2487 1.3660 36.1179 16.9477
# 6 -29.6285 -29.4479 -23.4801 -7.0825 16.9477 30.6170
#
#
#
# Elastic Compliance Matrix: (Units=1/GPa)
#
#
# Indices 1 2 3 4 5 6 
#
# 1 0.039052 -0.008510 -0.012465 -0.022409 0.006172 0.011446
# 2 -0.008510 0.023113 -0.004586 0.013353 0.007535 0.009395
# 3 -0.012465 -0.004586 0.014708 0.008919 -0.012170 0.003605
# 4 -0.022409 0.013353 0.008919 0.043676 -0.008970 0.013066
# 5 0.006172 0.007535 -0.012170 -0.008970 0.049273 -0.025463
# 6 0.011446 0.009395 0.003605 0.013066 -0.025463 0.072657
#
#
# Mechanical properties :
#
#
# Convention : Reuss Voigt Hill
#
# Bulk Modulus (GPa) = 38.83627 81.08927 59.96277
# Shear Modulus (GPa) = 16.54607 32.85008 24.69807
#
# Velocity S-wave (km/s) = 2.70925 3.81743 3.31004
# Velocity P-wave (km/s) = 5.19760 7.44329 6.41941
#
# Compressibility (1/GPa) = 0.02574912
#
# Stress axis : x y z
#
# Youngs Moduli (GPa) = 25.60665 43.26649 67.98894
#
# Poissons Ratio (x) = 0.36821 0.84752
# Poissons Ratio (y) = 0.21792 0.31182
# Poissons Ratio (z) = 0.31920 0.19844
#
# Static dielectric constant tensor:
#      x y z
#    x 2.001050 -0.001590 0.046310 
#    y -0.001590 1.843720 0.025650 
#    z 0.046310 0.025650 1.827860 
# 
# From -- ./inp_files/396493.got.cif
#   From: 2010.05.17/outbox.cif.g08.bks.cpg/sg2_199_cif.got.tgz:396493.got - 2010.06.03 11:33:40.
