data_PCOD9034008
_publ_section_title
;
Structure prediction by ZEFSAII (Michael W. Deem and Ramdas Pophale) SiO2 
 PCOD9034008
Probable space group: P -1
;
_chemical_formula_sum "Si O2"
_cell_formula_units_Z 14
_cell_length_a 9.587743
_cell_length_b 14.313279
_cell_length_c 11.598335
_cell_angle_alpha 149.634201
_cell_angle_beta 121.586433
_cell_angle_gamma 52.830933
_cell_volume 641.150691
_symmetry_space_group_name_H-M "P -1"
_symmetry_group_IT_number 2
_symmetry_cell_setting 'triclinic'
loop_
_space_group_symop_operation_xyz
x,y,z
-x,-y,-z
loop_
_atom_site_type_symbol
_atom_site_label
_atom_site_fract_x
_atom_site_fract_y
_atom_site_fract_z
Si Si1 0.865386 0.423199 0.925972
Si Si2 0.987801 0.225304 0.241659
Si Si3 0.918870 0.730254 0.930197
Si Si4 0.702523 0.468018 0.548378
Si Si5 0.075504 0.867311 0.539833
Si Si6 0.256804 0.090762 0.414187
Si Si7 0.478448 0.317228 0.865836
O O1 0.888103 0.208443 0.655992
O O2 0.670394 0.575535 0.991550
O O3 0.000000 0.500000 0.000000
O O4 0.924382 0.405154 0.065055
O O5 0.022452 0.285845 0.193863
O O6 0.142419 0.204816 0.378148
O O7 0.805554 0.363324 0.365662
O O8 0.000000 0.000000 0.000000
O O9 0.753128 0.661720 0.793754
O O10 0.882374 0.946254 0.197261
O O11 0.500000 0.500000 0.500000
O O12 0.799199 0.318299 0.531651
O O13 0.879968 0.891794 0.522417
O O14 0.395307 0.193170 0.615143
O O15 0.354260 0.853544 0.189386
O O16 0.500000 0.500000 0.000000
#
# Coordination Sequence:
#
# PCOD9034008 Si02
#       7
#     2   2   2   2   2   2   2
#     4  12  23  46  72 100 140 182 233 287 347 408
#     4  11  23  47  74  99 139 188 228 284 343 421
#     4  12  24  46  76  97 137 193 231 276 358 415
#     4  11  25  45  70 105 142 177 231 288 347 416
#     4  11  23  47  70  99 133 188 231 283 345 412
#     4  10  22  44  70  99 139 171 230 285 337 408
#     4  11  24  42  70 105 132 177 230 285 341 404
#
# _framework density 21.835739
#
# number of rings (size 3 to 8) (size 9 to 14) (size 15 to 20)
#    0.000    0.857    5.714    2.571    0.000    1.714 
#    2.571    0.000    0.000    0.000    0.000    0.000 
#    0.000    0.000    0.000    0.000    0.000    0.000 
#
# Total GULP energy -78276.144519 kJ/mol
# GULP energy per Si atom -5591.153180 kJ/mol
# Density = 2.178604 g / cm^3
# Si number density = 21.835739 Si / 1000 Ang^3
#
#
#
# Elastic Constant Matrix: (Units=GPa)
#
#
# Indices 1 2 3 4 5 6 
#
# 1 115.1583 65.2001 56.4512 8.7715 3.7651 -13.5176
# 2 65.2001 95.0669 35.0809 3.1966 -17.9030 0.7431
# 3 56.4512 35.0809 140.3375 4.1418 6.5680 -1.5503
# 4 8.7715 3.1966 4.1418 38.7987 1.7913 -5.8265
# 5 3.7651 -17.9030 6.5680 1.7913 47.9437 3.5153
# 6 -13.5176 0.7431 -1.5503 -5.8265 3.5153 36.1407
#
#
#
# Elastic Compliance Matrix: (Units=1/GPa)
#
#
# Indices 1 2 3 4 5 6 
#
# 1 0.019143 -0.012809 -0.004081 -0.001403 -0.006234 0.007628
# 2 -0.012809 0.021423 -0.000714 -0.000169 0.009566 -0.006220
# 3 -0.004081 -0.000714 0.008988 -0.000082 -0.001099 -0.001032
# 4 -0.001403 -0.000169 -0.000082 0.026758 -0.001228 0.003908
# 5 -0.006234 0.009566 -0.001099 -0.001228 0.025501 -0.005254
# 6 0.007628 -0.006220 -0.001032 0.003908 -0.005254 0.031748
#
#
# Mechanical properties :
#
#
# Convention : Reuss Voigt Hill
#
# Bulk Modulus (GPa) = 69.70739 73.78079 71.74409
# Shear Modulus (GPa) = 28.81014 37.49868 33.15441
#
# Velocity S-wave (km/s) = 3.63630 4.14854 3.90083
# Velocity P-wave (km/s) = 7.04436 7.53721 7.29495
#
# Compressibility (1/GPa) = 0.01434568
#
# Stress axis : x y z
#
# Youngs Moduli (GPa) = 52.23966 46.67839 111.25809
#
# Poissons Ratio (x) = 0.59792 0.45401
# Poissons Ratio (y) = 0.66915 0.07945
# Poissons Ratio (z) = 0.21317 0.03333
#
# Static dielectric constant tensor:
#      x y z
#    x 1.803370 0.021610 0.000790 
#    y 0.021610 1.844030 0.002000 
#    z 0.000790 0.002000 1.861180 
# 
# From -- ./inp_files/190446.got.cif
#   From: 2010.05.17/outbox.cif.g08.bks.cpg/sg2_96_cif.got.tgz:190446.got - 2010.06.03 11:33:40.
