data_PCOD9034658
_publ_section_title
;
Structure prediction by ZEFSAII (Michael W. Deem and Ramdas Pophale) SiO2 
 PCOD9034658
Probable space group: P -1
;
_chemical_formula_sum "Si O2"
_cell_formula_units_Z 14
_cell_length_a 5.087828
_cell_length_b 8.489770
_cell_length_c 22.144116
_cell_angle_alpha 144.261967
_cell_angle_beta 90.717749
_cell_angle_gamma 101.533357
_cell_volume 521.229988
_symmetry_space_group_name_H-M "P -1"
_symmetry_group_IT_number 2
_symmetry_cell_setting 'triclinic'
loop_
_space_group_symop_operation_xyz
x,y,z
-x,-y,-z
loop_
_atom_site_type_symbol
_atom_site_label
_atom_site_fract_x
_atom_site_fract_y
_atom_site_fract_z
Si Si1 0.003626 0.650380 0.612196
Si Si2 0.294597 0.785167 0.351467
Si Si3 0.413142 0.393339 0.598281
Si Si4 0.512561 0.186608 0.772578
Si Si5 0.189179 0.764588 0.853355
Si Si6 0.370980 0.754208 0.076597
Si Si7 0.986286 0.260246 0.034875
O O1 0.183566 0.528713 0.620551
O O2 0.000000 0.500000 0.500000
O O3 0.692111 0.553843 0.608374
O O4 0.178621 0.997387 0.716515
O O5 0.478004 0.632334 0.341605
O O6 0.407167 0.892333 0.317977
O O7 0.989030 0.542670 0.269034
O O8 0.291048 0.060105 0.473088
O O9 0.626930 0.122796 0.817919
O O10 0.701022 0.528700 0.880428
O O11 0.235862 0.716473 0.908929
O O12 0.423486 0.971893 0.875990
O O13 0.983365 0.943747 0.921963
O O14 0.500000 0.500000 0.000000
O O15 0.102254 0.646743 0.999381
#
# Coordination Sequence:
#
# PCOD9034658 Si02
#       7
#     2   2   2   2   2   2   2
#     4  12  26  49  77 111 146 188 244 308 367 425
#     4  10  24  46  72 101 142 196 239 298 364 435
#     4  11  26  51  74 108 149 191 248 301 361 438
#     4  11  24  44  70 106 137 192 234 302 364 427
#     4  10  22  45  66  96 139 186 235 284 362 425
#     4  12  24  41  67 104 141 183 236 297 358 424
#     4  10  23  43  66  97 141 181 236 290 349 441
#
# _framework density 26.859544
#
# number of rings (size 3 to 8) (size 9 to 14) (size 15 to 20)
#    0.000    1.143    2.857    2.143    2.000    3.429 
#    5.143    0.000    0.000    0.000    0.000    0.000 
#    0.000    0.000    0.000    0.000    0.000    0.000 
#
# Total GULP energy -78305.783179 kJ/mol
# GULP energy per Si atom -5593.270227 kJ/mol
# Density = 2.679841 g / cm^3
# Si number density = 26.859544 Si / 1000 Ang^3
#
#
#
# Elastic Constant Matrix: (Units=GPa)
#
#
# Indices 1 2 3 4 5 6 
#
# 1 83.1044 17.4479 21.1158 3.2242 -2.8887 0.3865
# 2 17.4479 155.0181 39.5179 -24.3242 -3.0793 23.6323
# 3 21.1158 39.5179 139.5685 12.0300 24.7914 15.1805
# 4 3.2242 -24.3242 12.0300 73.4119 8.8801 5.0199
# 5 -2.8887 -3.0793 24.7914 8.8801 24.4986 5.5227
# 6 0.3865 23.6323 15.1805 5.0199 5.5227 38.0994
#
#
#
# Elastic Compliance Matrix: (Units=1/GPa)
#
#
# Indices 1 2 3 4 5 6 
#
# 1 0.013050 -0.001121 -0.002384 -0.001108 0.003968 0.001084
# 2 -0.001121 0.008630 -0.002625 0.003261 0.003610 -0.005249
# 3 -0.002384 -0.002625 0.010310 -0.001136 -0.010454 -0.000790
# 4 -0.001108 0.003261 -0.001136 0.015575 -0.003517 -0.003101
# 5 0.003968 0.003610 -0.010454 -0.003517 0.054858 -0.005603
# 6 0.001084 -0.005249 -0.000790 -0.003101 -0.005603 0.031027
#
#
# Mechanical properties :
#
#
# Convention : Reuss Voigt Hill
#
# Bulk Modulus (GPa) = 50.68873 59.31714 55.00294
# Shear Modulus (GPa) = 32.83274 47.17592 40.00433
#
# Velocity S-wave (km/s) = 3.50006 4.19548 3.86345
# Velocity P-wave (km/s) = 5.93689 6.75289 6.35799
#
# Compressibility (1/GPa) = 0.01972825
#
# Stress axis : x y z
#
# Youngs Moduli (GPa) = 76.62771 115.87622 96.99485
#
# Poissons Ratio (x) = 0.12994 0.23124
# Poissons Ratio (y) = 0.08593 0.25465
# Poissons Ratio (z) = 0.18268 0.30422
#
# Static dielectric constant tensor:
#      x y z
#    x 2.094410 0.034570 -0.010510 
#    y 0.034570 2.447630 0.033300 
#    z -0.010510 0.033300 2.086430 
# 
# From -- ./inp_files/603917.got.cif
#   From: 2010.05.17/outbox.cif.g08.bks.cpg/sg2_302_cif.got.tgz:603917.got - 2010.06.03 11:33:40.
