data_PCOD9034413
_publ_section_title
;
Structure prediction by ZEFSAII (Michael W. Deem and Ramdas Pophale) SiO2 
 PCOD9034413
Probable space group: P -1
;
_chemical_formula_sum "Si O2"
_cell_formula_units_Z 16
_cell_length_a 5.183169
_cell_length_b 8.516634
_cell_length_c 14.703134
_cell_angle_alpha 78.594352
_cell_angle_beta 86.560134
_cell_angle_gamma 87.694382
_cell_volume 634.812040
_symmetry_space_group_name_H-M "P -1"
_symmetry_group_IT_number 2
_symmetry_cell_setting 'triclinic'
loop_
_space_group_symop_operation_xyz
x,y,z
-x,-y,-z
loop_
_atom_site_type_symbol
_atom_site_label
_atom_site_fract_x
_atom_site_fract_y
_atom_site_fract_z
Si Si1 0.259770 0.295683 0.988551
Si Si2 0.540169 0.871307 0.228835
Si Si3 0.529187 0.508317 0.289527
Si Si4 0.954413 0.229356 0.308409
Si Si5 0.943836 0.960572 0.850445
Si Si6 0.790397 0.612678 0.540585
Si Si7 0.646685 0.938198 0.415669
Si Si8 0.233137 0.572406 0.109566
O O1 0.155370 0.130867 0.048566
O O2 0.259060 0.422231 0.057217
O O3 0.546645 0.305316 0.941527
O O4 0.051911 0.358376 0.911805
O O5 0.632734 0.687352 0.258713
O O6 0.492869 0.934929 0.325107
O O7 0.264722 0.899523 0.184059
O O8 0.766333 0.973205 0.166137
O O9 0.721135 0.359092 0.279791
O O10 0.442448 0.484504 0.398943
O O11 0.304354 0.517081 0.216014
O O12 0.066873 0.169549 0.216840
O O13 0.114716 0.307834 0.376228
O O14 0.862113 0.065102 0.374898
O O15 0.735573 0.759707 0.458494
O O16 0.000000 0.500000 0.500000
O O17 0.500000 0.000000 0.500000
#
# Coordination Sequence:
#
# PCOD9034413 Si02
#       8
#     2   2   2   2   2   2   2   2
#     4  10  22  44  74 108 142 180 246 290 353 425
#     4  11  28  45  70 104 151 191 234 301 361 430
#     4  12  28  46  67 107 149 187 237 296 376 417
#     4  11  26  42  74  99 141 187 243 300 350 427
#     4  11  25  48  75 105 143 193 239 295 360 422
#     4  12  27  43  72 100 144 191 239 298 362 431
#     4  11  23  45  67 102 134 187 252 292 350 417
#     4  10  24  40  73 111 143 184 231 306 349 428
#
# _framework density 25.204314
#
# number of rings (size 3 to 8) (size 9 to 14) (size 15 to 20)
#    0.000    1.000    1.250    3.375   19.250    1.000 
#    0.000    3.750    0.000    0.000    0.000    0.000 
#    0.000    0.000    0.000    0.000    0.000    0.000 
#
# Total GULP energy -89636.707758 kJ/mol
# GULP energy per Si atom -5602.294235 kJ/mol
# Density = 2.514695 g / cm^3
# Si number density = 25.204314 Si / 1000 Ang^3
#
#
#
# Elastic Constant Matrix: (Units=GPa)
#
#
# Indices 1 2 3 4 5 6 
#
# 1 82.2163 24.8797 23.5915 -5.6577 -5.0935 -2.3835
# 2 24.8797 110.4191 25.5487 -5.8353 -19.4503 -12.6205
# 3 23.5915 25.5487 120.2760 -7.7138 -19.6983 -0.9551
# 4 -5.6577 -5.8353 -7.7138 49.8236 -0.6390 -2.3121
# 5 -5.0935 -19.4503 -19.6983 -0.6390 33.6211 6.6261
# 6 -2.3835 -12.6205 -0.9551 -2.3121 6.6261 42.3189
#
#
#
# Elastic Compliance Matrix: (Units=1/GPa)
#
#
# Indices 1 2 3 4 5 6 
#
# 1 0.013602 -0.002634 -0.002171 0.000895 -0.000737 0.000096
# 2 -0.002634 0.011077 -0.000931 0.001030 0.005009 0.002406
# 3 -0.002171 -0.000931 0.009842 0.001191 0.005102 -0.000911
# 4 0.000895 0.001030 0.001191 0.020556 0.001572 0.001261
# 5 -0.000737 0.005009 0.005102 0.001572 0.036344 -0.004037
# 6 0.000096 0.002406 -0.000911 0.001261 -0.004037 0.025034
#
#
# Mechanical properties :
#
#
# Convention : Reuss Voigt Hill
#
# Bulk Modulus (GPa) = 43.38427 51.21681 47.30054
# Shear Modulus (GPa) = 36.87050 41.07881 38.97466
#
# Velocity S-wave (km/s) = 3.82889 4.04150 3.93663
# Velocity P-wave (km/s) = 6.06610 6.49177 6.28254
#
# Compressibility (1/GPa) = 0.02304983
#
# Stress axis : x y z
#
# Youngs Moduli (GPa) = 73.51984 90.27654 101.60103
#
# Poissons Ratio (x) = 0.23779 0.22057
# Poissons Ratio (y) = 0.19365 0.09456
# Poissons Ratio (z) = 0.15961 0.08402
#
# Static dielectric constant tensor:
#      x y z
#    x 2.031300 0.131030 0.016980 
#    y 0.131030 2.020430 0.068940 
#    z 0.016980 0.068940 1.962880 
# 
# From -- ./inp_files/480317.got.cif
#   From: 2010.05.17/outbox.cif.g08.bks.cpg/sg2_241_cif.got.tgz:480317.got - 2010.06.03 11:33:40.
