data_PCOD9034552
_publ_section_title
;
Structure prediction by ZEFSAII (Michael W. Deem and Ramdas Pophale) SiO2 
 PCOD9034552
Probable space group: P -1
;
_chemical_formula_sum "Si O2"
_cell_formula_units_Z 16
_cell_length_a 10.545493
_cell_length_b 10.592004
_cell_length_c 19.460534
_cell_angle_alpha 146.095407
_cell_angle_beta 142.697309
_cell_angle_gamma 43.661635
_cell_volume 721.844812
_symmetry_space_group_name_H-M "P -1"
_symmetry_group_IT_number 2
_symmetry_cell_setting 'triclinic'
loop_
_space_group_symop_operation_xyz
x,y,z
-x,-y,-z
loop_
_atom_site_type_symbol
_atom_site_label
_atom_site_fract_x
_atom_site_fract_y
_atom_site_fract_z
Si Si1 0.817868 0.392763 0.335193
Si Si2 0.671551 0.537488 0.533558
Si Si3 0.736432 0.095823 0.281248
Si Si4 0.620671 0.184915 0.970271
Si Si5 0.698107 0.374570 0.940256
Si Si6 0.493539 0.739375 0.398582
Si Si7 0.062558 0.099200 0.188995
Si Si8 0.971421 0.371510 0.856422
O O1 0.685253 0.250564 0.261829
O O2 0.641491 0.612223 0.343471
O O3 0.000000 0.500000 0.500000
O O4 0.942488 0.222247 0.258231
O O5 0.500000 0.500000 0.500000
O O6 0.791128 0.282010 0.444422
O O7 0.582069 0.667811 0.482238
O O8 0.818644 0.706837 0.703702
O O9 0.908230 0.885496 0.230080
O O10 0.537051 0.995166 0.176769
O O11 0.493592 0.407999 0.059488
O O12 0.857782 0.068643 0.042457
O O13 0.643309 0.282081 0.948561
O O14 0.773549 0.131702 0.824055
O O15 0.914401 0.479257 0.079632
O O16 0.271170 0.653661 0.262881
O O17 0.500000 0.000000 0.500000
O O18 0.000000 0.500000 0.000000
#
# Coordination Sequence:
#
# PCOD9034552 Si02
#       8
#     2   2   2   2   2   2   2   2
#     4  11  22  42  62  93 132 172 221 278 336 410
#     4  11  26  46  70 100 138 185 234 278 351 422
#     4  10  22  45  63  96 136 171 227 287 337 414
#     4  10  24  43  69  96 135 177 229 289 345 408
#     4  10  24  44  65  99 136 173 234 286 340 417
#     4  11  26  43  70  99 139 180 230 294 346 407
#     4  12  24  40  73  96 134 182 230 280 350 414
#     4  11  25  42  69  97 134 180 225 286 350 411
#
# _framework density 22.165429
#
# number of rings (size 3 to 8) (size 9 to 14) (size 15 to 20)
#    0.000    1.250    2.500    2.625   10.500    0.500 
#    0.000    0.625    0.000    0.000    0.000    0.000 
#    0.000    0.000    0.000    0.000    0.000    0.000 
#
# Total GULP energy -89085.089070 kJ/mol
# GULP energy per Si atom -5567.818067 kJ/mol
# Density = 2.211498 g / cm^3
# Si number density = 22.165429 Si / 1000 Ang^3
#
#
#
# Elastic Constant Matrix: (Units=GPa)
#
#
# Indices 1 2 3 4 5 6 
#
# 1 95.4217 30.0056 12.6368 12.2382 21.3269 -18.7052
# 2 30.0056 90.0456 39.0155 28.8737 0.5139 -28.8353
# 3 12.6368 39.0155 86.2737 8.5490 26.6068 -15.0135
# 4 12.2382 28.8737 8.5490 43.8066 -7.8225 -3.8569
# 5 21.3269 0.5139 26.6068 -7.8225 47.3644 11.3768
# 6 -18.7052 -28.8353 -15.0135 -3.8569 11.3768 44.3098
#
#
#
# Elastic Compliance Matrix: (Units=1/GPa)
#
#
# Indices 1 2 3 4 5 6 
#
# 1 0.016288 -0.002784 0.005281 -0.005291 -0.013514 0.009863
# 2 -0.002784 0.021570 -0.006853 -0.011138 0.000779 0.009371
# 3 0.005281 -0.006853 0.020948 -0.003254 -0.016743 0.008883
# 4 -0.005291 -0.011138 -0.003254 0.033554 0.012484 -0.010869
# 5 -0.013514 0.000779 -0.016743 0.012484 0.043701 -0.021005
# 6 0.009863 0.009371 0.008883 -0.010869 -0.021005 0.040287
#
#
# Mechanical properties :
#
#
# Convention : Reuss Voigt Hill
#
# Bulk Modulus (GPa) = 19.96159 48.33965 34.15062
# Shear Modulus (GPa) = 24.78214 39.76837 32.27526
#
# Velocity S-wave (km/s) = 3.34736 4.24035 3.82004
# Velocity P-wave (km/s) = 4.89541 6.76979 5.90741
#
# Compressibility (1/GPa) = 0.05009620
#
# Stress axis : x y z
#
# Youngs Moduli (GPa) = 61.39473 46.36042 47.73675
#
# Poissons Ratio (x) = 0.12906 -0.25212
# Poissons Ratio (y) = 0.17092 0.32712
# Poissons Ratio (z) = -0.32425 0.31769
#
# Static dielectric constant tensor:
#      x y z
#    x 1.883560 -0.032640 -0.062790 
#    y -0.032640 1.935240 0.017660 
#    z -0.062790 0.017660 1.821930 
# 
# From -- ./inp_files/610374.got.cif
#   From: 2010.05.17/outbox.cif.g08.bks.cpg/sg2_306_cif.got.tgz:610374.got - 2010.06.03 11:33:40.
