data_PCOD9034585
_publ_section_title
;
Structure prediction by ZEFSAII (Michael W. Deem and Ramdas Pophale) SiO2 
 PCOD9034585
Probable space group: P -1
;
_chemical_formula_sum "Si O2"
_cell_formula_units_Z 12
_cell_length_a 6.703759
_cell_length_b 13.794841
_cell_length_c 14.427924
_cell_angle_alpha 21.591219
_cell_angle_beta 112.543351
_cell_angle_gamma 114.923780
_cell_volume 445.113331
_symmetry_space_group_name_H-M "P -1"
_symmetry_group_IT_number 2
_symmetry_cell_setting 'triclinic'
loop_
_space_group_symop_operation_xyz
x,y,z
-x,-y,-z
loop_
_atom_site_type_symbol
_atom_site_label
_atom_site_fract_x
_atom_site_fract_y
_atom_site_fract_z
Si Si1 0.782676 0.805573 0.092402
Si Si2 0.502868 0.104844 0.510954
Si Si3 0.271224 0.842519 0.002995
Si Si4 0.154801 0.439024 0.869844
Si Si5 0.738825 0.465510 0.987853
Si Si6 0.242398 0.435604 0.519479
O O1 0.536052 0.872193 0.010225
O O2 0.792851 0.549651 0.389141
O O3 0.787306 0.753560 0.030362
O O4 0.000000 0.000000 0.000000
O O5 0.753525 0.268097 0.421089
O O6 0.500000 0.000000 0.500000
O O7 0.382460 0.843251 0.776189
O O8 0.355277 0.334455 0.275689
O O9 0.189285 0.654655 0.245058
O O10 0.101972 0.664424 0.061059
O O11 0.201362 0.130430 0.745651
O O12 0.280093 0.447714 0.982608
O O13 0.000000 0.500000 0.000000
O O14 0.500000 0.500000 0.500000
#
# Coordination Sequence:
#
# PCOD9034585 Si02
#       6
#     2   2   2   2   2   2
#     4  11  23  45  70 102 145 190 231 289 347 417
#     4  10  23  48  72 103 143 182 235 297 357 426
#     4  11  25  46  66 101 140 185 240 284 345 411
#     4  11  25  44  74 106 139 188 238 287 352 426
#     4  11  25  49  76 105 147 184 233 303 363 422
#     4  10  22  45  65  90 142 186 225 288 338 403
#
# _framework density 26.959426000000001
#
# number of rings (size 3 to 8) (size 9 to 14) (size 15 to 20)
#    0.000    1.333    1.667    4.500    2.333    4.667 
#    9.000    0.000    0.000    0.000    0.000    0.000 
#    0.000    0.000    0.000    0.000    0.000    0.000 
#
# Total GULP energy -66882.950106 kJ/mol
# GULP energy per Si atom -5573.579175 kJ/mol
# Density = 2.689807 g / cm^3
# Si number density = 26.959426 Si / 1000 Ang^3
#
#
#
# Elastic Constant Matrix: (Units=GPa)
#
#
# Indices 1 2 3 4 5 6 
#
# 1 151.0529 63.9308 53.8197 -17.2469 -19.1465 24.4860
# 2 63.9308 134.9191 37.9322 -13.8361 -10.8061 22.1888
# 3 53.8197 37.9322 175.7984 -24.3160 -3.4812 18.9887
# 4 -17.2469 -13.8361 -24.3160 48.8495 11.7218 -12.1014
# 5 -19.1465 -10.8061 -3.4812 11.7218 52.2938 -6.0715
# 6 24.4860 22.1888 18.9887 -12.1014 -6.0715 67.7991
#
#
#
# Elastic Compliance Matrix: (Units=1/GPa)
#
#
# Indices 1 2 3 4 5 6 
#
# 1 0.009304 -0.003421 -0.001842 0.000493 0.002300 -0.001431
# 2 -0.003421 0.009596 -0.000758 0.000667 0.000352 -0.001542
# 3 -0.001842 -0.000758 0.006826 0.002628 -0.001038 -0.000622
# 4 0.000493 0.000667 0.002628 0.023909 -0.004550 0.002728
# 5 0.002300 0.000352 -0.001038 -0.004550 0.021037 0.000417
# 6 -0.001431 -0.001542 -0.000622 0.002728 0.000417 0.016470
#
#
# Mechanical properties :
#
#
# Convention : Reuss Voigt Hill
#
# Bulk Modulus (GPa) = 73.07118 85.90398 79.48758
# Shear Modulus (GPa) = 48.19568 54.19432 51.19500
#
# Velocity S-wave (km/s) = 4.23272 4.48841 4.36244
# Velocity P-wave (km/s) = 7.14499 7.66775 7.41098
#
# Compressibility (1/GPa) = 0.01368529
#
# Stress axis : x y z
#
# Youngs Moduli (GPa) = 107.47994 104.21116 146.50197
#
# Poissons Ratio (x) = 0.35648 0.26986
# Poissons Ratio (y) = 0.36766 0.11098
# Poissons Ratio (z) = 0.19798 0.07894
#
# Static dielectric constant tensor:
#      x y z
#    x 2.263430 -0.002410 0.054660 
#    y -0.002410 2.269260 0.078670 
#    z 0.054660 0.078670 2.428930 
# 
# From -- ./inp_files/502472.got.cif
#   From: 2010.05.17/outbox.cif.g08.bks.cpg/sg2_252_cif.got.tgz:502472.got - 2010.06.03 11:33:40.
