data_PCOD9034665
_publ_section_title
;
Structure prediction by ZEFSAII (Michael W. Deem and Ramdas Pophale) SiO2 
 PCOD9034665
Probable space group: P -1
;
_chemical_formula_sum "Si O2"
_cell_formula_units_Z 16
_cell_length_a 17.079080
_cell_length_b 8.178800
_cell_length_c 6.791871
_cell_angle_alpha 100.088753
_cell_angle_beta 130.904342
_cell_angle_gamma 78.332329
_cell_volume 701.066499
_symmetry_space_group_name_H-M "P -1"
_symmetry_group_IT_number 2
_symmetry_cell_setting 'triclinic'
loop_
_space_group_symop_operation_xyz
x,y,z
-x,-y,-z
loop_
_atom_site_type_symbol
_atom_site_label
_atom_site_fract_x
_atom_site_fract_y
_atom_site_fract_z
Si Si1 0.336821 0.626430 0.747643
Si Si2 0.906990 0.447534 0.203149
Si Si3 0.760659 0.640747 0.698681
Si Si4 0.599280 0.869502 0.675397
Si Si5 0.525951 0.600636 0.760707
Si Si6 0.805119 0.980036 0.891214
Si Si7 0.157270 0.820123 0.671882
Si Si8 0.073078 0.829096 0.123223
O O1 0.250761 0.513769 0.492978
O O2 0.420699 0.652943 0.723034
O O3 0.272155 0.793614 0.759294
O O4 0.398163 0.520557 0.000353
O O5 0.845592 0.335455 0.220951
O O6 0.953968 0.329083 0.076437
O O7 0.000000 0.500000 0.500000
O O8 0.822461 0.581867 0.987561
O O9 0.640655 0.719882 0.558747
O O10 0.818672 0.800277 0.767848
O O11 0.578997 0.764224 0.814488
O O12 0.694913 0.976367 0.817343
O O13 0.500000 0.000000 0.500000
O O14 0.500000 0.500000 0.500000
O O15 0.872039 0.021113 0.201218
O O16 0.818705 0.122749 0.785662
O O17 0.080840 0.806509 0.362036
O O18 0.000000 0.000000 0.000000
#
# Coordination Sequence:
#
# PCOD9034665 Si02
#       8
#     2   2   2   2   2   2   2   2
#     4  11  24  40  69 100 128 176 230 276 326 399
#     4  11  26  45  71  98 135 175 224 284 340 400
#     4  10  22  45  66  98 135 173 226 278 331 396
#     4  10  23  39  68  93 136 180 214 270 338 394
#     4  11  23  40  68  95 136 173 227 275 328 396
#     4   9  25  43  65  92 142 170 218 274 341 391
#     4  11  25  42  69  95 130 179 216 272 350 388
#     4  11  26  44  68 101 132 173 227 276 337 413
#
# _framework density 22.822368999999998
#
# number of rings (size 3 to 8) (size 9 to 14) (size 15 to 20)
#    0.750    0.750    2.500    0.750    7.000    3.500 
#    0.000    1.250    0.000    0.000    0.000    0.000 
#    0.000    0.000    0.000    0.000    0.000    0.000 
#
# Total GULP energy -89154.279011 kJ/mol
# GULP energy per Si atom -5572.142438 kJ/mol
# Density = 2.277042 g / cm^3
# Si number density = 22.822369 Si / 1000 Ang^3
#
#
#
# Elastic Constant Matrix: (Units=GPa)
#
#
# Indices 1 2 3 4 5 6 
#
# 1 90.7077 17.4148 14.2273 2.6095 -4.0126 -8.4842
# 2 17.4148 48.7456 6.4618 1.6474 1.7532 -7.9618
# 3 14.2273 6.4618 89.9190 2.9249 -8.0675 3.3292
# 4 2.6095 1.6474 2.9249 38.5111 -0.4243 3.4311
# 5 -4.0126 1.7532 -8.0675 -0.4243 26.9866 -2.7538
# 6 -8.4842 -7.9618 3.3292 3.4311 -2.7538 39.7793
#
#
#
# Elastic Compliance Matrix: (Units=1/GPa)
#
#
# Indices 1 2 3 4 5 6 
#
# 1 0.012319 -0.003881 -0.001563 -0.000723 0.001827 0.002170
# 2 -0.003881 0.022802 -0.001320 -0.000973 -0.002082 0.003786
# 3 -0.001563 -0.001320 0.011822 -0.000583 0.003244 -0.001312
# 4 -0.000723 -0.000973 -0.000583 0.026330 -0.000067 -0.002576
# 5 0.001827 -0.002082 0.003244 -0.000067 0.038674 0.002385
# 6 0.002170 0.003786 -0.001312 -0.002576 0.002385 0.026857
#
#
# Mechanical properties :
#
#
# Convention : Reuss Voigt Hill
#
# Bulk Modulus (GPa) = 29.92610 33.95335 31.93972
# Shear Modulus (GPa) = 30.58646 33.80662 32.19654
#
# Velocity S-wave (km/s) = 3.66484 3.85293 3.76006
# Velocity P-wave (km/s) = 5.57218 5.89092 5.73377
#
# Compressibility (1/GPa) = 0.03341565
#
# Stress axis : x y z
#
# Youngs Moduli (GPa) = 81.17356 43.85528 84.58846
#
# Poissons Ratio (x) = 0.17019 0.13223
# Poissons Ratio (y) = 0.31501 0.11165
# Poissons Ratio (z) = 0.12690 0.05789
#
# Static dielectric constant tensor:
#      x y z
#    x 1.925970 -0.005590 0.047380 
#    y -0.005590 1.862830 0.038600 
#    z 0.047380 0.038600 1.875680 
# 
# From -- ./inp_files/107300.got.cif
#   From: 2010.05.17/outbox.cif.g08.bks.cpg/sg2_54_cif.got.tgz:107300.got - 2010.06.03 11:33:40.
