data_PCOD9034154
_publ_section_title
;
Structure prediction by ZEFSAII (Michael W. Deem and Ramdas Pophale) SiO2 
 PCOD9034154
Probable space group: P -1
;
_chemical_formula_sum "Si O2"
_cell_formula_units_Z 16
_cell_length_a 19.771309
_cell_length_b 17.084783
_cell_length_c 11.785848
_cell_angle_alpha 40.299679
_cell_angle_beta 158.419141
_cell_angle_gamma 150.519887
_cell_volume 696.084885
_symmetry_space_group_name_H-M "P -1"
_symmetry_group_IT_number 2
_symmetry_cell_setting 'triclinic'
loop_
_space_group_symop_operation_xyz
x,y,z
-x,-y,-z
loop_
_atom_site_type_symbol
_atom_site_label
_atom_site_fract_x
_atom_site_fract_y
_atom_site_fract_z
Si Si1 0.230677 0.821788 0.250482
Si Si2 0.206017 0.335919 0.095077
Si Si3 0.483665 0.945194 0.907403
Si Si4 0.446521 0.657970 0.234594
Si Si5 0.025993 0.508841 0.166436
Si Si6 0.009768 0.134144 0.807697
Si Si7 0.231519 0.339999 0.711291
Si Si8 0.987224 0.137908 0.343916
O O1 0.237686 0.692821 0.344474
O O2 0.500000 0.000000 0.500000
O O3 0.062167 0.823222 0.897207
O O4 0.064387 0.745003 0.189818
O O5 0.392585 0.526459 0.208377
O O6 0.300820 0.259629 0.395339
O O7 0.197703 0.300023 0.991106
O O8 0.259674 0.924262 0.532292
O O9 0.434255 0.780251 0.019211
O O10 0.500000 0.000000 0.000000
O O11 0.741183 0.070558 0.103774
O O12 0.229698 0.559909 0.099379
O O13 0.074129 0.394108 0.407431
O O14 0.000000 0.500000 0.000000
O O15 0.102427 0.185958 0.765690
O O16 0.000000 0.000000 0.000000
O O17 0.212988 0.282290 0.617501
O O18 0.500000 0.500000 0.000000
O O19 0.000000 0.000000 0.500000
#
# Coordination Sequence:
#
# PCOD9034154 Si02
#       8
#     2   2   2   2   2   2   2   2
#     4  11  25  45  73 108 145 189 239 299 374 446
#     4  10  24  43  69 104 138 190 237 293 369 434
#     4  12  23  45  73 102 141 190 246 301 365 437
#     4  10  22  44  71  97 142 182 242 295 359 442
#     4  11  23  47  74 100 140 192 242 301 371 438
#     4  12  27  46  75 105 148 195 254 311 366 438
#     4  12  29  48  71 111 148 197 249 305 377 446
#     4  12  27  46  73 109 152 193 242 308 380 446
#
# _framework density 22.985700999999999
#
# number of rings (size 3 to 8) (size 9 to 14) (size 15 to 20)
#    0.000    0.750    3.750    2.250    5.250    3.500 
#    0.000    0.000    0.000    0.000    0.000    0.000 
#    0.000    0.000    0.000    0.000    0.000    0.000 
#
# Total GULP energy -89534.166776 kJ/mol
# GULP energy per Si atom -5595.885423 kJ/mol
# Density = 2.293338 g / cm^3
# Si number density = 22.985701 Si / 1000 Ang^3
#
#
#
# Elastic Constant Matrix: (Units=GPa)
#
#
# Indices 1 2 3 4 5 6 
#
# 1 91.3500 13.0880 22.3987 8.0711 -14.6201 -5.9498
# 2 13.0880 102.8284 37.6243 -10.6543 -10.3216 -16.0834
# 3 22.3987 37.6243 105.5749 -3.0233 -6.7622 -12.2644
# 4 8.0711 -10.6543 -3.0233 52.5676 -2.4586 -1.2720
# 5 -14.6201 -10.3216 -6.7622 -2.4586 36.7195 5.8744
# 6 -5.9498 -16.0834 -12.2644 -1.2720 5.8744 42.4675
#
#
#
# Elastic Compliance Matrix: (Units=1/GPa)
#
#
# Indices 1 2 3 4 5 6 
#
# 1 0.012426 -0.000508 -0.002209 -0.001934 0.004226 0.000268
# 2 -0.000508 0.012098 -0.003616 0.002502 0.002182 0.003239
# 3 -0.002209 -0.003616 0.011426 0.000301 -0.000033 0.001634
# 4 -0.001934 0.002502 0.000301 0.019927 0.001131 0.001204
# 5 0.004226 0.002182 -0.000033 0.001131 0.030033 -0.002712
# 6 0.000268 0.003239 0.001634 0.001204 -0.002712 0.025695
#
#
# Mechanical properties :
#
#
# Convention : Reuss Voigt Hill
#
# Bulk Modulus (GPa) = 42.94749 49.55281 46.25015
# Shear Modulus (GPa) = 37.87040 41.46040 39.66540
#
# Velocity S-wave (km/s) = 4.06342 4.25166 4.15861
# Velocity P-wave (km/s) = 6.38281 6.76070 6.57447
#
# Compressibility (1/GPa) = 0.02328425
#
# Stress axis : x y z
#
# Youngs Moduli (GPa) = 80.47747 82.66160 87.52294
#
# Poissons Ratio (x) = 0.04196 0.19333
# Poissons Ratio (y) = 0.04085 0.31647
# Poissons Ratio (z) = 0.17777 0.29889
#
# Static dielectric constant tensor:
#      x y z
#    x 1.710690 -0.006390 0.035160 
#    y -0.006390 1.879620 0.024930 
#    z 0.035160 0.024930 1.879510 
# 
# From -- ./inp_files/472407.got.cif
#   From: 2010.05.17/outbox.cif.g08.bks.cpg/sg2_237_cif.got.tgz:472407.got - 2010.06.03 11:33:40.
