data_PCOD9034247
_publ_section_title
;
Structure prediction by ZEFSAII (Michael W. Deem and Ramdas Pophale) SiO2 
 PCOD9034247
Probable space group: P -1
;
_chemical_formula_sum "Si O2"
_cell_formula_units_Z 16
_cell_length_a 12.275276
_cell_length_b 8.787464
_cell_length_c 9.298017
_cell_angle_alpha 98.767350
_cell_angle_beta 104.093644
_cell_angle_gamma 34.950828
_cell_volume 555.264301
_symmetry_space_group_name_H-M "P -1"
_symmetry_group_IT_number 2
_symmetry_cell_setting 'triclinic'
loop_
_space_group_symop_operation_xyz
x,y,z
-x,-y,-z
loop_
_atom_site_type_symbol
_atom_site_label
_atom_site_fract_x
_atom_site_fract_y
_atom_site_fract_z
Si Si1 0.422231 0.417953 0.241630
Si Si2 0.503390 0.905057 0.337629
Si Si3 0.910968 0.561184 0.275624
Si Si4 0.353127 0.025648 0.994059
Si Si5 0.107433 0.654062 0.368063
Si Si6 0.870114 0.971758 0.832718
Si Si7 0.183323 0.861766 0.874406
Si Si8 0.630467 0.446416 0.368377
O O1 0.296086 0.434381 0.290252
O O2 0.271254 0.730458 0.219051
O O3 0.578075 0.332101 0.381550
O O4 0.532460 0.230722 0.110524
O O5 0.713698 0.722731 0.312626
O O6 0.364653 0.038920 0.173384
O O7 0.488499 0.747964 0.372499
O O8 0.500000 0.000000 0.500000
O O9 0.841415 0.702117 0.116232
O O10 0.022292 0.585925 0.379168
O O11 0.058738 0.253282 0.265716
O O12 0.201487 0.972878 0.016994
O O13 0.500000 0.000000 0.000000
O O14 0.180036 0.689118 0.519805
O O15 0.944597 0.920463 0.260584
O O16 0.076517 0.831371 0.897689
O O17 0.358452 0.592000 0.806168
#
# Coordination Sequence:
#
# PCOD9034247 Si02
#       8
#     2   2   2   2   2   2   2   2
#     4  11  26  50  78 115 154 205 266 323 382 462
#     4  11  27  49  78 117 159 206 254 321 397 467
#     4  11  25  52  82 115 158 200 265 325 384 465
#     4  10  25  48  83 117 156 200 262 323 384 469
#     4  11  27  45  77 113 159 207 256 321 396 459
#     4  10  23  45  78 112 150 192 262 320 396 445
#     4  10  22  44  72 109 152 197 252 324 388 462
#     4  12  25  47  75 106 158 209 265 314 387 466
#
# _framework density 28.815107999999999
#
# number of rings (size 3 to 8) (size 9 to 14) (size 15 to 20)
#    0.000    1.250    1.250    2.250   12.250    5.000 
#    9.000    0.000    2.750    0.000    0.000    0.000 
#    0.000    0.000    0.000    0.000    0.000    0.000 
#
# Total GULP energy -89342.972066 kJ/mol
# GULP energy per Si atom -5583.935754 kJ/mol
# Density = 2.874952 g / cm^3
# Si number density = 28.815108 Si / 1000 Ang^3
#
#
#
# Elastic Constant Matrix: (Units=GPa)
#
#
# Indices 1 2 3 4 5 6 
#
# 1 127.4624 38.4350 67.1260 26.5181 8.4551 -19.5283
# 2 38.4350 112.1837 76.6894 23.7828 3.2113 -1.4829
# 3 67.1260 76.6894 220.0673 30.9272 30.6303 15.7697
# 4 26.5181 23.7828 30.9272 69.7263 5.5852 -1.7017
# 5 8.4551 3.2113 30.6303 5.5852 72.8371 3.2633
# 6 -19.5283 -1.4829 15.7697 -1.7017 3.2633 47.5586
#
#
#
# Elastic Compliance Matrix: (Units=1/GPa)
#
#
# Indices 1 2 3 4 5 6 
#
# 1 0.011127 -0.001157 -0.003049 -0.002350 -0.000023 0.005461
# 2 -0.001157 0.012435 -0.003945 -0.002135 0.001362 0.001051
# 3 -0.003049 -0.003945 0.007559 -0.000745 -0.002426 -0.003742
# 4 -0.002350 -0.002135 -0.000745 0.016335 -0.000565 -0.000161
# 5 -0.000023 0.001362 -0.002426 -0.000565 0.014744 -0.000194
# 6 0.005461 0.001051 -0.003742 -0.000161 -0.000194 0.024550
#
#
# Mechanical properties :
#
#
# Convention : Reuss Voigt Hill
#
# Bulk Modulus (GPa) = 67.48018 91.57935 79.52976
# Shear Modulus (GPa) = 46.29945 56.52194 51.41069
#
# Velocity S-wave (km/s) = 4.01281 4.43373 4.22851
# Velocity P-wave (km/s) = 6.70368 7.61980 7.17637
#
# Compressibility (1/GPa) = 0.01481917
#
# Stress axis : x y z
#
# Youngs Moduli (GPa) = 89.87144 80.41921 132.28701
#
# Poissons Ratio (x) = 0.09305 0.40330
# Poissons Ratio (y) = 0.10399 0.52190
# Poissons Ratio (z) = 0.27399 0.31727
#
# Static dielectric constant tensor:
#      x y z
#    x 8.141110 5.091510 -1.435750 
#    y 5.091510 7.175120 -1.378220 
#    z -1.435750 -1.378220 2.681470 
# 
# From -- ./inp_files/516117.got.cif
#   From: 2010.05.17/outbox.cif.g08.bks.cpg/sg2_259_cif.got.tgz:516117.got - 2010.06.03 11:33:40.
