data_PCOD9034789
_publ_section_title
;
Structure prediction by ZEFSAII (Michael W. Deem and Ramdas Pophale) SiO2 
 PCOD9034789
Probable space group: P -1
;
_chemical_formula_sum "Si O2"
_cell_formula_units_Z 16
_cell_length_a 5.593011
_cell_length_b 18.718335
_cell_length_c 21.782305
_cell_angle_alpha 161.124933
_cell_angle_beta 71.228643
_cell_angle_gamma 112.476510
_cell_volume 675.574833
_symmetry_space_group_name_H-M "P -1"
_symmetry_group_IT_number 2
_symmetry_cell_setting 'triclinic'
loop_
_space_group_symop_operation_xyz
x,y,z
-x,-y,-z
loop_
_atom_site_type_symbol
_atom_site_label
_atom_site_fract_x
_atom_site_fract_y
_atom_site_fract_z
Si Si1 0.161678 0.060811 0.474537
Si Si2 0.937866 0.252826 0.535057
Si Si3 0.298089 0.113781 0.310972
Si Si4 0.599018 0.540957 0.839676
Si Si5 0.714370 0.800415 0.917904
Si Si6 0.744014 0.506323 0.563197
Si Si7 0.733461 0.955750 0.875133
Si Si8 0.525239 0.127376 0.790556
O O1 0.379848 0.300281 0.659967
O O2 0.983092 0.106328 0.470621
O O3 0.299224 0.867655 0.280653
O O4 0.000000 0.000000 0.500000
O O5 0.865840 0.470616 0.746054
O O6 0.184181 0.299047 0.507506
O O7 0.711497 0.093092 0.382643
O O8 0.578497 0.247989 0.372803
O O9 0.154636 0.022850 0.186515
O O10 0.311146 0.930866 0.212678
O O11 0.581201 0.695030 0.907226
O O12 0.578879 0.664906 0.006350
O O13 0.767398 0.603946 0.709633
O O14 0.502793 0.920485 0.002922
O O15 0.006100 0.953882 0.032353
O O16 0.626144 0.690412 0.686441
O O17 0.000000 0.500000 0.500000
#
# Coordination Sequence:
#
# PCOD9034789 Si02
#       8
#     2   2   2   2   2   2   2   2
#     4  10  24  45  68 106 148 178 224 284 355 432
#     4  10  23  42  71  99 134 187 229 295 347 426
#     4  11  24  45  67  96 137 183 240 295 358 429
#     4  11  24  42  74 100 135 187 239 288 357 421
#     4  12  27  48  70 101 141 185 250 301 357 441
#     4  12  28  46  67 100 139 191 239 305 382 422
#     4  12  27  46  71  98 141 185 240 311 365 426
#     4  10  22  45  68 104 136 182 237 288 346 425
#
# _framework density 23.683534000000002
#
# number of rings (size 3 to 8) (size 9 to 14) (size 15 to 20)
#    0.000    1.000    1.250    4.875    7.000    5.500 
#    0.000    1.250    0.000    0.000    0.000    0.000 
#    0.000    0.000    0.000    0.000    0.000    0.000 
#
# Total GULP energy -89467.730703 kJ/mol
# GULP energy per Si atom -5591.733169 kJ/mol
# Density = 2.362963 g / cm^3
# Si number density = 23.683534 Si / 1000 Ang^3
#
#
#
# Elastic Constant Matrix: (Units=GPa)
#
#
# Indices 1 2 3 4 5 6 
#
# 1 76.4793 28.2387 31.6999 -13.1077 -13.0440 9.0557
# 2 28.2387 109.0631 24.6519 -35.5554 0.2782 15.0275
# 3 31.6999 24.6519 125.1157 -44.4496 -11.7356 7.8566
# 4 -13.1077 -35.5554 -44.4496 46.4482 6.8168 -5.3336
# 5 -13.0440 0.2782 -11.7356 6.8168 42.6827 -7.9032
# 6 9.0557 15.0275 7.8566 -5.3336 -7.9032 28.1384
#
#
#
# Elastic Compliance Matrix: (Units=1/GPa)
#
#
# Indices 1 2 3 4 5 6 
#
# 1 0.016665 -0.004274 -0.004036 -0.003214 0.004272 -0.001364
# 2 -0.004274 0.014493 0.002595 0.012250 -0.003720 -0.005812
# 3 -0.004036 0.002595 0.013385 0.013507 0.000041 -0.001253
# 4 -0.003214 0.012250 0.013507 0.043343 -0.004713 -0.002387
# 5 0.004272 -0.003720 0.000041 -0.004713 0.026865 0.007253
# 6 -0.001364 -0.005812 -0.001253 -0.002387 0.007253 0.041016
#
#
# Mechanical properties :
#
#
# Convention : Reuss Voigt Hill
#
# Bulk Modulus (GPa) = 30.19805 53.31547 41.75676
# Shear Modulus (GPa) = 28.05304 38.52504 33.28904
#
# Velocity S-wave (km/s) = 3.44538 4.03756 3.75317
# Velocity P-wave (km/s) = 5.34845 6.65555 6.03748
#
# Compressibility (1/GPa) = 0.03311472
#
# Stress axis : x y z
#
# Youngs Moduli (GPa) = 60.00423 68.99928 74.71139
#
# Poissons Ratio (x) = 0.29488 0.30154
# Poissons Ratio (y) = 0.25644 -0.19391
# Poissons Ratio (z) = 0.24218 -0.17908
#
# Static dielectric constant tensor:
#      x y z
#    x 1.991240 -0.012290 -0.009550 
#    y -0.012290 1.874530 -0.021280 
#    z -0.009550 -0.021280 1.959550 
# 
# From -- ./inp_files/324245.got.cif
#   From: 2010.05.17/outbox.cif.g08.bks.cpg/sg2_163_cif.got.tgz:324245.got - 2010.06.03 11:33:40.
