data_PCOD9034401
_publ_section_title
;
Structure prediction by ZEFSAII (Michael W. Deem and Ramdas Pophale) SiO2 
 PCOD9034401
Probable space group: P -1
;
_chemical_formula_sum "Si O2"
_cell_formula_units_Z 12
_cell_length_a 11.793794
_cell_length_b 15.802182
_cell_length_c 6.473126
_cell_angle_alpha 105.803395
_cell_angle_beta 92.833571
_cell_angle_gamma 24.215740
_cell_volume 411.210950
_symmetry_space_group_name_H-M "P -1"
_symmetry_group_IT_number 2
_symmetry_cell_setting 'triclinic'
loop_
_space_group_symop_operation_xyz
x,y,z
-x,-y,-z
loop_
_atom_site_type_symbol
_atom_site_label
_atom_site_fract_x
_atom_site_fract_y
_atom_site_fract_z
Si Si1 0.825476 0.787633 0.724885
Si Si2 0.756514 0.626794 0.208155
Si Si3 0.500000 0.500000 0.000000
Si Si4 0.851356 0.098345 0.331303
Si Si5 0.915438 0.218738 0.137900
Si Si6 0.294688 0.472603 0.205411
Si Si7 0.500000 0.000000 0.500000
O O1 0.053519 0.556953 0.710860
O O2 0.865569 0.857567 0.852318
O O3 0.950104 0.694024 0.423857
O O4 0.470891 0.021857 0.781211
O O5 0.529030 0.867725 0.425371
O O6 0.616665 0.655803 0.058252
O O7 0.000000 0.500000 0.000000
O O8 0.427530 0.493696 0.760349
O O9 0.681035 0.449478 0.837924
O O10 0.929283 0.133860 0.250403
O O11 0.536270 0.294170 0.304935
O O12 0.000000 0.000000 0.500000
O O13 0.084991 0.843655 0.109985
#
# Coordination Sequence:
#
# PCOD9034401 Si02
#       7
#     2   2   1   2   2   2   1
#     4  12  27  49  79 114 153 205 266 325 395 464
#     4  12  27  55  77 114 157 205 267 331 391 464
#     4  10  22  44  74 104 152 198 242 306 384 458
#     4  10  24  41  68 108 149 200 252 305 384 467
#     4  10  23  42  66 105 147 196 251 309 379 464
#     4  11  25  47  77 110 157 199 252 322 383 471
#     4  12  28  50  82 114 152 208 270 328 398 460
#
# _framework density 29.182102
#
# number of rings (size 3 to 8) (size 9 to 14) (size 15 to 20)
#    0.000    1.000    3.333    1.500    4.667    4.667 
#    3.000    0.000    0.000    0.000    0.000    0.000 
#    0.000    0.000    0.000    0.000    0.000    0.000 
#
# Total GULP energy -66857.933164 kJ/mol
# GULP energy per Si atom -5571.494430 kJ/mol
# Density = 2.911568 g / cm^3
# Si number density = 29.182102 Si / 1000 Ang^3
#
#
#
# Elastic Constant Matrix: (Units=GPa)
#
#
# Indices 1 2 3 4 5 6 
#
# 1 160.0711 63.7752 69.0940 -26.3496 24.2549 13.9465
# 2 63.7752 272.0614 88.6764 -62.7853 8.0053 33.0545
# 3 69.0940 88.6764 128.9275 -57.2781 47.9863 6.9110
# 4 -26.3496 -62.7853 -57.2781 59.3922 -21.4189 -5.5727
# 5 24.2549 8.0053 47.9863 -21.4189 73.4075 -7.5550
# 6 13.9465 33.0545 6.9110 -5.5727 -7.5550 55.2516
#
#
#
# Elastic Compliance Matrix: (Units=1/GPa)
#
#
# Indices 1 2 3 4 5 6 
#
# 1 0.008384 -0.000687 -0.004555 -0.001648 -0.000337 -0.001348
# 2 -0.000687 0.005788 -0.002562 0.003915 0.002179 -0.002276
# 3 -0.004555 -0.002562 0.020173 0.011903 -0.007901 0.000279
# 4 -0.001648 0.003915 0.011903 0.032380 0.001794 0.000096
# 5 -0.000337 0.002179 -0.007901 0.001794 0.019454 0.002611
# 6 -0.001348 -0.002276 0.000279 0.000096 0.002611 0.020132
#
#
# Mechanical properties :
#
#
# Convention : Reuss Voigt Hill
#
# Bulk Modulus (GPa) = 53.37108 111.57238 82.47173
# Shear Modulus (GPa) = 39.01205 60.24456 49.62830
#
# Velocity S-wave (km/s) = 3.66026 4.54853 4.12836
# Velocity P-wave (km/s) = 6.01598 8.11799 7.14471
#
# Compressibility (1/GPa) = 0.01873674
#
# Stress axis : x y z
#
# Youngs Moduli (GPa) = 119.26838 172.77990 49.57052
#
# Poissons Ratio (x) = 0.11877 0.22578
# Poissons Ratio (y) = 0.08199 0.12701
# Poissons Ratio (z) = 0.54323 0.44271
#
# Static dielectric constant tensor:
#      x y z
#    x 2.421700 -0.513470 -0.004150 
#    y -0.513470 3.455560 0.140150 
#    z -0.004150 0.140150 2.752350 
# 
# From -- ./inp_files/37754.got.cif
#   From: 2010.05.17/outbox.cif.g08.bks.cpg/sg2_19_cif.got.tgz:37754.got - 2010.06.03 11:33:40.
