data_PCOD9034667
_publ_section_title
;
Structure prediction by ZEFSAII (Michael W. Deem and Ramdas Pophale) SiO2 
 PCOD9034667
Probable space group: P -1
;
_chemical_formula_sum "Si O2"
_cell_formula_units_Z 14
_cell_length_a 5.578768
_cell_length_b 11.889087
_cell_length_c 11.977458
_cell_angle_alpha 46.476701
_cell_angle_beta 81.729989
_cell_angle_gamma 70.210659
_cell_volume 537.348913
_symmetry_space_group_name_H-M "P -1"
_symmetry_group_IT_number 2
_symmetry_cell_setting 'triclinic'
loop_
_space_group_symop_operation_xyz
x,y,z
-x,-y,-z
loop_
_atom_site_type_symbol
_atom_site_label
_atom_site_fract_x
_atom_site_fract_y
_atom_site_fract_z
Si Si1 0.239358 0.239336 0.781905
Si Si2 0.337562 0.183044 0.354767
Si Si3 0.877596 0.363680 0.134557
Si Si4 0.080662 0.246978 0.543033
Si Si5 0.283365 0.858105 0.836320
Si Si6 0.737824 0.186628 0.882658
Si Si7 0.364558 0.510216 0.710521
O O1 0.045645 0.139602 0.890519
O O2 0.159087 0.298672 0.621179
O O3 0.549268 0.145852 0.833024
O O4 0.207068 0.386126 0.771410
O O5 0.060576 0.213657 0.299571
O O6 0.266733 0.275306 0.414094
O O7 0.494962 0.219635 0.216894
O O8 0.500000 0.000000 0.500000
O O9 0.864406 0.269688 0.086247
O O10 0.660048 0.447839 0.184870
O O11 0.000000 0.500000 0.000000
O O12 0.788611 0.334359 0.461873
O O13 0.141610 0.048977 0.685096
O O14 0.358721 0.847573 0.966395
O O15 0.643653 0.388512 0.741217
#
# Coordination Sequence:
#
# PCOD9034667 Si02
#       7
#     2   2   2   2   2   2   2
#     4  10  23  47  68 105 133 184 234 280 339 409
#     4   9  22  42  63  99 134 175 219 279 342 408
#     4  11  22  40  66  97 136 172 229 281 340 406
#     4  10  22  45  66  98 141 178 225 284 342 412
#     4  11  24  42  68 101 134 182 225 283 349 407
#     4  10  24  43  73  98 140 176 238 282 339 402
#     4   9  22  40  65 100 134 180 225 282 337 406
#
# _framework density 26.053834999999999
#
# number of rings (size 3 to 8) (size 9 to 14) (size 15 to 20)
#    0.857    1.143    0.000    2.143    2.000   11.429 
#   10.286    0.000    0.000    0.000    0.000    0.000 
#    0.000    0.000    0.000    0.000    0.000    0.000 
#
# Total GULP energy -78052.562264 kJ/mol
# GULP energy per Si atom -5575.183019 kJ/mol
# Density = 2.599453 g / cm^3
# Si number density = 26.053835 Si / 1000 Ang^3
#
#
#
# Elastic Constant Matrix: (Units=GPa)
#
#
# Indices 1 2 3 4 5 6 
#
# 1 69.1116 20.4529 21.6693 -3.4319 3.6574 4.1334
# 2 20.4529 111.4146 20.1334 9.2452 -0.4666 19.8665
# 3 21.6693 20.1334 104.4899 23.3098 7.7017 -1.6030
# 4 -3.4319 9.2452 23.3098 48.4240 -6.1937 2.9496
# 5 3.6574 -0.4666 7.7017 -6.1937 35.6425 3.6511
# 6 4.1334 19.8665 -1.6030 2.9496 3.6511 24.8891
#
#
#
# Elastic Compliance Matrix: (Units=1/GPa)
#
#
# Indices 1 2 3 4 5 6 
#
# 1 0.016639 -0.002398 -0.003788 0.003531 -0.000154 -0.001489
# 2 -0.002398 0.011405 -0.001789 -0.000739 0.001572 -0.008963
# 3 -0.003788 -0.001789 0.012560 -0.006737 -0.003954 0.004244
# 4 0.003531 -0.000739 -0.006737 0.025305 0.005921 -0.004298
# 5 -0.000154 0.001572 -0.003954 0.005921 0.030661 -0.006683
# 6 -0.001489 -0.008963 0.004244 -0.004298 -0.006683 0.049343
#
#
# Mechanical properties :
#
#
# Convention : Reuss Voigt Hill
#
# Bulk Modulus (GPa) = 40.55970 45.50302 43.03136
# Shear Modulus (GPa) = 29.39782 36.64183 33.01983
#
# Velocity S-wave (km/s) = 3.36273 3.75425 3.56387
# Velocity P-wave (km/s) = 5.53884 6.02457 5.78681
#
# Compressibility (1/GPa) = 0.02465501
#
# Stress axis : x y z
#
# Youngs Moduli (GPa) = 60.09867 87.67950 79.61786
#
# Poissons Ratio (x) = 0.21028 0.30158
# Poissons Ratio (y) = 0.14413 0.14240
# Poissons Ratio (z) = 0.22765 0.15682
#
# Static dielectric constant tensor:
#      x y z
#    x 2.296100 0.009970 -0.030670 
#    y 0.009970 2.053680 -0.058450 
#    z -0.030670 -0.058450 2.089250 
# 
# From -- ./inp_files/362688.got.cif
#   From: 2010.05.17/outbox.cif.g08.bks.cpg/sg2_182_cif.got.tgz:362688.got - 2010.06.03 11:33:40.
