data_PCOD9034831
_publ_section_title
;
Structure prediction by ZEFSAII (Michael W. Deem and Ramdas Pophale) SiO2 
 PCOD9034831
Probable space group: P -1
;
_chemical_formula_sum "Si O2"
_cell_formula_units_Z 12
_cell_length_a 10.615566
_cell_length_b 13.952516
_cell_length_c 9.054293
_cell_angle_alpha 125.000889
_cell_angle_beta 71.222668
_cell_angle_gamma 149.404103
_cell_volume 509.426353
_symmetry_space_group_name_H-M "P -1"
_symmetry_group_IT_number 2
_symmetry_cell_setting 'triclinic'
loop_
_space_group_symop_operation_xyz
x,y,z
-x,-y,-z
loop_
_atom_site_type_symbol
_atom_site_label
_atom_site_fract_x
_atom_site_fract_y
_atom_site_fract_z
Si Si1 0.399589 0.088066 0.208239
Si Si2 0.121315 0.347680 0.793352
Si Si3 0.404732 0.353554 0.550475
Si Si4 0.153598 0.750033 0.759767
Si Si5 0.596488 0.366727 0.770534
Si Si6 0.224011 0.863342 0.503502
O O1 0.367532 0.199548 0.351047
O O2 0.671482 0.233900 0.287735
O O3 0.155506 0.850373 0.187660
O O4 0.330131 0.986533 0.983341
O O5 0.177584 0.263016 0.629040
O O6 0.040676 0.365785 0.700187
O O7 0.350718 0.550383 0.007947
O O8 0.500000 0.500000 0.500000
O O9 0.565716 0.441186 0.719112
O O10 0.122318 0.771167 0.625673
O O11 0.873481 0.516482 0.745486
O O12 0.341972 0.084010 0.619999
O O13 0.500000 0.000000 0.500000
#
# Coordination Sequence:
#
# PCOD9034831 Si02
#       6
#     2   2   2   2   2   2
#     4  10  22  45  68  96 142 180 220 296 336 400
#     4  11  24  46  67  99 144 176 230 287 338 411
#     4  12  25  43  69 102 137 189 230 275 351 412
#     4  10  23  46  69 104 138 174 237 284 345 404
#     4  11  26  45  71 103 139 183 229 290 338 412
#     4  12  24  44  72 105 135 185 228 284 353 400
#
# _framework density 23.555907000000001
#
# number of rings (size 3 to 8) (size 9 to 14) (size 15 to 20)
#    0.000    1.000    3.333    2.000    2.333    4.667 
#    0.000    2.500    0.000    0.000    0.000    0.000 
#    0.000    0.000    0.000    0.000    0.000    0.000 
#
# Total GULP energy -66950.143140 kJ/mol
# GULP energy per Si atom -5579.178595 kJ/mol
# Density = 2.350229 g / cm^3
# Si number density = 23.555907 Si / 1000 Ang^3
#
#
#
# Elastic Constant Matrix: (Units=GPa)
#
#
# Indices 1 2 3 4 5 6 
#
# 1 109.4971 29.7599 62.6035 -14.2345 14.0013 9.2763
# 2 29.7599 78.8482 34.6162 -14.5846 6.0096 -6.3108
# 3 62.6035 34.6162 174.8713 -20.6247 18.6801 -21.8585
# 4 -14.2345 -14.5846 -20.6247 32.3142 0.3579 9.3764
# 5 14.0013 6.0096 18.6801 0.3579 37.0312 -20.7509
# 6 9.2763 -6.3108 -21.8585 9.3764 -20.7509 44.5005
#
#
#
# Elastic Compliance Matrix: (Units=1/GPa)
#
#
# Indices 1 2 3 4 5 6 
#
# 1 0.015694 -0.002907 -0.004762 0.006113 -0.009768 -0.011866
# 2 -0.002907 0.015276 -0.001302 0.004456 -0.000131 0.001133
# 3 -0.004762 -0.001302 0.008385 0.001236 0.000521 0.004909
# 4 0.006113 0.004456 0.001236 0.040696 -0.012016 -0.014213
# 5 -0.009768 -0.000131 0.000521 -0.012016 0.045032 0.025804
# 6 -0.011866 0.001133 0.004909 -0.014213 0.025804 0.042545
#
#
# Mechanical properties :
#
#
# Convention : Reuss Voigt Hill
#
# Bulk Modulus (GPa) = 46.70039 68.57511 57.63775
# Shear Modulus (GPa) = 25.94593 38.51833 32.23213
#
# Velocity S-wave (km/s) = 3.32243 4.04813 3.70310
# Velocity P-wave (km/s) = 5.88102 7.14316 6.54259
#
# Compressibility (1/GPa) = 0.02141310
#
# Stress axis : x y z
#
# Youngs Moduli (GPa) = 63.71696 65.46026 119.26524
#
# Poissons Ratio (x) = 0.19033 0.56791
# Poissons Ratio (y) = 0.18526 0.15528
# Poissons Ratio (z) = 0.30340 0.08523
#
# Static dielectric constant tensor:
#      x y z
#    x 1.942970 -0.051940 0.071190 
#    y -0.051940 1.902910 -0.015000 
#    z 0.071190 -0.015000 2.034860 
# 
# From -- ./inp_files/155693.got.cif
#   From: 2010.05.17/outbox.cif.g08.bks.cpg/sg2_78_cif.got.tgz:155693.got - 2010.06.03 11:33:40.
