data_PCOD9034017
_publ_section_title
;
Structure prediction by ZEFSAII (Michael W. Deem and Ramdas Pophale) SiO2 
 PCOD9034017
Probable space group: P -1
;
_chemical_formula_sum "Si O2"
_cell_formula_units_Z 16
_cell_length_a 19.229590
_cell_length_b 5.117923
_cell_length_c 8.855341
_cell_angle_alpha 62.029402
_cell_angle_beta 84.742330
_cell_angle_gamma 55.509882
_cell_volume 616.026557
_symmetry_space_group_name_H-M "P -1"
_symmetry_group_IT_number 2
_symmetry_cell_setting 'triclinic'
loop_
_space_group_symop_operation_xyz
x,y,z
-x,-y,-z
loop_
_atom_site_type_symbol
_atom_site_label
_atom_site_fract_x
_atom_site_fract_y
_atom_site_fract_z
Si Si1 0.418301 0.589052 0.397101
Si Si2 0.906380 0.372551 0.240332
Si Si3 0.677712 0.730019 0.561890
Si Si4 0.098143 0.623556 0.089598
Si Si5 0.739721 0.662716 0.241338
Si Si6 0.069317 0.578168 0.442852
Si Si7 0.248965 0.719966 0.066882
Si Si8 0.591934 0.921483 0.974407
O O1 0.500000 0.500000 0.500000
O O2 0.402349 0.281316 0.466163
O O3 0.342238 0.940794 0.415580
O O4 0.423903 0.716633 0.194010
O O5 0.833575 0.289030 0.281936
O O6 0.887168 0.533911 0.370482
O O7 0.899123 0.547946 0.028379
O O8 0.007615 0.026243 0.322417
O O9 0.719273 0.730993 0.400631
O O10 0.741687 0.340685 0.739483
O O11 0.110951 0.450704 0.301086
O O12 0.173338 0.683744 0.045972
O O13 0.000000 0.000000 0.000000
O O14 0.653915 0.755643 0.152372
O O15 0.754763 0.945974 0.088880
O O16 0.000000 0.500000 0.500000
O O17 0.344897 0.381143 0.080497
O O18 0.500000 0.000000 0.000000
#
# Coordination Sequence:
#
# PCOD9034017 Si02
#       8
#     2   2   2   2   2   2   2   2
#     4  11  24  47  69 107 150 193 257 319 384 461
#     4  10  23  43  65 104 141 185 249 292 379 455
#     4  11  26  45  73 107 147 202 247 318 389 457
#     4  10  22  44  70  99 143 188 242 305 376 450
#     4  12  25  44  74 102 144 196 244 311 382 455
#     4  10  23  44  67 107 143 185 248 309 372 463
#     4  11  25  48  66 106 148 184 254 309 377 458
#     4  11  25  45  72 103 143 194 252 310 374 456
#
# _framework density 25.972904
#
# number of rings (size 3 to 8) (size 9 to 14) (size 15 to 20)
#    0.000    1.250    2.500    1.875    7.000    2.000 
#   11.250    0.000    0.000    0.000    0.000    0.000 
#    0.000    0.000    0.000    0.000    0.000    0.000 
#
# Total GULP energy -89249.392060 kJ/mol
# GULP energy per Si atom -5578.087004 kJ/mol
# Density = 2.591379 g / cm^3
# Si number density = 25.972904 Si / 1000 Ang^3
#
#
#
# Elastic Constant Matrix: (Units=GPa)
#
#
# Indices 1 2 3 4 5 6 
#
# 1 142.1931 31.9353 6.0885 15.3495 7.9011 -13.6569
# 2 31.9353 54.3169 39.5458 19.1379 -3.9054 -3.6073
# 3 6.0885 39.5458 143.7594 52.8139 24.2467 7.5659
# 4 15.3495 19.1379 52.8139 42.7873 -0.4625 4.4028
# 5 7.9011 -3.9054 24.2467 -0.4625 47.6934 1.6676
# 6 -13.6569 -3.6073 7.5659 4.4028 1.6676 41.0068
#
#
#
# Elastic Compliance Matrix: (Units=1/GPa)
#
#
# Indices 1 2 3 4 5 6 
#
# 1 0.009501 -0.006724 0.004247 -0.005960 -0.004433 0.002609
# 2 -0.006724 0.029889 -0.009905 0.001182 0.008547 0.001743
# 3 0.004247 -0.009905 0.019033 -0.020680 -0.011381 -0.000285
# 4 -0.005960 0.001182 -0.020680 0.051055 0.012234 -0.004044
# 5 -0.004433 0.008547 -0.011381 0.012234 0.028344 -0.001091
# 6 0.002609 0.001743 -0.000285 -0.004044 -0.001091 0.025940
#
#
# Mechanical properties :
#
#
# Convention : Reuss Voigt Hill
#
# Bulk Modulus (GPa) = 29.70964 55.04540 42.37752
# Shear Modulus (GPa) = 25.03204 43.81082 34.42143
#
# Velocity S-wave (km/s) = 3.10784 4.11151 3.64439
# Velocity P-wave (km/s) = 4.93374 6.61655 5.83612
#
# Compressibility (1/GPa) = 0.03365911
#
# Stress axis : x y z
#
# Youngs Moduli (GPa) = 105.25008 33.45756 52.54134
#
# Poissons Ratio (x) = 0.22496 -0.22314
# Poissons Ratio (y) = 0.70768 0.52041
# Poissons Ratio (z) = -0.44699 0.33139
#
# Static dielectric constant tensor:
#      x y z
#    x 2.172260 -0.046810 0.185930 
#    y -0.046810 2.334260 -0.219750 
#    z 0.185930 -0.219750 2.208210 
# 
# From -- ./inp_files/323322.got.cif
#   From: 2010.05.17/outbox.cif.g08.bks.cpg/sg2_162_cif.got.tgz:323322.got - 2010.06.03 11:33:40.
