data_PCOD9034458
_publ_section_title
;
Structure prediction by ZEFSAII (Michael W. Deem and Ramdas Pophale) SiO2 
 PCOD9034458
Probable space group: P -1
;
_chemical_formula_sum "Si O2"
_cell_formula_units_Z 16
_cell_length_a 8.037556
_cell_length_b 12.575283
_cell_length_c 7.786682
_cell_angle_alpha 105.796496
_cell_angle_beta 99.621693
_cell_angle_gamma 54.500999
_cell_volume 616.506352
_symmetry_space_group_name_H-M "P -1"
_symmetry_group_IT_number 2
_symmetry_cell_setting 'triclinic'
loop_
_space_group_symop_operation_xyz
x,y,z
-x,-y,-z
loop_
_atom_site_type_symbol
_atom_site_label
_atom_site_fract_x
_atom_site_fract_y
_atom_site_fract_z
Si Si1 0.218872 0.208980 0.110893
Si Si2 0.385064 0.003259 0.738587
Si Si3 0.177870 0.255938 0.649040
Si Si4 0.183041 0.599294 0.551294
Si Si5 0.163763 0.661409 0.076514
Si Si6 0.539919 0.650394 0.285252
Si Si7 0.690954 0.205393 0.341890
Si Si8 0.667261 0.592385 0.830176
O O1 0.196665 0.349351 0.144674
O O2 0.379297 0.120669 0.250203
O O3 0.336146 0.109463 0.926820
O O4 0.984626 0.255135 0.071592
O O5 0.307630 0.095933 0.598596
O O6 0.245718 0.945383 0.717575
O O7 0.329203 0.297909 0.746333
O O8 0.052163 0.345782 0.500625
O O9 0.000932 0.295988 0.777583
O O10 0.309795 0.502840 0.688388
O O11 0.174714 0.734920 0.596454
O O12 0.305187 0.501520 0.367169
O O13 0.339610 0.682893 0.163825
O O14 0.281806 0.500028 0.037542
O O15 0.447361 0.736086 0.484508
O O16 0.556741 0.276113 0.179036
#
# Coordination Sequence:
#
# PCOD9034458 Si02
#       8
#     2   2   2   2   2   2   2   2
#     4   9  18  33  55  79 100 146 187 215 263 307
#     4   9  20  35  51  80 109 141 188 216 250 322
#     4  10  21  33  53  82 112 143 173 214 269 324
#     4  10  18  34  54  86 110 133 175 222 273 318
#     4  10  18  34  55  84 104 138 179 220 271 313
#     4  11  19  34  56  83 113 135 171 225 276 313
#     4  10  17  32  57  77 112 143 169 220 264 319
#     4   9  15  29  56  81 104 133 177 225 262 313
#
# _framework density 25.952691999999999
#
# number of rings (size 3 to 8) (size 9 to 14) (size 15 to 20)
#    0.000    2.250    3.750    1.500    0.000    1.000 
#    0.000    0.625    0.000   12.000   16.250    0.000 
#    0.000    0.000    0.000    0.000    0.000    0.000 
#
# Total GULP energy -89331.181910 kJ/mol
# GULP energy per Si atom -5583.198869 kJ/mol
# Density = 2.589362 g / cm^3
# Si number density = 25.952692 Si / 1000 Ang^3
#
#
#
# Elastic Constant Matrix: (Units=GPa)
#
#
# Indices 1 2 3 4 5 6 
#
# 1 134.2609 45.7693 51.2424 0.8119 22.5704 4.3015
# 2 45.7693 136.7746 49.7082 -17.2345 25.4758 27.0650
# 3 51.2424 49.7082 95.1068 -16.3379 22.8889 20.6961
# 4 0.8119 -17.2345 -16.3379 41.2064 -1.8661 9.6146
# 5 22.5704 25.4758 22.8889 -1.8661 59.1591 1.8093
# 6 4.3015 27.0650 20.6961 9.6146 1.8093 34.7182
#
#
#
# Elastic Compliance Matrix: (Units=1/GPa)
#
#
# Indices 1 2 3 4 5 6 
#
# 1 0.010953 -0.003216 -0.006483 -0.005709 -0.000668 0.006631
# 2 -0.003216 0.012174 -0.000161 0.007479 -0.003384 -0.010891
# 3 -0.006483 -0.000161 0.020082 0.011058 -0.004454 -0.013873
# 4 -0.005709 0.007479 0.011058 0.036804 -0.003496 -0.021725
# 5 -0.000668 -0.003384 -0.004454 -0.003496 0.020067 0.005299
# 6 0.006631 -0.010891 -0.013873 -0.021725 0.005299 0.050482
#
#
# Mechanical properties :
#
#
# Convention : Reuss Voigt Hill
#
# Bulk Modulus (GPa) = 42.57333 73.28690 57.93011
# Shear Modulus (GPa) = 28.07220 41.64490 34.85855
#
# Velocity S-wave (km/s) = 3.29244 4.01015 3.66889
# Velocity P-wave (km/s) = 5.55818 7.05278 6.34961
#
# Compressibility (1/GPa) = 0.02348888
#
# Stress axis : x y z
#
# Youngs Moduli (GPa) = 91.29516 82.14400 49.79551
#
# Poissons Ratio (x) = 0.26418 0.32285
# Poissons Ratio (y) = 0.29361 0.00800
# Poissons Ratio (z) = 0.59191 0.01320
#
# Static dielectric constant tensor:
#      x y z
#    x 2.111970 -0.054090 -0.078470 
#    y -0.054090 2.061220 -0.002850 
#    z -0.078470 -0.002850 2.231430 
# 
# From -- ./inp_files/390806.got.cif
#   From: 2010.05.17/outbox.cif.g08.bks.cpg/sg2_196_cif.got.tgz:390806.got - 2010.06.03 11:33:40.
