data_PCOD9034257
_publ_section_title
;
Structure prediction by ZEFSAII (Michael W. Deem and Ramdas Pophale) SiO2 
 PCOD9034257
Probable space group: P -1
;
_chemical_formula_sum "Si O2"
_cell_formula_units_Z 15
_cell_length_a 5.462234
_cell_length_b 19.835549
_cell_length_c 4.947338
_cell_angle_alpha 99.128286
_cell_angle_beta 90.800868
_cell_angle_gamma 76.508495
_cell_volume 514.485150
_symmetry_space_group_name_H-M "P -1"
_symmetry_group_IT_number 2
_symmetry_cell_setting 'triclinic'
loop_
_space_group_symop_operation_xyz
x,y,z
-x,-y,-z
loop_
_atom_site_type_symbol
_atom_site_label
_atom_site_fract_x
_atom_site_fract_y
_atom_site_fract_z
Si Si1 0.634421 0.042320 0.245053
Si Si2 0.883903 0.916403 0.565953
Si Si3 0.230229 0.792579 0.165466
Si Si4 0.500000 0.500000 0.000000
Si Si5 0.101711 0.461372 0.184929
Si Si6 0.983670 0.685398 0.910516
Si Si7 0.442196 0.242925 0.367639
Si Si8 0.447931 0.609205 0.534124
O O1 0.376014 0.101504 0.340295
O O2 0.893028 0.069835 0.220166
O O3 0.750742 0.988571 0.453951
O O4 0.500000 0.000000 0.000000
O O5 0.030280 0.860027 0.317146
O O6 0.474356 0.784623 0.353631
O O7 0.120308 0.723550 0.157336
O O8 0.332558 0.788377 0.859365
O O9 0.561649 0.427595 0.766795
O O10 0.182571 0.508759 0.954458
O O11 0.415830 0.448066 0.273951
O O12 0.000000 0.500000 0.500000
O O13 0.132918 0.378343 0.040847
O O14 0.180178 0.643587 0.672706
O O15 0.812513 0.752651 0.796078
O O16 0.418527 0.326970 0.446059
#
# Coordination Sequence:
#
# PCOD9034257 Si02
#       8
#     2   2   2   1   2   2   2   2
#     4  10  22  44  72 112 162 207 249 321 377 450
#     4  10  24  42  73 113 154 202 267 308 384 449
#     4  11  26  48  74 112 144 196 258 313 364 462
#     4  12  26  42  70  96 134 168 242 294 374 462
#     4  11  25  44  69  97 129 178 225 299 375 455
#     4  10  25  50  72  97 145 186 241 310 385 448
#     4  10  26  46  74 102 147 191 245 309 384 440
#     4  10  25  47  64 100 134 176 233 304 370 462
#
# _framework density 29.155360000000002
#
# number of rings (size 3 to 8) (size 9 to 14) (size 15 to 20)
#    0.000    1.600    0.000    1.600   11.200    6.400 
#    2.400    0.000    0.000    0.000    0.000    0.000 
#    0.000    0.000    0.000    0.000    0.000    0.000 
#
# Total GULP energy -83850.958299 kJ/mol
# GULP energy per Si atom -5590.063887 kJ/mol
# Density = 2.908900 g / cm^3
# Si number density = 29.155360 Si / 1000 Ang^3
#
#
#
# Elastic Constant Matrix: (Units=GPa)
#
#
# Indices 1 2 3 4 5 6 
#
# 1 216.9549 35.6220 60.5587 7.7718 26.1684 -44.5599
# 2 35.6220 138.5180 48.0429 8.4157 5.9720 -36.1452
# 3 60.5587 48.0429 213.1819 13.8776 15.2508 -10.0237
# 4 7.7718 8.4157 13.8776 56.5291 -7.5053 0.3088
# 5 26.1684 5.9720 15.2508 -7.5053 60.2963 7.0448
# 6 -44.5599 -36.1452 -10.0237 0.3088 7.0448 51.6510
#
#
#
# Elastic Compliance Matrix: (Units=1/GPa)
#
#
# Indices 1 2 3 4 5 6 
#
# 1 0.006685 0.000680 -0.001422 -0.001172 -0.003509 0.006453
# 2 0.000680 0.009748 -0.001826 -0.001379 -0.001825 0.007311
# 3 -0.001422 -0.001826 0.005546 -0.000962 -0.000568 -0.001345
# 4 -0.001172 -0.001379 -0.000962 0.018779 0.003549 -0.002759
# 5 -0.003509 -0.001825 -0.000568 0.003549 0.019706 -0.007123
# 6 0.006453 0.007311 -0.001345 -0.002759 -0.007123 0.030771
#
#
# Mechanical properties :
#
#
# Convention : Reuss Voigt Hill
#
# Bulk Modulus (GPa) = 59.36654 95.23354 77.30004
# Shear Modulus (GPa) = 49.02714 61.99071 55.50892
#
# Velocity S-wave (km/s) = 4.10516 4.61610 4.36811
# Velocity P-wave (km/s) = 6.54799 7.81960 7.21188
#
# Compressibility (1/GPa) = 0.01684451
#
# Stress axis : x y z
#
# Youngs Moduli (GPa) = 149.58969 102.58643 180.30426
#
# Poissons Ratio (x) = -0.06979 0.25631
# Poissons Ratio (y) = -0.10176 0.32923
# Poissons Ratio (z) = 0.21265 0.18732
#
# Static dielectric constant tensor:
#      x y z
#    x 2.614090 0.195000 -0.139540 
#    y 0.195000 2.466020 -0.197660 
#    z -0.139540 -0.197660 2.259740 
# 
# From -- ./inp_files/9382.got.cif
#   From: 2010.05.17/outbox.cif.g08.bks.cpg/sg2_5_cif.got.tgz:9382.got - 2010.06.03 11:33:40.
