data_PCOD9034965
_publ_section_title
;
Structure prediction by ZEFSAII (Michael W. Deem and Ramdas Pophale) SiO2 
 PCOD9034965
Probable space group: P -1
;
_chemical_formula_sum "Si O2"
_cell_formula_units_Z 16
_cell_length_a 18.111184
_cell_length_b 9.863167
_cell_length_c 13.795356
_cell_angle_alpha 119.286089
_cell_angle_beta 161.183093
_cell_angle_gamma 58.988277
_cell_volume 681.227762
_symmetry_space_group_name_H-M "P -1"
_symmetry_group_IT_number 2
_symmetry_cell_setting 'triclinic'
loop_
_space_group_symop_operation_xyz
x,y,z
-x,-y,-z
loop_
_atom_site_type_symbol
_atom_site_label
_atom_site_fract_x
_atom_site_fract_y
_atom_site_fract_z
Si Si1 0.819480 0.187902 0.499866
Si Si2 0.891634 0.681365 0.941961
Si Si3 0.755670 0.415497 0.319719
Si Si4 0.834094 0.119446 0.191882
Si Si5 0.418705 0.971193 0.695090
Si Si6 0.487788 0.165867 0.602735
Si Si7 0.171282 0.839525 0.187017
Si Si8 0.106319 0.268381 0.338860
O O1 0.737591 0.311342 0.356839
O O2 0.618972 0.152883 0.312435
O O3 0.937287 0.011120 0.555325
O O4 0.033491 0.255417 0.840684
O O5 0.629564 0.715602 0.587504
O O6 0.000000 0.500000 0.000000
O O7 0.041419 0.771534 0.088784
O O8 0.859531 0.289593 0.323111
O O9 0.889700 0.559036 0.555795
O O10 0.500000 0.500000 0.000000
O O11 0.720249 0.139855 0.949258
O O12 0.643791 0.049839 0.996584
O O13 0.394801 0.884384 0.531496
O O14 0.204087 0.123009 0.481202
O O15 0.298190 0.228750 0.475521
O O16 0.500000 0.000000 0.500000
O O17 0.143295 0.736746 0.021984
O O18 0.000000 0.000000 0.000000
#
# Coordination Sequence:
#
# PCOD9034965 Si02
#       8
#     2   2   2   2   2   2   2   2
#     4  11  23  39  65  94 123 169 219 258 308 380
#     4  10  19  31  56  93 118 155 205 252 312 365
#     4  12  23  41  65  90 129 175 211 258 321 378
#     4  11  23  41  64  95 131 166 214 258 311 381
#     4   9  19  37  64  94 122 163 211 259 316 374
#     4  10  17  32  57  89 122 157 199 255 305 368
#     4   8  15  30  55  85 117 155 198 245 302 371
#     4   9  18  36  61  90 125 168 205 256 317 373
#
# _framework density 23.487005
#
# number of rings (size 3 to 8) (size 9 to 14) (size 15 to 20)
#    0.000    2.000    3.750    2.625    0.000    0.500 
#    0.000    0.625    2.750    6.750    6.500    0.000 
#    0.000    0.000    0.000    0.000    0.000    0.000 
#
# Total GULP energy -89194.214382 kJ/mol
# GULP energy per Si atom -5574.638399 kJ/mol
# Density = 2.343355 g / cm^3
# Si number density = 23.487005 Si / 1000 Ang^3
#
#
#
# Elastic Constant Matrix: (Units=GPa)
#
#
# Indices 1 2 3 4 5 6 
#
# 1 69.8073 44.2260 32.8889 -6.6735 -20.0317 10.6858
# 2 44.2260 148.0235 51.5728 -0.0751 -33.2171 -10.7489
# 3 32.8889 51.5728 84.9603 4.4703 -20.6349 3.8245
# 4 -6.6735 -0.0751 4.4703 51.7388 -3.4251 -16.9224
# 5 -20.0317 -33.2171 -20.6349 -3.4251 41.5852 -3.3504
# 6 10.6858 -10.7489 3.8245 -16.9224 -3.3504 33.9409
#
#
#
# Elastic Compliance Matrix: (Units=1/GPa)
#
#
# Indices 1 2 3 4 5 6 
#
# 1 0.021562 -0.004449 -0.004387 0.001255 0.004222 -0.006661
# 2 -0.004449 0.011370 -0.004281 0.002580 0.005618 0.007325
# 3 -0.004387 -0.004281 0.016937 -0.002887 0.002385 -0.003087
# 4 0.001255 0.002580 -0.002887 0.024390 0.004316 0.013334
# 5 0.004222 0.005618 0.002385 0.004316 0.032554 0.005546
# 6 -0.006661 0.007325 -0.003087 0.013334 0.005546 0.041423
#
#
# Mechanical properties :
#
#
# Convention : Reuss Voigt Hill
#
# Bulk Modulus (GPa) = 42.30868 62.24073 52.27470
# Shear Modulus (GPa) = 27.42000 37.05986 32.23993
#
# Velocity S-wave (km/s) = 3.42051 3.97657 3.70898
# Velocity P-wave (km/s) = 5.80109 6.90230 6.37552
#
# Compressibility (1/GPa) = 0.02363581
#
# Stress axis : x y z
#
# Youngs Moduli (GPa) = 46.37795 87.94802 59.04212
#
# Poissons Ratio (x) = 0.39132 0.25899
# Poissons Ratio (y) = 0.20636 0.25275
# Poissons Ratio (z) = 0.20344 0.37649
#
# Static dielectric constant tensor:
#      x y z
#    x 2.058920 0.020090 0.054130 
#    y 0.020090 1.849210 0.059310 
#    z 0.054130 0.059310 2.034570 
# 
# From -- ./inp_files/540541.got.cif
#   From: 2010.05.17/outbox.cif.g08.bks.cpg/sg2_271_cif.got.tgz:540541.got - 2010.06.03 11:33:40.
