data_PCOD9034583
_publ_section_title
;
Structure prediction by ZEFSAII (Michael W. Deem and Ramdas Pophale) SiO2 
 PCOD9034583
Probable space group: P -1
;
_chemical_formula_sum "Si O2"
_cell_formula_units_Z 16
_cell_length_a 21.976506
_cell_length_b 12.058032
_cell_length_c 19.559160
_cell_angle_alpha 143.150777
_cell_angle_beta 13.083738
_cell_angle_gamma 142.837488
_cell_volume 697.789791
_symmetry_space_group_name_H-M "P -1"
_symmetry_group_IT_number 2
_symmetry_cell_setting 'triclinic'
loop_
_space_group_symop_operation_xyz
x,y,z
-x,-y,-z
loop_
_atom_site_type_symbol
_atom_site_label
_atom_site_fract_x
_atom_site_fract_y
_atom_site_fract_z
Si Si1 0.721777 0.376280 0.222134
Si Si2 0.872899 0.314986 0.886125
Si Si3 0.545059 0.205626 0.753680
Si Si4 0.461913 0.212387 0.159695
Si Si5 0.470072 0.122355 0.495452
Si Si6 0.923031 0.277260 0.172860
Si Si7 0.500810 0.544655 0.180323
Si Si8 0.036409 0.299355 0.332637
O O1 0.500000 0.500000 0.500000
O O2 0.596611 0.264076 0.368661
O O3 0.769574 0.250100 0.041913
O O4 0.000000 0.500000 0.000000
O O5 0.147324 0.229866 0.526861
O O6 0.955559 0.539342 0.912117
O O7 0.652935 0.282291 0.049801
O O8 0.596752 0.420623 0.773734
O O9 0.751813 0.181398 0.573924
O O10 0.586709 0.069859 0.578487
O O11 0.233584 0.189440 0.106496
O O12 0.534510 0.349569 0.082513
O O13 0.500000 0.000000 0.000000
O O14 0.711858 0.131880 0.290377
O O15 0.188462 0.187834 0.862004
O O16 0.723801 0.369387 0.487331
O O17 0.798388 0.663580 0.902272
O O18 0.000000 0.500000 0.500000
#
# Coordination Sequence:
#
# PCOD9034583 Si02
#       8
#     2   2   2   2   2   2   2   2
#     4  12  22  40  62  93 123 174 210 246 316 369
#     4  11  22  41  64  91 129 164 212 254 316 377
#     4  10  24  41  62  97 122 166 206 267 300 375
#     4  11  24  43  64  95 123 160 213 272 312 371
#     4  12  23  40  61  95 135 160 212 255 301 379
#     4  11  22  37  66  91 127 174 198 254 313 372
#     4   9  25  40  68  88 128 160 217 248 325 377
#     4  10  22  45  65  86 121 169 213 255 322 368
#
# _framework density 22.929539999999999
#
# number of rings (size 3 to 8) (size 9 to 14) (size 15 to 20)
#    0.750    0.500    2.500    3.750    5.250    1.000 
#    4.500    0.000    0.000    0.000    0.000    0.000 
#    0.000    0.000    0.000    0.000    0.000    0.000 
#
# Total GULP energy -89234.973980 kJ/mol
# GULP energy per Si atom -5577.185874 kJ/mol
# Density = 2.287735 g / cm^3
# Si number density = 22.929540 Si / 1000 Ang^3
#
#
#
# Elastic Constant Matrix: (Units=GPa)
#
#
# Indices 1 2 3 4 5 6 
#
# 1 64.0013 21.2665 36.1252 -13.4637 -17.0908 0.6844
# 2 21.2665 83.9624 32.3444 4.4336 -10.6732 -1.5950
# 3 36.1252 32.3444 147.9439 7.5610 -33.4993 1.4782
# 4 -13.4637 4.4336 7.5610 32.2271 3.4296 1.9103
# 5 -17.0908 -10.6732 -33.4993 3.4296 36.4636 -8.0207
# 6 0.6844 -1.5950 1.4782 1.9103 -8.0207 35.2105
#
#
#
# Elastic Compliance Matrix: (Units=1/GPa)
#
#
# Indices 1 2 3 4 5 6 
#
# 1 0.022817 -0.004144 -0.004145 0.010574 0.004687 0.000037
# 2 -0.004144 0.013940 -0.001576 -0.003492 0.001296 0.001263
# 3 -0.004145 -0.001576 0.010078 -0.004788 0.007655 0.001590
# 4 0.010574 -0.003492 -0.004788 0.037751 -0.004739 -0.003290
# 5 0.004687 0.001296 0.007655 -0.004739 0.039433 0.008886
# 6 0.000037 0.001263 0.001590 -0.003290 0.008886 0.030593
#
#
# Mechanical properties :
#
#
# Convention : Reuss Voigt Hill
#
# Bulk Modulus (GPa) = 36.89494 52.81996 44.85745
# Shear Modulus (GPa) = 27.26601 34.52502 30.89551
#
# Velocity S-wave (km/s) = 3.45211 3.88455 3.67469
# Velocity P-wave (km/s) = 5.65817 6.57308 6.13271
#
# Compressibility (1/GPa) = 0.02710399
#
# Stress axis : x y z
#
# Youngs Moduli (GPa) = 43.82699 71.73496 99.22447
#
# Poissons Ratio (x) = 0.29729 0.41128
# Poissons Ratio (y) = 0.18163 0.15642
# Poissons Ratio (z) = 0.18166 0.11309
#
# Static dielectric constant tensor:
#      x y z
#    x 1.899830 0.000400 0.004290 
#    y 0.000400 1.897180 -0.033400 
#    z 0.004290 -0.033400 1.925720 
# 
# From -- ./inp_files/614417.got.cif
#   From: 2010.05.17/outbox.cif.g08.bks.cpg/sg2_308_cif.got.tgz:614417.got - 2010.06.03 11:33:40.
