data_PCOD9034403
_publ_section_title
;
Structure prediction by ZEFSAII (Michael W. Deem and Ramdas Pophale) SiO2 
 PCOD9034403
Probable space group: P -1
;
_chemical_formula_sum "Si O2"
_cell_formula_units_Z 13
_cell_length_a 11.845301
_cell_length_b 22.119898
_cell_length_c 19.432028
_cell_angle_alpha 20.172582
_cell_angle_beta 29.912093
_cell_angle_gamma 20.161523
_cell_volume 600.742965
_symmetry_space_group_name_H-M "P -1"
_symmetry_group_IT_number 2
_symmetry_cell_setting 'triclinic'
loop_
_space_group_symop_operation_xyz
x,y,z
-x,-y,-z
loop_
_atom_site_type_symbol
_atom_site_label
_atom_site_fract_x
_atom_site_fract_y
_atom_site_fract_z
Si Si1 0.366877 0.328734 0.017326
Si Si2 0.778997 0.223700 0.682284
Si Si3 0.000000 0.500000 0.500000
Si Si4 0.593222 0.032936 0.082883
Si Si5 0.079064 0.809564 0.718521
Si Si6 0.250045 0.174194 0.576707
Si Si7 0.649136 0.232553 0.233558
O O1 0.362905 0.524190 0.842165
O O2 0.592908 0.167022 0.004658
O O3 0.000000 0.500000 0.000000
O O4 0.466204 0.130602 0.233428
O O5 0.500000 0.500000 0.500000
O O6 0.937527 0.247000 0.635287
O O7 0.633961 0.126776 0.893837
O O8 0.074585 0.002246 0.711750
O O9 0.181909 0.301322 0.550184
O O10 0.131767 0.267901 0.729588
O O11 0.246609 0.123776 0.169091
O O12 0.189284 0.827928 0.712304
O O13 0.000000 0.000000 0.500000
O O14 0.366435 0.248988 0.379233
O O15 0.500000 0.500000 0.000000
#
# Coordination Sequence:
#
# PCOD9034403 Si02
#       7
#     2   2   1   2   2   2   2
#     4   9  20  41  72 101 133 176 233 297 360 412
#     4  12  30  44  69 102 150 200 236 289 360 436
#     4  10  22  44  74 106 136 176 234 312 366 398
#     4  10  24  42  68 102 142 180 233 291 361 429
#     4  11  24  41  74 102 138 177 239 302 355 422
#     4  11  25  46  72 102 143 185 243 293 355 439
#     4  12  27  46  71 102 142 195 242 293 362 431
#
# _framework density 21.639869999999998
#
# number of rings (size 3 to 8) (size 9 to 14) (size 15 to 20)
#    0.000    1.231    0.000    5.077   10.769    5.538 
#    0.000    0.000    0.000    0.000    0.000    0.000 
#    0.000    0.000    0.000    0.000    0.000    0.000 
#
# Total GULP energy -72484.824031 kJ/mol
# GULP energy per Si atom -5575.755695 kJ/mol
# Density = 2.159062 g / cm^3
# Si number density = 21.639870 Si / 1000 Ang^3
#
#
#
# Elastic Constant Matrix: (Units=GPa)
#
#
# Indices 1 2 3 4 5 6 
#
# 1 33.3640 10.0515 17.8382 12.1260 7.1177 -10.5667
# 2 10.0515 70.3458 52.6165 -3.1464 -1.5380 2.9506
# 3 17.8382 52.6165 172.0487 -15.9601 28.7120 -9.3253
# 4 12.1260 -3.1464 -15.9601 46.8161 0.6047 -5.5056
# 5 7.1177 -1.5380 28.7120 0.6047 36.5551 -6.0752
# 6 -10.5667 2.9506 -9.3253 -5.5056 -6.0752 37.5780
#
#
#
# Elastic Compliance Matrix: (Units=1/GPa)
#
#
# Indices 1 2 3 4 5 6 
#
# 1 0.040324 -0.004884 -0.002430 -0.010502 -0.004503 0.008853
# 2 -0.004884 0.020548 -0.007145 -0.000314 0.006817 -0.003704
# 3 -0.002430 -0.007145 0.009934 0.003832 -0.007410 0.001706
# 4 -0.010502 -0.000314 0.003832 0.025567 -0.001138 0.001584
# 5 -0.004503 0.006817 -0.007410 -0.001138 0.034657 0.001796
# 6 0.008853 -0.003704 0.001706 0.001584 0.001796 0.030337
#
#
# Mechanical properties :
#
#
# Convention : Reuss Voigt Hill
#
# Bulk Modulus (GPa) = 23.87303 48.53009 36.20156
# Shear Modulus (GPa) = 24.47996 37.20665 30.84331
#
# Velocity S-wave (km/s) = 3.36705 4.15101 3.77941
# Velocity P-wave (km/s) = 5.11585 6.74162 5.98420
#
# Compressibility (1/GPa) = 0.04188828
#
# Stress axis : x y z
#
# Youngs Moduli (GPa) = 24.79891 48.66622 100.66398
#
# Poissons Ratio (x) = 0.23767 0.24463
# Poissons Ratio (y) = 0.12111 0.71927
# Poissons Ratio (z) = 0.06027 0.34773
#
# Static dielectric constant tensor:
#      x y z
#    x 1.777020 -0.002310 -0.022470 
#    y -0.002310 1.814600 -0.007870 
#    z -0.022470 -0.007870 1.765360 
# 
# From -- ./inp_files/245730.got.cif
#   From: 2010.05.17/outbox.cif.g08.bks.cpg/sg2_123_cif.got.tgz:245730.got - 2010.06.03 11:33:40.
