data_PCOD9034059
_publ_section_title
;
Structure prediction by ZEFSAII (Michael W. Deem and Ramdas Pophale) SiO2 
 PCOD9034059
Probable space group: P -1
;
_chemical_formula_sum "Si O2"
_cell_formula_units_Z 13
_cell_length_a 5.019201
_cell_length_b 16.688735
_cell_length_c 17.156113
_cell_angle_alpha 155.933140
_cell_angle_beta 55.238612
_cell_angle_gamma 122.680595
_cell_volume 480.646473
_symmetry_space_group_name_H-M "P -1"
_symmetry_group_IT_number 2
_symmetry_cell_setting 'triclinic'
loop_
_space_group_symop_operation_xyz
x,y,z
-x,-y,-z
loop_
_atom_site_type_symbol
_atom_site_label
_atom_site_fract_x
_atom_site_fract_y
_atom_site_fract_z
Si Si1 0.656598 0.596957 0.769336
Si Si2 0.331953 0.125388 0.574043
Si Si3 0.703501 0.772532 0.496820
Si Si4 0.303278 0.504408 0.146478
Si Si5 0.000000 0.500000 0.500000
Si Si6 0.141125 0.066909 0.118601
Si Si7 0.940536 0.126399 0.881807
O O1 0.523412 0.391570 0.565389
O O2 0.680528 0.543230 0.807007
O O3 0.002033 0.612908 0.686239
O O4 0.380060 0.749003 0.940769
O O5 0.463853 0.147955 0.482806
O O6 0.376413 0.354796 0.799409
O O7 0.500000 0.000000 0.500000
O O8 0.000000 0.000000 0.500000
O O9 0.006286 0.645146 0.305805
O O10 0.832530 0.949826 0.685887
O O11 0.203057 0.283977 0.938592
O O12 0.148004 0.300371 0.334378
O O13 0.960267 0.959954 0.127837
O O14 0.500000 0.000000 0.000000
O O15 0.000000 0.000000 0.000000
#
# Coordination Sequence:
#
# PCOD9034059 Si02
#       7
#     2   2   2   2   1   2   2
#     4  10  23  41  67 102 148 196 254 317 374 445
#     4  11  22  45  78 111 147 186 239 305 382 458
#     4  10  23  43  73 103 143 199 241 307 382 450
#     4  10  22  44  71 101 146 194 239 307 376 452
#     4  12  24  44  74 102 150 200 264 314 384 428
#     4  12  28  47  70 107 149 200 259 324 374 439
#     4  11  24  45  69 104 148 198 259 306 380 453
#
# _framework density 27.046904000000001
#
# number of rings (size 3 to 8) (size 9 to 14) (size 15 to 20)
#    0.000    1.231    3.077    1.846    2.154    4.308 
#    0.000    1.538    0.000    0.000    0.000    0.000 
#    0.000    0.000    0.000    0.000    0.000    0.000 
#
# Total GULP energy -72457.272197 kJ/mol
# GULP energy per Si atom -5573.636323 kJ/mol
# Density = 2.698534 g / cm^3
# Si number density = 27.046904 Si / 1000 Ang^3
#
#
#
# Elastic Constant Matrix: (Units=GPa)
#
#
# Indices 1 2 3 4 5 6 
#
# 1 150.2808 37.9162 50.6085 17.5490 6.2348 -23.7388
# 2 37.9162 86.2036 59.5705 19.6517 -11.6969 -41.6830
# 3 50.6085 59.5705 187.5430 56.3728 9.8795 -3.0460
# 4 17.5490 19.6517 56.3728 59.4037 1.1105 6.8385
# 5 6.2348 -11.6969 9.8795 1.1105 43.9849 5.1783
# 6 -23.7388 -41.6830 -3.0460 6.8385 5.1783 59.6571
#
#
#
# Elastic Compliance Matrix: (Units=1/GPa)
#
#
# Indices 1 2 3 4 5 6 
#
# 1 0.007999 -0.001524 -0.001300 -0.000859 -0.001494 0.002280
# 2 -0.001524 0.028401 -0.007437 -0.004177 0.007343 0.018699
# 3 -0.001300 -0.007437 0.009983 -0.006081 -0.003386 -0.004213
# 4 -0.000859 -0.004177 -0.006081 0.024977 0.000509 -0.006478
# 5 -0.001494 0.007343 -0.003386 0.000509 0.025400 0.002100
# 6 0.002280 0.018699 -0.004213 -0.006478 0.002100 0.031080
#
#
# Mechanical properties :
#
#
# Convention : Reuss Voigt Hill
#
# Bulk Modulus (GPa) = 38.67064 80.02420 59.34742
# Shear Modulus (GPa) = 31.85043 51.00462 41.42752
#
# Velocity S-wave (km/s) = 3.43534 4.34727 3.91793
# Velocity P-wave (km/s) = 5.48307 7.40606 6.51590
#
# Compressibility (1/GPa) = 0.02585941
#
# Stress axis : x y z
#
# Youngs Moduli (GPa) = 125.01349 35.21018 100.16806
#
# Poissons Ratio (x) = 0.05366 0.13026
# Poissons Ratio (y) = 0.19053 0.74499
# Poissons Ratio (z) = 0.16257 0.26187
#
# Static dielectric constant tensor:
#      x y z
#    x 2.033870 0.021780 0.103240 
#    y 0.021780 2.228180 0.115290 
#    z 0.103240 0.115290 2.146940 
# 
# From -- ./inp_files/142819.got.cif
#   From: 2010.05.17/outbox.cif.g08.bks.cpg/sg2_72_cif.got.tgz:142819.got - 2010.06.03 11:33:40.
