data_PCOD9034846
_publ_section_title
;
Structure prediction by ZEFSAII (Michael W. Deem and Ramdas Pophale) SiO2 
 PCOD9034846
Probable space group: P -1
;
_chemical_formula_sum "Si O2"
_cell_formula_units_Z 16
_cell_length_a 24.702650
_cell_length_b 5.210558
_cell_length_c 5.153885
_cell_angle_alpha 91.984965
_cell_angle_beta 113.936339
_cell_angle_gamma 78.390858
_cell_volume 593.104617
_symmetry_space_group_name_H-M "P -1"
_symmetry_group_IT_number 2
_symmetry_cell_setting 'triclinic'
loop_
_space_group_symop_operation_xyz
x,y,z
-x,-y,-z
loop_
_atom_site_type_symbol
_atom_site_label
_atom_site_fract_x
_atom_site_fract_y
_atom_site_fract_z
Si Si1 0.707684 0.288078 0.042976
Si Si2 0.587867 0.391607 0.097306
Si Si3 0.925583 0.168940 0.164574
Si Si4 0.034466 0.680359 0.248304
Si Si5 0.805947 0.026051 0.901150
Si Si6 0.769012 0.578218 0.543476
Si Si7 0.449031 0.840407 0.465016
Si Si8 0.355795 0.286067 0.452126
O O1 0.659275 0.267530 0.173069
O O2 0.753815 0.473399 0.231126
O O3 0.753615 0.035437 0.015505
O O4 0.665042 0.451522 0.747626
O O5 0.593985 0.668022 0.241055
O O6 0.556746 0.253373 0.256146
O O7 0.552590 0.380743 0.761978
O O8 0.937437 0.378135 0.411683
O O9 0.914317 0.276161 0.853362
O O10 0.871091 0.037749 0.145062
O O11 0.985209 0.944256 0.223996
O O12 0.000000 0.500000 0.000000
O O13 0.785748 0.305275 0.725430
O O14 0.810694 0.781128 0.707280
O O15 0.703672 0.740547 0.514662
O O16 0.385584 0.052046 0.318011
O O17 0.500000 0.000000 0.500000
#
# Coordination Sequence:
#
# PCOD9034846 Si02
#       8
#     2   2   2   2   2   2   2   2
#     4  10  23  45  70 101 133 191 229 286 355 430
#     4  11  24  46  67  95 137 174 224 281 347 421
#     4  10  24  41  68 102 137 182 236 291 347 414
#     4  10  22  45  68  98 136 189 236 285 352 414
#     4  11  25  44  66 111 143 184 237 297 351 423
#     4  10  25  42  70 101 144 185 233 288 358 424
#     4  12  27  43  70 102 133 176 230 290 349 416
#     4  10  24  44  69  96 132 184 224 282 349 423
#
# _framework density 26.976690000000001
#
# number of rings (size 3 to 8) (size 9 to 14) (size 15 to 20)
#    0.000    1.500    1.250    1.500   10.500    3.000 
#    0.000    0.000    0.000    0.000    0.000    0.000 
#    0.000    0.000    0.000    0.000    0.000    0.000 
#
# Total GULP energy -89475.351983 kJ/mol
# GULP energy per Si atom -5592.209499 kJ/mol
# Density = 2.691529 g / cm^3
# Si number density = 26.976690 Si / 1000 Ang^3
#
#
#
# Elastic Constant Matrix: (Units=GPa)
#
#
# Indices 1 2 3 4 5 6 
#
# 1 90.8020 5.8738 27.5120 -1.8878 -10.3101 -12.7872
# 2 5.8738 83.8057 33.8970 22.2361 -8.1904 -5.0050
# 3 27.5120 33.8970 188.6216 41.1062 -15.1489 10.1017
# 4 -1.8878 22.2361 41.1062 49.4817 11.0965 3.4263
# 5 -10.3101 -8.1904 -15.1489 11.0965 37.5221 9.1340
# 6 -12.7872 -5.0050 10.1017 3.4263 9.1340 28.4036
#
#
#
# Elastic Compliance Matrix: (Units=1/GPa)
#
#
# Indices 1 2 3 4 5 6 
#
# 1 0.012791 -0.000001 -0.002670 0.002214 0.000232 0.006366
# 2 -0.000001 0.014721 -0.000894 -0.007012 0.004352 0.002358
# 3 -0.002670 -0.000894 0.008246 -0.007509 0.005908 -0.005286
# 4 0.002214 -0.007012 -0.007509 0.032692 -0.014379 0.003112
# 5 0.000232 0.004352 0.005908 -0.014379 0.037082 -0.011420
# 6 0.006366 0.002358 -0.005286 0.003112 -0.011420 0.043665
#
#
# Mechanical properties :
#
#
# Convention : Reuss Voigt Hill
#
# Bulk Modulus (GPa) = 34.93247 55.31055 45.12151
# Shear Modulus (GPa) = 30.14417 42.81126 36.47772
#
# Velocity S-wave (km/s) = 3.34640 3.98800 3.68121
# Velocity P-wave (km/s) = 5.28285 6.46167 5.90176
#
# Compressibility (1/GPa) = 0.02862666
#
# Stress axis : x y z
#
# Youngs Moduli (GPa) = 78.18001 67.93238 121.27436
#
# Poissons Ratio (x) = 0.00007 0.32384
# Poissons Ratio (y) = 0.00008 0.10842
# Poissons Ratio (z) = 0.20876 0.06073
#
# Static dielectric constant tensor:
#      x y z
#    x 2.147430 0.062390 0.036220 
#    y 0.062390 2.111860 -0.048100 
#    z 0.036220 -0.048100 2.168330 
# 
# From -- ./inp_files/121440.got.cif
#   From: 2010.05.17/outbox.cif.g08.bks.cpg/sg2_61_cif.got.tgz:121440.got - 2010.06.03 11:33:40.
