data_PCOD9034138
_publ_section_title
;
Structure prediction by ZEFSAII (Michael W. Deem and Ramdas Pophale) SiO2 
 PCOD9034138
Probable space group: P -1
;
_chemical_formula_sum "Si O2"
_cell_formula_units_Z 16
_cell_length_a 24.966980
_cell_length_b 8.935910
_cell_length_c 15.521417
_cell_angle_alpha 30.356580
_cell_angle_beta 28.957163
_cell_angle_gamma 51.496615
_cell_volume 712.412036
_symmetry_space_group_name_H-M "P -1"
_symmetry_group_IT_number 2
_symmetry_cell_setting 'triclinic'
loop_
_space_group_symop_operation_xyz
x,y,z
-x,-y,-z
loop_
_atom_site_type_symbol
_atom_site_label
_atom_site_fract_x
_atom_site_fract_y
_atom_site_fract_z
Si Si1 0.956713 0.792403 0.753264
Si Si2 0.799327 0.180518 0.581290
Si Si3 0.712070 0.133826 0.371895
Si Si4 0.962566 0.781870 0.394299
Si Si5 0.803376 0.823412 0.256935
Si Si6 0.709180 0.787898 0.724059
Si Si7 0.541389 0.417121 0.729726
Si Si8 0.427598 0.535897 0.664567
O O1 0.046319 0.631215 0.714074
O O2 0.996090 0.009606 0.677410
O O3 0.804214 0.510825 0.100287
O O4 0.000000 0.000000 0.500000
O O5 0.762788 0.444840 0.539611
O O6 0.768914 0.094350 0.564054
O O7 0.713925 0.807335 0.935628
O O8 0.597606 0.156198 0.475754
O O9 0.791065 0.068910 0.219888
O O10 0.691583 0.884889 0.604324
O O11 0.000000 0.500000 0.500000
O O12 0.812318 0.664986 0.644592
O O13 0.056803 0.004231 0.071815
O O14 0.689838 0.691353 0.411349
O O15 0.559746 0.549614 0.084082
O O16 0.517334 0.541089 0.612072
O O17 0.500000 0.000000 0.000000
O O18 0.500000 0.500000 0.500000
#
# Coordination Sequence:
#
# PCOD9034138 Si02
#       8
#     2   2   2   2   2   2   2   2
#     4  11  22  40  69  97 136 180 226 285 343 408
#     4  10  22  44  71  96 134 186 228 278 350 420
#     4  12  26  42  68 105 141 176 234 290 345 413
#     4  11  26  45  71 106 142 183 238 288 353 417
#     4  12  26  43  71 104 140 180 234 290 351 411
#     4  10  23  46  71  97 137 186 232 280 353 411
#     4  11  23  46  73  96 138 186 230 284 350 414
#     4  11  24  42  70 101 135 180 239 280 345 418
#
# _framework density 22.458912999999999
#
# number of rings (size 3 to 8) (size 9 to 14) (size 15 to 20)
#    0.000    1.000    3.750    3.000    5.250    6.000 
#    0.000    0.000    0.000    0.000    0.000    0.000 
#    0.000    0.000    0.000    0.000    0.000    0.000 
#
# Total GULP energy -89198.978508 kJ/mol
# GULP energy per Si atom -5574.936157 kJ/mol
# Density = 2.240780 g / cm^3
# Si number density = 22.458913 Si / 1000 Ang^3
#
#
#
# Elastic Constant Matrix: (Units=GPa)
#
#
# Indices 1 2 3 4 5 6 
#
# 1 107.1748 54.3445 10.5562 2.4167 25.4294 -21.4747
# 2 54.3445 125.6546 16.6197 17.2488 13.1139 -21.5953
# 3 10.5562 16.6197 23.9176 16.9095 10.2716 -1.7589
# 4 2.4167 17.2488 16.9095 32.6723 1.5029 3.4434
# 5 25.4294 13.1139 10.2716 1.5029 39.3643 11.4692
# 6 -21.4747 -21.5953 -1.7589 3.4434 11.4692 32.1756
#
#
#
# Elastic Compliance Matrix: (Units=1/GPa)
#
#
# Indices 1 2 3 4 5 6 
#
# 1 0.017594 -0.003515 0.004508 -0.002691 -0.015798 0.015549
# 2 -0.003515 0.012182 0.000305 -0.006991 -0.003930 0.007996
# 3 0.004508 0.000305 0.088282 -0.047302 -0.031313 0.024263
# 4 -0.002691 -0.006991 -0.047302 0.060441 0.020790 -0.022953
# 5 -0.015798 -0.003930 -0.031313 0.020790 0.054995 -0.036722
# 6 0.015549 0.007996 0.024263 -0.022953 -0.036722 0.063697
#
#
# Mechanical properties :
#
#
# Convention : Reuss Voigt Hill
#
# Bulk Modulus (GPa) = 8.28816 46.64310 27.46563
# Shear Modulus (GPa) = 14.93370 32.52422 23.72896
#
# Velocity S-wave (km/s) = 2.58143 3.80961 3.25399
# Velocity P-wave (km/s) = 3.54731 6.33751 5.13554
#
# Compressibility (1/GPa) = 0.12065410
#
# Stress axis : x y z
#
# Youngs Moduli (GPa) = 56.83908 82.08644 11.32728
#
# Poissons Ratio (x) = 0.28852 -0.05106
# Poissons Ratio (y) = 0.19978 -0.00345
# Poissons Ratio (z) = -0.25623 -0.02502
#
# Static dielectric constant tensor:
#      x y z
#    x 2.019030 -0.013030 0.029660 
#    y -0.013030 1.868660 -0.018090 
#    z 0.029660 -0.018090 1.814190 
# 
# From -- ./inp_files/327410.got.cif
#   From: 2010.05.17/outbox.cif.g08.bks.cpg/sg2_164_cif.got.tgz:327410.got - 2010.06.03 11:33:40.
