data_PCOD9034407
_publ_section_title
;
Structure prediction by ZEFSAII (Michael W. Deem and Ramdas Pophale) SiO2 
 PCOD9034407
Probable space group: P -1
;
_chemical_formula_sum "Si O2"
_cell_formula_units_Z 14
_cell_length_a 12.995212
_cell_length_b 7.475557
_cell_length_c 12.469145
_cell_angle_alpha 62.061655
_cell_angle_beta 32.690261
_cell_angle_gamma 58.484094
_cell_volume 556.658501
_symmetry_space_group_name_H-M "P -1"
_symmetry_group_IT_number 2
_symmetry_cell_setting 'triclinic'
loop_
_space_group_symop_operation_xyz
x,y,z
-x,-y,-z
loop_
_atom_site_type_symbol
_atom_site_label
_atom_site_fract_x
_atom_site_fract_y
_atom_site_fract_z
Si Si1 0.529619 0.225621 0.381425
Si Si2 0.720885 0.788185 0.585391
Si Si3 0.890481 0.175310 0.691880
Si Si4 0.482892 0.720547 0.378005
Si Si5 0.096078 0.687195 0.600082
Si Si6 0.541827 0.772852 0.965330
Si Si7 0.222213 0.512654 0.979933
O O1 0.364173 0.311792 0.411390
O O2 0.513190 0.326170 0.485779
O O3 0.733415 0.262805 0.145285
O O4 0.500000 0.000000 0.500000
O O5 0.950284 0.782707 0.376868
O O6 0.578204 0.025340 0.645995
O O7 0.696566 0.723992 0.746559
O O8 0.663373 0.234555 0.905834
O O9 0.892452 0.297521 0.543275
O O10 0.958563 0.924607 0.680747
O O11 0.690699 0.624250 0.163752
O O12 0.301445 0.679267 0.480477
O O13 0.985278 0.524780 0.793464
O O14 0.626184 0.600799 0.028969
O O15 0.500000 0.000000 0.000000
#
# Coordination Sequence:
#
# PCOD9034407 Si02
#       7
#     2   2   2   2   2   2   2
#     4  10  25  44  58  80 122 168 196 235 293 346
#     4  10  20  38  60  85 126 158 184 234 302 355
#     4  10  17  32  56  93 126 146 179 240 303 352
#     4  10  20  39  63  86 116 154 200 244 282 345
#     4  10  18  31  60  94 118 144 190 247 297 335
#     4  12  18  33  62  97 120 142 192 248 297 346
#     4  12  21  36  65  92 112 153 203 244 288 342
#
# _framework density 25.150067
#
# number of rings (size 3 to 8) (size 9 to 14) (size 15 to 20)
#    0.000    1.429    5.714    1.286    0.000    1.143 
#    0.000    3.571    0.000    9.429    0.000    0.000 
#    0.000    0.000    0.000    0.000    0.000    0.000 
#
# Total GULP energy -78281.720068 kJ/mol
# GULP energy per Si atom -5591.551433 kJ/mol
# Density = 2.509282 g / cm^3
# Si number density = 25.150067 Si / 1000 Ang^3
#
#
#
# Elastic Constant Matrix: (Units=GPa)
#
#
# Indices 1 2 3 4 5 6 
#
# 1 104.5516 11.8504 29.0685 1.0213 11.5873 34.7802
# 2 11.8504 67.2923 18.2094 -17.4959 5.4843 20.5930
# 3 29.0685 18.2094 139.4264 -16.8849 -4.3061 18.5859
# 4 1.0213 -17.4959 -16.8849 39.4452 -8.9243 -0.3340
# 5 11.5873 5.4843 -4.3061 -8.9243 43.9074 -8.8455
# 6 34.7802 20.5930 18.5859 -0.3340 -8.8455 40.7684
#
#
#
# Elastic Compliance Matrix: (Units=1/GPa)
#
#
# Indices 1 2 3 4 5 6 
#
# 1 0.016146 0.002782 -0.002108 -0.002143 -0.008490 -0.016078
# 2 0.002782 0.021165 -0.000713 0.007853 -0.004607 -0.013675
# 3 -0.002108 -0.000713 0.008383 0.003767 0.001991 -0.001200
# 4 -0.002143 0.007853 0.003767 0.031832 0.005961 -0.002301
# 5 -0.008490 -0.004607 0.001991 0.005961 0.030067 0.015234
# 6 -0.016078 -0.013675 -0.001200 -0.002301 0.015234 0.048986
#
#
# Mechanical properties :
#
#
# Convention : Reuss Voigt Hill
#
# Bulk Modulus (GPa) = 21.92196 47.72521 34.82358
# Shear Modulus (GPa) = 29.09315 41.63366 35.36341
#
# Velocity S-wave (km/s) = 3.40484 4.07309 3.75386
# Velocity P-wave (km/s) = 4.91860 6.41385 5.71533
#
# Compressibility (1/GPa) = 0.04561635
#
# Stress axis : x y z
#
# Youngs Moduli (GPa) = 61.93544 47.24697 119.29601
#
# Poissons Ratio (x) = -0.13144 0.25148
# Poissons Ratio (y) = -0.17231 0.08502
# Poissons Ratio (z) = 0.13056 0.03367
#
# Static dielectric constant tensor:
#      x y z
#    x 1.942250 0.009780 0.013500 
#    y 0.009780 2.250640 -0.066530 
#    z 0.013500 -0.066530 1.975950 
# 
# From -- ./inp_files/200437.got.cif
#   From: 2010.05.17/outbox.cif.g08.bks.cpg/sg2_101_cif.got.tgz:200437.got - 2010.06.03 11:33:40.
