data_PCOD9034271
_publ_section_title
;
Structure prediction by ZEFSAII (Michael W. Deem and Ramdas Pophale) SiO2 
 PCOD9034271
Probable space group: P -1
;
_chemical_formula_sum "Si O2"
_cell_formula_units_Z 16
_cell_length_a 13.295471
_cell_length_b 8.668967
_cell_length_c 9.516169
_cell_angle_alpha 45.993633
_cell_angle_beta 107.779029
_cell_angle_gamma 94.177051
_cell_volume 735.520303
_symmetry_space_group_name_H-M "P -1"
_symmetry_group_IT_number 2
_symmetry_cell_setting 'triclinic'
loop_
_space_group_symop_operation_xyz
x,y,z
-x,-y,-z
loop_
_atom_site_type_symbol
_atom_site_label
_atom_site_fract_x
_atom_site_fract_y
_atom_site_fract_z
Si Si1 0.695245 0.930296 0.770025
Si Si2 0.041224 0.160408 0.564834
Si Si3 0.796527 0.574858 0.467745
Si Si4 0.854870 0.299473 0.207770
Si Si5 0.096390 0.930785 0.190255
Si Si6 0.513521 0.243629 0.403849
Si Si7 0.728274 0.642069 0.714988
Si Si8 0.336429 0.472793 0.824768
O O1 0.724213 0.864615 0.661584
O O2 0.811422 0.931832 0.881668
O O3 0.612575 0.159752 0.607277
O O4 0.642721 0.739805 0.933142
O O5 0.108009 0.295772 0.603669
O O6 0.970273 0.312796 0.319800
O O7 0.956212 0.059095 0.684364
O O8 0.123511 0.953657 0.667076
O O9 0.847195 0.319276 0.651192
O O10 0.760003 0.644412 0.565968
O O11 0.703223 0.605364 0.292005
O O12 0.764757 0.368525 0.245075
O O13 0.808743 0.455196 0.957466
O O14 0.000000 0.000000 0.000000
O O15 0.398109 0.374092 0.322930
O O16 0.566975 0.399378 0.228720
O O17 0.500000 0.000000 0.500000
#
# Coordination Sequence:
#
# PCOD9034271 Si02
#       8
#     2   2   2   2   2   2   2   2
#     4  10  23  44  71  96 129 175 225 264 326 395
#     4  11  24  39  65  97 132 178 216 272 318 392
#     4  12  25  40  64  97 139 165 220 271 332 389
#     4  10  23  42  65  93 132 170 229 258 322 390
#     4  12  24  41  66  95 137 177 215 270 333 389
#     4  10  22  44  72  95 131 168 224 273 330 384
#     4  10  25  41  65  97 127 172 215 277 322 389
#     4  11  23  45  68 100 129 174 216 275 324 398
#
# _framework density 21.753308000000001
#
# number of rings (size 3 to 8) (size 9 to 14) (size 15 to 20)
#    0.000    1.250    2.500    1.875   10.500    5.500 
#    0.000    0.625    0.000    0.000    0.000    0.000 
#    0.000    0.000    0.000    0.000    0.000    0.000 
#
# Total GULP energy -89285.668410 kJ/mol
# GULP energy per Si atom -5580.354276 kJ/mol
# Density = 2.170380 g / cm^3
# Si number density = 21.753308 Si / 1000 Ang^3
#
#
#
# Elastic Constant Matrix: (Units=GPa)
#
#
# Indices 1 2 3 4 5 6 
#
# 1 87.2874 10.9135 40.1385 -6.6468 2.9208 18.5954
# 2 10.9135 46.7288 17.9307 3.8973 -2.4715 8.8656
# 3 40.1385 17.9307 108.6224 7.2088 6.7452 -9.6578
# 4 -6.6468 3.8973 7.2088 33.2929 4.1585 0.4121
# 5 2.9208 -2.4715 6.7452 4.1585 37.7389 -10.3051
# 6 18.5954 8.8656 -9.6578 0.4121 -10.3051 35.1978
#
#
#
# Elastic Compliance Matrix: (Units=1/GPa)
#
#
# Indices 1 2 3 4 5 6 
#
# 1 0.018793 0.000709 -0.008428 0.006207 -0.004344 -0.013764
# 2 0.000709 0.024789 -0.004970 -0.001650 0.000505 -0.007815
# 3 -0.008428 -0.004970 0.014259 -0.004435 0.000986 0.009957
# 4 0.006207 -0.001650 -0.004435 0.033136 -0.005073 -0.005953
# 5 -0.004344 0.000505 0.000986 -0.005073 0.030359 0.011386
# 6 -0.013764 -0.007815 0.009957 -0.005953 0.011386 0.043787
#
#
# Mechanical properties :
#
#
# Convention : Reuss Voigt Hill
#
# Bulk Modulus (GPa) = 30.80454 42.28933 36.54693
# Shear Modulus (GPa) = 24.83562 32.82298 28.82930
#
# Velocity S-wave (km/s) = 3.38256 3.88864 3.64439
# Velocity P-wave (km/s) = 5.42653 6.29640 5.87758
#
# Compressibility (1/GPa) = 0.03246275
#
# Stress axis : x y z
#
# Youngs Moduli (GPa) = 53.20997 40.34063 70.12964
#
# Poissons Ratio (x) = -0.02858 0.59102
# Poissons Ratio (y) = -0.03770 0.34858
# Poissons Ratio (z) = 0.44843 0.20051
#
# Static dielectric constant tensor:
#      x y z
#    x 1.840130 0.053470 0.025170 
#    y 0.053470 1.822930 0.043110 
#    z 0.025170 0.043110 1.845340 
# 
# From -- ./inp_files/242149.got.cif
#   From: 2010.05.17/outbox.cif.g08.bks.cpg/sg2_122_cif.got.tgz:242149.got - 2010.06.03 11:33:40.
