data_PCOD9034051
_publ_section_title
;
Structure prediction by ZEFSAII (Michael W. Deem and Ramdas Pophale) SiO2 
 PCOD9034051
Probable space group: P -1
;
_chemical_formula_sum "Si O2"
_cell_formula_units_Z 16
_cell_length_a 11.718667
_cell_length_b 14.142925
_cell_length_c 19.683570
_cell_angle_alpha 31.537466
_cell_angle_beta 29.605774
_cell_angle_gamma 50.360357
_cell_volume 773.028567
_symmetry_space_group_name_H-M "P -1"
_symmetry_group_IT_number 2
_symmetry_cell_setting 'triclinic'
loop_
_space_group_symop_operation_xyz
x,y,z
-x,-y,-z
loop_
_atom_site_type_symbol
_atom_site_label
_atom_site_fract_x
_atom_site_fract_y
_atom_site_fract_z
Si Si1 0.116556 0.691819 0.500075
Si Si2 0.048198 0.228850 0.323584
Si Si3 0.431387 0.143160 0.019412
Si Si4 0.823667 0.390180 0.223634
Si Si5 0.559825 0.485092 0.853608
Si Si6 0.423283 0.172719 0.457766
Si Si7 0.833287 0.973659 0.901454
Si Si8 0.423755 0.401363 0.673313
O O1 0.310578 0.595025 0.437679
O O2 0.085170 0.696804 0.594315
O O3 0.843672 0.579973 0.676298
O O4 0.242860 0.925622 0.274858
O O5 0.953000 0.270247 0.274099
O O6 0.344559 0.367078 0.091113
O O7 0.000000 0.000000 0.500000
O O8 0.285600 0.172274 0.011614
O O9 0.510735 0.318154 0.924114
O O10 0.687755 0.117478 0.884748
O O11 0.567103 0.253432 0.403522
O O12 0.735917 0.511001 0.250966
O O13 0.000000 0.500000 0.000000
O O14 0.503719 0.658565 0.740521
O O15 0.500000 0.000000 0.500000
O O16 0.125828 0.089005 0.672919
O O17 0.748510 0.833625 0.096490
O O18 0.500000 0.500000 0.500000
#
# Coordination Sequence:
#
# PCOD9034051 Si02
#       8
#     2   2   2   2   2   2   2   2
#     4  11  24  46  72 108 143 188 242 306 368 440
#     4  12  26  46  74 104 152 198 246 304 373 439
#     4  10  22  44  71 101 139 184 235 301 361 429
#     4  12  26  48  76 104 144 202 247 298 376 444
#     4  12  25  43  76 102 144 192 246 300 368 440
#     4  12  27  42  70 107 143 188 253 305 358 448
#     4  10  23  43  67 100 143 182 237 302 356 433
#     4  11  24  47  73 102 144 191 242 301 378 436
#
# _framework density 20.697813
#
# number of rings (size 3 to 8) (size 9 to 14) (size 15 to 20)
#    0.000    0.750    5.000    1.875    5.250    0.500 
#    2.250    0.625    0.000    0.000    0.000    0.000 
#    0.000    0.000    0.000    0.000    0.000    0.000 
#
# Total GULP energy -89334.662552 kJ/mol
# GULP energy per Si atom -5583.416409 kJ/mol
# Density = 2.065070 g / cm^3
# Si number density = 20.697813 Si / 1000 Ang^3
#
#
#
# Elastic Constant Matrix: (Units=GPa)
#
#
# Indices 1 2 3 4 5 6 
#
# 1 108.1927 35.8198 59.5172 -4.1777 3.8853 -12.8242
# 2 35.8198 102.9688 50.2483 3.6244 2.2108 -5.6131
# 3 59.5172 50.2483 148.4582 8.3363 -1.7304 -17.6183
# 4 -4.1777 3.6244 8.3363 33.1184 -5.5728 5.1221
# 5 3.8853 2.2108 -1.7304 -5.5728 44.3671 4.5266
# 6 -12.8242 -5.6131 -17.6183 5.1221 4.5266 34.3130
#
#
#
# Elastic Compliance Matrix: (Units=1/GPa)
#
#
# Indices 1 2 3 4 5 6 
#
# 1 0.012697 -0.002312 -0.004222 0.002434 -0.001057 0.001975
# 2 -0.002312 0.012084 -0.003156 -0.000875 -0.000602 -0.000298
# 3 -0.004222 -0.003156 0.010104 -0.003256 0.000149 0.003560
# 4 0.002434 -0.000875 -0.003256 0.033178 0.004529 -0.006455
# 5 -0.001057 -0.000602 0.000149 0.004529 0.023667 -0.004215
# 6 0.001975 -0.000298 0.003560 -0.006455 -0.004215 0.033181
#
#
# Mechanical properties :
#
#
# Convention : Reuss Voigt Hill
#
# Bulk Modulus (GPa) = 64.50083 72.31004 68.40543
# Shear Modulus (GPa) = 33.45414 36.62866 35.04140
#
# Velocity S-wave (km/s) = 4.02470 4.21133 4.11907
# Velocity P-wave (km/s) = 7.26831 7.65892 7.46617
#
# Compressibility (1/GPa) = 0.01550368
#
# Stress axis : x y z
#
# Youngs Moduli (GPa) = 78.75918 82.75649 98.97011
#
# Poissons Ratio (x) = 0.19131 0.41789
# Poissons Ratio (y) = 0.18207 0.31239
# Poissons Ratio (z) = 0.33255 0.26121
#
# Static dielectric constant tensor:
#      x y z
#    x 1.782380 0.009510 0.066870 
#    y 0.009510 1.767440 0.029750 
#    z 0.066870 0.029750 1.767470 
# 
# From -- ./inp_files/595453.got.cif
#   From: 2010.05.17/outbox.cif.g08.bks.cpg/sg2_298_cif.got.tgz:595453.got - 2010.06.03 11:33:40.
