data_PCOD9034535
_publ_section_title
;
Structure prediction by ZEFSAII (Michael W. Deem and Ramdas Pophale) SiO2 
 PCOD9034535
Probable space group: P -1
;
_chemical_formula_sum "Si O2"
_cell_formula_units_Z 16
_cell_length_a 12.160472
_cell_length_b 18.048207
_cell_length_c 24.744603
_cell_angle_alpha 19.395976
_cell_angle_beta 25.241604
_cell_angle_gamma 35.814338
_cell_volume 734.046585
_symmetry_space_group_name_H-M "P -1"
_symmetry_group_IT_number 2
_symmetry_cell_setting 'triclinic'
loop_
_space_group_symop_operation_xyz
x,y,z
-x,-y,-z
loop_
_atom_site_type_symbol
_atom_site_label
_atom_site_fract_x
_atom_site_fract_y
_atom_site_fract_z
Si Si1 0.875944 0.779753 0.379592
Si Si2 0.203718 0.549741 0.463197
Si Si3 0.662971 0.973964 0.624853
Si Si4 0.294892 0.454130 0.898452
Si Si5 0.769689 0.427604 0.441064
Si Si6 0.254157 0.484402 0.782904
Si Si7 0.147917 0.710676 0.985059
Si Si8 0.730416 0.951803 0.730330
O O1 0.886160 0.652797 0.404184
O O2 0.583879 0.656450 0.623735
O O3 0.103868 0.746361 0.342074
O O4 0.914530 0.046546 0.165437
O O5 0.113180 0.521080 0.585437
O O6 0.521290 0.576328 0.311160
O O7 0.461628 0.787247 0.804918
O O8 0.959299 0.969469 0.481438
O O9 0.655549 0.238399 0.435799
O O10 0.580068 0.926885 0.756818
O O11 0.260339 0.338337 0.934231
O O12 0.000000 0.500000 0.000000
O O13 0.322729 0.285305 0.049668
O O14 0.500000 0.500000 0.500000
O O15 0.694863 0.155233 0.644687
O O16 0.988876 0.572478 0.201376
O O17 0.967188 0.438271 0.914114
#
# Coordination Sequence:
#
# PCOD9034535 Si02
#       8
#     2   2   2   2   2   2   2   2
#     4  10  24  42  67  99 132 187 226 272 351 396
#     4  10  22  45  61  96 141 171 233 274 329 413
#     4  11  23  49  68  98 140 175 229 271 348 401
#     4  11  22  45  71  97 137 179 227 283 338 401
#     4  12  26  43  67 105 138 174 232 276 336 405
#     4  11  22  46  68  96 140 178 218 284 342 395
#     4  12  24  43  72  98 136 183 223 280 339 404
#     4  11  25  45  71  98 138 182 217 291 336 394
#
# _framework density 21.796980000000001
#
# number of rings (size 3 to 8) (size 9 to 14) (size 15 to 20)
#    0.000    1.000    6.250    0.000    3.500    4.500 
#    2.250    1.250    0.000    0.000    0.000    0.000 
#    0.000    0.000    0.000    0.000    0.000    0.000 
#
# Total GULP energy -89215.192865 kJ/mol
# GULP energy per Si atom -5575.949554 kJ/mol
# Density = 2.174737 g / cm^3
# Si number density = 21.796980 Si / 1000 Ang^3
#
#
#
# Elastic Constant Matrix: (Units=GPa)
#
#
# Indices 1 2 3 4 5 6 
#
# 1 125.5280 -3.8235 25.2762 -5.0935 10.8567 3.4508
# 2 -3.8235 47.8419 -7.4873 -16.6978 7.0991 -3.9719
# 3 25.2762 -7.4873 47.0969 -19.5041 0.6744 10.2101
# 4 -5.0935 -16.6978 -19.5041 11.9716 -12.1857 7.6727
# 5 10.8567 7.0991 0.6744 -12.1857 41.1149 8.5026
# 6 3.4508 -3.9719 10.2101 7.6727 8.5026 24.6673
#
#
#
# Elastic Compliance Matrix: (Units=1/GPa)
#
#
# Indices 1 2 3 4 5 6 
#
# 1 0.008630 0.002565 -0.001187 0.006223 -0.000426 -0.002092
# 2 0.002565 0.015301 -0.011530 -0.021382 -0.013206 0.018080
# 3 -0.001187 -0.011530 -0.000746 -0.042081 -0.013542 0.016375
# 4 0.006223 -0.021382 -0.042081 -0.064360 -0.024966 0.041729
# 5 -0.000426 -0.013206 -0.013542 -0.024966 0.018520 0.004920
# 6 -0.002092 0.018080 0.016375 0.041729 0.004920 0.022290
#
#
# Mechanical properties :
#
#
# Convention : Reuss Voigt Hill
#
# Bulk Modulus (GPa) = 347.08579 27.59970 187.34275
# Shear Modulus (GPa) = 239.23667 29.31753 134.27710
#
# Velocity S-wave (km/s) = 10.48785 3.67144 7.85731
# Velocity P-wave (km/s) = 17.49976 5.53735 12.97890
#
# Compressibility (1/GPa) = 0.00288113
#
# Stress axis : x y z
#
# Youngs Moduli (GPa) = 115.86954 65.35713 -1341.05664
#
# Poissons Ratio (x) = -0.16766 -1.59250
# Poissons Ratio (y) = -0.29723 -15.46211
# Poissons Ratio (z) = 0.13759 0.75355
#
# Static dielectric constant tensor:
#      x y z
#    x 1.833530 0.007940 -0.010070 
#    y 0.007940 1.844020 0.035350 
#    z -0.010070 0.035350 1.820950 
# 
# From -- ./inp_files/610751.got.cif
#   From: 2010.05.17/outbox.cif.g08.bks.cpg/sg2_306_cif.got.tgz:610751.got - 2010.06.03 11:33:40.
