data_PCOD9034802
_publ_section_title
;
Structure prediction by ZEFSAII (Michael W. Deem and Ramdas Pophale) SiO2 
 PCOD9034802
Probable space group: P -1
;
_chemical_formula_sum "Si O2"
_cell_formula_units_Z 16
_cell_length_a 13.970158
_cell_length_b 17.379240
_cell_length_c 5.119663
_cell_angle_alpha 72.069215
_cell_angle_beta 89.828212
_cell_angle_gamma 36.576659
_cell_volume 635.983636
_symmetry_space_group_name_H-M "P -1"
_symmetry_group_IT_number 2
_symmetry_cell_setting 'triclinic'
loop_
_space_group_symop_operation_xyz
x,y,z
-x,-y,-z
loop_
_atom_site_type_symbol
_atom_site_label
_atom_site_fract_x
_atom_site_fract_y
_atom_site_fract_z
Si Si1 0.330587 0.115384 0.568848
Si Si2 0.128638 0.953875 0.839197
Si Si3 0.622592 0.313621 0.246753
Si Si4 0.379218 0.389108 0.470018
Si Si5 0.030419 0.677799 0.885497
Si Si6 0.492860 0.868381 0.190276
Si Si7 0.719021 0.403035 0.363486
Si Si8 0.826967 0.969876 0.755776
O O1 0.143911 0.245281 0.284094
O O2 0.351666 0.180254 0.679184
O O3 0.500000 0.000000 0.500000
O O4 0.367220 0.010043 0.853533
O O5 0.263166 0.789759 0.899651
O O6 0.104732 0.018395 0.489774
O O7 0.187125 0.982141 0.006026
O O8 0.000000 0.000000 0.000000
O O9 0.726650 0.300623 0.452569
O O10 0.560432 0.275878 0.425075
O O11 0.428721 0.480459 0.982448
O O12 0.418294 0.279805 0.745350
O O13 0.358646 0.489535 0.513419
O O14 0.196318 0.510984 0.181211
O O15 0.109371 0.670363 0.646548
O O16 0.969283 0.795498 0.945596
O O17 0.364900 0.937522 0.366567
#
# Coordination Sequence:
#
# PCOD9034802 Si02
#       8
#     2   2   2   2   2   2   2   2
#     4  11  25  48  78 110 154 197 258 329 414 476
#     4  12  26  44  73 113 155 206 269 328 385 463
#     4  10  22  45  68 110 150 213 255 319 382 469
#     4  11  24  45  76 113 152 204 263 323 388 473
#     4  11  26  45  72 110 152 205 255 329 397 470
#     4  11  25  46  80 112 146 208 260 325 398 479
#     4  10  23  42  71 102 156 203 262 308 392 462
#     4  12  25  46  75 109 156 207 263 325 394 472
#
# _framework density 25.157879999999999
#
# number of rings (size 3 to 8) (size 9 to 14) (size 15 to 20)
#    0.000    1.000    2.500    3.000    3.500    2.500 
#    0.000    1.250    0.000    0.000    0.000    0.000 
#    0.000    0.000    0.000    0.000    0.000    0.000 
#
# Total GULP energy -89258.667390 kJ/mol
# GULP energy per Si atom -5578.666712 kJ/mol
# Density = 2.510062 g / cm^3
# Si number density = 25.157880 Si / 1000 Ang^3
#
#
#
# Elastic Constant Matrix: (Units=GPa)
#
#
# Indices 1 2 3 4 5 6 
#
# 1 138.5091 57.8288 39.9179 7.1482 -4.5668 -12.1869
# 2 57.8288 103.6894 35.8814 7.2987 -5.1456 -2.4367
# 3 39.9179 35.8814 81.9572 16.6299 -9.4105 1.1625
# 4 7.1482 7.2987 16.6299 29.3470 7.4525 5.8655
# 5 -4.5668 -5.1456 -9.4105 7.4525 37.4794 -5.8029
# 6 -12.1869 -2.4367 1.1625 5.8655 -5.8029 41.0162
#
#
#
# Elastic Compliance Matrix: (Units=1/GPa)
#
#
# Indices 1 2 3 4 5 6 
#
# 1 0.010277 -0.004608 -0.002893 -0.000426 0.000440 0.002985
# 2 -0.004608 0.013472 -0.003557 -0.000234 0.000382 -0.000381
# 3 -0.002893 -0.003557 0.017880 -0.010146 0.005773 0.000690
# 4 -0.000426 -0.000234 -0.010146 0.044852 -0.012801 -0.008078
# 5 0.000440 0.000382 0.005773 -0.012801 0.031760 0.006314
# 6 0.002985 -0.000381 0.000690 -0.008078 0.006314 0.027274
#
#
# Mechanical properties :
#
#
# Convention : Reuss Voigt Hill
#
# Bulk Modulus (GPa) = 51.25194 65.71242 58.48218
# Shear Modulus (GPa) = 28.71362 34.27035 31.49198
#
# Velocity S-wave (km/s) = 3.38203 3.69482 3.54188
# Velocity P-wave (km/s) = 5.97220 6.66175 6.32638
#
# Compressibility (1/GPa) = 0.01951145
#
# Stress axis : x y z
#
# Youngs Moduli (GPa) = 97.30798 74.23048 55.92942
#
# Poissons Ratio (x) = 0.34207 0.16182
# Poissons Ratio (y) = 0.44842 0.19893
# Poissons Ratio (z) = 0.28153 0.26402
#
# Static dielectric constant tensor:
#      x y z
#    x 2.152710 0.073730 0.010540 
#    y 0.073730 2.169900 -0.085550 
#    z 0.010540 -0.085550 2.086000 
# 
# From -- ./inp_files/99786.got.cif
#   From: 2010.05.17/outbox.cif.g08.bks.cpg/sg2_50_cif.got.tgz:99786.got - 2010.06.03 11:33:40.
