data_PCOD9034491
_publ_section_title
;
Structure prediction by ZEFSAII (Michael W. Deem and Ramdas Pophale) SiO2 
 PCOD9034491
Probable space group: P -1
;
_chemical_formula_sum "Si O2"
_cell_formula_units_Z 16
_cell_length_a 9.742273
_cell_length_b 9.982668
_cell_length_c 16.401724
_cell_angle_alpha 86.651989
_cell_angle_beta 157.439328
_cell_angle_gamma 92.294367
_cell_volume 610.543637
_symmetry_space_group_name_H-M "P -1"
_symmetry_group_IT_number 2
_symmetry_cell_setting 'triclinic'
loop_
_space_group_symop_operation_xyz
x,y,z
-x,-y,-z
loop_
_atom_site_type_symbol
_atom_site_label
_atom_site_fract_x
_atom_site_fract_y
_atom_site_fract_z
Si Si1 0.191236 0.641939 0.602632
Si Si2 0.371591 0.975339 0.298447
Si Si3 0.700390 0.721719 0.739629
Si Si4 0.810802 0.053223 0.229349
Si Si5 0.857385 0.513115 0.055789
Si Si6 0.795951 0.270205 0.677952
Si Si7 0.468134 0.710467 0.018259
Si Si8 0.395904 0.135029 0.742116
O O1 0.362982 0.686784 0.610383
O O2 0.000000 0.500000 0.500000
O O3 0.907566 0.760282 0.462771
O O4 0.542036 0.613685 0.849870
O O5 0.181550 0.868935 0.255093
O O6 0.776013 0.993816 0.554573
O O7 0.201859 0.125133 0.197676
O O8 0.405905 0.914620 0.229188
O O9 0.562561 0.718051 0.571681
O O10 0.998354 0.604144 0.921616
O O11 0.722836 0.000613 0.272765
O O12 0.783060 0.208949 0.186269
O O13 0.500000 0.000000 0.000000
O O14 0.183553 0.604359 0.254717
O O15 0.691180 0.430753 0.041692
O O16 0.140057 0.284829 0.807346
O O17 0.477991 0.784387 0.110028
#
# Coordination Sequence:
#
# PCOD9034491 Si02
#       8
#     2   2   2   2   2   2   2   2
#     4  12  25  49  80 108 159 206 257 320 389 465
#     4  12  27  48  80 114 159 203 253 324 392 458
#     4  12  26  50  73 115 161 201 256 321 391 462
#     4  10  22  44  76 110 148 199 254 314 379 451
#     4  12  28  47  78 116 153 205 261 321 389 468
#     4  12  27  50  77 117 155 205 258 324 394 458
#     4  11  24  50  77 113 152 199 263 323 387 462
#     4  11  24  47  79 115 148 201 256 314 393 453
#
# _framework density 26.206153
#
# number of rings (size 3 to 8) (size 9 to 14) (size 15 to 20)
#    0.000    0.500    3.750    3.375    3.500    4.000 
#    2.250    1.875    0.000    0.000    0.000    0.000 
#    0.000    0.000    0.000    0.000    0.000    0.000 
#
# Total GULP energy -89609.520377 kJ/mol
# GULP energy per Si atom -5600.595024 kJ/mol
# Density = 2.614651 g / cm^3
# Si number density = 26.206153 Si / 1000 Ang^3
#
#
#
# Elastic Constant Matrix: (Units=GPa)
#
#
# Indices 1 2 3 4 5 6 
#
# 1 104.4485 70.0812 38.1806 -1.3523 0.5013 -0.0948
# 2 70.0812 169.3406 49.6822 -7.6558 -27.1432 20.2415
# 3 38.1806 49.6822 113.3773 -18.7583 -18.2243 -7.6610
# 4 -1.3523 -7.6558 -18.7583 55.9790 6.1547 8.6513
# 5 0.5013 -27.1432 -18.2243 6.1547 39.6082 -2.8347
# 6 -0.0948 20.2415 -7.6610 8.6513 -2.8347 54.3228
#
#
#
# Elastic Compliance Matrix: (Units=1/GPa)
#
#
# Indices 1 2 3 4 5 6 
#
# 1 0.015170 -0.006542 -0.003263 -0.001273 -0.005843 0.001902
# 2 -0.006542 0.010579 -0.001589 0.000686 0.006211 -0.003962
# 3 -0.003263 -0.001589 0.011897 0.002927 0.004116 0.002013
# 4 -0.001273 0.000686 0.002927 0.019532 -0.001419 -0.003030
# 5 -0.005843 0.006211 0.004116 -0.001419 0.031702 0.000136
# 6 0.001902 -0.003962 0.002013 -0.003030 0.000136 0.020662
#
#
# Mechanical properties :
#
#
# Convention : Reuss Voigt Hill
#
# Bulk Modulus (GPa) = 67.30195 78.11716 72.70955
# Shear Modulus (GPa) = 36.42173 45.26349 40.84261
#
# Velocity S-wave (km/s) = 3.73207 4.16048 3.95208
# Velocity P-wave (km/s) = 6.65647 7.27687 6.97357
#
# Compressibility (1/GPa) = 0.01485841
#
# Stress axis : x y z
#
# Youngs Moduli (GPa) = 65.92144 94.52757 84.05556
#
# Poissons Ratio (x) = 0.61839 0.27428
# Poissons Ratio (y) = 0.43125 0.13352
# Poissons Ratio (z) = 0.21510 0.15016
#
# Static dielectric constant tensor:
#      x y z
#    x 2.084360 -0.050200 0.004830 
#    y -0.050200 2.031500 0.010190 
#    z 0.004830 0.010190 2.106730 
# 
# From -- ./inp_files/594759.got.cif
#   From: 2010.05.17/outbox.cif.g08.bks.cpg/sg2_298_cif.got.tgz:594759.got - 2010.06.03 11:33:40.
