data_PCOD9034452
_publ_section_title
;
Structure prediction by ZEFSAII (Michael W. Deem and Ramdas Pophale) SiO2 
 PCOD9034452
Probable space group: P -1
;
_chemical_formula_sum "Si O2"
_cell_formula_units_Z 14
_cell_length_a 5.404171
_cell_length_b 8.329490
_cell_length_c 18.877866
_cell_angle_alpha 119.043377
_cell_angle_beta 128.355120
_cell_angle_gamma 58.376569
_cell_volume 550.871137
_symmetry_space_group_name_H-M "P -1"
_symmetry_group_IT_number 2
_symmetry_cell_setting 'triclinic'
loop_
_space_group_symop_operation_xyz
x,y,z
-x,-y,-z
loop_
_atom_site_type_symbol
_atom_site_label
_atom_site_fract_x
_atom_site_fract_y
_atom_site_fract_z
Si Si1 0.110396 0.042682 0.449180
Si Si2 0.509813 0.384218 0.404708
Si Si3 0.522231 0.677032 0.933037
Si Si4 0.829359 0.872158 0.784094
Si Si5 0.376550 0.995340 0.079046
Si Si6 0.005536 0.687916 0.282115
Si Si7 0.254195 0.708710 0.178535
O O1 0.895005 0.260414 0.436503
O O2 0.500000 0.000000 0.500000
O O3 0.018129 0.897950 0.349287
O O4 0.000000 0.000000 0.500000
O O5 0.500000 0.500000 0.500000
O O6 0.315742 0.224488 0.325392
O O7 0.317958 0.538657 0.345981
O O8 0.720490 0.450977 0.911871
O O9 0.137955 0.717149 0.846831
O O10 0.610062 0.822333 0.924933
O O11 0.557381 0.778518 0.034833
O O12 0.571811 0.962512 0.821505
O O13 0.921032 0.061872 0.817737
O O14 0.000000 0.000000 0.000000
O O15 0.097384 0.650451 0.208166
O O16 0.650087 0.686734 0.249646
#
# Coordination Sequence:
#
# PCOD9034452 Si02
#       7
#     2   2   2   2   2   2   2
#     4  12  27  48  73 105 147 190 252 316 369 438
#     4  12  26  47  77 108 148 202 252 309 375 437
#     4  10  22  44  75 104 147 190 239 302 369 441
#     4  11  24  44  70 105 145 192 247 301 368 435
#     4   9  21  44  72 107 144 187 239 300 368 442
#     4  12  27  47  69 106 149 191 249 301 371 435
#     4  12  27  44  75 108 145 195 240 305 363 441
#
# _framework density 25.414290999999999
#
# number of rings (size 3 to 8) (size 9 to 14) (size 15 to 20)
#    0.000    0.857    4.286    1.714    4.000    3.429 
#    0.000    6.429    0.000    0.000    0.000    0.000 
#    0.000    0.000    0.000    0.000    0.000    0.000 
#
# Total GULP energy -78317.650970 kJ/mol
# GULP energy per Si atom -5594.117926 kJ/mol
# Density = 2.535645 g / cm^3
# Si number density = 25.414291 Si / 1000 Ang^3
#
#
#
# Elastic Constant Matrix: (Units=GPa)
#
#
# Indices 1 2 3 4 5 6 
#
# 1 94.0609 14.2680 30.0154 -12.6386 0.0775 -14.3762
# 2 14.2680 158.6283 40.5801 5.7881 -5.3811 -21.4287
# 3 30.0154 40.5801 172.7607 20.1270 5.5726 -4.8190
# 4 -12.6386 5.7881 20.1270 61.4328 -6.1628 -4.0162
# 5 0.0775 -5.3811 5.5726 -6.1628 31.6117 -12.4194
# 6 -14.3762 -21.4287 -4.8190 -4.0162 -12.4194 31.7369
#
#
#
# Elastic Compliance Matrix: (Units=1/GPa)
#
#
# Indices 1 2 3 4 5 6 
#
# 1 0.013421 0.000713 -0.002968 0.004725 0.004926 0.008636
# 2 0.000713 0.007878 -0.002045 0.001034 0.004783 0.007334
# 3 -0.002968 -0.002045 0.007197 -0.003368 -0.003633 -0.003480
# 4 0.004725 0.001034 -0.003368 0.019529 0.007622 0.007781
# 5 0.004926 0.004783 -0.003633 0.007622 0.043568 0.022923
# 6 0.008636 0.007334 -0.003480 0.007781 0.022923 0.049800
#
#
# Mechanical properties :
#
#
# Convention : Reuss Voigt Hill
#
# Bulk Modulus (GPa) = 50.25665 66.13074 58.19369
# Shear Modulus (GPa) = 31.92366 47.66205 39.79286
#
# Velocity S-wave (km/s) = 3.54804 4.33529 3.96127
# Velocity P-wave (km/s) = 6.05001 7.15103 6.62344
#
# Compressibility (1/GPa) = 0.01989787
#
# Stress axis : x y z
#
# Youngs Moduli (GPa) = 74.51045 126.93171 138.95263
#
# Poissons Ratio (x) = -0.09054 0.41238
# Poissons Ratio (y) = -0.05315 0.28410
# Poissons Ratio (z) = 0.22113 0.25952
#
# Static dielectric constant tensor:
#      x y z
#    x 2.105570 -0.063150 0.040390 
#    y -0.063150 2.040430 -0.017240 
#    z 0.040390 -0.017240 2.010360 
# 
# From -- ./inp_files/488194.got.cif
#   From: 2010.05.17/outbox.cif.g08.bks.cpg/sg2_245_cif.got.tgz:488194.got - 2010.06.03 11:33:40.
