data_PCOD9034182
_publ_section_title
;
Structure prediction by ZEFSAII (Michael W. Deem and Ramdas Pophale) SiO2 
 PCOD9034182
Probable space group: P -1
;
_chemical_formula_sum "Si O2"
_cell_formula_units_Z 16
_cell_length_a 10.950981
_cell_length_b 11.572560
_cell_length_c 13.716692
_cell_angle_alpha 34.597448
_cell_angle_beta 134.803074
_cell_angle_gamma 122.353042
_cell_volume 695.966306
_symmetry_space_group_name_H-M "P -1"
_symmetry_group_IT_number 2
_symmetry_cell_setting 'triclinic'
loop_
_space_group_symop_operation_xyz
x,y,z
-x,-y,-z
loop_
_atom_site_type_symbol
_atom_site_label
_atom_site_fract_x
_atom_site_fract_y
_atom_site_fract_z
Si Si1 0.061536 0.802363 0.785413
Si Si2 0.865022 0.619429 0.971031
Si Si3 0.389287 0.819998 0.096950
Si Si4 0.889412 0.184262 0.503150
Si Si5 0.843921 0.899642 0.119874
Si Si6 0.516216 0.344651 0.209079
Si Si7 0.991534 0.361472 0.765727
Si Si8 0.654512 0.525596 0.359857
O O1 0.915728 0.708719 0.834531
O O2 0.118029 0.627747 0.859195
O O3 0.236106 0.809259 0.940828
O O4 0.980565 0.039900 0.569234
O O5 0.677309 0.708987 0.842630
O O6 0.004084 0.663665 0.099403
O O7 0.514177 0.611777 0.301392
O O8 0.500000 0.000000 0.000000
O O9 0.294856 0.902518 0.084735
O O10 0.682740 0.183179 0.390665
O O11 0.926845 0.422233 0.354646
O O12 0.987324 0.098800 0.716606
O O13 0.894194 0.823722 0.093869
O O14 0.749412 0.715427 0.241606
O O15 0.568210 0.439467 0.276031
O O16 0.500000 0.500000 0.000000
O O17 0.807264 0.381304 0.596136
#
# Coordination Sequence:
#
# PCOD9034182 Si02
#       8
#     2   2   2   2   2   2   2   2
#     4  10  23  42  59  85 126 168 195 242 312 366
#     4  11  24  40  60  86 129 164 195 243 311 366
#     4   9  18  33  61  87 110 154 203 244 285 350
#     4  10  19  35  60  88 117 157 204 250 291 354
#     4   9  16  31  56  87 116 146 192 249 304 332
#     4  12  20  35  61  93 116 154 208 252 289 349
#     4  11  19  36  59  91 116 157 198 251 303 349
#     4  10  17  32  56  85 116 151 195 246 294 343
#
# _framework density 22.989618
#
# number of rings (size 3 to 8) (size 9 to 14) (size 15 to 20)
#    0.000    1.750    5.000    1.500    0.000    1.000 
#    0.000    4.375    0.000    0.000    0.000    0.000 
#    0.000    0.000    0.000    0.000    0.000    0.000 
#
# Total GULP energy -89297.227978 kJ/mol
# GULP energy per Si atom -5581.076749 kJ/mol
# Density = 2.293729 g / cm^3
# Si number density = 22.989618 Si / 1000 Ang^3
#
#
#
# Elastic Constant Matrix: (Units=GPa)
#
#
# Indices 1 2 3 4 5 6 
#
# 1 50.5442 27.1728 30.9504 -10.3244 26.8525 -3.8380
# 2 27.1728 85.2225 27.5923 3.8343 11.6718 -23.4876
# 3 30.9504 27.5923 53.6716 0.9833 20.9933 -8.2713
# 4 -10.3244 3.8343 0.9833 32.3728 -2.6428 8.4467
# 5 26.8525 11.6718 20.9933 -2.6428 44.2676 -11.5507
# 6 -3.8380 -23.4876 -8.2713 8.4467 -11.5507 54.5418
#
#
#
# Elastic Compliance Matrix: (Units=1/GPa)
#
#
# Indices 1 2 3 4 5 6 
#
# 1 0.051443 -0.012005 -0.017139 0.019650 -0.021821 -0.011813
# 2 -0.012005 0.018759 -0.003475 -0.007856 0.005908 0.009175
# 3 -0.017139 -0.003475 0.032286 -0.006989 -0.003769 0.002478
# 4 0.019650 -0.007856 -0.006989 0.040554 -0.006933 -0.010809
# 5 -0.021821 0.005908 -0.003769 -0.006933 0.038144 0.009589
# 6 -0.011813 0.009175 0.002478 -0.010809 0.009589 0.025535
#
#
# Mechanical properties :
#
#
# Convention : Reuss Voigt Hill
#
# Bulk Modulus (GPa) = 26.84448 40.09657 33.47052
# Shear Modulus (GPa) = 17.58237 33.15130 25.36683
#
# Velocity S-wave (km/s) = 2.76849 3.80150 3.32536
# Velocity P-wave (km/s) = 4.68205 6.06198 5.41614
#
# Compressibility (1/GPa) = 0.03725161
#
# Stress axis : x y z
#
# Youngs Moduli (GPa) = 19.43894 53.30639 30.97331
#
# Poissons Ratio (x) = 0.63992 0.53086
# Poissons Ratio (y) = 0.23336 0.10763
# Poissons Ratio (z) = 0.33317 0.18523
#
# Static dielectric constant tensor:
#      x y z
#    x 1.912310 0.006220 -0.035320 
#    y 0.006220 1.889150 -0.054100 
#    z -0.035320 -0.054100 1.910040 
# 
# From -- ./inp_files/277257.got.cif
#   From: 2010.05.17/outbox.cif.g08.bks.cpg/sg2_139_cif.got.tgz:277257.got - 2010.06.03 11:33:40.
