data_PCOD9034171
_publ_section_title
;
Structure prediction by ZEFSAII (Michael W. Deem and Ramdas Pophale) SiO2 
 PCOD9034171
Probable space group: P -1
;
_chemical_formula_sum "Si O2"
_cell_formula_units_Z 16
_cell_length_a 18.204851
_cell_length_b 8.867485
_cell_length_c 12.077552
_cell_angle_alpha 54.519014
_cell_angle_beta 126.897947
_cell_angle_gamma 149.005489
_cell_volume 792.605284
_symmetry_space_group_name_H-M "P -1"
_symmetry_group_IT_number 2
_symmetry_cell_setting 'triclinic'
loop_
_space_group_symop_operation_xyz
x,y,z
-x,-y,-z
loop_
_atom_site_type_symbol
_atom_site_label
_atom_site_fract_x
_atom_site_fract_y
_atom_site_fract_z
Si Si1 0.251752 0.346780 0.560870
Si Si2 0.423305 0.691963 0.099369
Si Si3 0.059898 0.728174 0.360598
Si Si4 0.399657 0.323016 0.874827
Si Si5 0.041824 0.338573 0.382264
Si Si6 0.082718 0.804424 0.897188
Si Si7 0.109185 0.193898 0.914158
Si Si8 0.362672 0.422002 0.393196
O O1 0.354475 0.433435 0.715910
O O2 0.176997 0.420072 0.500714
O O3 0.331631 0.474550 0.459940
O O4 0.112291 0.985410 0.571868
O O5 0.519010 0.678098 0.139085
O O6 0.398354 0.613374 0.240557
O O7 0.268236 0.456190 0.998644
O O8 0.500000 0.000000 0.000000
O O9 0.067478 0.593335 0.324130
O O10 0.000000 0.500000 0.500000
O O11 0.943505 0.707831 0.241378
O O12 0.216599 0.071980 0.379022
O O13 0.241239 0.996824 0.909695
O O14 0.500000 0.500000 0.000000
O O15 0.017746 0.275589 0.257403
O O16 0.104643 0.004230 0.916837
O O17 0.000000 0.500000 0.000000
O O18 0.000000 0.000000 0.000000
O O19 0.500000 0.500000 0.500000
#
# Coordination Sequence:
#
# PCOD9034171 Si02
#       8
#     2   2   2   2   2   2   2   2
#     4  10  22  44  71  99 140 185 237 293 351 426
#     4  12  29  46  72 104 148 193 240 298 371 425
#     4  12  26  42  74 105 143 184 243 292 358 431
#     4  11  24  46  68 100 143 188 235 295 356 426
#     4  10  23  41  70 104 133 183 241 291 354 414
#     4  11  25  43  74 101 142 187 240 300 365 424
#     4  12  26  46  71 107 142 189 248 298 353 437
#     4  12  25  48  71 102 148 187 236 301 362 436
#
# _framework density 20.186592999999998
#
# number of rings (size 3 to 8) (size 9 to 14) (size 15 to 20)
#    0.000    0.750    5.000    1.500   10.500    0.000 
#    0.000    0.625    0.000    0.000    0.000    0.000 
#    0.000    0.000    0.000    0.000    0.000    0.000 
#
# Total GULP energy -89408.057649 kJ/mol
# GULP energy per Si atom -5588.003603 kJ/mol
# Density = 2.014065 g / cm^3
# Si number density = 20.186593 Si / 1000 Ang^3
#
#
#
# Elastic Constant Matrix: (Units=GPa)
#
#
# Indices 1 2 3 4 5 6 
#
# 1 79.7761 36.0922 44.9880 3.5530 -1.9655 17.9712
# 2 36.0922 76.0891 63.8146 -0.6124 3.2122 4.4765
# 3 44.9880 63.8146 167.1024 -0.8463 0.1683 16.5113
# 4 3.5530 -0.6124 -0.8463 39.1286 9.5916 -0.3159
# 5 -1.9655 3.2122 0.1683 9.5916 46.1941 4.8864
# 6 17.9712 4.4765 16.5113 -0.3159 4.8864 29.3298
#
#
#
# Elastic Compliance Matrix: (Units=1/GPa)
#
#
# Indices 1 2 3 4 5 6 
#
# 1 0.019234 -0.007602 -0.001260 -0.002718 0.003021 -0.010448
# 2 -0.007602 0.022496 -0.007097 0.001622 -0.002802 0.005704
# 3 -0.001260 -0.007097 0.009385 -0.000015 0.000785 -0.003559
# 4 -0.002718 0.001622 -0.000015 0.027371 -0.006203 0.002754
# 5 0.003021 -0.002802 0.000785 -0.006203 0.023882 -0.005911
# 6 -0.010448 0.005704 -0.003559 0.002754 -0.005911 0.042644
#
#
# Mechanical properties :
#
#
# Convention : Reuss Voigt Hill
#
# Bulk Modulus (GPa) = 52.08922 68.08415 60.08669
# Shear Modulus (GPa) = 27.27356 34.80202 31.03779
#
# Velocity S-wave (km/s) = 3.67968 4.15663 3.92541
# Velocity P-wave (km/s) = 6.62671 7.53906 7.09756
#
# Compressibility (1/GPa) = 0.01919783
#
# Stress axis : x y z
#
# Youngs Moduli (GPa) = 51.99214 44.45187 106.55781
#
# Poissons Ratio (x) = 0.33791 0.13422
# Poissons Ratio (y) = 0.39523 0.75625
# Poissons Ratio (z) = 0.06549 0.31548
#
# Static dielectric constant tensor:
#      x y z
#    x 1.744590 -0.016510 -0.049130 
#    y -0.016510 1.681530 -0.015760 
#    z -0.049130 -0.015760 1.766740 
# 
# From -- ./inp_files/274305.got.cif
#   From: 2010.05.17/outbox.cif.g08.bks.cpg/sg2_138_cif.got.tgz:274305.got - 2010.06.03 11:33:40.
