data_PCOD9034427
_publ_section_title
;
Structure prediction by ZEFSAII (Michael W. Deem and Ramdas Pophale) SiO2 
 PCOD9034427
Probable space group: P -1
;
_chemical_formula_sum "Si O2"
_cell_formula_units_Z 11
_cell_length_a 9.594378
_cell_length_b 18.692493
_cell_length_c 5.363069
_cell_angle_alpha 64.441693
_cell_angle_beta 71.044062
_cell_angle_gamma 29.953814
_cell_volume 430.682101
_symmetry_space_group_name_H-M "P -1"
_symmetry_group_IT_number 2
_symmetry_cell_setting 'triclinic'
loop_
_space_group_symop_operation_xyz
x,y,z
-x,-y,-z
loop_
_atom_site_type_symbol
_atom_site_label
_atom_site_fract_x
_atom_site_fract_y
_atom_site_fract_z
Si Si1 0.780822 0.882377 0.856669
Si Si2 0.138113 0.624087 0.698390
Si Si3 0.285213 0.703031 0.183857
Si Si4 0.000000 0.000000 0.000000
Si Si5 0.890960 0.591661 0.672319
Si Si6 0.712350 0.083574 0.595259
O O1 0.876989 0.764388 0.815207
O O2 0.733072 0.989277 0.590884
O O3 0.049379 0.778275 0.024766
O O4 0.500000 0.000000 0.000000
O O5 0.259860 0.653946 0.503964
O O6 0.410763 0.449859 0.887877
O O7 0.010099 0.627070 0.553972
O O8 0.207495 0.826907 0.121886
O O9 0.744544 0.066321 0.899675
O O10 0.556388 0.749627 0.602016
O O11 0.000000 0.500000 0.500000
O O12 0.000000 0.500000 0.000000
O O13 0.000000 0.000000 0.500000
#
# Coordination Sequence:
#
# PCOD9034427 Si02
#       6
#     2   2   2   1   2   2
#     4  11  25  43  73 110 152 203 263 331 401 481
#     4  11  25  47  74 108 156 206 266 330 403 483
#     4  10  23  44  76 107 150 204 272 323 408 472
#     4  10  22  44  74 112 152 192 266 330 396 470
#     4  12  31  50  80 116 163 210 268 338 410 484
#     4  11  26  45  76 108 154 208 268 325 400 478
#
# _framework density 25.540880999999999
#
# number of rings (size 3 to 8) (size 9 to 14) (size 15 to 20)
#    0.000    1.091    0.000    3.818   12.727    5.818 
#    0.000    0.000    0.000    0.000    0.000    0.000 
#    0.000    0.000    0.000    0.000    0.000    0.000 
#
# Total GULP energy -61304.636183 kJ/mol
# GULP energy per Si atom -5573.148744 kJ/mol
# Density = 2.548275 g / cm^3
# Si number density = 25.540881 Si / 1000 Ang^3
#
#
#
# Elastic Constant Matrix: (Units=GPa)
#
#
# Indices 1 2 3 4 5 6 
#
# 1 139.1861 95.0279 21.3721 -2.7884 3.8767 25.8993
# 2 95.0279 261.5202 76.4488 -27.8352 1.5280 17.7633
# 3 21.3721 76.4488 89.8517 -27.1210 5.1469 4.6073
# 4 -2.7884 -27.8352 -27.1210 47.5594 -2.6190 4.2989
# 5 3.8767 1.5280 5.1469 -2.6190 42.1032 -7.6980
# 6 25.8993 17.7633 4.6073 4.2989 -7.6980 68.8906
#
#
#
# Elastic Compliance Matrix: (Units=1/GPa)
#
#
# Indices 1 2 3 4 5 6 
#
# 1 0.010285 -0.003856 0.000767 -0.001026 -0.001518 -0.003029
# 2 -0.003856 0.006634 -0.004417 0.001174 0.000735 0.000043
# 3 0.000767 -0.004417 0.017008 0.007148 -0.001714 -0.000924
# 4 -0.001026 0.001174 0.007148 0.025931 0.000432 -0.001965
# 5 -0.001518 0.000735 -0.001714 0.000432 0.024691 0.003228
# 6 -0.003029 0.000043 -0.000924 -0.001965 0.003228 0.016189
#
#
# Mechanical properties :
#
#
# Convention : Reuss Voigt Hill
#
# Bulk Modulus (GPa) = 52.86792 97.36174 75.11483
# Shear Modulus (GPa) = 40.96522 51.55792 46.26157
#
# Velocity S-wave (km/s) = 4.00923 4.49781 4.26053
# Velocity P-wave (km/s) = 6.49432 8.07319 7.32641
#
# Compressibility (1/GPa) = 0.01891506
#
# Stress axis : x y z
#
# Youngs Moduli (GPa) = 97.22967 150.74079 58.79470
#
# Poissons Ratio (x) = 0.58126 -0.04510
# Poissons Ratio (y) = 0.37492 0.25970
# Poissons Ratio (z) = -0.07458 0.66583
#
# Static dielectric constant tensor:
#      x y z
#    x 1.995110 0.005070 -0.073520 
#    y 0.005070 2.906280 -0.233130 
#    z -0.073520 -0.233130 2.264970 
# 
# From -- ./inp_files/43648.got.cif
#   From: 2010.05.17/outbox.cif.g08.bks.cpg/sg2_22_cif.got.tgz:43648.got - 2010.06.03 11:33:40.
