data_PCOD9034369
_publ_section_title
;
Structure prediction by ZEFSAII (Michael W. Deem and Ramdas Pophale) SiO2 
 PCOD9034369
Probable space group: P -1
;
_chemical_formula_sum "Si O2"
_cell_formula_units_Z 16
_cell_length_a 8.600789
_cell_length_b 8.563646
_cell_length_c 12.302604
_cell_angle_alpha 65.570042
_cell_angle_beta 81.778321
_cell_angle_gamma 61.373925
_cell_volume 722.438067
_symmetry_space_group_name_H-M "P -1"
_symmetry_group_IT_number 2
_symmetry_cell_setting 'triclinic'
loop_
_space_group_symop_operation_xyz
x,y,z
-x,-y,-z
loop_
_atom_site_type_symbol
_atom_site_label
_atom_site_fract_x
_atom_site_fract_y
_atom_site_fract_z
Si Si1 0.015698 0.874175 0.429547
Si Si2 0.168374 0.466043 0.248392
Si Si3 0.785396 0.569787 0.180571
Si Si4 0.389132 0.383055 0.034132
Si Si5 0.069664 0.913759 0.175750
Si Si6 0.657800 0.525205 0.422661
Si Si7 0.674801 0.825445 0.483983
Si Si8 0.270990 0.996985 0.947068
O O1 0.072226 0.943982 0.294928
O O2 0.160056 0.653690 0.502847
O O3 0.825260 0.886346 0.424034
O O4 0.000000 0.000000 0.500000
O O5 0.130229 0.685964 0.213291
O O6 0.247856 0.338001 0.383506
O O7 0.986606 0.463618 0.233623
O O8 0.298249 0.388571 0.155433
O O9 0.754621 0.524870 0.074137
O O10 0.665001 0.527458 0.290809
O O11 0.738981 0.794837 0.123793
O O12 0.500000 0.500000 0.000000
O O13 0.532364 0.168872 0.046045
O O14 0.196137 0.974901 0.077836
O O15 0.870088 0.020399 0.116453
O O16 0.500000 0.500000 0.500000
O O17 0.641973 0.725834 0.410909
O O18 0.500000 0.000000 0.500000
#
# Coordination Sequence:
#
# PCOD9034369 Si02
#       8
#     2   2   2   2   2   2   2   2
#     4  12  26  47  72 108 142 189 238 296 365 434
#     4  11  23  46  73 101 145 189 230 296 358 425
#     4  11  26  47  69 101 144 188 235 287 362 422
#     4  12  26  42  70 104 139 182 240 293 348 413
#     4  10  22  44  73  98 144 181 232 286 358 415
#     4  12  27  48  75 103 145 190 241 303 364 431
#     4  12  26  47  73 109 144 190 243 297 365 435
#     4  10  23  45  70 104 132 188 231 291 345 418
#
# _framework density 22.147228999999999
#
# number of rings (size 3 to 8) (size 9 to 14) (size 15 to 20)
#    0.000    0.750    3.750    3.375    7.000    2.000 
#    0.000    0.000    0.000    0.000    0.000    0.000 
#    0.000    0.000    0.000    0.000    0.000    0.000 
#
# Total GULP energy -89645.101650 kJ/mol
# GULP energy per Si atom -5602.818853 kJ/mol
# Density = 2.209682 g / cm^3
# Si number density = 22.147229 Si / 1000 Ang^3
#
#
#
# Elastic Constant Matrix: (Units=GPa)
#
#
# Indices 1 2 3 4 5 6 
#
# 1 63.9787 19.5380 0.0140 2.6031 -17.4532 -6.9755
# 2 19.5380 62.5620 6.2936 11.8184 0.6776 -12.7361
# 3 0.0140 6.2936 131.5037 25.7040 -17.5193 -7.8919
# 4 2.6031 11.8184 25.7040 40.5017 -4.3630 5.0636
# 5 -17.4532 0.6776 -17.5193 -4.3630 37.4590 3.7303
# 6 -6.9755 -12.7361 -7.8919 5.0636 3.7303 35.2187
#
#
#
# Elastic Compliance Matrix: (Units=1/GPa)
#
#
# Indices 1 2 3 4 5 6 
#
# 1 0.020582 -0.006646 0.001645 0.000594 0.010464 0.000848
# 2 -0.006646 0.021117 0.000253 -0.007433 -0.005021 0.007977
# 3 0.001645 0.000253 0.009534 -0.006151 0.004206 0.002993
# 4 0.000594 -0.007433 -0.006151 0.032054 0.002142 -0.008784
# 5 0.010464 -0.005021 0.004206 0.002142 0.034150 -0.002726
# 6 0.000848 0.007977 0.002993 -0.008784 -0.002726 0.033669
#
#
# Mechanical properties :
#
#
# Convention : Reuss Voigt Hill
#
# Bulk Modulus (GPa) = 23.95978 34.41508 29.18743
# Shear Modulus (GPa) = 28.65057 38.11579 33.38318
#
# Velocity S-wave (km/s) = 3.60062 4.15302 3.88665
# Velocity P-wave (km/s) = 5.30357 6.21045 5.77484
#
# Compressibility (1/GPa) = 0.04173662
#
# Stress axis : x y z
#
# Youngs Moduli (GPa) = 48.58535 47.35549 104.88294
#
# Poissons Ratio (x) = 0.31473 -0.17251
# Poissons Ratio (y) = 0.32291 -0.02653
# Poissons Ratio (z) = -0.07991 -0.01198
#
# Static dielectric constant tensor:
#      x y z
#    x 1.805770 -0.032090 -0.018220 
#    y -0.032090 1.858360 0.059830 
#    z -0.018220 0.059830 1.879140 
# 
# From -- ./inp_files/190404.got.cif
#   From: 2010.05.17/outbox.cif.g08.bks.cpg/sg2_96_cif.got.tgz:190404.got - 2010.06.03 11:33:40.
