data_PCOD9034290
_publ_section_title
;
Structure prediction by ZEFSAII (Michael W. Deem and Ramdas Pophale) SiO2 
 PCOD9034290
Probable space group: P -1
;
_chemical_formula_sum "Si O2"
_cell_formula_units_Z 14
_cell_length_a 9.438410
_cell_length_b 5.297697
_cell_length_c 23.582602
_cell_angle_alpha 65.057985
_cell_angle_beta 143.202049
_cell_angle_gamma 110.053978
_cell_volume 640.414452
_symmetry_space_group_name_H-M "P -1"
_symmetry_group_IT_number 2
_symmetry_cell_setting 'triclinic'
loop_
_space_group_symop_operation_xyz
x,y,z
-x,-y,-z
loop_
_atom_site_type_symbol
_atom_site_label
_atom_site_fract_x
_atom_site_fract_y
_atom_site_fract_z
Si Si1 0.444147 0.440502 0.773906
Si Si2 0.886152 0.268348 0.863707
Si Si3 0.392158 0.744675 0.524498
Si Si4 0.783313 0.671718 0.940093
Si Si5 0.147160 0.566007 0.292810
Si Si6 0.154696 0.734260 0.561314
Si Si7 0.966049 0.930281 0.301569
O O1 0.677134 0.443451 0.809170
O O2 0.538268 0.530823 0.856973
O O3 0.266797 0.640257 0.665340
O O4 0.303315 0.149174 0.762143
O O5 0.885632 0.332963 0.791484
O O6 0.804871 0.962509 0.886662
O O7 0.141357 0.306986 0.972172
O O8 0.572607 0.489639 0.599783
O O9 0.361585 0.801488 0.575892
O O10 0.130930 0.749182 0.413943
O O11 0.500000 0.000000 0.500000
O O12 0.000000 0.500000 0.000000
O O13 0.036718 0.794517 0.277034
O O14 0.028727 0.257777 0.292723
O O15 0.000000 0.500000 0.500000
O O16 0.000000 0.000000 0.500000
#
# Coordination Sequence:
#
# PCOD9034290 Si02
#       7
#     2   2   2   2   2   2   2
#     4  11  24  42  69  96 137 176 224 277 342 393
#     4  10  22  44  72  98 128 171 236 276 337 404
#     4  10  23  43  63  93 137 182 222 266 328 390
#     4   9  22  41  72  99 128 168 224 287 341 398
#     4  11  25  43  67  96 133 181 224 276 327 399
#     4  12  27  41  65 102 137 174 226 276 323 395
#     4  11  26  41  64  97 140 177 220 272 338 392
#
# _framework density 21.860842999999999
#
# number of rings (size 3 to 8) (size 9 to 14) (size 15 to 20)
#    0.000    1.429    2.857    0.429   12.000    2.286 
#    0.000    1.429    0.000    0.000    0.000    0.000 
#    0.000    0.000    0.000    0.000    0.000    0.000 
#
# Total GULP energy -78131.197374 kJ/mol
# GULP energy per Si atom -5580.799812 kJ/mol
# Density = 2.181109 g / cm^3
# Si number density = 21.860843 Si / 1000 Ang^3
#
#
#
# Elastic Constant Matrix: (Units=GPa)
#
#
# Indices 1 2 3 4 5 6 
#
# 1 57.3411 -6.8751 -1.0676 0.2676 -4.7323 1.4742
# 2 -6.8751 53.0241 31.4890 6.9270 14.6278 -9.0376
# 3 -1.0676 31.4890 127.6693 5.1065 -7.0531 15.1279
# 4 0.2676 6.9270 5.1065 34.4340 3.3752 7.3246
# 5 -4.7323 14.6278 -7.0531 3.3752 29.1561 -3.3005
# 6 1.4742 -9.0376 15.1279 7.3246 -3.3005 29.9170
#
#
#
# Elastic Compliance Matrix: (Units=1/GPa)
#
#
# Indices 1 2 3 4 5 6 
#
# 1 0.017839 0.002096 -0.000266 -0.000768 0.001901 0.000286
# 2 0.002096 0.033562 -0.010716 -0.006807 -0.016571 0.015292
# 3 -0.000266 -0.010716 0.011843 0.001592 0.007014 -0.008829
# 4 -0.000768 -0.006807 0.001592 0.032644 -0.001344 -0.010964
# 5 0.001901 -0.016571 0.007014 -0.001344 0.044386 -0.003421
# 6 0.000286 0.015292 -0.008829 -0.010964 -0.003421 0.044803
#
#
# Mechanical properties :
#
#
# Convention : Reuss Voigt Hill
#
# Bulk Modulus (GPa) = 21.99131 31.68078 26.83604
# Shear Modulus (GPa) = 22.93511 33.00064 27.96788
#
# Velocity S-wave (km/s) = 3.24256 3.88954 3.58069
# Velocity P-wave (km/s) = 4.90922 5.89024 5.42196
#
# Compressibility (1/GPa) = 0.04547250
#
# Stress axis : x y z
#
# Youngs Moduli (GPa) = 56.05715 29.79564 84.43496
#
# Poissons Ratio (x) = -0.06244 0.02245
# Poissons Ratio (y) = -0.11747 0.90477
# Poissons Ratio (z) = 0.01490 0.31928
#
# Static dielectric constant tensor:
#      x y z
#    x 1.854050 -0.029160 0.044650 
#    y -0.029160 1.856070 0.043850 
#    z 0.044650 0.043850 1.862100 
# 
# From -- ./inp_files/51456.got.cif
#   From: 2010.05.17/outbox.cif.g08.bks.cpg/sg2_26_cif.got.tgz:51456.got - 2010.06.03 11:33:40.
