data_PCOD9034800
_publ_section_title
;
Structure prediction by ZEFSAII (Michael W. Deem and Ramdas Pophale) SiO2 
 PCOD9034800
Probable space group: P -1
;
_chemical_formula_sum "Si O2"
_cell_formula_units_Z 14
_cell_length_a 8.731514
_cell_length_b 10.580198
_cell_length_c 12.522252
_cell_angle_alpha 130.418855
_cell_angle_beta 47.714100
_cell_angle_gamma 99.018237
_cell_volume 565.667208
_symmetry_space_group_name_H-M "P -1"
_symmetry_group_IT_number 2
_symmetry_cell_setting 'triclinic'
loop_
_space_group_symop_operation_xyz
x,y,z
-x,-y,-z
loop_
_atom_site_type_symbol
_atom_site_label
_atom_site_fract_x
_atom_site_fract_y
_atom_site_fract_z
Si Si1 0.887026 0.452644 0.631035
Si Si2 0.694777 0.059930 0.960076
Si Si3 0.811529 0.962272 0.630690
Si Si4 0.133486 0.837764 0.758398
Si Si5 0.319880 0.233114 0.908351
Si Si6 0.210825 0.648170 0.812491
Si Si7 0.503776 0.337966 0.667551
O O1 0.672068 0.423698 0.671543
O O2 0.000000 0.500000 0.500000
O O3 0.072339 0.255526 0.499351
O O4 0.773424 0.616017 0.866050
O O5 0.764547 0.092008 0.828464
O O6 0.913757 0.876654 0.809849
O O7 0.500000 0.000000 0.000000
O O8 0.660406 0.235101 0.142876
O O9 0.554730 0.042361 0.737605
O O10 0.000000 0.000000 0.500000
O O11 0.250982 0.640361 0.661366
O O12 0.323351 0.837432 0.587408
O O13 0.000000 0.000000 0.000000
O O14 0.413387 0.293463 0.793857
O O15 0.077737 0.240803 0.986366
O O16 0.298938 0.474007 0.756242
#
# Coordination Sequence:
#
# PCOD9034800 Si02
#       7
#     2   2   2   2   2   2   2
#     4  12  28  48  83 118 154 207 275 325 392 472
#     4  11  24  46  73 106 148 202 264 318 384 472
#     4  12  26  49  81 113 157 208 265 324 398 469
#     4  10  22  45  68 109 149 193 258 316 376 464
#     4  12  27  51  75 117 164 204 262 330 398 472
#     4  11  26  45  74 106 159 204 257 327 401 462
#     4  12  24  48  75 109 157 209 260 320 391 471
#
# _framework density 24.749535000000002
#
# number of rings (size 3 to 8) (size 9 to 14) (size 15 to 20)
#    0.000    0.571    2.857    3.857    6.000    0.000 
#    7.714    3.571    0.000    0.000    0.000    0.000 
#    0.000    0.000    0.000    0.000    0.000    0.000 
#
# Total GULP energy -78182.144187 kJ/mol
# GULP energy per Si atom -5584.438870 kJ/mol
# Density = 2.469320 g / cm^3
# Si number density = 24.749535 Si / 1000 Ang^3
#
#
#
# Elastic Constant Matrix: (Units=GPa)
#
#
# Indices 1 2 3 4 5 6 
#
# 1 153.4661 54.0770 61.5928 1.3236 -22.9449 -24.7349
# 2 54.0770 150.7878 81.8559 -22.2747 -8.9352 -33.4267
# 3 61.5928 81.8559 155.3518 -21.9030 1.9105 -9.4014
# 4 1.3236 -22.2747 -21.9030 65.7096 -14.9294 -8.3734
# 5 -22.9449 -8.9352 1.9105 -14.9294 41.1575 3.4302
# 6 -24.7349 -33.4267 -9.4014 -8.3734 3.4302 54.6409
#
#
#
# Elastic Compliance Matrix: (Units=1/GPa)
#
#
# Indices 1 2 3 4 5 6 
#
# 1 0.009235 -0.000618 -0.003214 0.000028 0.004928 0.002944
# 2 -0.000618 0.011821 -0.005082 0.003907 0.003336 0.006466
# 3 -0.003214 -0.005082 0.010394 0.000841 -0.002867 -0.002467
# 4 0.000028 0.003907 0.000841 0.019131 0.007346 0.005018
# 5 0.004928 0.003336 -0.002867 0.007346 0.030316 0.003001
# 6 0.002944 0.006466 -0.002467 0.005018 0.003001 0.023746
#
#
# Mechanical properties :
#
#
# Convention : Reuss Voigt Hill
#
# Bulk Modulus (GPa) = 73.41969 94.96190 84.19080
# Shear Modulus (GPa) = 39.36619 49.77359 44.56989
#
# Velocity S-wave (km/s) = 3.99254 4.48939 4.24823
# Velocity P-wave (km/s) = 7.14026 8.08240 7.62589
#
# Compressibility (1/GPa) = 0.01362032
#
# Stress axis : x y z
#
# Youngs Moduli (GPa) = 108.28297 84.59647 96.21285
#
# Poissons Ratio (x) = 0.05231 0.30924
# Poissons Ratio (y) = 0.06696 0.48896
# Poissons Ratio (z) = 0.34804 0.42993
#
# Static dielectric constant tensor:
#      x y z
#    x 1.967250 0.026930 -0.007210 
#    y 0.026930 1.959630 0.098840 
#    z -0.007210 0.098840 2.057820 
# 
# From -- ./inp_files/392779.got.cif
#   From: 2010.05.17/outbox.cif.g08.bks.cpg/sg2_197_cif.got.tgz:392779.got - 2010.06.03 11:33:40.
