data_PCOD9034090
_publ_section_title
;
Structure prediction by ZEFSAII (Michael W. Deem and Ramdas Pophale) SiO2 
 PCOD9034090
Probable space group: P -1
;
_chemical_formula_sum "Si O2"
_cell_formula_units_Z 12
_cell_length_a 7.906715
_cell_length_b 14.014503
_cell_length_c 8.879350
_cell_angle_alpha 63.788149
_cell_angle_beta 52.453679
_cell_angle_gamma 43.918148
_cell_volume 541.096280
_symmetry_space_group_name_H-M "P -1"
_symmetry_group_IT_number 2
_symmetry_cell_setting 'triclinic'
loop_
_space_group_symop_operation_xyz
x,y,z
-x,-y,-z
loop_
_atom_site_type_symbol
_atom_site_label
_atom_site_fract_x
_atom_site_fract_y
_atom_site_fract_z
Si Si1 0.304966 0.319518 0.340027
Si Si2 0.094146 0.083801 0.334509
Si Si3 0.926621 0.165402 0.028881
Si Si4 0.760569 0.416289 0.808210
Si Si5 0.640064 0.909441 0.338441
Si Si6 0.791072 0.361710 0.492099
O O1 0.227889 0.464231 0.326398
O O2 0.315446 0.228613 0.532691
O O3 0.053795 0.358403 0.345603
O O4 0.606762 0.232767 0.159417
O O5 0.897568 0.230174 0.426313
O O6 0.411794 0.992862 0.274318
O O7 0.000000 0.000000 0.500000
O O8 0.047389 0.104298 0.168140
O O9 0.960186 0.283821 0.899139
O O10 0.120706 0.079263 0.842056
O O11 0.746155 0.356885 0.699611
O O12 0.500000 0.500000 0.000000
O O13 0.500000 0.000000 0.500000
O O14 0.500000 0.500000 0.500000
#
# Coordination Sequence:
#
# PCOD9034090 Si02
#       6
#     2   2   2   2   2   2
#     4  11  23  44  75 103 142 192 232 298 366 413
#     4  12  26  47  71 110 146 191 241 300 359 426
#     4  11  24  45  72 104 145 187 242 294 358 430
#     4  10  22  44  71 105 140 189 240 291 358 428
#     4  12  24  47  73 105 146 187 242 296 360 434
#     4  12  25  45  73 106 145 190 244 295 356 430
#
# _framework density 22.177199000000002
#
# number of rings (size 3 to 8) (size 9 to 14) (size 15 to 20)
#    0.000    0.667    5.000    3.000    0.000    0.667 
#    6.000    7.500    0.000    0.000    0.000    0.000 
#    0.000    0.000    0.000    0.000    0.000    0.000 
#
# Total GULP energy -66809.961287 kJ/mol
# GULP energy per Si atom -5567.496774 kJ/mol
# Density = 2.212672 g / cm^3
# Si number density = 22.177199 Si / 1000 Ang^3
#
#
#
# Elastic Constant Matrix: (Units=GPa)
#
#
# Indices 1 2 3 4 5 6 
#
# 1 80.8588 18.0909 41.7791 -1.3878 -6.9183 -32.9829
# 2 18.0909 82.1350 25.0107 -36.0193 1.0021 -11.2445
# 3 41.7791 25.0107 201.4940 0.3602 -17.4404 -15.2767
# 4 -1.3878 -36.0193 0.3602 36.4781 -12.5326 2.8839
# 5 -6.9183 1.0021 -17.4404 -12.5326 44.4370 5.9522
# 6 -32.9829 -11.2445 -15.2767 2.8839 5.9522 47.0697
#
#
#
# Elastic Compliance Matrix: (Units=1/GPa)
#
#
# Indices 1 2 3 4 5 6 
#
# 1 0.019401 -0.003450 -0.002722 -0.003844 -0.000689 0.012210
# 2 -0.003450 0.025243 -0.001934 0.026677 0.005571 0.000646
# 3 -0.002722 -0.001934 0.005863 -0.001483 0.001580 -0.000575
# 4 -0.003844 0.026677 -0.001483 0.059022 0.015177 -0.002338
# 5 -0.000689 0.005571 0.001580 0.015177 0.027581 -0.003057
# 6 0.012210 0.000646 -0.000575 -0.002338 -0.003057 0.030298
#
#
# Mechanical properties :
#
#
# Convention : Reuss Voigt Hill
#
# Bulk Modulus (GPa) = 29.15894 59.36102 44.25998
# Shear Modulus (GPa) = 25.63408 44.23741 34.93574
#
# Velocity S-wave (km/s) = 3.40351 4.47108 3.97331
# Velocity P-wave (km/s) = 5.34994 7.31292 6.40705
#
# Compressibility (1/GPa) = 0.03429480
#
# Stress axis : x y z
#
# Youngs Moduli (GPa) = 51.54388 39.61454 170.55762
#
# Poissons Ratio (x) = 0.13668 0.46418
# Poissons Ratio (y) = 0.17784 0.32993
# Poissons Ratio (z) = 0.14028 0.07663
#
# Static dielectric constant tensor:
#      x y z
#    x 1.830600 -0.036470 -0.053160 
#    y -0.036470 1.893180 -0.032670 
#    z -0.053160 -0.032670 1.803390 
# 
# From -- ./inp_files/200048.got.cif
#   From: 2010.05.17/outbox.cif.g08.bks.cpg/sg2_101_cif.got.tgz:200048.got - 2010.06.03 11:33:40.
