data_PCOD9034498
_publ_section_title
;
Structure prediction by ZEFSAII (Michael W. Deem and Ramdas Pophale) SiO2 
 PCOD9034498
Probable space group: P -1
;
_chemical_formula_sum "Si O2"
_cell_formula_units_Z 16
_cell_length_a 11.738414
_cell_length_b 8.455013
_cell_length_c 14.649576
_cell_angle_alpha 86.111769
_cell_angle_beta 148.146919
_cell_angle_gamma 85.781727
_cell_volume 741.414062
_symmetry_space_group_name_H-M "P -1"
_symmetry_group_IT_number 2
_symmetry_cell_setting 'triclinic'
loop_
_space_group_symop_operation_xyz
x,y,z
-x,-y,-z
loop_
_atom_site_type_symbol
_atom_site_label
_atom_site_fract_x
_atom_site_fract_y
_atom_site_fract_z
Si Si1 0.915492 0.811898 0.694853
Si Si2 0.522124 0.645064 0.439261
Si Si3 0.895257 0.133533 0.781736
Si Si4 0.645294 0.777791 0.875105
Si Si5 0.344873 0.660135 0.560558
Si Si6 0.057274 0.343871 0.607979
Si Si7 0.287577 0.492670 0.916739
Si Si8 0.212915 0.054274 0.602896
O O1 0.728667 0.718896 0.600851
O O2 0.838999 0.892555 0.540152
O O3 0.142050 0.672787 0.836876
O O4 0.927670 0.950591 0.771891
O O5 0.500000 0.500000 0.500000
O O6 0.301828 0.794054 0.282647
O O7 0.581939 0.535340 0.393760
O O8 0.797512 0.247903 0.624038
O O9 0.123972 0.170461 0.968740
O O10 0.557623 0.731492 0.719704
O O11 0.447694 0.923394 0.772707
O O12 0.659561 0.618346 0.953326
O O13 0.173833 0.702440 0.525998
O O14 0.146868 0.398767 0.760798
O O15 0.223598 0.204031 0.670663
O O16 0.000000 0.500000 0.500000
O O17 0.500000 0.500000 0.000000
O O18 0.000000 0.000000 0.500000
#
# Coordination Sequence:
#
# PCOD9034498 Si02
#       8
#     2   2   2   2   2   2   2   2
#     4  12  23  46  69 100 142 178 225 285 342 409
#     4  10  22  44  76  96 127 187 230 282 350 398
#     4  11  24  44  69  99 133 176 229 286 343 398
#     4  12  25  43  67 102 138 179 231 280 337 409
#     4  11  21  45  68  94 139 178 226 282 338 405
#     4  12  21  40  63  94 136 181 222 271 334 405
#     4  12  25  39  63 102 139 180 232 275 334 410
#     4  12  24  41  69  99 139 185 217 268 345 405
#
# _framework density 21.580383999999999
#
# number of rings (size 3 to 8) (size 9 to 14) (size 15 to 20)
#    0.000    0.500    6.250    2.625    1.750    1.000 
#    0.000    0.625    0.000    0.000    0.000    0.000 
#    0.000    0.000    0.000    0.000    0.000    0.000 
#
# Total GULP energy -89391.977704 kJ/mol
# GULP energy per Si atom -5586.998606 kJ/mol
# Density = 2.153127 g / cm^3
# Si number density = 21.580384 Si / 1000 Ang^3
#
#
#
# Elastic Constant Matrix: (Units=GPa)
#
#
# Indices 1 2 3 4 5 6 
#
# 1 47.0018 16.7816 18.3859 -4.3586 29.2069 1.1036
# 2 16.7816 139.4580 48.2812 -1.7533 37.3618 -30.8795
# 3 18.3859 48.2812 112.4871 3.0537 33.7026 -8.9559
# 4 -4.3586 -1.7533 3.0537 49.1088 -0.5548 8.7068
# 5 29.2069 37.3618 33.7026 -0.5548 43.8262 -7.2490
# 6 1.1036 -30.8795 -8.9559 8.7068 -7.2490 45.1808
#
#
#
# Elastic Compliance Matrix: (Units=1/GPa)
#
#
# Indices 1 2 3 4 5 6 
#
# 1 0.038605 0.001613 0.001098 0.003977 -0.028723 -0.004998
# 2 0.001613 0.011182 -0.002197 -0.000472 -0.007934 0.005986
# 3 0.001098 -0.002197 0.012119 -0.000775 -0.008237 -0.000298
# 4 0.003977 -0.000472 -0.000775 0.021626 -0.002222 -0.005097
# 5 -0.028723 -0.007934 -0.008237 -0.002222 0.055523 0.002982
# 6 -0.004998 0.005986 -0.000298 -0.005097 0.002982 0.027748
#
#
# Mechanical properties :
#
#
# Convention : Reuss Voigt Hill
#
# Bulk Modulus (GPa) = 15.88982 51.76047 33.82514
# Shear Modulus (GPa) = 26.77345 41.98972 34.38158
#
# Velocity S-wave (km/s) = 3.52609 4.41583 3.99580
# Velocity P-wave (km/s) = 4.89457 7.07365 6.08249
#
# Compressibility (1/GPa) = 0.06293339
#
# Stress axis : x y z
#
# Youngs Moduli (GPa) = 25.90343 89.42855 82.51777
#
# Poissons Ratio (x) = -0.14423 -0.09057
# Poissons Ratio (y) = -0.04178 0.18125
# Poissons Ratio (z) = -0.02843 0.19643
#
# Static dielectric constant tensor:
#      x y z
#    x 2.031790 -0.010160 0.020600 
#    y -0.010160 1.775410 -0.031730 
#    z 0.020600 -0.031730 1.733250 
# 
# From -- ./inp_files/272854.got.cif
#   From: 2010.05.17/outbox.cif.g08.bks.cpg/sg2_137_cif.got.tgz:272854.got - 2010.06.03 11:33:40.
