data_PCOD9034555
_publ_section_title
;
Structure prediction by ZEFSAII (Michael W. Deem and Ramdas Pophale) SiO2 
 PCOD9034555
Probable space group: P -1
;
_chemical_formula_sum "Si O2"
_cell_formula_units_Z 16
_cell_length_a 14.822868
_cell_length_b 15.088524
_cell_length_c 6.322677
_cell_angle_alpha 62.741330
_cell_angle_beta 57.179573
_cell_angle_gamma 37.969753
_cell_volume 729.848170
_symmetry_space_group_name_H-M "P -1"
_symmetry_group_IT_number 2
_symmetry_cell_setting 'triclinic'
loop_
_space_group_symop_operation_xyz
x,y,z
-x,-y,-z
loop_
_atom_site_type_symbol
_atom_site_label
_atom_site_fract_x
_atom_site_fract_y
_atom_site_fract_z
Si Si1 0.252876 0.196416 0.628975
Si Si2 0.393320 0.511735 0.962448
Si Si3 0.195331 0.758060 0.622839
Si Si4 0.365216 0.816664 0.114036
Si Si5 0.948315 0.506616 0.302348
Si Si6 0.100613 0.093736 0.892502
Si Si7 0.909057 0.300636 0.576250
Si Si8 0.485985 0.081202 0.123344
O O1 0.211768 0.324030 0.666134
O O2 0.120554 0.199173 0.805453
O O3 0.315790 0.187385 0.328649
O O4 0.392220 0.044769 0.727489
O O5 0.340628 0.614751 0.721385
O O6 0.494079 0.348434 0.954590
O O7 0.500000 0.500000 0.000000
O O8 0.231449 0.598670 0.188260
O O9 0.249138 0.828103 0.389045
O O10 0.155681 0.708446 0.539085
O O11 0.041538 0.861019 0.850429
O O12 0.449393 0.852726 0.079657
O O13 0.258074 0.931248 0.933018
O O14 0.958214 0.381601 0.407606
O O15 0.000000 0.500000 0.500000
O O16 0.000000 0.500000 0.000000
O O17 0.046281 0.138475 0.670627
O O18 0.500000 0.000000 0.000000
#
# Coordination Sequence:
#
# PCOD9034555 Si02
#       8
#     2   2   2   2   2   2   2   2
#     4  10  22  45  64 101 142 181 243 295 362 440
#     4  11  24  46  68  98 140 183 238 299 363 446
#     4  11  24  44  67 103 136 182 240 299 370 434
#     4  11  23  45  68  99 141 179 239 300 366 444
#     4  12  26  43  73 108 145 195 243 302 373 440
#     4  10  23  43  67  98 140 178 232 294 363 435
#     4  11  24  43  72  98 141 186 236 301 361 442
#     4  10  24  43  69  97 137 189 237 304 364 439
#
# _framework density 21.922367999999999
#
# number of rings (size 3 to 8) (size 9 to 14) (size 15 to 20)
#    0.000    1.250    2.500    2.250    3.500    3.500 
#    9.000    0.000    0.000    0.000    0.000    0.000 
#    0.000    0.000    0.000    0.000    0.000    0.000 
#
# Total GULP energy -89149.123961 kJ/mol
# GULP energy per Si atom -5571.820248 kJ/mol
# Density = 2.187247 g / cm^3
# Si number density = 21.922368 Si / 1000 Ang^3
#
#
#
# Elastic Constant Matrix: (Units=GPa)
#
#
# Indices 1 2 3 4 5 6 
#
# 1 126.5046 22.5532 57.6697 -18.2339 -2.6061 15.4441
# 2 22.5532 87.6332 23.9760 -16.3178 -0.1639 3.2175
# 3 57.6697 23.9760 115.4337 -17.2838 -3.6455 9.4798
# 4 -18.2339 -16.3178 -17.2838 40.3533 0.0705 4.4182
# 5 -2.6061 -0.1639 -3.6455 0.0705 25.6299 -1.9619
# 6 15.4441 3.2175 9.4798 4.4182 -1.9619 36.6097
#
#
#
# Elastic Compliance Matrix: (Units=1/GPa)
#
#
# Indices 1 2 3 4 5 6 
#
# 1 0.011050 -0.000881 -0.004559 0.003096 0.000173 -0.003768
# 2 -0.000881 0.012882 -0.001535 0.004252 -0.000306 -0.000892
# 3 -0.004559 -0.001535 0.011769 0.002493 0.001099 -0.001231
# 4 0.003096 0.004252 0.002493 0.029612 0.000164 -0.005890
# 5 0.000173 -0.000306 0.001099 0.000164 0.039323 0.001757
# 6 -0.003768 -0.000892 -0.001231 -0.005890 0.001757 0.030107
#
#
# Mechanical properties :
#
#
# Convention : Reuss Voigt Hill
#
# Bulk Modulus (GPa) = 45.97767 59.77437 52.87602
# Shear Modulus (GPa) = 32.06301 35.54342 33.80322
#
# Velocity S-wave (km/s) = 3.82851 4.03094 3.93103
# Velocity P-wave (km/s) = 6.36881 6.99930 6.69149
#
# Compressibility (1/GPa) = 0.02174969
#
# Stress axis : x y z
#
# Youngs Moduli (GPa) = 90.49654 77.62849 84.97245
#
# Poissons Ratio (x) = 0.06842 0.38739
# Poissons Ratio (y) = 0.07976 0.13044
# Poissons Ratio (z) = 0.41257 0.11917
#
# Static dielectric constant tensor:
#      x y z
#    x 1.847680 -0.010260 -0.018500 
#    y -0.010260 1.825850 -0.043120 
#    z -0.018500 -0.043120 1.788090 
# 
# From -- ./inp_files/81670.got.cif
#   From: 2010.05.17/outbox.cif.g08.bks.cpg/sg2_41_cif.got.tgz:81670.got - 2010.06.03 11:33:40.
