data_PCOD9034929
_publ_section_title
;
Structure prediction by ZEFSAII (Michael W. Deem and Ramdas Pophale) SiO2 
 PCOD9034929
Probable space group: P -1
;
_chemical_formula_sum "Si O2"
_cell_formula_units_Z 14
_cell_length_a 18.531579
_cell_length_b 9.316887
_cell_length_c 15.341461
_cell_angle_alpha 47.836917
_cell_angle_beta 22.981663
_cell_angle_gamma 34.204031
_cell_volume 530.050352
_symmetry_space_group_name_H-M "P -1"
_symmetry_group_IT_number 2
_symmetry_cell_setting 'triclinic'
loop_
_space_group_symop_operation_xyz
x,y,z
-x,-y,-z
loop_
_atom_site_type_symbol
_atom_site_label
_atom_site_fract_x
_atom_site_fract_y
_atom_site_fract_z
Si Si1 0.597751 0.714250 0.032893
Si Si2 0.976692 0.288951 0.134972
Si Si3 0.701799 0.134718 0.518791
Si Si4 0.693373 0.464090 0.863938
Si Si5 0.783271 0.699857 0.525043
Si Si6 0.212388 0.437527 0.603699
Si Si7 0.194116 0.003167 0.834184
O O1 0.493795 0.736895 0.233850
O O2 0.525679 0.619874 0.075724
O O3 0.912035 0.480792 0.761251
O O4 0.500000 0.000000 0.000000
O O5 0.723992 0.337948 0.379942
O O6 0.000676 0.278580 0.218658
O O7 0.000000 0.500000 0.000000
O O8 0.162545 0.041018 0.958912
O O9 0.636435 0.019056 0.566760
O O10 0.007649 0.851097 0.326964
O O11 0.740032 0.632381 0.693297
O O12 0.500000 0.500000 0.000000
O O13 0.731196 0.589000 0.550322
O O14 0.488745 0.260768 0.420349
O O15 0.135947 0.268102 0.763776
O O16 0.000000 0.000000 0.000000
#
# Coordination Sequence:
#
# PCOD9034929 Si02
#       7
#     2   2   2   2   2   2   2
#     4  11  21  43  65  94 138 181 228 270 330 408
#     4  10  24  43  66 100 131 169 229 280 335 399
#     4  11  23  42  68  95 137 187 223 276 341 397
#     4  11  25  39  63 101 139 177 224 275 335 407
#     4  11  23  42  66  99 137 178 225 275 336 408
#     4  10  24  41  65 100 127 170 226 278 336 402
#     4  10  22  45  69  90 131 171 218 284 344 399
#
# _framework density 26.412582
#
# number of rings (size 3 to 8) (size 9 to 14) (size 15 to 20)
#    0.000    1.429    2.857    1.714    4.000    5.714 
#    0.000    2.857    0.000    0.000    0.000    0.000 
#    0.000    0.000    0.000    0.000    0.000    0.000 
#
# Total GULP energy -78120.270744 kJ/mol
# GULP energy per Si atom -5580.019339 kJ/mol
# Density = 2.635247 g / cm^3
# Si number density = 26.412582 Si / 1000 Ang^3
#
#
#
# Elastic Constant Matrix: (Units=GPa)
#
#
# Indices 1 2 3 4 5 6 
#
# 1 118.2299 36.1227 37.5202 22.5094 1.8813 46.4120
# 2 36.1227 108.9415 53.9192 -14.0767 2.3511 37.7429
# 3 37.5202 53.9192 127.7047 -12.7743 12.9502 20.3232
# 4 22.5094 -14.0767 -12.7743 44.2541 12.5108 10.3909
# 5 1.8813 2.3511 12.9502 12.5108 57.1478 0.2368
# 6 46.4120 37.7429 20.3232 10.3909 0.2368 45.3159
#
#
#
# Elastic Compliance Matrix: (Units=1/GPa)
#
#
# Indices 1 2 3 4 5 6 
#
# 1 0.015992 0.000267 -0.003448 -0.006325 0.001685 -0.013613
# 2 0.000267 0.017256 -0.004077 0.008039 -0.001494 -0.014653
# 3 -0.003448 -0.004077 0.011181 0.004376 -0.003214 0.000926
# 4 -0.006325 0.008039 0.004376 0.034423 -0.008608 -0.010029
# 5 0.001685 -0.001494 -0.003214 -0.008608 0.020106 0.002829
# 6 -0.013613 -0.014653 0.000926 -0.010029 0.002829 0.050084
#
#
# Mechanical properties :
#
#
# Convention : Reuss Voigt Hill
#
# Bulk Modulus (GPa) = 33.43006 67.77782 50.60394
# Shear Modulus (GPa) = 28.81366 44.49782 36.65574
#
# Velocity S-wave (km/s) = 3.30647 4.10899 3.72938
# Velocity P-wave (km/s) = 5.22124 6.94468 6.14369
#
# Compressibility (1/GPa) = 0.02991320
#
# Stress axis : x y z
#
# Youngs Moduli (GPa) = 62.53019 57.95104 89.43530
#
# Poissons Ratio (x) = -0.01546 0.30840
# Poissons Ratio (y) = -0.01668 0.36459
# Poissons Ratio (z) = 0.21562 0.23624
#
# Static dielectric constant tensor:
#      x y z
#    x 2.379230 0.008360 -0.059180 
#    y 0.008360 2.161950 -0.033410 
#    z -0.059180 -0.033410 2.104070 
# 
# From -- ./inp_files/577229.got.cif
#   From: 2010.05.17/outbox.cif.g08.bks.cpg/sg2_289_cif.got.tgz:577229.got - 2010.06.03 11:33:40.
