data_PCOD9034886
_publ_section_title
;
Structure prediction by ZEFSAII (Michael W. Deem and Ramdas Pophale) SiO2 
 PCOD9034886
Probable space group: P -1
;
_chemical_formula_sum "Si O2"
_cell_formula_units_Z 14
_cell_length_a 26.167875
_cell_length_b 5.112390
_cell_length_c 8.242296
_cell_angle_alpha 92.848824
_cell_angle_beta 37.413363
_cell_angle_gamma 115.608577
_cell_volume 510.055431
_symmetry_space_group_name_H-M "P -1"
_symmetry_group_IT_number 2
_symmetry_cell_setting 'triclinic'
loop_
_space_group_symop_operation_xyz
x,y,z
-x,-y,-z
loop_
_atom_site_type_symbol
_atom_site_label
_atom_site_fract_x
_atom_site_fract_y
_atom_site_fract_z
Si Si1 0.762216 0.001050 0.506257
Si Si2 0.149683 0.293401 0.069025
Si Si3 0.378214 0.585541 0.380341
Si Si4 0.351125 0.712258 0.109330
Si Si5 0.588590 0.484246 0.350143
Si Si6 0.019219 0.255711 0.097802
Si Si7 0.841072 0.170551 0.755183
O O1 0.915735 0.213921 0.422950
O O2 0.723709 0.439825 0.303951
O O3 0.859902 0.509938 0.760301
O O4 0.884149 0.344626 0.178498
O O5 0.302271 0.901255 0.234929
O O6 0.126697 0.956673 0.181149
O O7 0.070919 0.207317 0.119143
O O8 0.417973 0.774672 0.109266
O O9 0.439764 0.639804 0.394524
O O10 0.312497 0.192076 0.473206
O O11 0.250745 0.305831 0.385793
O O12 0.399280 0.726200 0.816281
O O13 0.500000 0.500000 0.500000
O O14 0.710813 0.855374 0.057105
O O15 0.000000 0.000000 0.000000
#
# Coordination Sequence:
#
# PCOD9034886 Si02
#       7
#     2   2   2   2   2   2   2
#     4  10  22  45  69 101 145 184 223 287 350 426
#     4  11  23  46  67  98 143 185 227 278 351 424
#     4   9  23  45  77  96 148 184 230 286 357 411
#     4  10  23  45  72 101 144 174 239 282 350 413
#     4  11  25  48  74 106 138 186 243 296 350 411
#     4  12  23  41  71 105 142 183 228 280 351 419
#     4  11  27  44  69 100 139 187 232 284 345 419
#
# _framework density 27.447994999999999
#
# number of rings (size 3 to 8) (size 9 to 14) (size 15 to 20)
#    0.857    0.571    1.429    3.429    0.000    6.286 
#    0.000   17.857    0.000    0.000    0.000    0.000 
#    0.000    0.000    0.000    0.000    0.000    0.000 
#
# Total GULP energy -78491.894788 kJ/mol
# GULP energy per Si atom -5606.563913 kJ/mol
# Density = 2.738552 g / cm^3
# Si number density = 27.447995 Si / 1000 Ang^3
#
#
#
# Elastic Constant Matrix: (Units=GPa)
#
#
# Indices 1 2 3 4 5 6 
#
# 1 133.6059 32.7269 66.3588 -9.7466 11.5056 17.6319
# 2 32.7269 112.8821 46.2250 31.7823 10.1485 2.6052
# 3 66.3588 46.2250 135.9422 19.2550 20.8192 0.5403
# 4 -9.7466 31.7823 19.2550 54.9096 -8.5068 2.8551
# 5 11.5056 10.1485 20.8192 -8.5068 52.3044 3.8561
# 6 17.6319 2.6052 0.5403 2.8551 3.8561 51.4757
#
#
#
# Elastic Compliance Matrix: (Units=1/GPa)
#
#
# Indices 1 2 3 4 5 6 
#
# 1 0.012129 -0.002888 -0.006095 0.006454 0.001695 -0.004429
# 2 -0.002888 0.012683 -0.001399 -0.007819 -0.002614 0.000992
# 3 -0.006095 -0.001399 0.012217 -0.005363 -0.004319 0.002651
# 4 0.006454 -0.007819 -0.005363 0.027030 0.006907 -0.003775
# 5 0.001695 -0.002614 -0.004319 0.006907 0.022276 -0.002455
# 6 -0.004429 0.000992 0.002651 -0.003775 -0.002455 0.021259
#
#
# Mechanical properties :
#
#
# Convention : Reuss Voigt Hill
#
# Bulk Modulus (GPa) = 61.48001 74.78351 68.13176
# Shear Modulus (GPa) = 37.37509 47.54590 42.46050
#
# Velocity S-wave (km/s) = 3.69408 4.16651 3.93739
# Velocity P-wave (km/s) = 6.37514 7.10289 6.74883
#
# Compressibility (1/GPa) = 0.01626545
#
# Stress axis : x y z
#
# Youngs Moduli (GPa) = 82.44991 78.84821 81.85178
#
# Poissons Ratio (x) = 0.22772 0.49885
# Poissons Ratio (y) = 0.23812 0.11450
# Poissons Ratio (z) = 0.50249 0.11030
#
# Static dielectric constant tensor:
#      x y z
#    x 2.171920 0.061470 0.042690 
#    y 0.061470 2.139000 -0.097260 
#    z 0.042690 -0.097260 2.260510 
# 
# From -- ./inp_files/350767.got.cif
#   From: 2010.05.17/outbox.cif.g08.bks.cpg/sg2_176_cif.got.tgz:350767.got - 2010.06.03 11:33:40.
