data_PCOD9034934
_publ_section_title
;
Structure prediction by ZEFSAII (Michael W. Deem and Ramdas Pophale) SiO2 
 PCOD9034934
Probable space group: P -1
;
_chemical_formula_sum "Si O2"
_cell_formula_units_Z 16
_cell_length_a 6.540634
_cell_length_b 26.355399
_cell_length_c 11.759166
_cell_angle_alpha 26.241900
_cell_angle_beta 127.995950
_cell_angle_gamma 132.299305
_cell_volume 662.485493
_symmetry_space_group_name_H-M "P -1"
_symmetry_group_IT_number 2
_symmetry_cell_setting 'triclinic'
loop_
_space_group_symop_operation_xyz
x,y,z
-x,-y,-z
loop_
_atom_site_type_symbol
_atom_site_label
_atom_site_fract_x
_atom_site_fract_y
_atom_site_fract_z
Si Si1 0.247457 0.449541 0.182579
Si Si2 0.231838 0.689450 0.307049
Si Si3 0.706639 0.763910 0.948902
Si Si4 0.580569 0.837596 0.538683
Si Si5 0.495350 0.406285 0.585519
Si Si6 0.497612 0.658196 0.679157
Si Si7 0.815200 0.007499 0.599772
Si Si8 0.708197 0.960099 0.915462
O O1 0.294299 0.416380 0.394355
O O2 0.242193 0.337855 0.320698
O O3 0.475735 0.560186 0.969313
O O4 0.000000 0.500000 0.000000
O O5 0.263998 0.598319 0.405532
O O6 0.256114 0.632505 0.553066
O O7 0.951033 0.710381 0.139870
O O8 0.484609 0.821987 0.129866
O O9 0.514060 0.745990 0.808714
O O10 0.840981 0.907650 0.722587
O O11 0.556584 0.715115 0.113798
O O12 0.487252 0.774353 0.512640
O O13 0.455940 0.945258 0.302833
O O14 0.915430 0.876302 0.566498
O O15 0.500000 0.500000 0.500000
O O16 0.500000 0.000000 0.500000
O O17 0.823662 0.972512 0.802696
O O18 0.000000 0.000000 0.000000
#
# Coordination Sequence:
#
# PCOD9034934 Si02
#       8
#     2   2   2   2   2   2   2   2
#     4  10  22  45  69  92 134 173 222 278 343 389
#     4  11  24  44  67  97 137 178 221 278 339 392
#     4  12  24  42  70  94 137 178 220 278 337 393
#     4  12  26  42  67 104 139 177 229 271 331 406
#     4  11  25  43  68 100 128 171 230 279 334 402
#     4  10  24  42  66 100 132 175 223 279 334 399
#     4  12  24  44  67  97 138 183 222 271 334 399
#     4  12  26  42  67 101 140 183 225 270 331 403
#
# _framework density 24.151468999999999
#
# number of rings (size 3 to 8) (size 9 to 14) (size 15 to 20)
#    0.000    0.750    3.750    3.375    1.750    5.500 
#    0.000    0.000    0.000    0.000    0.000    0.000 
#    0.000    0.000    0.000    0.000    0.000    0.000 
#
# Total GULP energy -89185.396158 kJ/mol
# GULP energy per Si atom -5574.087260 kJ/mol
# Density = 2.409650 g / cm^3
# Si number density = 24.151469 Si / 1000 Ang^3
#
#
#
# Elastic Constant Matrix: (Units=GPa)
#
#
# Indices 1 2 3 4 5 6 
#
# 1 121.3821 61.6875 38.9177 15.0958 12.0143 -30.0754
# 2 61.6875 90.8945 34.9569 15.5852 -6.2332 -29.7779
# 3 38.9177 34.9569 101.4438 21.4969 0.4813 -6.7815
# 4 15.0958 15.5852 21.4969 39.7251 -4.5655 0.2907
# 5 12.0143 -6.2332 0.4813 -4.5655 61.7073 3.2607
# 6 -30.0754 -29.7779 -6.7815 0.2907 3.2607 55.9961
#
#
#
# Elastic Compliance Matrix: (Units=1/GPa)
#
#
# Indices 1 2 3 4 5 6 
#
# 1 0.014334 -0.007666 -0.002240 -0.001698 -0.003863 0.003585
# 2 -0.007666 0.020033 -0.002925 -0.003064 0.002994 0.006023
# 3 -0.002240 -0.002925 0.012682 -0.004885 -0.000257 -0.001182
# 4 -0.001698 -0.003064 -0.004885 0.029971 0.002458 -0.003431
# 5 -0.003863 0.002994 -0.000257 0.002458 0.017526 -0.001547
# 6 0.003585 0.006023 -0.001182 -0.003431 -0.001547 0.022951
#
#
# Mechanical properties :
#
#
# Convention : Reuss Voigt Hill
#
# Bulk Modulus (GPa) = 46.75423 64.98272 55.86848
# Shear Modulus (GPa) = 33.26923 43.36292 38.31607
#
# Velocity S-wave (km/s) = 3.71553 4.24188 3.98740
# Velocity P-wave (km/s) = 6.14879 7.13836 6.66197
#
# Compressibility (1/GPa) = 0.02138844
#
# Stress axis : x y z
#
# Youngs Moduli (GPa) = 69.76281 49.91666 78.85102
#
# Poissons Ratio (x) = 0.38268 0.17660
# Poissons Ratio (y) = 0.53483 0.23061
# Poissons Ratio (z) = 0.15625 0.14599
#
# Static dielectric constant tensor:
#      x y z
#    x 1.924260 -0.003150 -0.043110 
#    y -0.003150 1.862290 -0.058610 
#    z -0.043110 -0.058610 2.043950 
# 
# From -- ./inp_files/39838.got.cif
#   From: 2010.05.17/outbox.cif.g08.bks.cpg/sg2_20_cif.got.tgz:39838.got - 2010.06.03 11:33:40.
