data_PCOD9034795
_publ_section_title
;
Structure prediction by ZEFSAII (Michael W. Deem and Ramdas Pophale) SiO2 
 PCOD9034795
Probable space group: P -1
;
_chemical_formula_sum "Si O2"
_cell_formula_units_Z 12
_cell_length_a 5.536978
_cell_length_b 11.444737
_cell_length_c 9.154610
_cell_angle_alpha 102.286555
_cell_angle_beta 56.289106
_cell_angle_gamma 102.085023
_cell_volume 468.538227
_symmetry_space_group_name_H-M "P -1"
_symmetry_group_IT_number 2
_symmetry_cell_setting 'triclinic'
loop_
_space_group_symop_operation_xyz
x,y,z
-x,-y,-z
loop_
_atom_site_type_symbol
_atom_site_label
_atom_site_fract_x
_atom_site_fract_y
_atom_site_fract_z
Si Si1 0.203763 0.623351 0.444557
Si Si2 0.302689 0.506980 0.787968
Si Si3 0.248676 0.890335 0.037458
Si Si4 0.229990 0.070017 0.553052
Si Si5 0.308677 0.642885 0.075915
Si Si6 0.718854 0.237952 0.292797
O O1 0.504885 0.578747 0.386471
O O2 0.275492 0.658156 0.263433
O O3 0.114393 0.730946 0.602231
O O4 0.000000 0.500000 0.500000
O O5 0.254562 0.630845 0.757701
O O6 0.012739 0.415364 0.882041
O O7 0.474388 0.553328 0.892846
O O8 0.387985 0.774536 0.021620
O O9 0.962658 0.900887 0.234351
O O10 0.174474 0.855393 0.884270
O O11 0.500000 0.000000 0.000000
O O12 0.397454 0.182136 0.437741
O O13 0.500000 0.000000 0.500000
O O14 0.000000 0.000000 0.500000
#
# Coordination Sequence:
#
# PCOD9034795 Si02
#       6
#     2   2   2   2   2   2
#     4  12  24  39  70 111 150 195 245 313 392 471
#     4  10  22  45  68 105 151 193 250 310 394 464
#     4  11  25  52  77 110 157 208 267 328 395 473
#     4  12  29  53  83 115 158 211 273 334 400 473
#     4  10  23  44  73 102 148 197 253 316 388 467
#     4  11  25  46  77 111 152 209 255 330 395 478
#
# _framework density 25.611571000000001
#
# number of rings (size 3 to 8) (size 9 to 14) (size 15 to 20)
#    0.000    1.000    3.333    2.000    4.667    0.667 
#    3.000    0.000    0.000    0.000    0.000    0.000 
#    0.000    0.000    0.000    0.000    0.000    0.000 
#
# Total GULP energy -67003.328911 kJ/mol
# GULP energy per Si atom -5583.610743 kJ/mol
# Density = 2.555328 g / cm^3
# Si number density = 25.611571 Si / 1000 Ang^3
#
#
#
# Elastic Constant Matrix: (Units=GPa)
#
#
# Indices 1 2 3 4 5 6 
#
# 1 52.2375 29.3843 33.6428 9.9867 12.2966 12.5345
# 2 29.3843 161.9237 55.0792 -8.9694 10.5153 38.7051
# 3 33.6428 55.0792 222.8282 28.7554 20.4934 17.1395
# 4 9.9867 -8.9694 28.7554 54.8744 12.4187 4.3709
# 5 12.2966 10.5153 20.4934 12.4187 53.4545 -9.8594
# 6 12.5345 38.7051 17.1395 4.3709 -9.8594 30.4799
#
#
#
# Elastic Compliance Matrix: (Units=1/GPa)
#
#
# Indices 1 2 3 4 5 6 
#
# 1 0.025148 -0.001398 -0.001973 -0.001669 -0.006059 -0.009178
# 2 -0.001398 0.011297 -0.001598 0.005380 -0.005375 -0.015382
# 3 -0.001973 -0.001598 0.005611 -0.002645 -0.000805 -0.000195
# 4 -0.001669 0.005380 -0.002645 0.023175 -0.006930 -0.010223
# 5 -0.006059 -0.005375 -0.000805 -0.006930 0.026653 0.019385
# 6 -0.009178 -0.015382 -0.000195 -0.010223 0.019385 0.063963
#
#
# Mechanical properties :
#
#
# Convention : Reuss Voigt Hill
#
# Bulk Modulus (GPa) = 31.13469 74.80022 52.96745
# Shear Modulus (GPa) = 28.33032 49.02065 38.67549
#
# Velocity S-wave (km/s) = 3.32950 4.37968 3.89019
# Velocity P-wave (km/s) = 5.19265 7.40571 6.39563
#
# Compressibility (1/GPa) = 0.03211852
#
# Stress axis : x y z
#
# Youngs Moduli (GPa) = 39.76512 88.51938 178.22186
#
# Poissons Ratio (x) = 0.12372 0.35159
# Poissons Ratio (y) = 0.05558 0.28482
# Poissons Ratio (z) = 0.07845 0.14147
#
# Static dielectric constant tensor:
#      x y z
#    x 2.193260 0.044120 -0.621840 
#    y 0.044120 2.077720 -0.691430 
#    z -0.621840 -0.691430 6.448030 
# 
# From -- ./inp_files/32301.got.cif
#   From: 2010.05.17/outbox.cif.g08.bks.cpg/sg2_17_cif.got.tgz:32301.got - 2010.06.03 11:33:40.
