data_PCOD9034720
_publ_section_title
;
Structure prediction by ZEFSAII (Michael W. Deem and Ramdas Pophale) SiO2 
 PCOD9034720
Probable space group: P -1
;
_chemical_formula_sum "Si O2"
_cell_formula_units_Z 16
_cell_length_a 14.008015
_cell_length_b 7.655769
_cell_length_c 16.457020
_cell_angle_alpha 124.304504
_cell_angle_beta 45.210694
_cell_angle_gamma 89.218470
_cell_volume 738.357443
_symmetry_space_group_name_H-M "P -1"
_symmetry_group_IT_number 2
_symmetry_cell_setting 'triclinic'
loop_
_space_group_symop_operation_xyz
x,y,z
-x,-y,-z
loop_
_atom_site_type_symbol
_atom_site_label
_atom_site_fract_x
_atom_site_fract_y
_atom_site_fract_z
Si Si1 0.469063 0.254371 0.406595
Si Si2 0.764069 0.158533 0.990281
Si Si3 0.668796 0.775097 0.929291
Si Si4 0.928689 0.206948 0.519068
Si Si5 0.436043 0.301965 0.866463
Si Si6 0.773668 0.251257 0.193335
Si Si7 0.723764 0.930055 0.721121
Si Si8 0.818621 0.357882 0.457885
O O1 0.665623 0.164203 0.272109
O O2 0.331262 0.445647 0.615592
O O3 0.355498 0.477524 0.455665
O O4 0.509347 0.966315 0.287485
O O5 0.691595 0.997511 0.988110
O O6 0.655273 0.418693 0.058548
O O7 0.733994 0.289087 0.131405
O O8 0.987817 0.908809 0.773007
O O9 0.806969 0.526735 0.715907
O O10 0.545398 0.062016 0.916294
O O11 0.700371 0.628438 0.960399
O O12 0.819147 0.241283 0.514901
O O13 0.118881 0.102433 0.341675
O O14 0.000000 0.000000 0.500000
O O15 0.624064 0.163083 0.766836
O O16 0.000000 0.000000 0.000000
O O17 0.808734 0.619411 0.553952
#
# Coordination Sequence:
#
# PCOD9034720 Si02
#       8
#     2   2   2   2   2   2   2   2
#     4  10  22  45  67  95 138 162 219 279 322 397
#     4  12  21  41  76  93 130 182 216 266 345 382
#     4  10  23  44  65  92 137 175 213 272 327 374
#     4  12  25  41  64  98 137 174 224 277 321 379
#     4   9  22  43  64 102 134 167 226 266 317 404
#     4  11  22  40  74  97 125 176 214 267 342 390
#     4   9  22  43  61  93 133 172 219 273 309 392
#     4  11  22  42  65  95 130 176 223 266 325 397
#
# _framework density 21.669723000000001
#
# number of rings (size 3 to 8) (size 9 to 14) (size 15 to 20)
#    0.750    0.750    3.750    1.125    0.000    3.500 
#    2.250    0.625    0.000    0.000    0.000    0.000 
#    0.000    0.000    0.000    0.000    0.000    0.000 
#
# Total GULP energy -89396.930467 kJ/mol
# GULP energy per Si atom -5587.308154 kJ/mol
# Density = 2.162040 g / cm^3
# Si number density = 21.669723 Si / 1000 Ang^3
#
#
#
# Elastic Constant Matrix: (Units=GPa)
#
#
# Indices 1 2 3 4 5 6 
#
# 1 82.7567 26.7054 49.8102 -2.7868 -4.2549 -10.7806
# 2 26.7054 118.7600 37.5780 2.1055 -6.1258 -24.4821
# 3 49.8102 37.5780 139.3430 -14.6326 -0.2751 -8.8967
# 4 -2.7868 2.1055 -14.6326 31.4992 -10.6919 -1.5135
# 5 -4.2549 -6.1258 -0.2751 -10.6919 43.8180 -8.1925
# 6 -10.7806 -24.4821 -8.8967 -1.5135 -8.1925 22.5534
#
#
#
# Elastic Compliance Matrix: (Units=1/GPa)
#
#
# Indices 1 2 3 4 5 6 
#
# 1 0.016395 -0.000640 -0.005272 0.000236 0.002657 0.006044
# 2 -0.000640 0.012307 -0.002180 0.000219 0.004271 0.013760
# 3 -0.005272 -0.002180 0.010079 0.004411 0.000223 -0.000534
# 4 0.000236 0.000219 0.004411 0.037932 0.010947 0.008613
# 5 0.002657 0.004271 0.000223 0.010947 0.029619 0.017488
# 6 0.006044 0.013760 -0.000534 0.008613 0.017488 0.068884
#
#
# Mechanical properties :
#
#
# Convention : Reuss Voigt Hill
#
# Bulk Modulus (GPa) = 44.25491 63.22741 53.74116
# Shear Modulus (GPa) = 25.13411 34.69186 29.91299
#
# Velocity S-wave (km/s) = 3.40938 4.00551 3.71941
# Velocity P-wave (km/s) = 5.99711 7.11571 6.58022
#
# Compressibility (1/GPa) = 0.02259636
#
# Stress axis : x y z
#
# Youngs Moduli (GPa) = 60.99327 81.25451 99.21867
#
# Poissons Ratio (x) = 0.05198 0.52310
# Poissons Ratio (y) = 0.03902 0.21633
# Poissons Ratio (z) = 0.32157 0.17716
#
# Static dielectric constant tensor:
#      x y z
#    x 1.793770 -0.029590 -0.017580 
#    y -0.029590 1.849480 -0.020360 
#    z -0.017580 -0.020360 1.789300 
# 
# From -- ./inp_files/527734.got.cif
#   From: 2010.05.17/outbox.cif.g08.bks.cpg/sg2_264_cif.got.tgz:527734.got - 2010.06.03 11:33:40.
