data_PCOD9034769
_publ_section_title
;
Structure prediction by ZEFSAII (Michael W. Deem and Ramdas Pophale) SiO2 
 PCOD9034769
Probable space group: P -1
;
_chemical_formula_sum "Si O2"
_cell_formula_units_Z 14
_cell_length_a 7.363149
_cell_length_b 12.232597
_cell_length_c 15.969469
_cell_angle_alpha 140.836220
_cell_angle_beta 46.847461
_cell_angle_gamma 107.842250
_cell_volume 579.192820
_symmetry_space_group_name_H-M "P -1"
_symmetry_group_IT_number 2
_symmetry_cell_setting 'triclinic'
loop_
_space_group_symop_operation_xyz
x,y,z
-x,-y,-z
loop_
_atom_site_type_symbol
_atom_site_label
_atom_site_fract_x
_atom_site_fract_y
_atom_site_fract_z
Si Si1 0.622791 0.811795 0.688834
Si Si2 0.270407 0.316735 0.611391
Si Si3 0.679691 0.439224 0.494808
Si Si4 0.270029 0.941428 0.441586
Si Si5 0.209289 0.005912 0.060999
Si Si6 0.139873 0.888900 0.183509
Si Si7 0.221640 0.496276 0.996460
O O1 0.721420 0.726889 0.515280
O O2 0.753095 0.615664 0.589169
O O3 0.702575 0.984613 0.772817
O O4 0.299420 0.912921 0.885210
O O5 0.477763 0.412504 0.610851
O O6 0.959182 0.447729 0.827312
O O7 0.378086 0.099009 0.485376
O O8 0.500000 0.500000 0.500000
O O9 0.955671 0.228208 0.272534
O O10 0.504913 0.717614 0.217561
O O11 0.000000 0.000000 0.500000
O O12 0.151083 0.984460 0.598719
O O13 0.126232 0.889064 0.086937
O O14 0.500000 0.000000 0.000000
O O15 0.280279 0.672972 0.053144
O O16 0.000000 0.500000 0.000000
#
# Coordination Sequence:
#
# PCOD9034769 Si02
#       7
#     2   2   2   2   2   2   2
#     4  10  22  45  68 101 138 176 232 282 336 408
#     4  10  24  43  68 104 138 180 228 285 342 412
#     4  10  24  42  69 101 139 181 229 280 345 406
#     4  11  24  47  73 100 136 179 234 293 335 409
#     4  10  24  42  69 101 139 181 229 280 345 406
#     4  10  24  43  68 104 138 180 228 285 342 412
#     4  11  28  44  72 102 137 182 228 282 360 405
#
# _framework density 24.171572000000001
#
# number of rings (size 3 to 8) (size 9 to 14) (size 15 to 20)
#    0.000    1.714    1.429    0.000    6.000   12.571 
#    0.000    0.000    0.000    0.000    0.000    0.000 
#    0.000    0.000    0.000    0.000    0.000    0.000 
#
# Total GULP energy -78172.745623 kJ/mol
# GULP energy per Si atom -5583.767545 kJ/mol
# Density = 2.411656 g / cm^3
# Si number density = 24.171572 Si / 1000 Ang^3
#
#
#
# Elastic Constant Matrix: (Units=GPa)
#
#
# Indices 1 2 3 4 5 6 
#
# 1 70.4140 31.5616 14.0788 19.0509 -18.9118 4.1462
# 2 31.5616 845.9244 -512.5702 1027.9320 -126.2125 500.6453
# 3 14.0788 -512.5702 856.9779-1023.1670 107.0961 -502.6280
# 4 19.0509 1027.9320-1023.1670 1762.8694 -221.4997 823.3584
# 5 -18.9118 -126.2125 107.0961 -221.4997 66.0044 -90.6588
# 6 4.1462 500.6453 -502.6280 823.3584 -90.6588 395.4428
#
#
#
# Elastic Compliance Matrix: (Units=1/GPa)
#
#
# Indices 1 2 3 4 5 6 
#
# 1 0.016438 -0.001259 -0.000595 0.000976 0.006811 0.000194
# 2 -0.001259 0.010562 -0.007008 0.014472 0.011387 -0.049787
# 3 -0.000595 -0.007008 0.009668 -0.013281 -0.009883 0.046553
# 4 0.000976 0.014472 -0.013281 0.062956 0.047235 -0.155464
# 5 0.006811 0.011387 -0.009883 0.047235 0.060117 -0.111617
# 6 0.000194 -0.049787 0.046553 -0.155464 -0.111617 0.422837
#
#
# Mechanical properties :
#
#
# Convention : Reuss Voigt Hill
#
# Bulk Modulus (GPa) = 52.77811 93.27295 73.02553
# Shear Modulus (GPa) = 8.24245 594.21307 301.22776
#
# Velocity S-wave (km/s) = 1.84862 15.69602 11.17547
# Velocity P-wave (km/s) = 5.14186 19.16138 14.02849
#
# Compressibility (1/GPa) = 0.01894725
#
# Stress axis : x y z
#
# Youngs Moduli (GPa) = 60.83306 94.67755 103.43162
#
# Poissons Ratio (x) = 0.11916 0.06150
# Poissons Ratio (y) = 0.07656 0.72481
# Poissons Ratio (z) = 0.03617 0.66347
#
# Static dielectric constant tensor:
#      x y z
#    x 2.275890 0.034140 0.133890 
#    y 0.034140 1.970770 -0.004790 
#    z 0.133890 -0.004790 1.961330 
# 
# From -- ./inp_files/559991.got.cif
#   From: 2010.05.17/outbox.cif.g08.bks.cpg/sg2_280_cif.got.tgz:559991.got - 2010.06.03 11:33:40.
