data_PCOD9034874
_publ_section_title
;
Structure prediction by ZEFSAII (Michael W. Deem and Ramdas Pophale) SiO2 
 PCOD9034874
Probable space group: P -1
;
_chemical_formula_sum "Si O2"
_cell_formula_units_Z 16
_cell_length_a 9.533575
_cell_length_b 8.584823
_cell_length_c 13.292662
_cell_angle_alpha 116.958559
_cell_angle_beta 122.960477
_cell_angle_gamma 102.065327
_cell_volume 645.160505
_symmetry_space_group_name_H-M "P -1"
_symmetry_group_IT_number 2
_symmetry_cell_setting 'triclinic'
loop_
_space_group_symop_operation_xyz
x,y,z
-x,-y,-z
loop_
_atom_site_type_symbol
_atom_site_label
_atom_site_fract_x
_atom_site_fract_y
_atom_site_fract_z
Si Si1 0.251655 0.759092 0.126308
Si Si2 0.312642 0.919881 0.649489
Si Si3 0.898128 0.012135 0.569434
Si Si4 0.416154 0.426918 0.561360
Si Si5 0.703786 0.615770 0.042454
Si Si6 0.686142 0.984358 0.100769
Si Si7 0.808635 0.472694 0.779822
Si Si8 0.097634 0.479162 0.400845
O O1 0.231596 0.725719 0.228030
O O2 0.448507 0.000003 0.240219
O O3 0.285997 0.575620 0.053547
O O4 0.034101 0.683089 0.970276
O O5 0.095077 0.671292 0.500304
O O6 0.289867 0.001966 0.559734
O O7 0.319799 0.034962 0.786507
O O8 0.775809 0.822629 0.551697
O O9 0.000000 0.000000 0.500000
O O10 0.086852 0.229920 0.762863
O O11 0.500000 0.500000 0.500000
O O12 0.619482 0.490851 0.719014
O O13 0.290795 0.526502 0.555448
O O14 0.690015 0.781529 0.013426
O O15 0.500000 0.500000 0.000000
O O16 0.899938 0.228607 0.237731
O O17 0.500000 0.000000 0.000000
O O18 0.826491 0.443338 0.660984
#
# Coordination Sequence:
#
# PCOD9034874 Si02
#       8
#     2   2   2   2   2   2   2   2
#     4  11  23  45  67 104 137 180 238 287 349 420
#     4  12  24  43  70 105 135 184 241 288 354 427
#     4  12  22  43  76 102 137 183 248 298 344 424
#     4  10  22  45  69 100 143 183 238 295 356 421
#     4  12  25  45  73 104 141 186 237 299 359 427
#     4  12  26  45  68 103 149 182 228 294 374 429
#     4  10  23  45  69  96 142 182 234 290 346 427
#     4  11  24  45  68 100 142 185 233 292 357 425
#
# _framework density 24.800031000000001
#
# number of rings (size 3 to 8) (size 9 to 14) (size 15 to 20)
#    0.000    0.750    5.000    1.875    1.750    1.500 
#    9.000    1.250    0.000    0.000    0.000    0.000 
#    0.000    0.000    0.000    0.000    0.000    0.000 
#
# Total GULP energy -89151.329083 kJ/mol
# GULP energy per Si atom -5571.958068 kJ/mol
# Density = 2.474359 g / cm^3
# Si number density = 24.800031 Si / 1000 Ang^3
#
#
#
# Elastic Constant Matrix: (Units=GPa)
#
#
# Indices 1 2 3 4 5 6 
#
# 1 78.5627 27.1136 53.4790 6.6271 25.0441 2.1334
# 2 27.1136 97.7061 67.4805 13.4029 -2.6830 0.2864
# 3 53.4790 67.4805 128.4095 7.2642 24.8203 -9.6294
# 4 6.6271 13.4029 7.2642 56.6656 -0.0398 17.6606
# 5 25.0441 -2.6830 24.8203 -0.0398 34.2125 -0.5186
# 6 2.1334 0.2864 -9.6294 17.6606 -0.5186 39.5717
#
#
#
# Elastic Compliance Matrix: (Units=1/GPa)
#
#
# Indices 1 2 3 4 5 6 
#
# 1 0.021072 -0.002343 -0.005434 -0.000480 -0.011704 -0.002381
# 2 -0.002343 0.019439 -0.011454 -0.002348 0.011522 -0.001603
# 3 -0.005434 -0.011454 0.018456 -0.000585 -0.010235 0.004994
# 4 -0.000480 -0.002348 -0.000585 0.021330 0.000471 -0.009613
# 5 -0.011704 0.011522 -0.010235 0.000471 0.046102 -0.001549
# 6 -0.002381 -0.001603 0.004994 -0.009613 -0.001549 0.030896
#
#
# Mechanical properties :
#
#
# Convention : Reuss Voigt Hill
#
# Bulk Modulus (GPa) = 48.76940 66.75827 57.76383
# Shear Modulus (GPa) = 24.68031 36.53031 30.60531
#
# Velocity S-wave (km/s) = 3.15806 3.84212 3.51676
# Velocity P-wave (km/s) = 5.74504 6.83078 6.31131
#
# Compressibility (1/GPa) = 0.02050466
#
# Stress axis : x y z
#
# Youngs Moduli (GPa) = 47.45580 51.44358 54.18438
#
# Poissons Ratio (x) = 0.12055 0.29442
# Poissons Ratio (y) = 0.11121 0.62062
# Poissons Ratio (z) = 0.25786 0.58923
#
# Static dielectric constant tensor:
#      x y z
#    x 2.170090 0.064680 0.028100 
#    y 0.064680 2.159790 0.026000 
#    z 0.028100 0.026000 1.906570 
# 
# From -- ./inp_files/515998.got.cif
#   From: 2010.05.17/outbox.cif.g08.bks.cpg/sg2_258_cif.got.tgz:515998.got - 2010.06.03 11:33:40.
