data_PCOD9034643
_publ_section_title
;
Structure prediction by ZEFSAII (Michael W. Deem and Ramdas Pophale) SiO2 
 PCOD9034643
Probable space group: P -1
;
_chemical_formula_sum "Si O2"
_cell_formula_units_Z 16
_cell_length_a 14.412043
_cell_length_b 8.351892
_cell_length_c 9.964818
_cell_angle_alpha 135.231302
_cell_angle_beta 57.832380
_cell_angle_gamma 108.148774
_cell_volume 710.575002
_symmetry_space_group_name_H-M "P -1"
_symmetry_group_IT_number 2
_symmetry_cell_setting 'triclinic'
loop_
_space_group_symop_operation_xyz
x,y,z
-x,-y,-z
loop_
_atom_site_type_symbol
_atom_site_label
_atom_site_fract_x
_atom_site_fract_y
_atom_site_fract_z
Si Si1 0.112320 0.387621 0.013664
Si Si2 0.714653 0.737149 0.653074
Si Si3 0.473920 0.744786 0.735776
Si Si4 0.131985 0.686750 0.805586
Si Si5 0.206240 0.896509 0.621652
Si Si6 0.409462 0.050355 0.713320
Si Si7 0.228886 0.807618 0.060847
Si Si8 0.741605 0.561251 0.830713
O O1 0.154194 0.372785 0.126747
O O2 0.981531 0.404724 0.119799
O O3 0.160000 0.150489 0.764455
O O4 0.168255 0.602599 0.043891
O O5 0.584503 0.782385 0.752866
O O6 0.771261 0.522839 0.399759
O O7 0.776419 0.959734 0.713171
O O8 0.731845 0.669421 0.755143
O O9 0.500000 0.500000 0.500000
O O10 0.359995 0.741075 0.901482
O O11 0.451655 0.934832 0.750335
O O12 0.171750 0.853839 0.986954
O O13 0.121064 0.796545 0.730910
O O14 0.308395 0.926576 0.659337
O O15 0.500000 0.000000 0.500000
O O16 0.363071 0.315253 0.932874
O O17 0.244599 0.710735 0.368420
#
# Coordination Sequence:
#
# PCOD9034643 Si02
#       8
#     2   2   2   2   2   2   2   2
#     4  11  26  41  69 102 135 178 225 286 338 385
#     4  11  24  43  72  98 133 183 227 269 341 407
#     4  12  23  44  71  97 136 183 217 271 343 406
#     4  11  23  46  69  96 134 180 233 276 335 401
#     4  10  22  45  66  93 132 178 224 279 334 395
#     4  11  24  41  66  98 134 171 221 279 332 401
#     4  12  24  43  66  99 139 176 225 279 334 406
#     4  10  23  45  63  99 131 173 232 271 330 402
#
# _framework density 22.516974000000001
#
# number of rings (size 3 to 8) (size 9 to 14) (size 15 to 20)
#    0.000    1.000    3.750    2.625    3.500    6.000 
#    0.000    0.000    0.000    0.000    0.000    0.000 
#    0.000    0.000    0.000    0.000    0.000    0.000 
#
# Total GULP energy -89470.234852 kJ/mol
# GULP energy per Si atom -5591.889678 kJ/mol
# Density = 2.246572 g / cm^3
# Si number density = 22.516974 Si / 1000 Ang^3
#
#
#
# Elastic Constant Matrix: (Units=GPa)
#
#
# Indices 1 2 3 4 5 6 
#
# 1 108.5274 1.9889 27.2551 -9.2556 -5.6480 3.3970
# 2 1.9889 60.2093 21.9247 2.3056 -5.3495 24.4155
# 3 27.2551 21.9247 71.1228 6.7063 10.8203 11.4865
# 4 -9.2556 2.3056 6.7063 30.3911 16.3502 0.5402
# 5 -5.6480 -5.3495 10.8203 16.3502 29.7304 4.1881
# 6 3.3970 24.4155 11.4865 0.5402 4.1881 32.4014
#
#
#
# Elastic Compliance Matrix: (Units=1/GPa)
#
#
# Indices 1 2 3 4 5 6 
#
# 1 0.010983 0.002430 -0.005460 0.002628 0.003279 -0.001515
# 2 0.002430 0.030418 -0.008485 -0.008289 0.016707 -0.022189
# 3 -0.005460 -0.008485 0.020115 -0.000106 -0.009985 0.001128
# 4 0.002628 -0.008289 -0.000106 0.050266 -0.029870 0.009031
# 5 0.003279 0.016707 -0.009985 -0.029870 0.059665 -0.016608
# 6 -0.001515 -0.022189 0.001128 0.009031 -0.016608 0.049338
#
#
# Mechanical properties :
#
#
# Convention : Reuss Voigt Hill
#
# Bulk Modulus (GPa) = 25.98251 38.02187 32.00219
# Shear Modulus (GPa) = 19.48222 31.08396 25.28309
#
# Velocity S-wave (km/s) = 2.94466 3.71950 3.35452
# Velocity P-wave (km/s) = 4.80890 5.94716 5.40806
#
# Compressibility (1/GPa) = 0.03848743
#
# Stress axis : x y z
#
# Youngs Moduli (GPa) = 91.04842 32.87535 49.71373
#
# Poissons Ratio (x) = -0.07990 0.27144
# Poissons Ratio (y) = -0.22129 0.42181
# Poissons Ratio (z) = 0.49714 0.27894
#
# Static dielectric constant tensor:
#      x y z
#    x 1.811020 -0.005340 0.003060 
#    y -0.005340 1.905800 -0.015960 
#    z 0.003060 -0.015960 1.856160 
# 
# From -- ./inp_files/296028.got.cif
#   From: 2010.05.17/outbox.cif.g08.bks.cpg/sg2_149_cif.got.tgz:296028.got - 2010.06.03 11:33:40.
