data_PCOD9034787
_publ_section_title
;
Structure prediction by ZEFSAII (Michael W. Deem and Ramdas Pophale) SiO2 
 PCOD9034787
Probable space group: P -1
;
_chemical_formula_sum "Si O2"
_cell_formula_units_Z 12
_cell_length_a 9.251064
_cell_length_b 5.290785
_cell_length_c 10.968186
_cell_angle_alpha 76.215402
_cell_angle_beta 75.845754
_cell_angle_gamma 60.467919
_cell_volume 448.482739
_symmetry_space_group_name_H-M "P -1"
_symmetry_group_IT_number 2
_symmetry_cell_setting 'triclinic'
loop_
_space_group_symop_operation_xyz
x,y,z
-x,-y,-z
loop_
_atom_site_type_symbol
_atom_site_label
_atom_site_fract_x
_atom_site_fract_y
_atom_site_fract_z
Si Si1 0.071543 0.646010 0.602383
Si Si2 0.837332 0.138977 0.905533
Si Si3 0.377034 0.615014 0.690091
Si Si4 0.757477 0.254088 0.634893
Si Si5 0.395017 0.346577 0.971744
Si Si6 0.170215 0.118136 0.820723
O O1 0.224513 0.706389 0.617192
O O2 0.142577 0.571813 0.457299
O O3 0.083731 0.408602 0.725297
O O4 0.889652 0.923438 0.608375
O O5 0.746909 0.216642 0.786421
O O6 0.779950 0.455278 0.945787
O O7 0.033592 0.993716 0.850128
O O8 0.808013 0.929368 0.032470
O O9 0.562432 0.433839 0.620332
O O10 0.340980 0.911310 0.737167
O O11 0.363962 0.421074 0.826502
O O12 0.500000 0.500000 0.000000
O O13 0.500000 0.000000 0.000000
#
# Coordination Sequence:
#
# PCOD9034787 Si02
#       6
#     2   2   2   2   2   2
#     4  11  26  45  69 101 141 189 240 297 367 436
#     4  10  22  45  68 103 141 185 238 302 366 431
#     4  11  24  44  68 100 145 182 244 294 369 429
#     4  11  24  46  69 101 143 185 242 298 364 441
#     4  11  25  42  72 114 148 188 250 308 369 445
#     4  10  24  44  69  99 137 187 238 302 364 441
#
# _framework density 26.756882999999998
#
# number of rings (size 3 to 8) (size 9 to 14) (size 15 to 20)
#    0.000    1.333    3.333    0.500    7.000    2.000 
#    0.000    0.000    0.000    0.000    0.000    0.000 
#    0.000    0.000    0.000    0.000    0.000    0.000 
#
# Total GULP energy -66971.021552 kJ/mol
# GULP energy per Si atom -5580.918463 kJ/mol
# Density = 2.669598 g / cm^3
# Si number density = 26.756883 Si / 1000 Ang^3
#
#
#
# Elastic Constant Matrix: (Units=GPa)
#
#
# Indices 1 2 3 4 5 6 
#
# 1 71.8862 53.0236 38.2466 -2.2394 3.3744 -38.1751
# 2 53.0236 191.1179 81.0138 -9.0387 -11.1522 -37.2300
# 3 38.2466 81.0138 191.3926 -20.7133 -9.8499 -19.5349
# 4 -2.2394 -9.0387 -20.7133 56.0963 -13.5614 -2.0405
# 5 3.3744 -11.1522 -9.8499 -13.5614 52.7309 0.6889
# 6 -38.1751 -37.2300 -19.5349 -2.0405 0.6889 51.0739
#
#
#
# Elastic Compliance Matrix: (Units=1/GPa)
#
#
# Indices 1 2 3 4 5 6 
#
# 1 0.026576 -0.003335 -0.002438 -0.000554 -0.003220 0.016522
# 2 -0.003335 0.007649 -0.002176 0.000763 0.001591 0.002260
# 3 -0.002438 -0.002176 0.006915 0.002475 0.001633 -0.000687
# 4 -0.000554 0.000763 0.002475 0.020325 0.005862 0.001821
# 5 -0.003220 0.001591 0.001633 0.005862 0.021328 -0.000676
# 6 0.016522 0.002260 -0.000687 0.001821 -0.000676 0.033395
#
#
# Mechanical properties :
#
#
# Convention : Reuss Voigt Hill
#
# Bulk Modulus (GPa) = 39.61883 88.77386 64.19635
# Shear Modulus (GPa) = 35.58678 50.78773 43.18726
#
# Velocity S-wave (km/s) = 3.65088 4.36147 4.02190
# Velocity P-wave (km/s) = 5.71060 7.65592 6.75367
#
# Compressibility (1/GPa) = 0.02524052
#
# Stress axis : x y z
#
# Youngs Moduli (GPa) = 37.62794 130.73043 144.61112
#
# Poissons Ratio (x) = 0.43602 0.35262
# Poissons Ratio (y) = 0.12550 0.31471
# Poissons Ratio (z) = 0.09175 0.28451
#
# Static dielectric constant tensor:
#      x y z
#    x 2.360360 0.068160 0.039040 
#    y 0.068160 2.153000 -0.006450 
#    z 0.039040 -0.006450 2.147250 
# 
# From -- ./inp_files/410004.got.cif
#   From: 2010.05.17/outbox.cif.g08.bks.cpg/sg2_206_cif.got.tgz:410004.got - 2010.06.03 11:33:40.
