data_PCOD9034842
_publ_section_title
;
Structure prediction by ZEFSAII (Michael W. Deem and Ramdas Pophale) SiO2 
 PCOD9034842
Probable space group: P -1
;
_chemical_formula_sum "Si O2"
_cell_formula_units_Z 14
_cell_length_a 17.024691
_cell_length_b 8.086232
_cell_length_c 14.347078
_cell_angle_alpha 102.388219
_cell_angle_beta 157.297804
_cell_angle_gamma 65.104679
_cell_volume 600.198116
_symmetry_space_group_name_H-M "P -1"
_symmetry_group_IT_number 2
_symmetry_cell_setting 'triclinic'
loop_
_space_group_symop_operation_xyz
x,y,z
-x,-y,-z
loop_
_atom_site_type_symbol
_atom_site_label
_atom_site_fract_x
_atom_site_fract_y
_atom_site_fract_z
Si Si1 0.506980 0.139050 0.187421
Si Si2 0.656174 0.835356 0.795663
Si Si3 0.026320 0.724391 0.430460
Si Si4 0.456902 0.477910 0.723004
Si Si5 0.774705 0.989963 0.771771
Si Si6 0.123332 0.424229 0.228442
Si Si7 0.051368 0.852113 0.670119
O O1 0.480545 0.053322 0.245585
O O2 0.545350 0.319512 0.272151
O O3 0.762225 0.953858 0.394073
O O4 0.238611 0.246310 0.855437
O O5 0.754350 0.939797 0.850265
O O6 0.483240 0.815532 0.531284
O O7 0.889567 0.605120 0.055296
O O8 0.255009 0.545241 0.594443
O O9 0.118255 0.711140 0.634576
O O10 0.953191 0.946987 0.337489
O O11 0.352322 0.428840 0.512817
O O12 0.736308 0.285975 0.036875
O O13 0.809354 0.804285 0.724866
O O14 0.000000 0.000000 0.000000
O O15 0.000000 0.500000 0.000000
#
# Coordination Sequence:
#
# PCOD9034842 Si02
#       7
#     2   2   2   2   2   2   2
#     4  11  24  40  68  98 141 178 220 281 340 406
#     4  10  23  44  61  97 133 170 223 282 329 401
#     4  10  22  45  68  97 143 176 225 288 336 398
#     4  11  24  42  67 101 134 184 233 276 335 405
#     4  10  24  43  69  95 126 177 228 281 336 397
#     4  10  23  44  64  93 135 175 223 281 332 394
#     4  10  24  42  69 102 134 183 226 279 344 401
#
# _framework density 23.325627999999998
#
# number of rings (size 3 to 8) (size 9 to 14) (size 15 to 20)
#    0.000    1.714    1.429    0.857    6.000    3.429 
#   10.286    0.000    0.000    0.000    0.000    0.000 
#    0.000    0.000    0.000    0.000    0.000    0.000 
#
# Total GULP energy -78205.775897 kJ/mol
# GULP energy per Si atom -5586.126850 kJ/mol
# Density = 2.327254 g / cm^3
# Si number density = 23.325628 Si / 1000 Ang^3
#
#
#
# Elastic Constant Matrix: (Units=GPa)
#
#
# Indices 1 2 3 4 5 6 
#
# 1 76.5180 5.9596 23.9961 17.4322 12.3397 0.9470
# 2 5.9596 37.4684 24.5401 16.3056 3.8596 -4.1137
# 3 23.9961 24.5401 141.2239 18.1625 7.8595 9.0418
# 4 17.4322 16.3056 18.1625 42.5029 1.1667 2.4109
# 5 12.3397 3.8596 7.8595 1.1667 46.2295 1.0007
# 6 0.9470 -4.1137 9.0418 2.4109 1.0007 20.3777
#
#
#
# Elastic Compliance Matrix: (Units=1/GPa)
#
#
# Indices 1 2 3 4 5 6 
#
# 1 0.015605 0.002234 -0.002112 -0.006340 -0.003868 0.001603
# 2 0.002234 0.037532 -0.005778 -0.013440 -0.002663 0.011757
# 3 -0.002112 -0.005778 0.008829 -0.000402 -0.000338 -0.004922
# 4 -0.006340 -0.013440 -0.000402 0.031741 0.002214 -0.006104
# 5 -0.003868 -0.002663 -0.000338 0.002214 0.022922 -0.001595
# 6 0.001603 0.011757 -0.004922 -0.006104 -0.001595 0.054357
#
#
# Mechanical properties :
#
#
# Convention : Reuss Voigt Hill
#
# Bulk Modulus (GPa) = 19.74078 40.46689 30.10383
# Shear Modulus (GPa) = 25.10268 35.20297 30.15283
#
# Velocity S-wave (km/s) = 3.28408 3.88905 3.59930
# Velocity P-wave (km/s) = 4.78140 6.12802 5.49611
#
# Compressibility (1/GPa) = 0.05065657
#
# Stress axis : x y z
#
# Youngs Moduli (GPa) = 64.08073 26.64408 113.25837
#
# Poissons Ratio (x) = -0.05954 0.23919
# Poissons Ratio (y) = -0.14319 0.65436
# Poissons Ratio (z) = 0.13533 0.15394
#
# Static dielectric constant tensor:
#      x y z
#    x 1.925310 -0.044130 0.034380 
#    y -0.044130 1.947830 -0.089240 
#    z 0.034380 -0.089240 1.967920 
# 
# From -- ./inp_files/537461.got.cif
#   From: 2010.05.17/outbox.cif.g08.bks.cpg/sg2_269_cif.got.tgz:537461.got - 2010.06.03 11:33:40.
