data_PCOD9034951
_publ_section_title
;
Structure prediction by ZEFSAII (Michael W. Deem and Ramdas Pophale) SiO2 
 PCOD9034951
Probable space group: P -1
;
_chemical_formula_sum "Si O2"
_cell_formula_units_Z 13
_cell_length_a 11.919024
_cell_length_b 12.975685
_cell_length_c 11.945547
_cell_angle_alpha 147.982437
_cell_angle_beta 145.703131
_cell_angle_gamma 34.521875
_cell_volume 502.599521
_symmetry_space_group_name_H-M "P -1"
_symmetry_group_IT_number 2
_symmetry_cell_setting 'triclinic'
loop_
_space_group_symop_operation_xyz
x,y,z
-x,-y,-z
loop_
_atom_site_type_symbol
_atom_site_label
_atom_site_fract_x
_atom_site_fract_y
_atom_site_fract_z
Si Si1 0.732800 0.349354 0.810632
Si Si2 0.247034 0.647926 0.720204
Si Si3 0.411014 0.742893 0.607499
Si Si4 0.146136 0.258034 0.685004
Si Si5 0.000000 0.000000 0.500000
Si Si6 0.621557 0.949632 0.809961
Si Si7 0.049953 0.781356 0.902464
O O1 0.470876 0.455310 0.689771
O O2 0.785291 0.222545 0.619296
O O3 0.811864 0.537457 0.056116
O O4 0.827466 0.224046 0.885845
O O5 0.200747 0.616005 0.783109
O O6 0.034588 0.684202 0.506450
O O7 0.303614 0.854874 0.940605
O O8 0.500000 0.500000 0.500000
O O9 0.578390 0.826895 0.768545
O O10 0.235794 0.914457 0.699044
O O11 0.070990 0.177166 0.657709
O O12 0.379547 0.070846 0.668901
O O13 0.817595 0.781983 0.743274
O O14 0.000000 0.000000 0.000000
#
# Coordination Sequence:
#
# PCOD9034951 Si02
#       7
#     2   2   2   2   1   2   2
#     4  11  25  43  67 103 138 174 234 280 338 416
#     4  10  22  45  69  95 143 179 229 275 341 409
#     4  11  25  46  71 101 137 179 232 288 348 412
#     4  10  23  44  68 100 135 185 225 286 338 407
#     4  10  24  42  68  98 130 180 228 280 346 394
#     4   9  23  42  65 101 135 176 231 278 337 402
#     4  10  23  42  67 100 137 183 223 282 338 403
#
# _framework density 25.865524000000001
#
# number of rings (size 3 to 8) (size 9 to 14) (size 15 to 20)
#    0.000    1.846    0.000    1.385   12.923    3.077 
#    5.538    4.615    0.000    0.000    0.000    0.000 
#    0.000    0.000    0.000    0.000    0.000    0.000 
#
# Total GULP energy -72542.077116 kJ/mol
# GULP energy per Si atom -5580.159778 kJ/mol
# Density = 2.580665 g / cm^3
# Si number density = 25.865524 Si / 1000 Ang^3
#
#
#
# Elastic Constant Matrix: (Units=GPa)
#
#
# Indices 1 2 3 4 5 6 
#
# 1 158.8877 55.1695 61.9223 -21.9430 21.9283 -6.6852
# 2 55.1695 156.0043 53.9205 -13.4244 6.6542 11.3620
# 3 61.9223 53.9205 163.4683 -15.9845 12.8067 4.6150
# 4 -21.9430 -13.4244 -15.9845 42.9678 6.8772 1.6551
# 5 21.9283 6.6542 12.8067 6.8772 51.6019 -3.2872
# 6 -6.6852 11.3620 4.6150 1.6551 -3.2872 47.2720
#
#
#
# Elastic Compliance Matrix: (Units=1/GPa)
#
#
# Indices 1 2 3 4 5 6 
#
# 1 0.008855 -0.002070 -0.002106 0.003566 -0.003347 0.001598
# 2 -0.002070 0.007953 -0.001698 0.000871 0.000028 -0.002067
# 3 -0.002106 -0.001698 0.007722 0.001464 -0.001047 -0.000768
# 4 0.003566 0.000871 0.001464 0.026860 -0.005646 -0.001181
# 5 -0.003347 0.000028 -0.001047 -0.005646 0.021896 0.001342
# 6 0.001598 -0.002067 -0.000768 -0.001181 0.001342 0.022087
#
#
# Mechanical properties :
#
#
# Convention : Reuss Voigt Hill
#
# Bulk Modulus (GPa) = 78.23156 91.15388 84.69272
# Shear Modulus (GPa) = 44.89096 48.85822 46.87459
#
# Velocity S-wave (km/s) = 4.17052 4.35090 4.26166
# Velocity P-wave (km/s) = 7.31451 7.78193 7.55184
#
# Compressibility (1/GPa) = 0.01278256
#
# Stress axis : x y z
#
# Youngs Moduli (GPa) = 112.93270 125.73185 129.50307
#
# Poissons Ratio (x) = 0.26032 0.27267
# Poissons Ratio (y) = 0.23382 0.21987
# Poissons Ratio (z) = 0.23778 0.21347
#
# Static dielectric constant tensor:
#      x y z
#    x 2.421140 -0.233790 -0.146190 
#    y -0.233790 2.193330 0.032630 
#    z -0.146190 0.032630 2.130950 
# 
# From -- ./inp_files/87281.got.cif
#   From: 2010.05.17/outbox.cif.g08.bks.cpg/sg2_44_cif.got.tgz:87281.got - 2010.06.03 11:33:40.
