data_PCOD9034521
_publ_section_title
;
Structure prediction by ZEFSAII (Michael W. Deem and Ramdas Pophale) SiO2 
 PCOD9034521
Probable space group: P -1
;
_chemical_formula_sum "Si O2"
_cell_formula_units_Z 13
_cell_length_a 12.277274
_cell_length_b 9.081166
_cell_length_c 8.562822
_cell_angle_alpha 78.858397
_cell_angle_beta 49.081736
_cell_angle_gamma 50.176589
_cell_volume 510.223539
_symmetry_space_group_name_H-M "P -1"
_symmetry_group_IT_number 2
_symmetry_cell_setting 'triclinic'
loop_
_space_group_symop_operation_xyz
x,y,z
-x,-y,-z
loop_
_atom_site_type_symbol
_atom_site_label
_atom_site_fract_x
_atom_site_fract_y
_atom_site_fract_z
Si Si1 0.692001 0.766215 0.815491
Si Si2 0.992383 0.403573 0.182716
Si Si3 0.729022 0.008332 0.517574
Si Si4 0.586318 0.521795 0.260261
Si Si5 0.323314 0.502783 0.321560
Si Si6 0.961095 0.855558 0.036627
Si Si7 0.000000 0.000000 0.500000
O O1 0.862571 0.640878 0.811047
O O2 0.769201 0.819850 0.595644
O O3 0.638953 0.642967 0.821259
O O4 0.500000 0.000000 0.000000
O O5 0.777249 0.520552 0.436204
O O6 0.078539 0.178140 0.091754
O O7 0.000000 0.500000 0.000000
O O8 0.780826 0.948452 0.300920
O O9 0.514379 0.241428 0.696562
O O10 0.869368 0.028315 0.467307
O O11 0.500000 0.500000 0.500000
O O12 0.515068 0.459102 0.204803
O O13 0.822719 0.366033 0.075940
O O14 0.156917 0.745354 0.386130
O O15 0.000000 0.000000 0.000000
#
# Coordination Sequence:
#
# PCOD9034521 Si02
#       7
#     2   2   2   2   2   2   1
#     4  12  30  48  73 111 155 203 257 310 385 460
#     4  12  27  48  73 107 149 201 253 309 384 451
#     4  11  25  45  74 108 152 197 250 318 376 455
#     4  11  23  45  73 115 149 191 258 314 378 453
#     4  11  24  49  78 105 152 196 254 317 375 461
#     4  12  25  45  80 108 150 198 250 314 388 443
#     4  10  22  44  78  98 144 192 246 308 376 428
#
# _framework density 25.479028
#
# number of rings (size 3 to 8) (size 9 to 14) (size 15 to 20)
#    0.000    0.615    4.615    2.308    6.462    0.000 
#    0.000    5.385    0.000    0.000    0.000    0.000 
#    0.000    0.000    0.000    0.000    0.000    0.000 
#
# Total GULP energy -72597.427325 kJ/mol
# GULP energy per Si atom -5584.417487 kJ/mol
# Density = 2.542104 g / cm^3
# Si number density = 25.479028 Si / 1000 Ang^3
#
#
#
# Elastic Constant Matrix: (Units=GPa)
#
#
# Indices 1 2 3 4 5 6 
#
# 1 135.8770 39.6072 26.9326 28.7314 17.1181 36.1442
# 2 39.6072 131.1636 17.2723 11.2113 4.2802 20.6474
# 3 26.9326 17.2723 74.7613 11.3370 9.6307 18.1624
# 4 28.7314 11.2113 11.3370 43.7881 10.0602 2.3949
# 5 17.1181 4.2802 9.6307 10.0602 35.1338 11.7656
# 6 36.1442 20.6474 18.1624 2.3949 11.7656 41.3111
#
#
#
# Elastic Compliance Matrix: (Units=1/GPa)
#
#
# Indices 1 2 3 4 5 6 
#
# 1 0.011673 -0.001503 -0.000708 -0.006489 -0.000568 -0.008612
# 2 -0.001503 0.008705 -0.000720 -0.001170 0.001207 -0.002995
# 3 -0.000708 -0.000720 0.015701 -0.002833 -0.001250 -0.005403
# 4 -0.006489 -0.001170 -0.002833 0.029291 -0.006911 0.007778
# 5 -0.000568 0.001207 -0.001250 -0.006911 0.033861 -0.008800
# 6 -0.008612 -0.002995 -0.005403 0.007778 -0.008800 0.037670
#
#
# Mechanical properties :
#
#
# Convention : Reuss Voigt Hill
#
# Bulk Modulus (GPa) = 33.09523 56.60289 44.84906
# Shear Modulus (GPa) = 32.71539 41.24592 36.98066
#
# Velocity S-wave (km/s) = 3.58720 4.02782 3.81388
# Velocity P-wave (km/s) = 5.49315 6.62532 6.08562
#
# Compressibility (1/GPa) = 0.03021583
#
# Stress axis : x y z
#
# Youngs Moduli (GPa) = 85.67024 114.87974 63.69138
#
# Poissons Ratio (x) = 0.17261 0.04512
# Poissons Ratio (y) = 0.12872 0.04587
# Poissons Ratio (z) = 0.06069 0.08274
#
# Static dielectric constant tensor:
#      x y z
#    x 1.978860 0.012510 0.032410 
#    y 0.012510 2.046680 -0.093460 
#    z 0.032410 -0.093460 2.113110 
# 
# From -- ./inp_files/243287.got.cif
#   From: 2010.05.17/outbox.cif.g08.bks.cpg/sg2_122_cif.got.tgz:243287.got - 2010.06.03 11:33:40.
