data_PCOD9034721
_publ_section_title
;
Structure prediction by ZEFSAII (Michael W. Deem and Ramdas Pophale) SiO2 
 PCOD9034721
Probable space group: P -1
;
_chemical_formula_sum "Si O2"
_cell_formula_units_Z 12
_cell_length_a 10.985935
_cell_length_b 17.046193
_cell_length_c 13.024557
_cell_angle_alpha 156.809796
_cell_angle_beta 134.684642
_cell_angle_gamma 31.839474
_cell_volume 469.927386
_symmetry_space_group_name_H-M "P -1"
_symmetry_group_IT_number 2
_symmetry_cell_setting 'triclinic'
loop_
_space_group_symop_operation_xyz
x,y,z
-x,-y,-z
loop_
_atom_site_type_symbol
_atom_site_label
_atom_site_fract_x
_atom_site_fract_y
_atom_site_fract_z
Si Si1 0.013736 0.122372 0.258806
Si Si2 0.291869 0.880033 0.797258
Si Si3 0.543859 0.743330 0.170139
Si Si4 0.882470 0.543962 0.374985
Si Si5 0.593961 0.867525 0.130326
Si Si6 0.944811 0.861041 0.228129
O O1 0.030075 0.342541 0.506632
O O2 0.277269 0.860942 0.156053
O O3 0.776540 0.265343 0.359211
O O4 0.000000 0.000000 0.000000
O O5 0.293472 0.873902 0.667683
O O6 0.028383 0.220917 0.051529
O O7 0.468638 0.863726 0.953645
O O8 0.609646 0.708537 0.045864
O O9 0.500000 0.000000 0.500000
O O10 0.774548 0.447490 0.007311
O O11 0.000000 0.500000 0.500000
O O12 0.590920 0.806394 0.541067
O O13 0.841347 0.760753 0.110100
O O14 0.000000 0.000000 0.500000
#
# Coordination Sequence:
#
# PCOD9034721 Si02
#       6
#     2   2   2   2   2   2
#     4  11  20  39  71 103 125 169 244 277 326 395
#     4  11  23  44  70  97 133 185 228 279 329 414
#     4  11  25  46  72  97 136 183 222 284 340 408
#     4   9  18  36  69  98 128 168 223 283 325 387
#     4  10  22  45  67  95 138 181 224 274 345 404
#     4  12  28  43  64 103 144 177 219 283 352 400
#
# _framework density 25.535858999999999
#
# number of rings (size 3 to 8) (size 9 to 14) (size 15 to 20)
#    0.000    1.333    5.000    3.000    4.667    0.667 
#    3.000    2.500    0.000    0.000    0.000    0.000 
#    0.000    0.000    0.000    0.000    0.000    0.000 
#
# Total GULP energy -66993.495318 kJ/mol
# GULP energy per Si atom -5582.791276 kJ/mol
# Density = 2.547774 g / cm^3
# Si number density = 25.535859 Si / 1000 Ang^3
#
#
#
# Elastic Constant Matrix: (Units=GPa)
#
#
# Indices 1 2 3 4 5 6 
#
# 1 70.1040 10.9561 -15.6765 -21.1831 14.1447 -15.3570
# 2 10.9561 124.5274 18.1134 -39.7504 -4.6014 -5.5164
# 3 -15.6765 18.1134 95.6194 0.8218 14.1287 -4.8635
# 4 -21.1831 -39.7504 0.8218 38.5997 -3.0642 -4.1701
# 5 14.1447 -4.6014 14.1287 -3.0642 20.2832 -7.6688
# 6 -15.3570 -5.5164 -4.8635 -4.1701 -7.6688 54.7443
#
#
#
# Elastic Compliance Matrix: (Units=1/GPa)
#
#
# Indices 1 2 3 4 5 6 
#
# 1 0.024470 0.000822 0.006581 0.013443 -0.017102 0.006160
# 2 0.000822 0.014271 -0.003889 0.016388 0.009314 0.003876
# 3 0.006581 -0.003889 0.014647 -0.001918 -0.015815 0.000394
# 4 0.013443 0.016388 -0.001918 0.051895 0.007391 0.010241
# 5 -0.017102 0.009314 -0.015815 0.007391 0.077818 0.006200
# 6 0.006160 0.003876 0.000394 0.010241 0.006200 0.022069
#
#
# Mechanical properties :
#
#
# Convention : Reuss Voigt Hill
#
# Bulk Modulus (GPa) = 16.55193 35.22632 25.88913
# Shear Modulus (GPa) = 22.90641 41.18263 32.04452
#
# Velocity S-wave (km/s) = 2.99829 4.02025 3.54628
# Velocity P-wave (km/s) = 4.29910 5.94766 5.18926
#
# Compressibility (1/GPa) = 0.06041592
#
# Stress axis : x y z
#
# Youngs Moduli (GPa) = 40.86687 70.07281 68.27360
#
# Poissons Ratio (x) = -0.05760 -0.44929
# Poissons Ratio (y) = -0.03359 0.26549
# Poissons Ratio (z) = -0.26894 0.27248
#
# Static dielectric constant tensor:
#      x y z
#    x 1.970500 0.041530 -0.122000 
#    y 0.041530 1.961160 0.068410 
#    z -0.122000 0.068410 2.146160 
# 
# From -- ./inp_files/524150.got.cif
#   From: 2010.05.17/outbox.cif.g08.bks.cpg/sg2_263_cif.got.tgz:524150.got - 2010.06.03 11:33:40.
