data_PCOD9034910
_publ_section_title
;
Structure prediction by ZEFSAII (Michael W. Deem and Ramdas Pophale) SiO2 
 PCOD9034910
Probable space group: P -1
;
_chemical_formula_sum "Si O2"
_cell_formula_units_Z 16
_cell_length_a 11.983312
_cell_length_b 5.398677
_cell_length_c 10.494015
_cell_angle_alpha 86.985880
_cell_angle_beta 93.963176
_cell_angle_gamma 69.034094
_cell_volume 630.254761
_symmetry_space_group_name_H-M "P -1"
_symmetry_group_IT_number 2
_symmetry_cell_setting 'triclinic'
loop_
_space_group_symop_operation_xyz
x,y,z
-x,-y,-z
loop_
_atom_site_type_symbol
_atom_site_label
_atom_site_fract_x
_atom_site_fract_y
_atom_site_fract_z
Si Si1 0.074678 0.279730 0.614317
Si Si2 0.619488 0.243052 0.150531
Si Si3 0.317879 0.809249 0.119339
Si Si4 0.163048 0.641481 0.312135
Si Si5 0.131529 0.365442 0.067889
Si Si6 0.241128 0.396872 0.827590
Si Si7 0.525502 0.974614 0.707551
Si Si8 0.698987 0.793400 0.491135
O O1 0.130226 0.404056 0.729029
O O2 0.197297 0.104811 0.554706
O O3 0.000000 0.500000 0.500000
O O4 0.974592 0.172055 0.667717
O O5 0.697753 0.396794 0.216499
O O6 0.504491 0.272723 0.228646
O O7 0.677535 0.918620 0.155381
O O8 0.618219 0.328354 0.001460
O O9 0.261402 0.710640 0.237380
O O10 0.194447 0.051599 0.063371
O O11 0.418583 0.914903 0.177666
O O12 0.140795 0.435329 0.213731
O O13 0.227467 0.505596 0.450111
O O14 0.203460 0.474096 0.969268
O O15 0.000000 0.500000 0.000000
O O16 0.626143 0.915315 0.608652
O O17 0.404198 0.158248 0.622303
#
# Coordination Sequence:
#
# PCOD9034910 Si02
#       8
#     2   2   2   2   2   2   2   2
#     4  10  22  45  69 103 145 192 249 302 364 439
#     4  11  25  45  74 108 147 190 239 310 371 443
#     4  11  25  43  70 112 139 188 248 305 380 443
#     4  11  22  44  70 103 143 185 244 304 369 439
#     4  11  22  41  67  99 148 184 231 302 369 444
#     4  11  23  45  70 107 148 186 246 294 374 440
#     4  11  23  46  72 101 147 193 249 307 363 443
#     4  10  23  46  68  97 145 195 252 297 368 426
#
# _framework density 25.386558999999998
#
# number of rings (size 3 to 8) (size 9 to 14) (size 15 to 20)
#    0.000    1.250    5.000    0.375    0.000    3.000 
#    9.000    3.750    0.000    0.000    0.000    0.000 
#    0.000    0.000    0.000    0.000    0.000    0.000 
#
# Total GULP energy -89193.408171 kJ/mol
# GULP energy per Si atom -5574.588011 kJ/mol
# Density = 2.532878 g / cm^3
# Si number density = 25.386559 Si / 1000 Ang^3
#
#
#
# Elastic Constant Matrix: (Units=GPa)
#
#
# Indices 1 2 3 4 5 6 
#
# 1 211.4659 58.2182 46.3876 -12.4436 -18.7334 -7.7589
# 2 58.2182 51.7078 5.9682 -6.9288 -3.8589 1.9943
# 3 46.3876 5.9682 115.2073 -14.0780 -16.3369 -0.7280
# 4 -12.4436 -6.9288 -14.0780 21.4539 -2.5488 -0.5841
# 5 -18.7334 -3.8589 -16.3369 -2.5488 50.2164 -3.8405
# 6 -7.7589 1.9943 -0.7280 -0.5841 -3.8405 36.9164
#
#
#
# Elastic Compliance Matrix: (Units=1/GPa)
#
#
# Indices 1 2 3 4 5 6 
#
# 1 0.007843 -0.008446 -0.002405 0.000506 0.001692 0.002241
# 2 -0.008446 0.029514 0.002624 0.006273 0.000044 -0.003214
# 3 -0.002405 0.002624 0.010808 0.006922 0.003173 0.000006
# 4 0.000506 0.006273 0.006922 0.054196 0.005778 0.001363
# 5 0.001692 0.000044 0.003173 0.005778 0.022088 0.002805
# 6 0.002241 -0.003214 0.000006 0.001363 0.002805 0.028046
#
#
# Mechanical properties :
#
#
# Convention : Reuss Voigt Hill
#
# Bulk Modulus (GPa) = 31.53370 66.61434 49.07402
# Shear Modulus (GPa) = 27.85209 39.57116 33.71163
#
# Velocity S-wave (km/s) = 3.31587 3.95238 3.64803
# Velocity P-wave (km/s) = 5.20657 6.86479 6.09236
#
# Compressibility (1/GPa) = 0.03171211
#
# Stress axis : x y z
#
# Youngs Moduli (GPa) = 127.49427 33.88268 92.52334
#
# Poissons Ratio (x) = 0.28617 0.22250
# Poissons Ratio (y) = 1.07681 -0.24279
# Poissons Ratio (z) = 0.30659 -0.08891
#
# Static dielectric constant tensor:
#      x y z
#    x 2.098550 -0.029890 -0.067680 
#    y -0.029890 2.115250 -0.005830 
#    z -0.067680 -0.005830 2.003290 
# 
# From -- ./inp_files/409205.got.cif
#   From: 2010.05.17/outbox.cif.g08.bks.cpg/sg2_205_cif.got.tgz:409205.got - 2010.06.03 11:33:40.
