data_PCOD9034730
_publ_section_title
;
Structure prediction by ZEFSAII (Michael W. Deem and Ramdas Pophale) SiO2 
 PCOD9034730
Probable space group: P -1
;
_chemical_formula_sum "Si O2"
_cell_formula_units_Z 14
_cell_length_a 16.083537
_cell_length_b 13.304605
_cell_length_c 22.879893
_cell_angle_alpha 154.590430
_cell_angle_beta 163.177669
_cell_angle_gamma 26.362659
_cell_volume 588.231544
_symmetry_space_group_name_H-M "P -1"
_symmetry_group_IT_number 2
_symmetry_cell_setting 'triclinic'
loop_
_space_group_symop_operation_xyz
x,y,z
-x,-y,-z
loop_
_atom_site_type_symbol
_atom_site_label
_atom_site_fract_x
_atom_site_fract_y
_atom_site_fract_z
Si Si1 0.550217 0.764881 0.845913
Si Si2 0.452047 0.876435 0.059430
Si Si3 0.136682 0.511187 0.501066
Si Si4 0.828365 0.834751 0.565949
Si Si5 0.625318 0.925021 0.765014
Si Si6 0.203643 0.745811 0.312156
Si Si7 0.152059 0.617780 0.880592
O O1 0.335339 0.684812 0.704505
O O2 0.655164 0.535190 0.752244
O O3 0.414771 0.997622 0.837413
O O4 0.850833 0.791552 0.093297
O O5 0.658670 0.631329 0.095541
O O6 0.363147 0.060127 0.150119
O O7 0.146708 0.835098 0.807705
O O8 0.896922 0.665009 0.465919
O O9 0.318361 0.290199 0.547977
O O10 0.989933 0.428557 0.301485
O O11 0.691505 0.101932 0.589991
O O12 0.327920 0.851677 0.507608
O O13 0.893618 0.735593 0.814249
O O14 0.661080 0.184850 0.902437
#
# Coordination Sequence:
#
# PCOD9034730 Si02
#       7
#     2   2   2   2   2   2   2
#     4  10  24  46  66  99 139 181 226 279 347 408
#     4  11  24  45  69 103 143 178 226 281 350 413
#     4  11  22  45  67 103 135 172 240 277 339 414
#     4  10  24  41  73 101 127 187 229 286 346 387
#     4  11  23  44  71 103 139 179 232 284 343 407
#     4  10  22  45  67  96 137 182 222 285 336 403
#     4  11  24  43  71 106 135 182 227 290 340 407
#
# _framework density 23.800152000000001
#
# number of rings (size 3 to 8) (size 9 to 14) (size 15 to 20)
#    0.000    1.429    2.857    1.286    4.000    4.000 
#   10.286    0.000    0.000    0.000    0.000    0.000 
#    0.000    0.000    0.000    0.000    0.000    0.000 
#
# Total GULP energy -78389.559354 kJ/mol
# GULP energy per Si atom -5599.254240 kJ/mol
# Density = 2.374598 g / cm^3
# Si number density = 23.800152 Si / 1000 Ang^3
#
#
#
# Elastic Constant Matrix: (Units=GPa)
#
#
# Indices 1 2 3 4 5 6 
#
# 1 130.9794 42.1266 50.6315 7.4795 -7.4066 4.1779
# 2 42.1266 93.1971 17.5230 9.3839 -12.5501 7.4750
# 3 50.6315 17.5230 122.3751 21.5013 -23.0146 -9.8793
# 4 7.4795 9.3839 21.5013 27.9062 2.3610 0.2157
# 5 -7.4066 -12.5501 -23.0146 2.3610 39.9376 13.0947
# 6 4.1779 7.4750 -9.8793 0.2157 13.0947 29.7431
#
#
#
# Elastic Compliance Matrix: (Units=1/GPa)
#
#
# Indices 1 2 3 4 5 6 
#
# 1 0.010606 -0.004310 -0.004611 0.002321 -0.001801 -0.001162
# 2 -0.004310 0.014251 0.001483 -0.005296 0.006601 -0.005351
# 3 -0.004611 0.001483 0.013110 -0.009989 0.007263 0.001505
# 4 0.002321 -0.005296 -0.009989 0.045547 -0.010304 0.001893
# 5 -0.001801 0.006601 0.007263 -0.010304 0.036486 -0.014982
# 6 -0.001162 -0.005351 0.001505 0.001893 -0.014982 0.042211
#
#
# Mechanical properties :
#
#
# Convention : Reuss Voigt Hill
#
# Bulk Modulus (GPa) = 43.31068 63.01265 53.16166
# Shear Modulus (GPa) = 27.05838 35.26877 31.16358
#
# Velocity S-wave (km/s) = 3.37545 3.85368 3.62247
# Velocity P-wave (km/s) = 5.78176 6.80694 6.31518
#
# Compressibility (1/GPa) = 0.02308900
#
# Stress axis : x y z
#
# Youngs Moduli (GPa) = 94.28307 70.17129 76.27952
#
# Poissons Ratio (x) = 0.30245 0.35176
# Poissons Ratio (y) = 0.40638 -0.11310
# Poissons Ratio (z) = 0.43478 -0.10404
#
# Static dielectric constant tensor:
#      x y z
#    x 1.897880 -0.009680 0.024830 
#    y -0.009680 1.956680 0.018580 
#    z 0.024830 0.018580 1.887040 
# 
# From -- ./inp_files/598050.got.cif
#   From: 2010.05.17/outbox.cif.g08.bks.cpg/sg2_300_cif.got.tgz:598050.got - 2010.06.03 11:33:40.
