data_PCOD9034148
_publ_section_title
;
Structure prediction by ZEFSAII (Michael W. Deem and Ramdas Pophale) SiO2 
 PCOD9034148
Probable space group: P -1
;
_chemical_formula_sum "Si O2"
_cell_formula_units_Z 10
_cell_length_a 7.975699
_cell_length_b 8.225458
_cell_length_c 9.542568
_cell_angle_alpha 50.556436
_cell_angle_beta 95.833481
_cell_angle_gamma 62.265773
_cell_volume 348.204065
_symmetry_space_group_name_H-M "P -1"
_symmetry_group_IT_number 2
_symmetry_cell_setting 'triclinic'
loop_
_space_group_symop_operation_xyz
x,y,z
-x,-y,-z
loop_
_atom_site_type_symbol
_atom_site_label
_atom_site_fract_x
_atom_site_fract_y
_atom_site_fract_z
Si Si1 0.188731 0.210953 0.016310
Si Si2 0.338952 0.947586 0.468129
Si Si3 0.321393 0.348578 0.703074
Si Si4 0.225068 0.679716 0.137740
Si Si5 0.846919 0.941792 0.305816
O O1 0.194528 0.155247 0.210710
O O2 0.400724 0.871636 0.168519
O O3 0.268512 0.348364 0.862783
O O4 0.925035 0.406327 0.840201
O O5 0.525423 0.606276 0.627571
O O6 0.500000 0.000000 0.500000
O O7 0.205761 0.993809 0.570475
O O8 0.256326 0.187124 0.699567
O O9 0.127402 0.679703 0.454340
O O10 0.256873 0.770762 0.942524
O O11 0.000000 0.000000 0.000000
#
# Coordination Sequence:
#
# PCOD9034148 Si02
#       5
#     2   2   2   2   2
#     4  11  24  45  70 102 130 187 224 273 336 408
#     4  12  26  45  71 101 139 176 226 281 337 397
#     4  10  22  44  71  97 133 184 228 265 334 414
#     4  12  26  45  71 101 139 176 226 281 337 397
#     4  11  23  45  68  99 140 175 221 285 335 391
#
# _framework density 28.718793000000002
#
# number of rings (size 3 to 8) (size 9 to 14) (size 15 to 20)
#    0.000    0.800    4.000    3.000    0.000    7.200 
#    0.000    0.000    0.000    0.000    0.000    0.000 
#    0.000    0.000    0.000    0.000    0.000    0.000 
#
# Total GULP energy -55961.671024 kJ/mol
# GULP energy per Si atom -5596.167102 kJ/mol
# Density = 2.865343 g / cm^3
# Si number density = 28.718793 Si / 1000 Ang^3
#
#
#
# Elastic Constant Matrix: (Units=GPa)
#
#
# Indices 1 2 3 4 5 6 
#
# 1 61.5899 22.2313 6.0832 -11.0417 18.3450 -17.6516
# 2 22.2313 115.8894 24.7785 0.2556 2.7175 -24.7948
# 3 6.0832 24.7785 175.3496 -3.4362 7.3581 -19.6174
# 4 -11.0417 0.2556 -3.4362 73.2489 -21.6819 -9.9123
# 5 18.3450 2.7175 7.3581 -21.6819 55.0559 -6.6745
# 6 -17.6516 -24.7948 -19.6174 -9.9123 -6.6745 30.6568
#
#
#
# Elastic Compliance Matrix: (Units=1/GPa)
#
#
# Indices 1 2 3 4 5 6 
#
# 1 0.022335 -0.001780 0.001124 0.003761 -0.004524 0.012371
# 2 -0.001780 0.010783 -0.000604 0.001230 0.001603 0.008056
# 3 0.001124 -0.000604 0.006276 0.000991 -0.000255 0.004440
# 4 0.003761 0.001230 0.000991 0.017801 0.006904 0.011053
# 5 -0.004524 0.001603 -0.000255 0.006904 0.023045 0.005778
# 6 0.012371 0.008056 0.004440 0.011053 0.005778 0.053931
#
#
# Mechanical properties :
#
#
# Convention : Reuss Voigt Hill
#
# Bulk Modulus (GPa) = 27.11934 51.00163 39.06048
# Shear Modulus (GPa) = 33.56113 51.77472 42.66792
#
# Velocity S-wave (km/s) = 3.42221 4.25056 3.85868
# Velocity P-wave (km/s) = 5.00788 6.47204 5.78646
#
# Compressibility (1/GPa) = 0.03687406
#
# Stress axis : x y z
#
# Youngs Moduli (GPa) = 44.77257 92.73911 159.33513
#
# Poissons Ratio (x) = 0.16512 -0.17913
# Poissons Ratio (y) = 0.07972 0.09621
# Poissons Ratio (z) = -0.05034 0.05600
#
# Static dielectric constant tensor:
#      x y z
#    x 2.720920 0.430810 -0.116730 
#    y 0.430810 2.582630 0.001620 
#    z -0.116730 0.001620 2.164990 
# 
# From -- ./inp_files/144779.got.cif
#   From: 2010.05.17/outbox.cif.g08.bks.cpg/sg2_73_cif.got.tgz:144779.got - 2010.06.03 11:33:40.
