data_PCOD9034841
_publ_section_title
;
Structure prediction by ZEFSAII (Michael W. Deem and Ramdas Pophale) SiO2 
 PCOD9034841
Probable space group: P -1
;
_chemical_formula_sum "Si O2"
_cell_formula_units_Z 15
_cell_length_a 14.225799
_cell_length_b 5.602061
_cell_length_c 9.176788
_cell_angle_alpha 77.944703
_cell_angle_beta 55.195054
_cell_angle_gamma 74.576459
_cell_volume 577.365562
_symmetry_space_group_name_H-M "P -1"
_symmetry_group_IT_number 2
_symmetry_cell_setting 'triclinic'
loop_
_space_group_symop_operation_xyz
x,y,z
-x,-y,-z
loop_
_atom_site_type_symbol
_atom_site_label
_atom_site_fract_x
_atom_site_fract_y
_atom_site_fract_z
Si Si1 0.732379 0.973024 0.206784
Si Si2 0.067223 0.918161 0.803113
Si Si3 0.863209 0.842034 0.541251
Si Si4 0.487939 0.656166 0.338426
Si Si5 0.309203 0.568958 0.977340
Si Si6 0.099218 0.338214 0.140226
Si Si7 0.500000 0.000000 0.500000
Si Si8 0.724923 0.400134 0.658508
O O1 0.802795 0.068103 0.264254
O O2 0.631771 0.832569 0.359657
O O3 0.652176 0.216328 0.178980
O O4 0.818840 0.853199 0.017709
O O5 0.028105 0.664463 0.815514
O O6 0.041157 0.117138 0.669146
O O7 0.000000 0.000000 0.000000
O O8 0.904785 0.748665 0.677843
O O9 0.795236 0.630214 0.567452
O O10 0.797466 0.127316 0.586540
O O11 0.500000 0.500000 0.500000
O O12 0.389153 0.564149 0.342858
O O13 0.447460 0.929944 0.400785
O O14 0.596036 0.658294 0.132123
O O15 0.177491 0.550757 0.048916
O O16 0.310527 0.614544 0.139430
#
# Coordination Sequence:
#
# PCOD9034841 Si02
#       8
#     2   2   2   2   2   2   1   2
#     4  11  22  42  66 101 138 187 236 294 355 421
#     4  10  24  44  71 101 143 186 240 293 361 427
#     4  11  24  49  73 106 140 186 243 297 359 423
#     4  12  26  40  66 100 141 190 232 296 355 427
#     4  11  23  44  66 100 140 186 244 292 360 422
#     4  10  22  45  68  97 139 185 237 297 351 422
#     4  12  24  42  70 100 144 186 234 294 356 426
#     4  11  27  46  75 104 144 188 241 296 357 431
#
# _framework density 25.980074999999999
#
# number of rings (size 3 to 8) (size 9 to 14) (size 15 to 20)
#    0.000    1.067    4.000    1.600    3.733    0.533 
#    4.800    4.667    0.000    0.000    0.000    0.000 
#    0.000    0.000    0.000    0.000    0.000    0.000 
#
# Total GULP energy -83523.262464 kJ/mol
# GULP energy per Si atom -5568.217498 kJ/mol
# Density = 2.592094 g / cm^3
# Si number density = 25.980075 Si / 1000 Ang^3
#
#
#
# Elastic Constant Matrix: (Units=GPa)
#
#
# Indices 1 2 3 4 5 6 
#
# 1 146.0859 42.7835 43.9062 3.5095 3.4762 56.1093
# 2 42.7835 98.0454 50.4684 -1.5217 9.4724 34.7047
# 3 43.9062 50.4684 138.9638 26.6269 1.5256 15.7466
# 4 3.5095 -1.5217 26.6269 52.4786 6.5328 -0.0360
# 5 3.4762 9.4724 1.5256 6.5328 37.4298 6.4691
# 6 56.1093 34.7047 15.7466 -0.0360 6.4691 48.9634
#
#
#
# Elastic Compliance Matrix: (Units=1/GPa)
#
#
# Indices 1 2 3 4 5 6 
#
# 1 0.013146 0.000948 -0.002906 0.000468 0.001161 -0.014955
# 2 0.000948 0.017037 -0.005955 0.003811 -0.002946 -0.010855
# 3 -0.002906 -0.005955 0.010924 -0.005726 0.001672 0.003812
# 4 0.000468 0.003811 -0.005726 0.022611 -0.004587 -0.000773
# 5 0.001161 -0.002946 0.001672 -0.004587 0.028705 -0.003576
# 6 -0.014955 -0.010855 0.003812 -0.000773 -0.003576 0.044501
#
#
# Mechanical properties :
#
#
# Convention : Reuss Voigt Hill
#
# Bulk Modulus (GPa) = 39.55440 73.04573 56.30006
# Shear Modulus (GPa) = 31.02211 44.17016 37.59613
#
# Velocity S-wave (km/s) = 3.45929 4.12777 3.80822
# Velocity P-wave (km/s) = 5.58690 7.13408 6.40736
#
# Compressibility (1/GPa) = 0.02528164
#
# Stress axis : x y z
#
# Youngs Moduli (GPa) = 76.06805 58.69599 91.54382
#
# Poissons Ratio (x) = -0.05563 0.26599
# Poissons Ratio (y) = -0.07210 0.54513
# Poissons Ratio (z) = 0.22102 0.34953
#
# Static dielectric constant tensor:
#      x y z
#    x 2.099530 0.131520 -0.053280 
#    y 0.131520 2.468670 -0.066770 
#    z -0.053280 -0.066770 2.113240 
# 
# From -- ./inp_files/287907.got.cif
#   From: 2010.05.17/outbox.cif.g08.bks.cpg/sg2_144_cif.got.tgz:287907.got - 2010.06.03 11:33:40.
