data_PCOD9034586
_publ_section_title
;
Structure prediction by ZEFSAII (Michael W. Deem and Ramdas Pophale) SiO2 
 PCOD9034586
Probable space group: P -1
;
_chemical_formula_sum "Si O2"
_cell_formula_units_Z 14
_cell_length_a 17.685843
_cell_length_b 14.849379
_cell_length_c 8.997594
_cell_angle_alpha 27.789158
_cell_angle_beta 141.305685
_cell_angle_gamma 147.520068
_cell_volume 586.053352
_symmetry_space_group_name_H-M "P -1"
_symmetry_group_IT_number 2
_symmetry_cell_setting 'triclinic'
loop_
_space_group_symop_operation_xyz
x,y,z
-x,-y,-z
loop_
_atom_site_type_symbol
_atom_site_label
_atom_site_fract_x
_atom_site_fract_y
_atom_site_fract_z
Si Si1 0.380573 0.495447 0.987756
Si Si2 0.406775 0.298929 0.761828
Si Si3 0.336490 0.835523 0.252660
Si Si4 0.845030 0.468682 0.820760
Si Si5 0.808439 0.647722 0.798827
Si Si6 0.153583 0.137722 0.952745
Si Si7 0.914253 0.245988 0.804127
O O1 0.399641 0.693435 0.621347
O O2 0.280336 0.265119 0.080968
O O3 0.537056 0.582880 0.165312
O O4 0.288314 0.468100 0.034767
O O5 0.500000 0.500000 0.500000
O O6 0.250425 0.219779 0.578291
O O7 0.431581 0.096493 0.061785
O O8 0.281118 0.764584 0.104234
O O9 0.191609 0.752191 0.243075
O O10 0.810180 0.482913 0.917756
O O11 0.847855 0.670970 0.433132
O O12 0.000000 0.500000 0.000000
O O13 0.967608 0.796154 0.884150
O O14 0.167662 0.952766 0.150865
O O15 0.000000 0.000000 0.000000
O O16 0.000000 0.500000 0.500000
#
# Coordination Sequence:
#
# PCOD9034586 Si02
#       7
#     2   2   2   2   2   2   2
#     4  10  22  45  65  92 130 173 219 257 317 396
#     4  10  24  43  64  92 130 176 217 268 314 380
#     4  11  22  41  66  94 130 174 214 266 323 385
#     4  11  24  37  62 101 132 162 212 270 331 379
#     4  11  22  42  63  96 134 160 214 263 329 373
#     4  11  23  39  65  94 128 172 215 266 323 384
#     4  12  22  40  68 101 131 166 214 270 330 388
#
# _framework density 23.888611000000001
#
# number of rings (size 3 to 8) (size 9 to 14) (size 15 to 20)
#    0.000    1.143    4.286    2.143    2.000    1.143 
#    0.000   10.714    0.000    0.000    0.000    0.000 
#    0.000    0.000    0.000    0.000    0.000    0.000 
#
# Total GULP energy -78280.634681 kJ/mol
# GULP energy per Si atom -5591.473906 kJ/mol
# Density = 2.383424 g / cm^3
# Si number density = 23.888611 Si / 1000 Ang^3
#
#
#
# Elastic Constant Matrix: (Units=GPa)
#
#
# Indices 1 2 3 4 5 6 
#
# 1 79.1557 16.3387 -2.9631 0.2649 -13.5377 -25.5712
# 2 16.3387 189.6338 58.1991 9.8189 -3.9439 -29.0087
# 3 -2.9631 58.1991 66.3130 9.9568 4.3957 1.3742
# 4 0.2649 9.8189 9.9568 44.0264 4.2475 -0.3595
# 5 -13.5377 -3.9439 4.3957 4.2475 25.7273 -0.9782
# 6 -25.5712 -29.0087 1.3742 -0.3595 -0.9782 46.6895
#
#
#
# Elastic Compliance Matrix: (Units=1/GPa)
#
#
# Indices 1 2 3 4 5 6 
#
# 1 0.017462 0.000352 -0.000238 -0.000996 0.009828 0.009988
# 2 0.000352 0.008623 -0.007819 -0.000411 0.003133 0.005843
# 3 -0.000238 -0.007819 0.022828 -0.002987 -0.004951 -0.005787
# 4 -0.000996 -0.000411 -0.002987 0.023872 -0.004042 -0.000614
# 5 0.009828 0.003133 -0.004951 -0.004042 0.046354 0.008415
# 6 0.009988 0.005843 -0.005787 -0.000614 0.008415 0.030861
#
#
# Mechanical properties :
#
#
# Convention : Reuss Voigt Hill
#
# Bulk Modulus (GPa) = 29.84654 53.13910 41.49282
# Shear Modulus (GPa) = 28.31614 40.85717 34.58665
#
# Velocity S-wave (km/s) = 3.44661 4.14009 3.80916
# Velocity P-wave (km/s) = 5.32541 6.71912 6.06245
#
# Compressibility (1/GPa) = 0.03350472
#
# Stress axis : x y z
#
# Youngs Moduli (GPa) = 57.26569 115.96903 43.80507
#
# Poissons Ratio (x) = -0.04085 0.01041
# Poissons Ratio (y) = -0.02017 0.34252
# Poissons Ratio (z) = 0.01361 0.90678
#
# Static dielectric constant tensor:
#      x y z
#    x 1.993010 -0.007540 0.032290 
#    y -0.007540 1.972790 0.017880 
#    z 0.032290 0.017880 1.916500 
# 
# From -- ./inp_files/171998.got.cif
#   From: 2010.05.17/outbox.cif.g08.bks.cpg/sg2_86_cif.got.tgz:171998.got - 2010.06.03 11:33:40.
