data_PCOD9034421
_publ_section_title
;
Structure prediction by ZEFSAII (Michael W. Deem and Ramdas Pophale) SiO2 
 PCOD9034421
Probable space group: P -1
;
_chemical_formula_sum "Si O2"
_cell_formula_units_Z 10
_cell_length_a 8.862582
_cell_length_b 5.641404
_cell_length_c 9.816080
_cell_angle_alpha 129.497509
_cell_angle_beta 84.306206
_cell_angle_gamma 95.606079
_cell_volume 376.459459
_symmetry_space_group_name_H-M "P -1"
_symmetry_group_IT_number 2
_symmetry_cell_setting 'triclinic'
loop_
_space_group_symop_operation_xyz
x,y,z
-x,-y,-z
loop_
_atom_site_type_symbol
_atom_site_label
_atom_site_fract_x
_atom_site_fract_y
_atom_site_fract_z
Si Si1 0.415459 0.702346 0.469323
Si Si2 0.085902 0.103799 0.219251
Si Si3 0.890088 0.699040 0.427876
Si Si4 0.357644 0.206893 0.063602
Si Si5 0.776968 0.814570 0.211753
O O1 0.500000 0.500000 0.500000
O O2 0.370584 0.495440 0.268034
O O3 0.277760 0.848775 0.618303
O O4 0.500000 0.000000 0.500000
O O5 0.176230 0.190284 0.382188
O O6 0.202343 0.031042 0.064941
O O7 0.997568 0.413993 0.315482
O O8 0.952131 0.847259 0.160917
O O9 0.774538 0.645178 0.294642
O O10 0.000000 0.000000 0.500000
O O11 0.500000 0.000000 0.000000
O O12 0.329077 0.297771 0.943004
#
# Coordination Sequence:
#
# PCOD9034421 Si02
#       5
#     2   2   2   2   2
#     4  12  29  53  80 116 164 212 264 331 403 475
#     4  10  22  44  74 109 155 197 263 324 397 470
#     4   9  19  39  70 105 143 195 253 315 390 458
#     4  12  26  49  75 117 158 211 264 329 401 477
#     4  11  25  46  79 113 151 206 263 332 391 476
#
# _framework density 26.563282999999998
#
# number of rings (size 3 to 8) (size 9 to 14) (size 15 to 20)
#    0.000    1.200    2.000    4.200    5.600    1.600 
#    3.600    0.000    0.000    0.000    0.000    0.000 
#    0.000    0.000    0.000    0.000    0.000    0.000 
#
# Total GULP energy -56037.043044 kJ/mol
# GULP energy per Si atom -5603.704304 kJ/mol
# Density = 2.650282 g / cm^3
# Si number density = 26.563283 Si / 1000 Ang^3
#
#
#
# Elastic Constant Matrix: (Units=GPa)
#
#
# Indices 1 2 3 4 5 6 
#
# 1 118.4198 32.0941 48.2043 -13.2562 -7.3443 -9.4347
# 2 32.0941 93.7024 45.1366 -17.3478 10.4798 -14.2269
# 3 48.2043 45.1366 201.1933 -21.4867 38.9595 -25.5858
# 4 -13.2562 -17.3478 -21.4867 58.2969 -15.9452 17.6657
# 5 -7.3443 10.4798 38.9595 -15.9452 58.8097 -11.2068
# 6 -9.4347 -14.2269 -25.5858 17.6657 -11.2068 41.9978
#
#
#
# Elastic Compliance Matrix: (Units=1/GPa)
#
#
# Indices 1 2 3 4 5 6 
#
# 1 0.010615 -0.002493 -0.002527 0.001726 0.003976 0.000336
# 2 -0.002493 0.013089 -0.001787 0.001963 -0.000584 0.001804
# 3 -0.002527 -0.001787 0.007052 -0.000336 -0.004360 0.002101
# 4 0.001726 0.001963 -0.000336 0.021349 0.004559 -0.006916
# 5 0.003976 -0.000584 -0.004360 0.004559 0.022114 0.002023
# 6 0.000336 0.001804 0.002101 -0.006916 0.002023 0.029226
#
#
# Mechanical properties :
#
#
# Convention : Reuss Voigt Hill
#
# Bulk Modulus (GPa) = 58.33208 73.79838 66.06523
# Shear Modulus (GPa) = 40.72503 51.01291 45.86897
#
# Velocity S-wave (km/s) = 3.91977 4.38702 4.15996
# Velocity P-wave (km/s) = 6.51870 7.31462 6.92810
#
# Compressibility (1/GPa) = 0.01714322
#
# Stress axis : x y z
#
# Youngs Moduli (GPa) = 94.20333 76.39776 141.79815
#
# Poissons Ratio (x) = 0.19044 0.35832
# Poissons Ratio (y) = 0.23482 0.25342
# Poissons Ratio (z) = 0.23805 0.13654
#
# Static dielectric constant tensor:
#      x y z
#    x 2.116980 0.066690 0.028350 
#    y 0.066690 2.149820 -0.064750 
#    z 0.028350 -0.064750 2.028430 
# 
# From -- ./inp_files/16582.got.cif
#   From: 2010.05.17/outbox.cif.g08.bks.cpg/sg2_9_cif.got.tgz:16582.got - 2010.06.03 11:33:40.
