data_PCOD9034799
_publ_section_title
;
Structure prediction by ZEFSAII (Michael W. Deem and Ramdas Pophale) SiO2 
 PCOD9034799
Probable space group: P -1
;
_chemical_formula_sum "Si O2"
_cell_formula_units_Z 10
_cell_length_a 11.145035
_cell_length_b 4.862430
_cell_length_c 13.935857
_cell_angle_alpha 111.974923
_cell_angle_beta 30.845216
_cell_angle_gamma 105.228115
_cell_volume 356.342027
_symmetry_space_group_name_H-M "P -1"
_symmetry_group_IT_number 2
_symmetry_cell_setting 'triclinic'
loop_
_space_group_symop_operation_xyz
x,y,z
-x,-y,-z
loop_
_atom_site_type_symbol
_atom_site_label
_atom_site_fract_x
_atom_site_fract_y
_atom_site_fract_z
Si Si1 0.717641 0.742386 0.348235
Si Si2 0.382757 0.579608 0.970138
Si Si3 0.483267 0.671683 0.695511
Si Si4 0.785700 0.183733 0.613765
Si Si5 0.922536 0.847002 0.775081
O O1 0.667786 0.616682 0.472246
O O2 0.729835 0.457737 0.232967
O O3 0.936479 0.928172 0.230490
O O4 0.500000 0.000000 0.500000
O O5 0.436004 0.542937 0.815115
O O6 0.645264 0.447105 0.807787
O O7 0.283118 0.920809 0.099947
O O8 0.184975 0.381720 0.113084
O O9 0.583148 0.975259 0.701157
O O10 0.901754 0.281199 0.447489
O O11 0.000000 0.000000 0.500000
#
# Coordination Sequence:
#
# PCOD9034799 Si02
#       5
#     2   2   2   2   2
#     4  10  23  42  75 106 151 194 240 298 367 442
#     4  12  26  50  71 115 147 189 254 297 369 450
#     4  10  22  45  68 107 145 190 241 296 360 434
#     4  11  27  51  77 104 150 196 244 313 364 428
#     4  11  28  46  76 109 150 192 243 305 370 436
#
# _framework density 28.062925
#
# number of rings (size 3 to 8) (size 9 to 14) (size 15 to 20)
#    0.000    1.200    2.000    2.400   14.000    4.000 
#    0.000    0.000    0.000    0.000    0.000    0.000 
#    0.000    0.000    0.000    0.000    0.000    0.000 
#
# Total GULP energy -55879.456082 kJ/mol
# GULP energy per Si atom -5587.945608 kJ/mol
# Density = 2.799905 g / cm^3
# Si number density = 28.062925 Si / 1000 Ang^3
#
#
#
# Elastic Constant Matrix: (Units=GPa)
#
#
# Indices 1 2 3 4 5 6 
#
# 1 88.0228 45.8853 49.2542 -25.7638 1.8082 27.3831
# 2 45.8853 208.5971 94.3017 -51.8363 1.6297 4.2041
# 3 49.2542 94.3017 201.1362 -6.0021 -0.7542 -4.8721
# 4 -25.7638 -51.8363 -6.0021 80.2452 -13.2896 4.0543
# 5 1.8082 1.6297 -0.7542 -13.2896 42.5342 -6.0351
# 6 27.3831 4.2041 -4.8721 4.0543 -6.0351 45.3578
#
#
#
# Elastic Compliance Matrix: (Units=1/GPa)
#
#
# Indices 1 2 3 4 5 6 
#
# 1 0.020479 -0.000349 -0.004988 0.006524 -0.000831 -0.013561
# 2 -0.000349 0.007584 -0.003352 0.004758 0.000989 -0.001146
# 3 -0.004988 -0.003352 0.007772 -0.003403 0.000049 0.004468
# 4 0.006524 0.004758 -0.003403 0.018398 0.004405 -0.005804
# 5 -0.000831 0.000989 0.000049 0.004405 0.025367 0.003397
# 6 -0.013561 -0.001146 0.004468 -0.005804 0.003397 0.031791
#
#
# Mechanical properties :
#
#
# Convention : Reuss Voigt Hill
#
# Bulk Modulus (GPa) = 54.18254 97.40427 75.79340
# Shear Modulus (GPa) = 37.05856 54.18177 45.62017
#
# Velocity S-wave (km/s) = 3.63788 4.39877 4.03629
# Velocity P-wave (km/s) = 6.08235 7.78354 6.98493
#
# Compressibility (1/GPa) = 0.01845613
#
# Stress axis : x y z
#
# Youngs Moduli (GPa) = 48.83036 131.85869 128.66882
#
# Poissons Ratio (x) = 0.04597 0.64185
# Poissons Ratio (y) = 0.01702 0.43135
# Poissons Ratio (z) = 0.24358 0.44204
#
# Static dielectric constant tensor:
#      x y z
#    x 2.332940 -0.075950 -0.133870 
#    y -0.075950 2.236950 0.122980 
#    z -0.133870 0.122980 2.203230 
# 
# From -- ./inp_files/132763.got.cif
#   From: 2010.05.17/outbox.cif.g08.bks.cpg/sg2_67_cif.got.tgz:132763.got - 2010.06.03 11:33:40.
