data_PCOD9034958
_publ_section_title
;
Structure prediction by ZEFSAII (Michael W. Deem and Ramdas Pophale) SiO2 
 PCOD9034958
Probable space group: P -1
;
_chemical_formula_sum "Si O2"
_cell_formula_units_Z 14
_cell_length_a 9.273756
_cell_length_b 17.300963
_cell_length_c 8.839983
_cell_angle_alpha 60.464945
_cell_angle_beta 46.370122
_cell_angle_gamma 94.351455
_cell_volume 670.565929
_symmetry_space_group_name_H-M "P -1"
_symmetry_group_IT_number 2
_symmetry_cell_setting 'triclinic'
loop_
_space_group_symop_operation_xyz
x,y,z
-x,-y,-z
loop_
_atom_site_type_symbol
_atom_site_label
_atom_site_fract_x
_atom_site_fract_y
_atom_site_fract_z
Si Si1 0.721301 0.410216 0.703704
Si Si2 0.720907 0.835795 0.569094
Si Si3 0.045595 0.942900 0.657317
Si Si4 0.130540 0.652668 0.638541
Si Si5 0.517983 0.479267 0.331048
Si Si6 0.608775 0.755577 0.387268
Si Si7 0.799685 0.122683 0.654588
O O1 0.773570 0.387130 0.520792
O O2 0.592638 0.469426 0.729420
O O3 0.000000 0.500000 0.500000
O O4 0.517404 0.285190 0.057387
O O5 0.685424 0.815537 0.436259
O O6 0.994716 0.868751 0.393752
O O7 0.739018 0.943598 0.505009
O O8 0.115055 0.874104 0.583309
O O9 0.000000 0.000000 0.500000
O O10 0.790569 0.851320 0.032762
O O11 0.307959 0.689181 0.623003
O O12 0.182599 0.768042 0.433265
O O13 0.822264 0.553090 0.993925
O O14 0.500000 0.500000 0.500000
O O15 0.363236 0.342710 0.541856
O O16 0.500000 0.000000 0.000000
#
# Coordination Sequence:
#
# PCOD9034958 Si02
#       7
#     2   2   2   2   2   2   2
#     4  12  27  46  73 104 141 188 229 286 348 413
#     4  11  24  45  69 102 141 175 237 292 340 413
#     4  10  22  45  69  96 137 179 231 288 343 414
#     4  12  24  45  69 101 142 189 232 277 354 410
#     4  12  26  45  69 104 146 181 237 283 343 419
#     4  12  25  43  72 103 140 184 230 293 346 408
#     4  11  22  42  71  99 135 186 232 284 347 412
#
# _framework density 20.877889
#
# number of rings (size 3 to 8) (size 9 to 14) (size 15 to 20)
#    0.000    0.571    2.857    6.857    4.000    1.143 
#    0.000    1.429    0.000    0.000    0.000    0.000 
#    0.000    0.000    0.000    0.000    0.000    0.000 
#
# Total GULP energy -78344.138651 kJ/mol
# GULP energy per Si atom -5596.009904 kJ/mol
# Density = 2.083037 g / cm^3
# Si number density = 20.877889 Si / 1000 Ang^3
#
#
#
# Elastic Constant Matrix: (Units=GPa)
#
#
# Indices 1 2 3 4 5 6 
#
# 1 87.3806 40.2165 40.4056 4.4774 -17.5505 13.7876
# 2 40.2165 101.3132 17.3362 -1.2362 1.5414 18.5946
# 3 40.4056 17.3362 142.4521 -0.1707 -3.4041 4.8955
# 4 4.4774 -1.2362 -0.1707 38.0175 0.3839 4.7369
# 5 -17.5505 1.5414 -3.4041 0.3839 30.9883 -5.9366
# 6 13.7876 18.5946 4.8955 4.7369 -5.9366 41.4807
#
#
#
# Elastic Compliance Matrix: (Units=1/GPa)
#
#
# Indices 1 2 3 4 5 6 
#
# 1 0.018910 -0.006788 -0.004258 -0.002452 0.010425 -0.000968
# 2 -0.006788 0.013502 0.000321 0.001896 -0.005429 -0.004828
# 3 -0.004258 0.000321 0.008152 0.000561 -0.001534 0.000026
# 4 -0.002452 0.001896 0.000561 0.027123 -0.002437 -0.003547
# 5 0.010425 -0.005429 -0.001534 -0.002437 0.039273 0.005049
# 6 -0.000968 -0.004828 0.000026 -0.003547 0.005049 0.027718
#
#
# Mechanical properties :
#
#
# Convention : Reuss Voigt Hill
#
# Bulk Modulus (GPa) = 52.32345 58.56249 55.44297
# Shear Modulus (GPa) = 30.76925 37.64315 34.20620
#
# Velocity S-wave (km/s) = 3.84314 4.25080 4.05210
# Velocity P-wave (km/s) = 6.69395 7.22518 6.96464
#
# Compressibility (1/GPa) = 0.01911189
#
# Stress axis : x y z
#
# Youngs Moduli (GPa) = 52.88317 74.06317 122.67311
#
# Poissons Ratio (x) = 0.50278 0.52234
# Poissons Ratio (y) = 0.35900 -0.03935
# Poissons Ratio (z) = 0.22518 -0.02376
#
# Static dielectric constant tensor:
#      x y z
#    x 1.747100 -0.017490 0.002520 
#    y -0.017490 1.756880 -0.006880 
#    z 0.002520 -0.006880 1.741150 
# 
# From -- ./inp_files/188820.got.cif
#   From: 2010.05.17/outbox.cif.g08.bks.cpg/sg2_95_cif.got.tgz:188820.got - 2010.06.03 11:33:40.
