data_PCOD9034513
_publ_section_title
;
Structure prediction by ZEFSAII (Michael W. Deem and Ramdas Pophale) SiO2 
 PCOD9034513
Probable space group: P -1
;
_chemical_formula_sum "Si O2"
_cell_formula_units_Z 12
_cell_length_a 9.095587
_cell_length_b 7.995986
_cell_length_c 7.110519
_cell_angle_alpha 99.678022
_cell_angle_beta 67.381588
_cell_angle_gamma 87.281559
_cell_volume 466.983455
_symmetry_space_group_name_H-M "P -1"
_symmetry_group_IT_number 2
_symmetry_cell_setting 'triclinic'
loop_
_space_group_symop_operation_xyz
x,y,z
-x,-y,-z
loop_
_atom_site_type_symbol
_atom_site_label
_atom_site_fract_x
_atom_site_fract_y
_atom_site_fract_z
Si Si1 0.378773 0.816406 0.800537
Si Si2 0.665434 0.738487 0.357064
Si Si3 0.810335 0.548127 0.573921
Si Si4 0.399878 0.714939 0.183316
Si Si5 0.892675 0.031692 0.243801
Si Si6 0.227441 0.061856 0.223467
O O1 0.408399 0.696434 0.946843
O O2 0.526641 0.811075 0.587234
O O3 0.204574 0.128437 0.700662
O O4 0.232070 0.807473 0.727814
O O5 0.566064 0.701408 0.213466
O O6 0.756293 0.573784 0.387251
O O7 0.712112 0.416563 0.703941
O O8 0.762855 0.739999 0.714721
O O9 0.000000 0.500000 0.500000
O O10 0.692991 0.091518 0.709959
O O11 0.675921 0.004956 0.027133
O O12 0.037230 0.054834 0.314970
O O13 0.000000 0.000000 0.000000
#
# Coordination Sequence:
#
# PCOD9034513 Si02
#       6
#     2   2   2   2   2   2
#     4   9  24  46  80 114 150 204 259 321 389 454
#     4  12  26  45  84 115 151 206 265 319 389 469
#     4  12  28  47  78 118 158 208 261 317 394 471
#     4  10  26  51  77 116 157 199 259 327 387 452
#     4  10  22  44  77 117 151 202 259 310 393 463
#     4   9  24  50  79 109 157 206 252 322 388 459
#
# _framework density 25.696840999999999
#
# number of rings (size 3 to 8) (size 9 to 14) (size 15 to 20)
#    1.000    0.667    0.000    2.000    7.000    6.000 
#    0.000    4.167    0.000    0.000    0.000    0.000 
#    0.000    0.000    0.000    0.000    0.000    0.000 
#
# Total GULP energy -67049.870647 kJ/mol
# GULP energy per Si atom -5587.489221 kJ/mol
# Density = 2.563835 g / cm^3
# Si number density = 25.696841 Si / 1000 Ang^3
#
#
#
# Elastic Constant Matrix: (Units=GPa)
#
#
# Indices 1 2 3 4 5 6 
#
# 1 208.3078 57.5054 40.0813 -39.5069 -2.1683 -9.0672
# 2 57.5054 178.0834 50.6843 -21.0101 -6.1219 4.2196
# 3 40.0813 50.6843 128.5998 -43.3098 -5.2336 5.8940
# 4 -39.5069 -21.0101 -43.3098 51.4106 -5.2853 -12.1657
# 5 -2.1683 -6.1219 -5.2336 -5.2853 47.3254 -18.2131
# 6 -9.0672 4.2196 5.8940 -12.1657 -18.2131 42.3091
#
#
#
# Elastic Compliance Matrix: (Units=1/GPa)
#
#
# Indices 1 2 3 4 5 6 
#
# 1 0.006490 -0.001548 0.000539 0.006079 0.002486 0.004288
# 2 -0.001548 0.006734 -0.002312 -0.000544 0.000193 -0.000755
# 3 0.000539 -0.002312 0.012175 0.010876 0.003560 0.003310
# 4 0.006079 -0.000544 0.010876 0.038016 0.011749 0.015831
# 5 0.002486 0.000193 0.003560 0.011749 0.029104 0.015924
# 6 0.004288 -0.000755 0.003310 0.015831 0.015924 0.035576
#
#
# Mechanical properties :
#
#
# Convention : Reuss Voigt Hill
#
# Bulk Modulus (GPa) = 53.31477 90.17035 71.74256
# Shear Modulus (GPa) = 35.46401 52.65700 44.06051
#
# Velocity S-wave (km/s) = 3.71899 4.53168 4.14530
# Velocity P-wave (km/s) = 6.26369 7.90871 7.13378
#
# Compressibility (1/GPa) = 0.01875653
#
# Stress axis : x y z
#
# Youngs Moduli (GPa) = 154.09235 148.50835 82.13463
#
# Poissons Ratio (x) = 0.22990 -0.04431
# Poissons Ratio (y) = 0.23854 0.18992
# Poissons Ratio (z) = -0.08312 0.34340
#
# Static dielectric constant tensor:
#      x y z
#    x 2.161840 0.005140 0.144650 
#    y 0.005140 2.046900 0.039500 
#    z 0.144650 0.039500 2.216280 
# 
# From -- ./inp_files/229581.got.cif
#   From: 2010.05.17/outbox.cif.g08.bks.cpg/sg2_115_cif.got.tgz:229581.got - 2010.06.03 11:33:40.
