data_PCOD9034018
_publ_section_title
;
Structure prediction by ZEFSAII (Michael W. Deem and Ramdas Pophale) SiO2 
 PCOD9034018
Probable space group: P -1
;
_chemical_formula_sum "Si O2"
_cell_formula_units_Z 16
_cell_length_a 20.316749
_cell_length_b 5.672510
_cell_length_c 16.758208
_cell_angle_alpha 84.965585
_cell_angle_beta 19.395405
_cell_angle_gamma 87.233898
_cell_volume 635.406141
_symmetry_space_group_name_H-M "P -1"
_symmetry_group_IT_number 2
_symmetry_cell_setting 'triclinic'
loop_
_space_group_symop_operation_xyz
x,y,z
-x,-y,-z
loop_
_atom_site_type_symbol
_atom_site_label
_atom_site_fract_x
_atom_site_fract_y
_atom_site_fract_z
Si Si1 0.551106 0.508198 0.840978
Si Si2 0.372602 0.255978 0.724146
Si Si3 0.785252 0.598583 0.253168
Si Si4 0.905336 0.370838 0.533655
Si Si5 0.147686 0.537220 0.097716
Si Si6 0.672674 0.011175 0.906689
Si Si7 0.432348 0.933039 0.809823
Si Si8 0.202665 0.259970 0.581198
O O1 0.716026 0.501718 0.720566
O O2 0.675671 0.531320 0.615418
O O3 0.451111 0.754850 0.955430
O O4 0.430174 0.248292 0.988029
O O5 0.592327 0.404584 0.466137
O O6 0.270543 0.210522 0.755776
O O7 0.409656 0.044571 0.746785
O O8 0.210876 0.392299 0.953903
O O9 0.793768 0.690776 0.330816
O O10 0.000000 0.500000 0.000000
O O11 0.832828 0.103892 0.653722
O O12 0.000000 0.500000 0.500000
O O13 0.039303 0.401781 0.300628
O O14 0.012347 0.738013 0.213338
O O15 0.352945 0.659385 0.894859
O O16 0.710425 0.989645 0.959115
O O17 0.662553 0.959590 0.574060
#
# Coordination Sequence:
#
# PCOD9034018 Si02
#       8
#     2   2   2   2   2   2   2   2
#     4  10  24  45  73 101 146 195 250 303 370 445
#     4  11  25  43  70 100 137 185 232 300 365 440
#     4  11  22  43  72 100 136 181 237 294 365 445
#     4  11  23  43  68 106 144 187 246 307 366 433
#     4  11  23  47  66 102 143 186 238 298 366 445
#     4  11  23  46  72 102 144 200 250 304 365 437
#     4  11  24  43  71  98 145 186 242 293 373 427
#     4  10  22  44  70  99 143 189 237 295 373 435
#
# _framework density 25.180744000000001
#
# number of rings (size 3 to 8) (size 9 to 14) (size 15 to 20)
#    0.000    1.250    3.750    1.500    1.750    1.500 
#   15.750    4.375    0.000    0.000    0.000    0.000 
#    0.000    0.000    0.000    0.000    0.000    0.000 
#
# Total GULP energy -89313.588173 kJ/mol
# GULP energy per Si atom -5582.099261 kJ/mol
# Density = 2.512343 g / cm^3
# Si number density = 25.180744 Si / 1000 Ang^3
#
#
#
# Elastic Constant Matrix: (Units=GPa)
#
#
# Indices 1 2 3 4 5 6 
#
# 1 190.0861 26.7771 44.5740 1.5707 5.5791 -24.5900
# 2 26.7771 91.3227 39.8942 2.9209 -6.2988 -14.5062
# 3 44.5740 39.8942 87.3235 2.3762 0.5809 -32.9904
# 4 1.5707 2.9209 2.3762 34.1620 -9.8584 -6.3702
# 5 5.5791 -6.2988 0.5809 -9.8584 47.7788 2.7016
# 6 -24.5900 -14.5062 -32.9904 -6.3702 2.7016 27.2244
#
#
#
# Elastic Compliance Matrix: (Units=1/GPa)
#
#
# Indices 1 2 3 4 5 6 
#
# 1 0.006196 -0.000662 -0.001514 0.000271 -0.000938 0.003564
# 2 -0.000662 0.013939 -0.006570 -0.000394 0.001994 -0.001423
# 3 -0.001514 -0.006570 0.025213 0.003321 -0.001817 0.026642
# 4 0.000271 -0.000394 0.003321 0.032883 0.006030 0.011155
# 5 -0.000938 0.001994 -0.001817 0.006030 0.022729 -0.002831
# 6 0.003564 -0.001423 0.026642 0.011155 -0.002831 0.074369
#
#
# Mechanical properties :
#
#
# Convention : Reuss Voigt Hill
#
# Bulk Modulus (GPa) = 35.90124 65.69144 50.79634
# Shear Modulus (GPa) = 24.73954 38.99883 31.86919
#
# Velocity S-wave (km/s) = 3.13785 3.93969 3.56141
# Velocity P-wave (km/s) = 5.23608 6.84394 6.09328
#
# Compressibility (1/GPa) = 0.02785419
#
# Stress axis : x y z
#
# Youngs Moduli (GPa) = 161.40510 71.74354 39.66187
#
# Poissons Ratio (x) = 0.04751 0.06007
# Poissons Ratio (y) = 0.10688 0.26057
# Poissons Ratio (z) = 0.24445 0.47134
#
# Static dielectric constant tensor:
#      x y z
#    x 2.017940 -0.031120 0.094820 
#    y -0.031120 2.049680 0.091800 
#    z 0.094820 0.091800 2.228140 
# 
# From -- ./inp_files/576788.got.cif
#   From: 2010.05.17/outbox.cif.g08.bks.cpg/sg2_289_cif.got.tgz:576788.got - 2010.06.03 11:33:40.
