data_PCOD9034086
_publ_section_title
;
Structure prediction by ZEFSAII (Michael W. Deem and Ramdas Pophale) SiO2 
 PCOD9034086
Probable space group: P -1
;
_chemical_formula_sum "Si O2"
_cell_formula_units_Z 14
_cell_length_a 14.709412
_cell_length_b 5.291492
_cell_length_c 10.772329
_cell_angle_alpha 120.681118
_cell_angle_beta 54.900300
_cell_angle_gamma 88.729936
_cell_volume 527.305837
_symmetry_space_group_name_H-M "P -1"
_symmetry_group_IT_number 2
_symmetry_cell_setting 'triclinic'
loop_
_space_group_symop_operation_xyz
x,y,z
-x,-y,-z
loop_
_atom_site_type_symbol
_atom_site_label
_atom_site_fract_x
_atom_site_fract_y
_atom_site_fract_z
Si Si1 0.744628 0.613178 0.087490
Si Si2 0.524544 0.528957 0.342113
Si Si3 0.402913 0.196848 0.990356
Si Si4 0.257087 0.811395 0.618227
Si Si5 0.992338 0.715196 0.178220
Si Si6 0.054680 0.262910 0.514941
Si Si7 0.323613 0.148069 0.307268
O O1 0.630994 0.637699 0.265882
O O2 0.696594 0.610548 0.987051
O O3 0.765389 0.934768 0.186553
O O4 0.873274 0.289814 0.928518
O O5 0.500000 0.500000 0.500000
O O6 0.389872 0.764711 0.451119
O O7 0.572218 0.178938 0.150444
O O8 0.542410 0.156541 0.851633
O O9 0.350206 0.289958 0.192454
O O10 0.286114 0.429945 0.513191
O O11 0.137416 0.964905 0.661164
O O12 0.986623 0.555369 0.273877
O O13 0.000000 0.500000 0.000000
O O14 0.203703 0.096955 0.360932
O O15 0.000000 0.500000 0.500000
O O16 0.000000 0.000000 0.500000
#
# Coordination Sequence:
#
# PCOD9034086 Si02
#       7
#     2   2   2   2   2   2   2
#     4  11  23  43  73 100 146 189 248 308 380 454
#     4  11  23  40  72 104 137 192 246 308 377 454
#     4  10  23  45  71 107 143 190 249 311 376 458
#     4  10  22  44  71 104 143 191 244 308 379 453
#     4  10  25  46  72 113 146 201 253 323 388 455
#     4  12  27  50  79 107 157 212 264 318 400 482
#     4  10  24  46  71 108 147 192 249 314 383 455
#
# _framework density 26.550055
#
# number of rings (size 3 to 8) (size 9 to 14) (size 15 to 20)
#    0.000    1.429    1.429    2.143    4.000    3.429 
#    2.571    6.429    0.000    0.000    0.000    0.000 
#    0.000    0.000    0.000    0.000    0.000    0.000 
#
# Total GULP energy -78321.421668 kJ/mol
# GULP energy per Si atom -5594.387262 kJ/mol
# Density = 2.648963 g / cm^3
# Si number density = 26.550055 Si / 1000 Ang^3
#
#
#
# Elastic Constant Matrix: (Units=GPa)
#
#
# Indices 1 2 3 4 5 6 
#
# 1 212.5445 58.3381 75.1888 0.9627 -40.0476 -3.3243
# 2 58.3381 74.8483 30.3758 15.7972 6.5942 14.3987
# 3 75.1888 30.3758 114.4239 17.6336 -9.0560 12.9319
# 4 0.9627 15.7972 17.6336 38.6063 -9.9478 -5.9729
# 5 -40.0476 6.5942 -9.0560 -9.9478 83.0616 -10.9164
# 6 -3.3243 14.3987 12.9319 -5.9729 -10.9164 31.1841
#
#
#
# Elastic Compliance Matrix: (Units=1/GPa)
#
#
# Indices 1 2 3 4 5 6 
#
# 1 0.015501 -0.017074 -0.009791 0.017656 0.012692 0.021421
# 2 -0.017074 0.037707 0.008091 -0.028760 -0.018323 -0.034509
# 3 -0.009791 0.008091 0.016749 -0.015375 -0.007659 -0.017352
# 4 0.017656 -0.028760 -0.015375 0.055787 0.021002 0.039575
# 5 0.012692 -0.018323 -0.007659 0.021002 0.024664 0.025646
# 6 0.021421 -0.034509 -0.017352 0.039575 0.025646 0.074038
#
#
# Mechanical properties :
#
#
# Convention : Reuss Voigt Hill
#
# Bulk Modulus (GPa) = 30.85373 81.06911 55.96142
# Shear Modulus (GPa) = 18.32858 46.43134 32.37996
#
# Velocity S-wave (km/s) = 2.63028 4.18643 3.49604
# Velocity P-wave (km/s) = 4.56845 7.34636 6.11718
#
# Compressibility (1/GPa) = 0.03241099
#
# Stress axis : x y z
#
# Youngs Moduli (GPa) = 64.51077 26.52020 59.70364
#
# Poissons Ratio (x) = 0.45281 0.58455
# Poissons Ratio (y) = 1.10145 -0.48309
# Poissons Ratio (z) = 0.63162 -0.21459
#
# Static dielectric constant tensor:
#      x y z
#    x 2.324020 0.016200 0.239410 
#    y 0.016200 2.108300 0.026030 
#    z 0.239410 0.026030 2.386440 
# 
# From -- ./inp_files/442231.got.cif
#   From: 2010.05.17/outbox.cif.g08.bks.cpg/sg2_222_cif.got.tgz:442231.got - 2010.06.03 11:33:40.
