data_PCOD9034373
_publ_section_title
;
Structure prediction by ZEFSAII (Michael W. Deem and Ramdas Pophale) SiO2 
 PCOD9034373
Probable space group: P -1
;
_chemical_formula_sum "Si O2"
_cell_formula_units_Z 16
_cell_length_a 9.707732
_cell_length_b 17.129100
_cell_length_c 15.195613
_cell_angle_alpha 154.183844
_cell_angle_beta 38.186780
_cell_angle_gamma 139.990688
_cell_volume 664.096525
_symmetry_space_group_name_H-M "P -1"
_symmetry_group_IT_number 2
_symmetry_cell_setting 'triclinic'
loop_
_space_group_symop_operation_xyz
x,y,z
-x,-y,-z
loop_
_atom_site_type_symbol
_atom_site_label
_atom_site_fract_x
_atom_site_fract_y
_atom_site_fract_z
Si Si1 0.592991 0.184004 0.930981
Si Si2 0.227918 0.579186 0.414144
Si Si3 0.983258 0.168743 0.612472
Si Si4 0.517618 0.757819 0.596912
Si Si5 0.697496 0.386844 0.268386
Si Si6 0.223289 0.424045 0.070394
Si Si7 0.752493 0.967445 0.357643
Si Si8 0.195165 0.996501 0.828251
O O1 0.828581 0.271282 0.851947
O O2 0.550718 0.966613 0.757667
O O3 0.398713 0.158746 0.927025
O O4 0.611959 0.282534 0.115130
O O5 0.419869 0.604533 0.417645
O O6 0.216229 0.452305 0.207234
O O7 0.245291 0.791684 0.593490
O O8 0.000000 0.500000 0.500000
O O9 0.224198 0.264209 0.548082
O O10 0.843475 0.096420 0.522659
O O11 0.000000 0.000000 0.500000
O O12 0.354495 0.739099 0.744683
O O13 0.500000 0.500000 0.500000
O O14 0.974787 0.470032 0.213317
O O15 0.500000 0.500000 0.000000
O O16 0.214357 0.230883 0.831606
O O17 0.500000 0.000000 0.500000
O O18 0.871778 0.983539 0.218793
O O19 0.000000 0.000000 0.000000
#
# Coordination Sequence:
#
# PCOD9034373 Si02
#       8
#     2   2   2   2   2   2   2   2
#     4  10  23  44  71  99 141 188 249 301 367 438
#     4  11  23  46  70 103 150 189 241 303 382 440
#     4  10  22  44  74 100 139 187 249 302 364 432
#     4  10  23  43  72 100 137 196 241 302 363 444
#     4  12  28  47  71 107 149 196 250 305 377 450
#     4  12  28  45  72 105 151 196 241 313 387 442
#     4  12  25  47  74 111 144 189 260 312 368 448
#     4  11  25  40  74 106 140 191 251 310 361 441
#
# _framework density 24.092884000000002
#
# number of rings (size 3 to 8) (size 9 to 14) (size 15 to 20)
#    0.000    1.000    2.500    3.375   10.500    2.000 
#    0.000    0.625    0.000    0.000    0.000    0.000 
#    0.000    0.000    0.000    0.000    0.000    0.000 
#
# Total GULP energy -89113.733960 kJ/mol
# GULP energy per Si atom -5569.608373 kJ/mol
# Density = 2.403805 g / cm^3
# Si number density = 24.092884 Si / 1000 Ang^3
#
#
#
# Elastic Constant Matrix: (Units=GPa)
#
#
# Indices 1 2 3 4 5 6 
#
# 1 134.7741 34.0486 39.4492 -4.3774 15.3704 32.2657
# 2 34.0486 76.6494 25.7551 -25.4889 -0.7741 20.9769
# 3 39.4492 25.7551 113.5055 -20.5193 25.1233 17.1358
# 4 -4.3774 -25.4889 -20.5193 41.6670 -0.5932 1.1388
# 5 15.3704 -0.7741 25.1233 -0.5932 52.9870 -6.1138
# 6 32.2657 20.9769 17.1358 1.1388 -6.1138 33.3496
#
#
#
# Elastic Compliance Matrix: (Units=1/GPa)
#
#
# Indices 1 2 3 4 5 6 
#
# 1 0.010938 -0.002133 -0.001189 -0.000540 -0.003719 -0.009293
# 2 -0.002133 0.021782 0.000189 0.013523 -0.000417 -0.012272
# 3 -0.001189 0.000189 0.012818 0.006401 -0.006461 -0.006957
# 4 -0.000540 0.013523 0.006401 0.035674 -0.003803 -0.013187
# 5 -0.003719 -0.000417 -0.006461 -0.003803 0.024324 0.011769
# 6 -0.009293 -0.012272 -0.006957 -0.013187 0.011769 0.052878
#
#
# Mechanical properties :
#
#
# Convention : Reuss Voigt Hill
#
# Bulk Modulus (GPa) = 25.46446 58.15941 41.81193
# Shear Modulus (GPa) = 28.12588 40.64580 34.38584
#
# Velocity S-wave (km/s) = 3.42042 4.11182 3.78195
# Velocity P-wave (km/s) = 5.11774 6.83629 6.03846
#
# Compressibility (1/GPa) = 0.03927042
#
# Stress axis : x y z
#
# Youngs Moduli (GPa) = 91.42268 45.90985 78.01343
#
# Poissons Ratio (x) = 0.09794 0.09278
# Poissons Ratio (y) = 0.19503 -0.01471
# Poissons Ratio (z) = 0.10872 -0.00866
#
# Static dielectric constant tensor:
#      x y z
#    x 2.138520 0.060540 -0.134700 
#    y 0.060540 2.061080 0.014670 
#    z -0.134700 0.014670 1.892600 
# 
# From -- ./inp_files/507329.got.cif
#   From: 2010.05.17/outbox.cif.g08.bks.cpg/sg2_254_cif.got.tgz:507329.got - 2010.06.03 11:33:40.
