data_PCOD9034858
_publ_section_title
;
Structure prediction by ZEFSAII (Michael W. Deem and Ramdas Pophale) SiO2 
 PCOD9034858
Probable space group: P -1
;
_chemical_formula_sum "Si O2"
_cell_formula_units_Z 14
_cell_length_a 10.653485
_cell_length_b 9.489085
_cell_length_c 9.458510
_cell_angle_alpha 95.748565
_cell_angle_beta 40.728602
_cell_angle_gamma 87.882254
_cell_volume 611.294664
_symmetry_space_group_name_H-M "P -1"
_symmetry_group_IT_number 2
_symmetry_cell_setting 'triclinic'
loop_
_space_group_symop_operation_xyz
x,y,z
-x,-y,-z
loop_
_atom_site_type_symbol
_atom_site_label
_atom_site_fract_x
_atom_site_fract_y
_atom_site_fract_z
Si Si1 0.716522 0.912192 0.803472
Si Si2 0.379422 0.252536 0.373342
Si Si3 0.443119 0.663632 0.501432
Si Si4 0.007685 0.569526 0.350058
Si Si5 0.027346 0.827654 0.964768
Si Si6 0.272329 0.306173 0.972147
Si Si7 0.811359 0.189704 0.869282
O O1 0.730070 0.862947 0.623788
O O2 0.719733 0.778330 0.894009
O O3 0.839255 0.026452 0.773441
O O4 0.500000 0.000000 0.000000
O O5 0.447427 0.240928 0.474996
O O6 0.213626 0.392291 0.513011
O O7 0.584301 0.244364 0.113131
O O8 0.500000 0.500000 0.500000
O O9 0.217366 0.737032 0.715250
O O10 0.527886 0.674677 0.273441
O O11 0.000000 0.500000 0.500000
O O12 0.142146 0.461581 0.120836
O O13 0.117008 0.704890 0.292116
O O14 0.841973 0.781036 0.046180
O O15 0.064209 0.792180 0.094667
O O16 0.000000 0.000000 0.000000
#
# Coordination Sequence:
#
# PCOD9034858 Si02
#       7
#     2   2   2   2   2   2   2
#     4  10  22  46  66  98 138 180 219 281 342 403
#     4  10  22  45  68  99 136 174 227 276 344 399
#     4  11  25  46  72 103 138 186 225 279 353 404
#     4  12  25  43  67 102 131 181 229 279 337 408
#     4  11  23  44  72 107 133 177 235 283 338 406
#     4  12  24  46  71  99 140 174 232 286 332 410
#     4  10  23  45  69  94 142 175 221 286 343 402
#
# _framework density 22.90221
#
# number of rings (size 3 to 8) (size 9 to 14) (size 15 to 20)
#    0.000    1.143    2.857    3.429    0.000    3.429 
#   15.429    0.000    0.000    0.000    0.000    0.000 
#    0.000    0.000    0.000    0.000    0.000    0.000 
#
# Total GULP energy -78189.374117 kJ/mol
# GULP energy per Si atom -5584.955294 kJ/mol
# Density = 2.285008 g / cm^3
# Si number density = 22.902210 Si / 1000 Ang^3
#
#
#
# Elastic Constant Matrix: (Units=GPa)
#
#
# Indices 1 2 3 4 5 6 
#
# 1 54.6849 -11.4704 -10.4059 -0.6125 1.7850 3.6954
# 2 -11.4704 98.0780 20.4623 2.1430 -0.6411 -3.0686
# 3 -10.4059 20.4623 93.3914 6.3356 -0.3823 -7.2002
# 4 -0.6125 2.1430 6.3356 36.5274 -6.4309 0.2618
# 5 1.7850 -0.6411 -0.3823 -6.4309 24.9451 14.8700
# 6 3.6954 -3.0686 -7.2002 0.2618 14.8700 35.7515
#
#
#
# Elastic Compliance Matrix: (Units=1/GPa)
#
#
# Indices 1 2 3 4 5 6 
#
# 1 0.019087 0.001852 0.001635 -0.000169 -0.000602 -0.001233
# 2 0.001852 0.010874 -0.002128 -0.000274 -0.000192 0.000395
# 3 0.001635 -0.002128 0.011737 -0.002327 -0.002395 0.003025
# 4 -0.000169 -0.000274 -0.002327 0.029713 0.010693 -0.005140
# 5 -0.000602 -0.000192 -0.002395 0.010693 0.057380 -0.024381
# 6 -0.001233 0.000395 0.003025 -0.005140 -0.024381 0.038920
#
#
# Mechanical properties :
#
#
# Convention : Reuss Voigt Hill
#
# Bulk Modulus (GPa) = 22.51380 27.03626 24.77503
# Shear Modulus (GPa) = 27.80902 35.94936 31.87919
#
# Velocity S-wave (km/s) = 3.48839 3.96623 3.73496
# Velocity P-wave (km/s) = 5.10656 5.72760 5.42597
#
# Compressibility (1/GPa) = 0.04441719
#
# Stress axis : x y z
#
# Youngs Moduli (GPa) = 52.39083 91.96562 85.19860
#
# Poissons Ratio (x) = -0.17036 -0.13929
# Poissons Ratio (y) = -0.09705 0.18128
# Poissons Ratio (z) = -0.08565 0.19568
#
# Static dielectric constant tensor:
#      x y z
#    x 1.906040 0.105240 -0.006380 
#    y 0.105240 2.038360 0.033540 
#    z -0.006380 0.033540 1.931460 
# 
# From -- ./inp_files/243803.got.cif
#   From: 2010.05.17/outbox.cif.g08.bks.cpg/sg2_122_cif.got.tgz:243803.got - 2010.06.03 11:33:40.
