data_PCOD9034242
_publ_section_title
;
Structure prediction by ZEFSAII (Michael W. Deem and Ramdas Pophale) SiO2 
 PCOD9034242
Probable space group: P -1
;
_chemical_formula_sum "Si O2"
_cell_formula_units_Z 15
_cell_length_a 21.977601
_cell_length_b 5.535123
_cell_length_c 11.832331
_cell_angle_alpha 129.318745
_cell_angle_beta 29.857584
_cell_angle_gamma 124.222140
_cell_volume 554.070413
_symmetry_space_group_name_H-M "P -1"
_symmetry_group_IT_number 2
_symmetry_cell_setting 'triclinic'
loop_
_space_group_symop_operation_xyz
x,y,z
-x,-y,-z
loop_
_atom_site_type_symbol
_atom_site_label
_atom_site_fract_x
_atom_site_fract_y
_atom_site_fract_z
Si Si1 0.299882 0.198826 0.181506
Si Si2 0.606975 0.747328 0.366353
Si Si3 0.477802 0.390286 0.777207
Si Si4 0.000000 0.500000 0.500000
Si Si5 0.308805 0.177639 0.423517
Si Si6 0.907671 0.470934 0.036362
Si Si7 0.193649 0.685695 0.052897
Si Si8 0.893693 0.328846 0.390476
O O1 0.327412 0.132195 0.246427
O O2 0.165506 0.337742 0.432344
O O3 0.291558 0.909195 0.023741
O O4 0.400340 0.426626 0.026597
O O5 0.500000 0.500000 0.500000
O O6 0.611054 0.706009 0.211614
O O7 0.566166 0.095949 0.561778
O O8 0.732345 0.629592 0.182455
O O9 0.560231 0.698626 0.705893
O O10 0.912469 0.372044 0.704074
O O11 0.920364 0.293812 0.469326
O O12 0.220040 0.899167 0.529695
O O13 0.217662 0.455227 0.678390
O O14 0.864416 0.194287 0.935779
O O15 0.983957 0.684229 0.884700
O O16 0.000000 0.500000 0.000000
#
# Coordination Sequence:
#
# PCOD9034242 Si02
#       8
#     2   2   2   1   2   2   2   2
#     4  12  25  46  73 108 145 194 246 300 369 435
#     4  11  23  49  75 106 146 191 250 303 367 438
#     4  11  27  44  76 110 145 197 247 302 369 439
#     4  10  22  44  72 108 134 192 240 306 358 434
#     4  12  26  48  68 109 150 194 242 305 369 436
#     4  11  25  49  73 109 145 197 245 303 369 442
#     4  11  24  46  77 107 147 189 246 302 366 439
#     4  11  25  46  74 105 151 189 246 304 372 434
#
# _framework density 27.072372999999999
#
# number of rings (size 3 to 8) (size 9 to 14) (size 15 to 20)
#    0.000    0.800    4.000    2.400    1.867    5.867 
#    7.200    0.000    0.000    0.000    0.000    0.000 
#    0.000    0.000    0.000    0.000    0.000    0.000 
#
# Total GULP energy -83657.434611 kJ/mol
# GULP energy per Si atom -5577.162307 kJ/mol
# Density = 2.701076 g / cm^3
# Si number density = 27.072373 Si / 1000 Ang^3
#
#
#
# Elastic Constant Matrix: (Units=GPa)
#
#
# Indices 1 2 3 4 5 6 
#
# 1 155.7868 10.0845 48.2521 1.9488 26.7732 18.4400
# 2 10.0845 84.2083 31.0411 -23.5480 -4.4965 17.8094
# 3 48.2521 31.0411 93.1672 -21.5981 2.5230 14.5818
# 4 1.9488 -23.5480 -21.5981 28.1151 -2.6753 -3.5227
# 5 26.7732 -4.4965 2.5230 -2.6753 55.2104 0.1780
# 6 18.4400 17.8094 14.5818 -3.5227 0.1780 38.1914
#
#
#
# Elastic Compliance Matrix: (Units=1/GPa)
#
#
# Indices 1 2 3 4 5 6 
#
# 1 0.009358 -0.000436 -0.005554 -0.006061 -0.004605 -0.002732
# 2 -0.000436 0.017604 -0.001754 0.012882 0.002370 -0.006151
# 3 -0.005554 -0.001754 0.017257 0.012148 0.002357 -0.001979
# 4 -0.006061 0.012882 0.012148 0.056378 0.006173 -0.002547
# 5 -0.004605 0.002370 0.002357 0.006173 0.020728 0.000691
# 6 -0.002732 -0.006151 -0.001979 -0.002547 0.000691 0.030889
#
#
# Mechanical properties :
#
#
# Convention : Reuss Voigt Hill
#
# Bulk Modulus (GPa) = 34.80810 56.87974 45.84392
# Shear Modulus (GPa) = 28.20402 40.55568 34.37985
#
# Velocity S-wave (km/s) = 3.23120 3.87466 3.56747
# Velocity P-wave (km/s) = 5.17747 6.40884 5.82578
#
# Compressibility (1/GPa) = 0.02872895
#
# Stress axis : x y z
#
# Youngs Moduli (GPa) = 106.85932 56.80532 57.94857
#
# Poissons Ratio (x) = 0.02479 0.32185
# Poissons Ratio (y) = 0.04663 0.10166
# Poissons Ratio (z) = 0.59351 0.09966
#
# Static dielectric constant tensor:
#      x y z
#    x 2.160410 0.035490 -0.033190 
#    y 0.035490 2.293330 0.106820 
#    z -0.033190 0.106820 2.076410 
# 
# From -- ./inp_files/78646.got.cif
#   From: 2010.05.17/outbox.cif.g08.bks.cpg/sg2_40_cif.got.tgz:78646.got - 2010.06.03 11:33:40.
