data_PCOD9034732
_publ_section_title
;
Structure prediction by ZEFSAII (Michael W. Deem and Ramdas Pophale) SiO2 
 PCOD9034732
Probable space group: P -1
;
_chemical_formula_sum "Si O2"
_cell_formula_units_Z 16
_cell_length_a 21.424686
_cell_length_b 16.050900
_cell_length_c 5.925366
_cell_angle_alpha 80.731282
_cell_angle_beta 107.097032
_cell_angle_gamma 160.512352
_cell_volume 605.139729
_symmetry_space_group_name_H-M "P -1"
_symmetry_group_IT_number 2
_symmetry_cell_setting 'triclinic'
loop_
_space_group_symop_operation_xyz
x,y,z
-x,-y,-z
loop_
_atom_site_type_symbol
_atom_site_label
_atom_site_fract_x
_atom_site_fract_y
_atom_site_fract_z
Si Si1 0.736413 0.602186 0.330559
Si Si2 0.364344 0.153579 0.866758
Si Si3 0.326387 0.931373 0.670454
Si Si4 0.050398 0.296989 0.591650
Si Si5 0.420044 0.424353 0.200898
Si Si6 0.681092 0.281071 0.660488
Si Si7 0.972929 0.570478 0.186904
Si Si8 0.027215 0.965306 0.852457
O O1 0.859308 0.684796 0.270890
O O2 0.831964 0.811692 0.283755
O O3 0.488321 0.295651 0.173863
O O4 0.823030 0.686209 0.633331
O O5 0.542089 0.427748 0.815248
O O6 0.328400 0.016604 0.791786
O O7 0.156699 0.952389 0.677578
O O8 0.196369 0.695696 0.748191
O O9 0.192456 0.794489 0.366603
O O10 0.559031 0.186968 0.756023
O O11 0.234630 0.561085 0.521804
O O12 0.013351 0.319542 0.737336
O O13 0.500000 0.500000 0.500000
O O14 0.500000 0.500000 0.000000
O O15 0.189837 0.102447 0.080042
O O16 0.500000 0.000000 0.500000
O O17 0.875779 0.467765 0.884257
O O18 0.000000 0.000000 0.000000
#
# Coordination Sequence:
#
# PCOD9034732 Si02
#       8
#     2   2   2   2   2   2   2   2
#     4  10  23  43  66 100 140 174 237 292 361 428
#     4  10  24  45  71 101 138 187 236 293 363 426
#     4  10  22  45  67  96 137 184 229 295 355 420
#     4  11  24  43  67 100 134 183 234 290 350 426
#     4  11  26  48  76 108 148 194 242 305 370 444
#     4  12  25  40  67 102 129 183 234 289 359 420
#     4  10  23  44  65  93 140 176 231 289 352 426
#     4  10  24  43  72 101 137 187 233 293 369 435
#
# _framework density 26.440173999999999
#
# number of rings (size 3 to 8) (size 9 to 14) (size 15 to 20)
#    0.000    1.500    1.250    1.875    8.750    4.500 
#    6.750    0.000    0.000    0.000    0.000    0.000 
#    0.000    0.000    0.000    0.000    0.000    0.000 
#
# Total GULP energy -89329.384617 kJ/mol
# GULP energy per Si atom -5583.086539 kJ/mol
# Density = 2.637999 g / cm^3
# Si number density = 26.440174 Si / 1000 Ang^3
#
#
#
# Elastic Constant Matrix: (Units=GPa)
#
#
# Indices 1 2 3 4 5 6 
#
# 1 98.7188 5.4737 24.1976 5.5880 7.3725 -15.8662
# 2 5.4737 76.6434 18.1297 9.9138 6.0618 -9.6468
# 3 24.1976 18.1297 151.5272 37.9941 2.5840 -6.2867
# 4 5.5880 9.9138 37.9941 49.6445 1.0003 2.9366
# 5 7.3725 6.0618 2.5840 1.0003 42.5023 3.8468
# 6 -15.8662 -9.6468 -6.2867 2.9366 3.8468 42.8869
#
#
#
# Elastic Compliance Matrix: (Units=1/GPa)
#
#
# Indices 1 2 3 4 5 6 
#
# 1 0.011372 0.000323 -0.001545 -0.000369 -0.002304 0.004285
# 2 0.000323 0.014177 -0.000994 -0.002269 -0.002283 0.003523
# 3 -0.001545 -0.000994 0.008566 -0.006236 -0.000045 0.000892
# 4 -0.000369 -0.002269 -0.006236 0.025599 0.000468 -0.003356
# 5 -0.002304 -0.002283 -0.000045 0.000468 0.024572 -0.003608
# 6 0.004285 0.003523 0.000892 -0.003356 -0.003608 0.026379
#
#
# Mechanical properties :
#
#
# Convention : Reuss Voigt Hill
#
# Bulk Modulus (GPa) = 33.68881 46.94348 40.31615
# Shear Modulus (GPa) = 40.00253 45.61264 42.80758
#
# Velocity S-wave (km/s) = 3.89388 4.15797 4.02809
# Velocity P-wave (km/s) = 5.74331 6.39099 6.07579
#
# Compressibility (1/GPa) = 0.02968344
#
# Stress axis : x y z
#
# Youngs Moduli (GPa) = 87.93306 70.53717 116.73576
#
# Poissons Ratio (x) = -0.02276 0.18036
# Poissons Ratio (y) = -0.02837 0.11599
# Poissons Ratio (z) = 0.13586 0.07009
#
# Static dielectric constant tensor:
#      x y z
#    x 2.203840 0.070830 0.118900 
#    y 0.070830 2.121600 0.017910 
#    z 0.118900 0.017910 2.301630 
# 
# From -- ./inp_files/124732.got.cif
#   From: 2010.05.17/outbox.cif.g08.bks.cpg/sg2_63_cif.got.tgz:124732.got - 2010.06.03 11:33:40.
