data_PCOD9034308
_publ_section_title
;
Structure prediction by ZEFSAII (Michael W. Deem and Ramdas Pophale) SiO2 
 PCOD9034308
Probable space group: P -1
;
_chemical_formula_sum "Si O2"
_cell_formula_units_Z 16
_cell_length_a 11.839691
_cell_length_b 6.433519
_cell_length_c 11.880850
_cell_angle_alpha 109.261209
_cell_angle_beta 79.572296
_cell_angle_gamma 126.315127
_cell_volume 688.262989
_symmetry_space_group_name_H-M "P -1"
_symmetry_group_IT_number 2
_symmetry_cell_setting 'triclinic'
loop_
_space_group_symop_operation_xyz
x,y,z
-x,-y,-z
loop_
_atom_site_type_symbol
_atom_site_label
_atom_site_fract_x
_atom_site_fract_y
_atom_site_fract_z
Si Si1 0.547141 0.720619 0.127519
Si Si2 0.713937 0.319822 0.868671
Si Si3 0.206321 0.021242 0.342264
Si Si4 0.897263 0.569391 0.083249
Si Si5 0.934492 0.835292 0.783206
Si Si6 0.444683 0.602300 0.366748
Si Si7 0.285905 0.861438 0.499202
Si Si8 0.824772 0.246897 0.256087
O O1 0.450952 0.830475 0.144351
O O2 0.494418 0.575423 0.231317
O O3 0.707485 0.968702 0.162928
O O4 0.500000 0.500000 0.000000
O O5 0.799636 0.602252 0.834663
O O6 0.767770 0.145416 0.782109
O O7 0.758160 0.404702 0.004471
O O8 0.107060 0.091130 0.313044
O O9 0.351158 0.311172 0.384358
O O10 0.177252 0.868426 0.438669
O O11 0.865498 0.479640 0.202264
O O12 0.978482 0.886265 0.115262
O O13 0.000000 0.500000 0.000000
O O14 0.039252 0.747128 0.738706
O O15 0.347854 0.715846 0.399654
O O16 0.582923 0.834931 0.446124
O O17 0.233640 0.738723 0.610767
#
# Coordination Sequence:
#
# PCOD9034308 Si02
#       8
#     2   2   2   2   2   2   2   2
#     4  11  24  44  71 106 145 175 229 303 354 405
#     4  12  25  45  72 104 140 185 236 291 347 428
#     4  12  22  41  75 104 129 193 239 274 354 425
#     4  12  25  43  72 100 140 194 232 280 361 423
#     4  12  24  45  71 101 142 187 238 282 354 420
#     4  10  22  44  72  99 146 192 223 290 356 418
#     4  10  23  46  68 102 147 184 238 287 347 416
#     4  11  27  46  67 108 143 184 235 298 346 413
#
# _framework density 23.246929999999999
#
# number of rings (size 3 to 8) (size 9 to 14) (size 15 to 20)
#    0.000    0.750    5.000    1.500    3.500    2.000 
#    4.500    4.375    0.000    0.000    0.000    0.000 
#    0.000    0.000    0.000    0.000    0.000    0.000 
#
# Total GULP energy -89487.883685 kJ/mol
# GULP energy per Si atom -5592.992730 kJ/mol
# Density = 2.319402 g / cm^3
# Si number density = 23.246930 Si / 1000 Ang^3
#
#
#
# Elastic Constant Matrix: (Units=GPa)
#
#
# Indices 1 2 3 4 5 6 
#
# 1 94.7531 13.2987 22.0652 -15.6992 28.2298 2.0830
# 2 13.2987 94.6584 48.8549 -4.1657 2.3517 2.6000
# 3 22.0652 48.8549 123.2120 -4.9060 20.4357 -9.9317
# 4 -15.6992 -4.1657 -4.9060 33.3064 -12.8040 2.1735
# 5 28.2298 2.3517 20.4357 -12.8040 28.8532 -11.0416
# 6 2.0830 2.6000 -9.9317 2.1735 -11.0416 17.1020
#
#
#
# Elastic Compliance Matrix: (Units=1/GPa)
#
#
# Indices 1 2 3 4 5 6 
#
# 1 0.018645 -0.001444 -0.000090 0.000191 -0.024957 -0.018241
# 2 -0.001444 0.014026 -0.006196 0.002062 0.004445 -0.002947
# 3 -0.000090 -0.006196 0.012035 -0.002200 -0.007651 0.003282
# 4 0.000191 0.002062 -0.002200 0.037459 0.020436 0.006819
# 5 -0.024957 0.004445 -0.007651 0.020436 0.094846 0.056559
# 6 -0.018241 -0.002947 0.003282 0.006819 0.056559 0.098698
#
#
# Mechanical properties :
#
#
# Convention : Reuss Voigt Hill
#
# Bulk Modulus (GPa) = 34.19071 53.45125 43.82098
# Shear Modulus (GPa) = 16.61589 31.07927 23.84758
#
# Velocity S-wave (km/s) = 2.67639 3.66036 3.20635
# Velocity P-wave (km/s) = 4.92852 6.39586 5.70953
#
# Compressibility (1/GPa) = 0.02924771
#
# Stress axis : x y z
#
# Youngs Moduli (GPa) = 53.63257 71.29606 83.09248
#
# Poissons Ratio (x) = 0.10292 0.00749
# Poissons Ratio (y) = 0.07742 0.51481
# Poissons Ratio (z) = 0.00483 0.44172
#
# Static dielectric constant tensor:
#      x y z
#    x 1.906210 0.009710 0.032190 
#    y 0.009710 1.843980 -0.016310 
#    z 0.032190 -0.016310 1.877810 
# 
# From -- ./inp_files/410782.got.cif
#   From: 2010.05.17/outbox.cif.g08.bks.cpg/sg2_206_cif.got.tgz:410782.got - 2010.06.03 11:33:40.
