data_PCOD9034546
_publ_section_title
;
Structure prediction by ZEFSAII (Michael W. Deem and Ramdas Pophale) SiO2 
 PCOD9034546
Probable space group: P -1
;
_chemical_formula_sum "Si O2"
_cell_formula_units_Z 14
_cell_length_a 7.814768
_cell_length_b 13.326931
_cell_length_c 13.455632
_cell_angle_alpha 148.667827
_cell_angle_beta 73.761182
_cell_angle_gamma 88.997524
_cell_volume 600.357633
_symmetry_space_group_name_H-M "P -1"
_symmetry_group_IT_number 2
_symmetry_cell_setting 'triclinic'
loop_
_space_group_symop_operation_xyz
x,y,z
-x,-y,-z
loop_
_atom_site_type_symbol
_atom_site_label
_atom_site_fract_x
_atom_site_fract_y
_atom_site_fract_z
Si Si1 0.373173 0.441433 0.120045
Si Si2 0.475793 0.069044 0.945983
Si Si3 0.316135 0.388800 0.571152
Si Si4 0.694856 0.149722 0.407299
Si Si5 0.027882 0.142815 0.034131
Si Si6 0.046822 0.405874 0.800360
Si Si7 0.575960 0.042579 0.627415
O O1 0.333705 0.686186 0.359862
O O2 0.151745 0.494989 0.155174
O O3 0.464624 0.281472 0.069019
O O4 0.527441 0.284517 0.875275
O O5 0.661301 0.836402 0.670529
O O6 0.240604 0.133057 0.015518
O O7 0.500000 0.000000 0.000000
O O8 0.554599 0.319399 0.485131
O O9 0.212158 0.444242 0.744943
O O10 0.168191 0.609589 0.722338
O O11 0.575238 0.013881 0.329987
O O12 0.922768 0.981091 0.186448
O O13 0.000000 0.000000 0.000000
O O14 0.180394 0.135719 0.556039
O O15 0.000000 0.500000 0.000000
O O16 0.500000 0.000000 0.500000
#
# Coordination Sequence:
#
# PCOD9034546 Si02
#       7
#     2   2   2   2   2   2   2
#     4  12  23  43  68  97 136 167 226 274 325 401
#     4  11  25  41  65  96 130 179 223 272 333 388
#     4  10  22  45  63  91 139 174 218 276 331 393
#     4  10  25  42  65  99 131 171 223 272 326 399
#     4  11  24  42  64  92 134 176 221 275 329 386
#     4  11  21  39  70  95 125 178 213 268 335 386
#     4  11  22  45  69  91 136 177 212 275 335 386
#
# _framework density 23.319431000000002
#
# number of rings (size 3 to 8) (size 9 to 14) (size 15 to 20)
#    0.000    1.143    7.143    0.000    4.000    4.571 
#    0.000    0.714    0.000    0.000    0.000    0.000 
#    0.000    0.000    0.000    0.000    0.000    0.000 
#
# Total GULP energy -77937.719873 kJ/mol
# GULP energy per Si atom -5566.979991 kJ/mol
# Density = 2.326635 g / cm^3
# Si number density = 23.319431 Si / 1000 Ang^3
#
#
#
# Elastic Constant Matrix: (Units=GPa)
#
#
# Indices 1 2 3 4 5 6 
#
# 1 24.0725 -0.6317 21.1648 12.3068 -4.5788 -16.7775
# 2 -0.6317 83.7683 21.1092 -6.3128 -2.9519 -18.6023
# 3 21.1648 21.1092 148.5445 11.8574 -3.5821 -8.3224
# 4 12.3068 -6.3128 11.8574 43.9879 -10.8069 -5.4794
# 5 -4.5788 -2.9519 -3.5821 -10.8069 41.1023 4.5362
# 6 -16.7775 -18.6023 -8.3224 -5.4794 4.5362 33.3962
#
#
#
# Elastic Compliance Matrix: (Units=1/GPa)
#
#
# Indices 1 2 3 4 5 6 
#
# 1 0.094064 0.013430 -0.011330 -0.014925 0.001089 0.049316
# 2 0.013430 0.016463 -0.003513 0.001725 0.001152 0.015168
# 3 -0.011330 -0.003513 0.008560 -0.000397 -0.000261 -0.005545
# 4 -0.014925 0.001725 -0.000397 0.028440 0.006215 -0.002814
# 5 0.001089 0.001152 -0.000261 0.006215 0.026303 -0.001429
# 6 0.049316 0.015168 -0.005545 -0.002814 -0.001429 0.061518
#
#
# Mechanical properties :
#
#
# Convention : Reuss Voigt Hill
#
# Bulk Modulus (GPa) = 8.60143 37.74111 23.17127
# Shear Modulus (GPa) = 18.05522 38.01348 28.03435
#
# Velocity S-wave (km/s) = 2.78557 4.04185 3.47102
# Velocity P-wave (km/s) = 3.74731 6.16455 5.10118
#
# Compressibility (1/GPa) = 0.11625972
#
# Stress axis : x y z
#
# Youngs Moduli (GPa) = 10.63111 60.74155 116.81900
#
# Poissons Ratio (x) = -0.81574 1.32358
# Poissons Ratio (y) = -0.14277 0.41040
# Poissons Ratio (z) = 0.12045 0.21339
#
# Static dielectric constant tensor:
#      x y z
#    x 1.926010 -0.034660 0.036560 
#    y -0.034660 2.052770 -0.003970 
#    z 0.036560 -0.003970 1.968900 
# 
# From -- ./inp_files/314887.got.cif
#   From: 2010.05.17/outbox.cif.g08.bks.cpg/sg2_158_cif.got.tgz:314887.got - 2010.06.03 11:33:40.
