data_PCOD9034377
_publ_section_title
;
Structure prediction by ZEFSAII (Michael W. Deem and Ramdas Pophale) SiO2 
 PCOD9034377
Probable space group: P -1
;
_chemical_formula_sum "Si O2"
_cell_formula_units_Z 13
_cell_length_a 7.223965
_cell_length_b 8.180875
_cell_length_c 10.420927
_cell_angle_alpha 64.396057
_cell_angle_beta 99.914944
_cell_angle_gamma 113.465788
_cell_volume 509.452579
_symmetry_space_group_name_H-M "P -1"
_symmetry_group_IT_number 2
_symmetry_cell_setting 'triclinic'
loop_
_space_group_symop_operation_xyz
x,y,z
-x,-y,-z
loop_
_atom_site_type_symbol
_atom_site_label
_atom_site_fract_x
_atom_site_fract_y
_atom_site_fract_z
Si Si1 0.094373 0.219922 0.282680
Si Si2 0.693213 0.893650 0.313698
Si Si3 0.053593 0.519106 0.651296
Si Si4 0.449503 0.825723 0.946320
Si Si5 0.000000 0.500000 0.000000
Si Si6 0.503933 0.786119 0.577393
Si Si7 0.163434 0.204902 0.906020
O O1 0.312124 0.212237 0.314934
O O2 0.072820 0.366294 0.338267
O O3 0.041750 0.306104 0.117172
O O4 0.915406 0.014029 0.353924
O O5 0.558047 0.746337 0.451648
O O6 0.740342 0.803473 0.220330
O O7 0.590210 0.052207 0.218532
O O8 0.290049 0.641670 0.643627
O O9 0.043027 0.349722 0.811983
O O10 0.000000 0.500000 0.500000
O O11 0.640359 0.757828 0.994523
O O12 0.245272 0.639729 0.001950
O O13 0.500000 0.000000 0.000000
O O14 0.500000 0.000000 0.500000
O O15 0.000000 0.000000 0.000000
#
# Coordination Sequence:
#
# PCOD9034377 Si02
#       7
#     2   2   2   2   1   2   2
#     4  11  25  46  73 109 149 193 254 309 383 453
#     4  10  23  45  74 105 144 204 241 314 374 451
#     4  12  29  46  72 115 147 199 255 312 382 452
#     4   9  21  41  68 104 138 195 247 302 382 439
#     4  10  22  44  74 100 148 192 250 320 372 454
#     4  12  26  47  75 104 151 197 254 309 375 458
#     4  11  26  45  74 112 156 198 253 314 388 465
#
# _framework density 25.517586000000001
#
# number of rings (size 3 to 8) (size 9 to 14) (size 15 to 20)
#    0.000    1.231    1.538    2.308   10.769    3.692 
#    0.000    2.308    0.000    0.000    0.000    0.000 
#    0.000    0.000    0.000    0.000    0.000    0.000 
#
# Total GULP energy -72541.624526 kJ/mol
# GULP energy per Si atom -5580.124964 kJ/mol
# Density = 2.545951 g / cm^3
# Si number density = 25.517586 Si / 1000 Ang^3
#
#
#
# Elastic Constant Matrix: (Units=GPa)
#
#
# Indices 1 2 3 4 5 6 
#
# 1 166.6090 41.5977 45.1931 2.7045 43.9050 10.9297
# 2 41.5977 72.7615 15.7453 -13.4065 7.5074 17.6046
# 3 45.1931 15.7453 112.0949 -7.7586 13.5680 17.1827
# 4 2.7045 -13.4065 -7.7586 42.1804 6.4273 1.3936
# 5 43.9050 7.5074 13.5680 6.4273 55.6362 4.6508
# 6 10.9297 17.6046 17.1827 1.3936 4.6508 41.4854
#
#
#
# Elastic Compliance Matrix: (Units=1/GPa)
#
#
# Indices 1 2 3 4 5 6 
#
# 1 0.009509 -0.004895 -0.002757 -0.001793 -0.006086 0.001456
# 2 -0.004895 0.019349 0.000769 0.006715 0.000921 -0.007569
# 3 -0.002757 0.000769 0.010798 0.002622 -0.000521 -0.004102
# 4 -0.001793 0.006715 0.002622 0.027017 -0.002913 -0.004044
# 5 -0.006086 0.000921 -0.000521 -0.002913 0.023206 -0.001075
# 6 0.001456 -0.007569 -0.004102 -0.004044 -0.001075 0.028888
#
#
# Mechanical properties :
#
#
# Convention : Reuss Voigt Hill
#
# Bulk Modulus (GPa) = 38.62401 61.83751 50.23076
# Shear Modulus (GPa) = 35.42008 44.45568 39.93788
#
# Velocity S-wave (km/s) = 3.72972 4.17845 3.96044
# Velocity P-wave (km/s) = 5.80662 6.89675 6.37503
#
# Compressibility (1/GPa) = 0.02589063
#
# Stress axis : x y z
#
# Youngs Moduli (GPa) = 105.15936 51.68275 92.61029
#
# Poissons Ratio (x) = 0.25297 0.25533
# Poissons Ratio (y) = 0.51472 -0.07122
# Poissons Ratio (z) = 0.28993 -0.03974
#
# Static dielectric constant tensor:
#      x y z
#    x 1.883990 0.023580 -0.029440 
#    y 0.023580 1.883210 0.065530 
#    z -0.029440 0.065530 2.111210 
# 
# From -- ./inp_files/229518.got.cif
#   From: 2010.05.17/outbox.cif.g08.bks.cpg/sg2_115_cif.got.tgz:229518.got - 2010.06.03 11:33:40.
