data_PCOD9034592
_publ_section_title
;
Structure prediction by ZEFSAII (Michael W. Deem and Ramdas Pophale) SiO2 
 PCOD9034592
Probable space group: P -1
;
_chemical_formula_sum "Si O2"
_cell_formula_units_Z 16
_cell_length_a 12.331558
_cell_length_b 14.115020
_cell_length_c 8.225582
_cell_angle_alpha 40.303585
_cell_angle_beta 80.924239
_cell_angle_gamma 57.734612
_cell_volume 696.966594
_symmetry_space_group_name_H-M "P -1"
_symmetry_group_IT_number 2
_symmetry_cell_setting 'triclinic'
loop_
_space_group_symop_operation_xyz
x,y,z
-x,-y,-z
loop_
_atom_site_type_symbol
_atom_site_label
_atom_site_fract_x
_atom_site_fract_y
_atom_site_fract_z
Si Si1 0.789062 0.162807 0.999832
Si Si2 0.478934 0.689151 0.299549
Si Si3 0.897713 0.725963 0.165380
Si Si4 0.624938 0.835842 0.919002
Si Si5 0.021533 0.475152 0.213942
Si Si6 0.401371 0.491029 0.156943
Si Si7 0.036562 0.777666 0.331547
Si Si8 0.670940 0.754386 0.632373
O O1 0.673186 0.153355 0.959392
O O2 0.715035 0.307429 0.981469
O O3 0.832971 0.244730 0.744874
O O4 0.940130 0.946302 0.265141
O O5 0.500000 0.500000 0.500000
O O6 0.501068 0.667964 0.515642
O O7 0.588487 0.708135 0.167722
O O8 0.931420 0.832318 0.131064
O O9 0.000000 0.500000 0.500000
O O10 0.972416 0.670972 0.044490
O O11 0.737015 0.817781 0.038473
O O12 0.675925 0.785220 0.783999
O O13 0.474788 0.052616 0.657746
O O14 0.928029 0.414588 0.366194
O O15 0.191285 0.303160 0.422760
O O16 0.000000 0.500000 0.000000
O O17 0.330884 0.418539 0.169705
O O18 0.500000 0.500000 0.000000
#
# Coordination Sequence:
#
# PCOD9034592 Si02
#       8
#     2   2   2   2   2   2   2   2
#     4  10  22  45  65  94 131 173 233 281 336 406
#     4  10  23  38  68  92 130 180 222 275 332 406
#     4  10  23  40  66  96 136 175 226 276 332 415
#     4  11  24  43  67 104 138 177 232 278 346 408
#     4  11  22  38  63  99 137 175 218 274 346 404
#     4  11  25  42  66  96 132 178 227 285 347 410
#     4  10  23  40  69  95 131 180 225 281 328 410
#     4  11  24  41  67 100 141 177 220 294 340 404
#
# _framework density 22.956623
#
# number of rings (size 3 to 8) (size 9 to 14) (size 15 to 20)
#    0.000    1.500    1.250    3.000   12.250    2.500 
#    0.000    0.000    0.000    3.750    0.000    0.000 
#    0.000    0.000    0.000    0.000    0.000    0.000 
#
# Total GULP energy -89224.769460 kJ/mol
# GULP energy per Si atom -5576.548091 kJ/mol
# Density = 2.290437 g / cm^3
# Si number density = 22.956623 Si / 1000 Ang^3
#
#
#
# Elastic Constant Matrix: (Units=GPa)
#
#
# Indices 1 2 3 4 5 6 
#
# 1 116.2455 16.5981 12.8828 -1.8935 5.5007 -15.0860
# 2 16.5981 100.2554 4.5454 -16.7920 -2.0730 -8.6299
# 3 12.8828 4.5454 50.9662 -3.2853 2.5308 -4.8779
# 4 -1.8935 -16.7920 -3.2853 35.1986 -5.1857 3.5887
# 5 5.5007 -2.0730 2.5308 -5.1857 39.1980 2.8807
# 6 -15.0860 -8.6299 -4.8779 3.5887 2.8807 43.3579
#
#
#
# Elastic Compliance Matrix: (Units=1/GPa)
#
#
# Indices 1 2 3 4 5 6 
#
# 1 0.009468 -0.001404 -0.001960 -0.000884 -0.001612 0.002975
# 2 -0.001404 0.011247 -0.000261 0.005356 0.001430 0.001182
# 3 -0.001960 -0.000261 0.020422 0.001376 -0.000987 0.001515
# 4 -0.000884 0.005356 0.001376 0.031946 0.004695 -0.002043
# 5 -0.001612 0.001430 -0.000987 0.004695 0.026685 -0.002549
# 6 0.002975 0.001182 0.001515 -0.002043 -0.002549 0.024843
#
#
# Mechanical properties :
#
#
# Convention : Reuss Voigt Hill
#
# Bulk Modulus (GPa) = 29.50947 37.27997 33.39472
# Shear Modulus (GPa) = 34.92631 39.11361 37.01996
#
# Velocity S-wave (km/s) = 3.90475 4.13220 4.02008
# Velocity P-wave (km/s) = 5.76297 6.24830 6.01054
#
# Compressibility (1/GPa) = 0.03388742
#
# Stress axis : x y z
#
# Youngs Moduli (GPa) = 105.61754 88.91075 48.96600
#
# Poissons Ratio (x) = 0.12483 0.09599
# Poissons Ratio (y) = 0.14829 0.01277
# Poissons Ratio (z) = 0.20704 0.02319
#
# Static dielectric constant tensor:
#      x y z
#    x 1.889390 0.049440 0.068670 
#    y 0.049440 2.451250 0.146060 
#    z 0.068670 0.146060 1.984220 
# 
# From -- ./inp_files/271535.got.cif
#   From: 2010.05.17/outbox.cif.g08.bks.cpg/sg2_136_cif.got.tgz:271535.got - 2010.06.03 11:33:40.
