data_PCOD9034653
_publ_section_title
;
Structure prediction by ZEFSAII (Michael W. Deem and Ramdas Pophale) SiO2 
 PCOD9034653
Probable space group: P -1
;
_chemical_formula_sum "Si O2"
_cell_formula_units_Z 14
_cell_length_a 20.091572
_cell_length_b 8.691514
_cell_length_c 6.535444
_cell_angle_alpha 128.665945
_cell_angle_beta 128.939281
_cell_angle_gamma 49.521415
_cell_volume 628.259021
_symmetry_space_group_name_H-M "P -1"
_symmetry_group_IT_number 2
_symmetry_cell_setting 'triclinic'
loop_
_space_group_symop_operation_xyz
x,y,z
-x,-y,-z
loop_
_atom_site_type_symbol
_atom_site_label
_atom_site_fract_x
_atom_site_fract_y
_atom_site_fract_z
Si Si1 0.040431 0.579838 0.453244
Si Si2 0.704032 0.356824 0.595198
Si Si3 0.697650 0.768540 0.674103
Si Si4 0.578644 0.109489 0.010666
Si Si5 0.372514 0.295400 0.922268
Si Si6 0.108327 0.876136 0.024710
Si Si7 0.881855 0.810942 0.041466
O O1 0.114812 0.653107 0.756963
O O2 0.000000 0.500000 0.500000
O O3 0.957132 0.775877 0.336293
O O4 0.080837 0.397636 0.209023
O O5 0.702905 0.550338 0.609464
O O6 0.639100 0.244905 0.291758
O O7 0.663810 0.482192 0.836065
O O8 0.810973 0.180795 0.696601
O O9 0.697196 0.725779 0.398124
O O10 0.785525 0.818396 0.950717
O O11 0.607290 0.986667 0.746894
O O12 0.605883 0.905055 0.047929
O O13 0.468566 0.256976 0.955725
O O14 0.127985 0.000252 0.976251
O O15 0.000000 0.000000 0.000000
#
# Coordination Sequence:
#
# PCOD9034653 Si02
#       7
#     2   2   2   2   2   2   2
#     4  11  23  43  63  88 124 165 217 265 313 372
#     4  11  25  41  64  97 132 169 217 269 319 382
#     4  11  24  40  66  97 132 165 215 264 324 387
#     4  10  23  42  70  95 130 168 212 265 322 392
#     4  10  22  45  66  96 130 170 211 263 328 385
#     4  12  25  42  65  91 127 172 216 264 317 379
#     4  11  25  41  65  91 124 173 210 265 322 375
#
# _framework density 22.283804
#
# number of rings (size 3 to 8) (size 9 to 14) (size 15 to 20)
#    0.000    1.143    1.429    3.857    4.000    6.286 
#    0.000    0.000    0.000    0.000    0.000    0.000 
#    0.000    0.000    0.000    0.000    0.000    0.000 
#
# Total GULP energy -78289.810873 kJ/mol
# GULP energy per Si atom -5592.129348 kJ/mol
# Density = 2.223308 g / cm^3
# Si number density = 22.283804 Si / 1000 Ang^3
#
#
#
# Elastic Constant Matrix: (Units=GPa)
#
#
# Indices 1 2 3 4 5 6 
#
# 1 64.8497 16.6799 5.2514 21.6156 15.7735 -11.8945
# 2 16.6799 51.5804 -0.6411 11.1763 3.8006 -4.6547
# 3 5.2514 -0.6411 74.7552 11.7096 6.9710 -0.4820
# 4 21.6156 11.1763 11.7096 30.9475 -1.8148 4.7335
# 5 15.7735 3.8006 6.9710 -1.8148 48.2288 11.8584
# 6 -11.8945 -4.6547 -0.4820 4.7335 11.8584 31.1111
#
#
#
# Elastic Compliance Matrix: (Units=1/GPa)
#
#
# Indices 1 2 3 4 5 6 
#
# 1 0.034858 -0.000866 0.004314 -0.030670 -0.019330 0.025299
# 2 -0.000866 0.022535 0.002106 -0.009441 -0.003598 0.005881
# 3 0.004314 0.002106 0.015359 -0.010839 -0.005684 0.006018
# 4 -0.030670 -0.009441 -0.010839 0.067520 0.022818 -0.032276
# 5 -0.019330 -0.003598 -0.005684 0.022818 0.035138 -0.024882
# 6 0.025299 0.005881 0.006018 -0.032276 -0.024882 0.057183
#
#
# Mechanical properties :
#
#
# Convention : Reuss Voigt Hill
#
# Bulk Modulus (GPa) = 11.92465 25.97397 18.94931
# Shear Modulus (GPa) = 20.04502 33.38381 26.71441
#
# Velocity S-wave (km/s) = 3.00248 3.87475 3.46616
# Velocity P-wave (km/s) = 4.16926 5.63024 4.95390
#
# Compressibility (1/GPa) = 0.08385991
#
# Stress axis : x y z
#
# Youngs Moduli (GPa) = 28.68747 44.37557 65.10977
#
# Poissons Ratio (x) = 0.03843 -0.28086
# Poissons Ratio (y) = 0.02484 -0.13714
# Poissons Ratio (z) = -0.12375 -0.09347
#
# Static dielectric constant tensor:
#      x y z
#    x 1.772460 -0.053440 -0.014630 
#    y -0.053440 1.821820 0.006020 
#    z -0.014630 0.006020 1.761130 
# 
# From -- ./inp_files/38317.got.cif
#   From: 2010.05.17/outbox.cif.g08.bks.cpg/sg2_20_cif.got.tgz:38317.got - 2010.06.03 11:33:40.
