data_PCOD9034865
_publ_section_title
;
Structure prediction by ZEFSAII (Michael W. Deem and Ramdas Pophale) SiO2 
 PCOD9034865
Probable space group: P -1
;
_chemical_formula_sum "Si O2"
_cell_formula_units_Z 16
_cell_length_a 8.757600
_cell_length_b 12.267197
_cell_length_c 15.761378
_cell_angle_alpha 153.060331
_cell_angle_beta 110.616018
_cell_angle_gamma 75.347033
_cell_volume 710.558983
_symmetry_space_group_name_H-M "P -1"
_symmetry_group_IT_number 2
_symmetry_cell_setting 'triclinic'
loop_
_space_group_symop_operation_xyz
x,y,z
-x,-y,-z
loop_
_atom_site_type_symbol
_atom_site_label
_atom_site_fract_x
_atom_site_fract_y
_atom_site_fract_z
Si Si1 0.812979 0.485908 0.419187
Si Si2 0.136576 0.946419 0.209071
Si Si3 0.163519 0.888885 0.987114
Si Si4 0.636588 0.883852 0.496131
Si Si5 0.137747 0.337607 0.943544
Si Si6 0.536390 0.778581 0.793600
Si Si7 0.650096 0.413651 0.689695
Si Si8 0.808378 0.925962 0.392140
O O1 0.813873 0.770325 0.602706
O O2 0.649746 0.367361 0.359570
O O3 0.000000 0.500000 0.500000
O O4 0.811709 0.324696 0.221488
O O5 0.133804 0.810906 0.025179
O O6 0.271390 0.910223 0.281187
O O7 0.963574 0.890393 0.184470
O O8 0.332439 0.085137 0.153496
O O9 0.000000 0.000000 0.000000
O O10 0.539189 0.663028 0.374684
O O11 0.500000 0.000000 0.500000
O O12 0.746565 0.813953 0.392608
O O13 0.219745 0.253598 0.816960
O O14 0.257787 0.467339 0.127346
O O15 0.000000 0.500000 0.000000
O O16 0.642003 0.598453 0.739477
O O17 0.500000 0.000000 0.000000
O O18 0.728647 0.167312 0.519483
O O19 0.000000 0.000000 0.500000
#
# Coordination Sequence:
#
# PCOD9034865 Si02
#       8
#     2   2   2   2   2   2   2   2
#     4  11  24  47  70 101 139 185 237 298 350 426
#     4  12  24  44  70  99 140 183 230 287 365 412
#     4  11  24  45  70 105 142 184 235 292 354 425
#     4  10  22  45  68  99 141 177 238 295 349 432
#     4  12  25  43  71 105 140 183 240 300 354 430
#     4  10  24  47  69 104 149 183 242 295 353 431
#     4  11  23  45  70 101 145 184 229 305 356 423
#     4  11  22  45  71 102 136 188 241 288 360 429
#
# _framework density 22.517484
#
# number of rings (size 3 to 8) (size 9 to 14) (size 15 to 20)
#    0.000    1.000    5.000    1.500    1.750    4.000 
#    9.000    0.000    0.000    0.000    0.000    0.000 
#    0.000    0.000    0.000    0.000    0.000    0.000 
#
# Total GULP energy -89288.092806 kJ/mol
# GULP energy per Si atom -5580.505800 kJ/mol
# Density = 2.246623 g / cm^3
# Si number density = 22.517484 Si / 1000 Ang^3
#
#
#
# Elastic Constant Matrix: (Units=GPa)
#
#
# Indices 1 2 3 4 5 6 
#
# 1 98.9463 16.1788 26.0539 -7.6645 6.9179 -0.3084
# 2 16.1788 55.7529 14.7310 -16.4517 -7.7869 -3.6210
# 3 26.0539 14.7310 107.5859 -17.6249 -3.3762 -4.8097
# 4 -7.6645 -16.4517 -17.6249 47.2395 1.1554 2.5676
# 5 6.9179 -7.7869 -3.3762 1.1554 47.2105 -2.1719
# 6 -0.3084 -3.6210 -4.8097 2.5676 -2.1719 44.7270
#
#
#
# Elastic Compliance Matrix: (Units=1/GPa)
#
#
# Indices 1 2 3 4 5 6 
#
# 1 0.011411 -0.003041 -0.002451 -0.000035 -0.002373 -0.000544
# 2 -0.003041 0.021626 -0.000974 0.006502 0.003850 0.001439
# 3 -0.002451 -0.000974 0.010607 0.003149 0.000922 0.000909
# 4 -0.000035 0.006502 0.003149 0.024614 0.000677 -0.000515
# 5 -0.002373 0.003850 0.000922 0.000677 0.022280 0.001438
# 6 -0.000544 0.001439 0.000909 -0.000515 0.001438 0.022668
#
#
# Mechanical properties :
#
#
# Convention : Reuss Voigt Hill
#
# Bulk Modulus (GPa) = 32.56145 41.80139 37.18142
# Shear Modulus (GPa) = 36.66355 41.52349 39.09352
#
# Velocity S-wave (km/s) = 4.03951 4.29891 4.17122
# Velocity P-wave (km/s) = 6.02069 6.57610 6.30451
#
# Compressibility (1/GPa) = 0.03071116
#
# Stress axis : x y z
#
# Youngs Moduli (GPa) = 87.63708 46.24086 94.27430
#
# Poissons Ratio (x) = 0.14060 0.23111
# Poissons Ratio (y) = 0.26646 0.09186
# Poissons Ratio (z) = 0.21484 0.04506
#
# Static dielectric constant tensor:
#      x y z
#    x 1.869180 0.038510 0.032300 
#    y 0.038510 1.967950 0.040420 
#    z 0.032300 0.040420 1.805000 
# 
# From -- ./inp_files/501276.got.cif
#   From: 2010.05.17/outbox.cif.g08.bks.cpg/sg2_251_cif.got.tgz:501276.got - 2010.06.03 11:33:40.
