data_PCOD9034209
_publ_section_title
;
Structure prediction by ZEFSAII (Michael W. Deem and Ramdas Pophale) SiO2 
 PCOD9034209
Probable space group: P -1
;
_chemical_formula_sum "Si O2"
_cell_formula_units_Z 15
_cell_length_a 13.803764
_cell_length_b 9.781822
_cell_length_c 5.005417
_cell_angle_alpha 110.962047
_cell_angle_beta 98.733889
_cell_angle_gamma 89.663886
_cell_volume 622.952427
_symmetry_space_group_name_H-M "P -1"
_symmetry_group_IT_number 2
_symmetry_cell_setting 'triclinic'
loop_
_space_group_symop_operation_xyz
x,y,z
-x,-y,-z
loop_
_atom_site_type_symbol
_atom_site_label
_atom_site_fract_x
_atom_site_fract_y
_atom_site_fract_z
Si Si1 0.342084 0.717477 0.795203
Si Si2 0.329982 0.301174 0.094031
Si Si3 0.519504 0.860455 0.233381
Si Si4 0.868948 0.201463 0.264068
Si Si5 0.901887 0.019195 0.640300
Si Si6 0.000000 0.500000 0.500000
Si Si7 0.581775 0.406410 0.766338
Si Si8 0.807742 0.694376 0.452175
O O1 0.236138 0.760075 0.864529
O O2 0.345356 0.667469 0.458905
O O3 0.427512 0.840384 0.978469
O O4 0.373950 0.588868 0.914524
O O5 0.380680 0.157975 0.901098
O O6 0.246310 0.340890 0.874712
O O7 0.418343 0.428047 0.218314
O O8 0.273967 0.297508 0.345988
O O9 0.506819 0.715566 0.320366
O O10 0.500000 0.000000 0.500000
O O11 0.845697 0.115735 0.469677
O O12 0.938603 0.345661 0.440995
O O13 0.915722 0.105258 0.983933
O O14 0.853812 0.859776 0.562392
O O15 0.000000 0.000000 0.500000
O O16 0.893323 0.583947 0.474607
#
# Coordination Sequence:
#
# PCOD9034209 Si02
#       8
#     2   2   2   2   2   1   2   2
#     4  10  24  44  73 110 143 198 250 304 368 438
#     4  12  26  48  75 112 149 198 255 307 378 447
#     4  10  27  46  73 110 155 198 252 308 370 448
#     4  12  26  46  81 106 155 195 251 310 379 452
#     4  12  27  52  71 107 150 205 245 309 388 450
#     4  12  28  50  78 118 150 192 256 322 378 446
#     4  10  22  44  72 102 151 191 246 307 367 437
#     4  12  30  48  79 113 151 198 257 314 380 457
#
# _framework density 24.078887000000002
#
# number of rings (size 3 to 8) (size 9 to 14) (size 15 to 20)
#    0.800    0.000    1.333    4.800    5.600    4.267 
#    0.000    0.000    0.000    0.000    0.000    0.000 
#    0.000    0.000    0.000    0.000    0.000    0.000 
#
# Total GULP energy -83586.094888 kJ/mol
# GULP energy per Si atom -5572.406326 kJ/mol
# Density = 2.402408 g / cm^3
# Si number density = 24.078887 Si / 1000 Ang^3
#
#
#
# Elastic Constant Matrix: (Units=GPa)
#
#
# Indices 1 2 3 4 5 6 
#
# 1 122.4128 23.7283 30.6231 4.6154 -21.1938 -3.6302
# 2 23.7283 145.7564 44.4107 6.2276 -0.5060 11.8651
# 3 30.6231 44.4107 110.4951 -10.8455 -24.3620 0.5838
# 4 4.6154 6.2276 -10.8455 36.3544 0.3945 -6.8275
# 5 -21.1938 -0.5060 -24.3620 0.3945 30.6795 1.4021
# 6 -3.6302 11.8651 0.5838 -6.8275 1.4021 22.7051
#
#
#
# Elastic Compliance Matrix: (Units=1/GPa)
#
#
# Indices 1 2 3 4 5 6 
#
# 1 0.009787 -0.001362 -0.000976 -0.001061 0.005903 0.001618
# 2 -0.001362 0.009064 -0.004497 -0.003751 -0.004053 -0.005717
# 3 -0.000976 -0.004497 0.013868 0.005459 0.010063 0.002858
# 4 -0.001061 -0.003751 0.005459 0.031969 0.002622 0.011102
# 5 0.005903 -0.004053 0.010063 0.002622 0.044524 0.000842
# 6 0.001618 -0.005717 0.002858 0.011102 0.000842 0.050502
#
#
# Mechanical properties :
#
#
# Convention : Reuss Voigt Hill
#
# Bulk Modulus (GPa) = 52.49768 64.02096 58.25932
# Shear Modulus (GPa) = 27.81870 36.60795 32.21333
#
# Velocity S-wave (km/s) = 3.40268 3.90338 3.66160
# Velocity P-wave (km/s) = 6.10634 6.85280 6.49031
#
# Compressibility (1/GPa) = 0.01904846
#
# Stress axis : x y z
#
# Youngs Moduli (GPa) = 102.17343 110.32289 72.11010
#
# Poissons Ratio (x) = 0.15023 0.07040
# Poissons Ratio (y) = 0.13913 0.32430
# Poissons Ratio (z) = 0.09975 0.49616
#
# Static dielectric constant tensor:
#      x y z
#    x 2.029150 -0.132820 0.081080 
#    y -0.132820 2.118360 -0.074970 
#    z 0.081080 -0.074970 1.922830 
# 
# From -- ./inp_files/90937.got.cif
#   From: 2010.05.17/outbox.cif.g08.bks.cpg/sg2_46_cif.got.tgz:90937.got - 2010.06.03 11:33:40.
