data_PCOD9034281
_publ_section_title
;
Structure prediction by ZEFSAII (Michael W. Deem and Ramdas Pophale) SiO2 
 PCOD9034281
Probable space group: P -1
;
_chemical_formula_sum "Si O2"
_cell_formula_units_Z 15
_cell_length_a 20.307564
_cell_length_b 14.613430
_cell_length_c 9.861227
_cell_angle_alpha 141.494041
_cell_angle_beta 150.439846
_cell_angle_gamma 22.238443
_cell_volume 542.379969
_symmetry_space_group_name_H-M "P -1"
_symmetry_group_IT_number 2
_symmetry_cell_setting 'triclinic'
loop_
_space_group_symop_operation_xyz
x,y,z
-x,-y,-z
loop_
_atom_site_type_symbol
_atom_site_label
_atom_site_fract_x
_atom_site_fract_y
_atom_site_fract_z
Si Si1 0.703856 0.546681 0.842922
Si Si2 0.212539 0.704482 0.744735
Si Si3 0.714960 0.043384 0.292703
Si Si4 0.230345 0.315021 0.118809
Si Si5 0.000000 0.500000 0.500000
Si Si6 0.935913 0.939143 0.928286
Si Si7 0.290267 0.109103 0.403985
Si Si8 0.626061 0.198012 0.013336
O O1 0.442804 0.756433 0.641265
O O2 0.754588 0.550273 0.785287
O O3 0.788790 0.602787 0.159531
O O4 0.848782 0.283156 0.851394
O O5 0.391095 0.429977 0.788934
O O6 0.247349 0.757710 0.728113
O O7 0.967231 0.871476 0.530810
O O8 0.252825 0.808673 0.037277
O O9 0.605361 0.182981 0.115475
O O10 0.731516 0.854373 0.109815
O O11 0.450701 0.108836 0.366129
O O12 0.000000 0.500000 0.000000
O O13 0.145816 0.379974 0.474095
O O14 0.834013 0.860529 0.647828
O O15 0.000000 0.000000 0.000000
O O16 0.252730 0.041786 0.127201
#
# Coordination Sequence:
#
# PCOD9034281 Si02
#       8
#     2   2   2   2   1   2   2   2
#     4  11  26  46  67 108 144 187 243 301 360 434
#     4  10  23  44  70 106 146 188 246 304 354 442
#     4  12  25  43  74 105 143 195 241 301 371 427
#     4  12  28  45  68 105 146 191 241 298 365 435
#     4  10  22  44  72  96 144 188 228 302 356 428
#     4  10  23  44  73 102 138 190 237 298 369 425
#     4  10  23  45  71 101 145 187 241 299 356 437
#     4  10  23  46  69 109 144 194 246 300 365 429
#
# _framework density 27.655888000000001
#
# number of rings (size 3 to 8) (size 9 to 14) (size 15 to 20)
#    0.000    1.333    1.333    2.400    7.467    4.267 
#    7.200    0.000    0.000    0.000    0.000    0.000 
#    0.000    0.000    0.000    0.000    0.000    0.000 
#
# Total GULP energy -83702.884860 kJ/mol
# GULP energy per Si atom -5580.192324 kJ/mol
# Density = 2.759294 g / cm^3
# Si number density = 27.655888 Si / 1000 Ang^3
#
#
#
# Elastic Constant Matrix: (Units=GPa)
#
#
# Indices 1 2 3 4 5 6 
#
# 1 151.5256 48.6292 12.8601 -17.1742 33.7141 13.4635
# 2 48.6292 121.9606 23.5336 -39.4443 10.7148 -11.5109
# 3 12.8601 23.5336 104.5002 -27.5391 33.2695 -2.5733
# 4 -17.1742 -39.4443 -27.5391 56.1502 -17.8950 9.5489
# 5 33.7141 10.7148 33.2695 -17.8950 38.9365 -7.1065
# 6 13.4635 -11.5109 -2.5733 9.5489 -7.1065 43.9186
#
#
#
# Elastic Compliance Matrix: (Units=1/GPa)
#
#
# Indices 1 2 3 4 5 6 
#
# 1 0.011250 -0.005096 0.003359 -0.001584 -0.013098 -0.006363
# 2 -0.005096 0.013059 -0.002439 0.008042 0.007381 0.004288
# 3 0.003359 -0.002439 0.014909 0.002658 -0.014432 -0.003708
# 4 -0.001584 0.008042 0.002658 0.027510 0.009213 -0.001742
# 5 -0.013098 0.007381 -0.014432 0.009213 0.053711 0.011792
# 6 -0.006363 0.004288 -0.003708 -0.001742 0.011792 0.027913
#
#
# Mechanical properties :
#
#
# Convention : Reuss Voigt Hill
#
# Bulk Modulus (GPa) = 32.39721 60.89245 46.64483
# Shear Modulus (GPa) = 29.94164 47.33198 38.63681
#
# Velocity S-wave (km/s) = 3.29393 4.14147 3.74178
# Velocity P-wave (km/s) = 5.11923 6.70334 5.96411
#
# Compressibility (1/GPa) = 0.03086685
#
# Stress axis : x y z
#
# Youngs Moduli (GPa) = 88.88913 76.57563 67.07420
#
# Poissons Ratio (x) = 0.39021 -0.22531
# Poissons Ratio (y) = 0.45296 0.16358
# Poissons Ratio (z) = -0.29859 0.18675
#
# Static dielectric constant tensor:
#      x y z
#    x 2.288610 0.114910 0.023900 
#    y 0.114910 1.290690 -0.063070 
#    z 0.023900 -0.063070 2.248500 
# 
# From -- ./inp_files/471968.got.cif
#   From: 2010.05.17/outbox.cif.g08.bks.cpg/sg2_236_cif.got.tgz:471968.got - 2010.06.03 11:33:40.
