data_PCOD9034435
_publ_section_title
;
Structure prediction by ZEFSAII (Michael W. Deem and Ramdas Pophale) SiO2 
 PCOD9034435
Probable space group: P -1
;
_chemical_formula_sum "Si O2"
_cell_formula_units_Z 15
_cell_length_a 8.404375
_cell_length_b 9.505883
_cell_length_c 13.464098
_cell_angle_alpha 57.106698
_cell_angle_beta 102.707319
_cell_angle_gamma 134.853099
_cell_volume 615.813838
_symmetry_space_group_name_H-M "P -1"
_symmetry_group_IT_number 2
_symmetry_cell_setting 'triclinic'
loop_
_space_group_symop_operation_xyz
x,y,z
-x,-y,-z
loop_
_atom_site_type_symbol
_atom_site_label
_atom_site_fract_x
_atom_site_fract_y
_atom_site_fract_z
Si Si1 0.203549 0.897154 0.844150
Si Si2 0.902111 0.433963 0.878029
Si Si3 0.685989 0.317561 0.676773
Si Si4 0.022019 0.853895 0.492355
Si Si5 0.602932 0.347238 0.205007
Si Si6 0.817344 0.802587 0.130695
Si Si7 0.856555 0.117567 0.714394
Si Si8 0.500000 0.000000 0.500000
O O1 0.975951 0.671063 0.838482
O O2 0.413462 0.080744 0.726187
O O3 0.213479 0.069326 0.846920
O O4 0.231266 0.766583 0.978028
O O5 0.766382 0.336432 0.793169
O O6 0.151176 0.523991 0.859158
O O7 0.799782 0.271510 0.631543
O O8 0.784136 0.571863 0.572747
O O9 0.060483 0.918532 0.356998
O O10 0.242966 0.898290 0.532469
O O11 0.000000 0.000000 0.500000
O O12 0.603633 0.545699 0.152755
O O13 0.384493 0.141270 0.183657
O O14 0.552979 0.196135 0.353375
O O15 0.944387 0.748852 0.229514
O O16 0.000000 0.000000 0.000000
#
# Coordination Sequence:
#
# PCOD9034435 Si02
#       8
#     2   2   2   2   2   2   2   1
#     4  11  26  40  68 103 135 183 241 289 356 428
#     4  11  22  45  67  98 141 183 236 290 355 431
#     4  12  23  45  72  97 139 189 237 290 359 434
#     4  11  26  44  72 110 143 188 247 299 361 435
#     4  11  22  43  70 100 135 189 233 288 364 424
#     4  12  25  45  67 105 144 181 234 300 356 432
#     4  11  25  44  71 100 141 190 233 290 369 424
#     4  10  22  44  74  94 148 190 226 298 364 412
#
# _framework density 24.358008000000002
#
# number of rings (size 3 to 8) (size 9 to 14) (size 15 to 20)
#    0.000    0.800    5.333    0.800    5.600    1.600 
#    0.000    0.667    0.000    0.000    0.000    0.000 
#    0.000    0.000    0.000    0.000    0.000    0.000 
#
# Total GULP energy -83638.859447 kJ/mol
# GULP energy per Si atom -5575.923963 kJ/mol
# Density = 2.430257 g / cm^3
# Si number density = 24.358008 Si / 1000 Ang^3
#
#
#
# Elastic Constant Matrix: (Units=GPa)
#
#
# Indices 1 2 3 4 5 6 
#
# 1 44.9710 20.6709 20.5922 -9.3748 -10.6715 -21.1635
# 2 20.6709 112.8218 6.4205 -26.2857 0.0344 -33.0099
# 3 20.5922 6.4205 74.2778 -20.5067 -18.3538 -8.4745
# 4 -9.3748 -26.2857 -20.5067 45.2869 -5.4848 -0.7711
# 5 -10.6715 0.0344 -18.3538 -5.4848 21.6766 -3.4928
# 6 -21.1635 -33.0099 -8.4745 -0.7711 -3.4928 50.2592
#
#
#
# Elastic Compliance Matrix: (Units=1/GPa)
#
#
# Indices 1 2 3 4 5 6 
#
# 1 0.039601 0.001789 0.001877 0.013805 0.027848 0.020314
# 2 0.001789 0.015066 0.006293 0.013595 0.011676 0.012730
# 3 0.001877 0.006293 0.026909 0.020148 0.030714 0.011904
# 4 0.013805 0.013595 0.020148 0.047072 0.039223 0.021588
# 5 0.027848 0.011676 0.030714 0.039223 0.100942 0.032191
# 6 0.020314 0.012730 0.011904 0.021588 0.032191 0.041387
#
#
# Mechanical properties :
#
#
# Convention : Reuss Voigt Hill
#
# Bulk Modulus (GPa) = 9.85297 36.38197 23.11747
# Shear Modulus (GPa) = 17.55063 35.73702 26.64382
#
# Velocity S-wave (km/s) = 2.68718 3.83450 3.31092
# Velocity P-wave (km/s) = 3.69888 5.87991 4.91198
#
# Compressibility (1/GPa) = 0.10149227
#
# Stress axis : x y z
#
# Youngs Moduli (GPa) = 25.25202 66.37418 37.16261
#
# Poissons Ratio (x) = -0.11874 -0.06975
# Poissons Ratio (y) = -0.04517 -0.23385
# Poissons Ratio (z) = -0.04739 -0.41767
#
# Static dielectric constant tensor:
#      x y z
#    x 1.991890 -0.005180 0.003480 
#    y -0.005180 2.001930 0.035570 
#    z 0.003480 0.035570 1.897900 
# 
# From -- ./inp_files/492313.got.cif
#   From: 2010.05.17/outbox.cif.g08.bks.cpg/sg2_247_cif.got.tgz:492313.got - 2010.06.03 11:33:40.
