data_PCOD9034408
_publ_section_title
;
Structure prediction by ZEFSAII (Michael W. Deem and Ramdas Pophale) SiO2 
 PCOD9034408
Probable space group: P -1
;
_chemical_formula_sum "Si O2"
_cell_formula_units_Z 11
_cell_length_a 13.744507
_cell_length_b 9.084712
_cell_length_c 15.999081
_cell_angle_alpha 154.071538
_cell_angle_beta 31.338682
_cell_angle_gamma 148.229911
_cell_volume 423.716721
_symmetry_space_group_name_H-M "P -1"
_symmetry_group_IT_number 2
_symmetry_cell_setting 'triclinic'
loop_
_space_group_symop_operation_xyz
x,y,z
-x,-y,-z
loop_
_atom_site_type_symbol
_atom_site_label
_atom_site_fract_x
_atom_site_fract_y
_atom_site_fract_z
Si Si1 0.740582 0.221604 0.094526
Si Si2 0.325948 0.852463 0.303403
Si Si3 0.943124 0.928399 0.910140
Si Si4 0.000000 0.000000 0.500000
Si Si5 0.689168 0.872723 0.367071
Si Si6 0.650738 0.777268 0.781250
O O1 0.763847 0.574688 0.205743
O O2 0.524001 0.078418 0.223198
O O3 0.895543 0.262338 0.076765
O O4 0.755185 0.914505 0.863557
O O5 0.255742 0.423004 0.125951
O O6 0.359463 0.936824 0.419877
O O7 0.143882 0.942779 0.442120
O O8 0.126753 0.889357 0.703766
O O9 0.000000 0.000000 0.000000
O O10 0.193657 0.118490 0.354698
O O11 0.497330 0.635353 0.332013
O O12 0.500000 0.000000 0.000000
#
# Coordination Sequence:
#
# PCOD9034408 Si02
#       6
#     2   2   2   1   2   2
#     4  11  24  49  74 103 148 193 247 298 366 445
#     4  12  26  44  72 109 148 189 249 303 368 430
#     4  12  28  45  71 107 149 195 242 304 375 429
#     4  12  24  42  76 106 148 188 244 300 360 436
#     4  11  24  46  73 106 144 191 248 296 366 439
#     4  10  22  44  74 107 144 186 249 293 360 435
#
# _framework density 25.960742
#
# number of rings (size 3 to 8) (size 9 to 14) (size 15 to 20)
#    0.000    0.727    3.636    4.364    5.091    0.000 
#    0.000    2.727    0.000    0.000    0.000    0.000 
#    0.000    0.000    0.000    0.000    0.000    0.000 
#
# Total GULP energy -61456.076966 kJ/mol
# GULP energy per Si atom -5586.916088 kJ/mol
# Density = 2.590165 g / cm^3
# Si number density = 25.960742 Si / 1000 Ang^3
#
#
#
# Elastic Constant Matrix: (Units=GPa)
#
#
# Indices 1 2 3 4 5 6 
#
# 1 116.8911 14.3127 15.6996 -5.6847 20.5039 -9.4997
# 2 14.3127 123.9787 48.9164 -35.7800 5.4978 0.6660
# 3 15.6996 48.9164 70.1464 -25.3207 11.0080 -3.1089
# 4 -5.6847 -35.7800 -25.3207 69.2371 5.5470 0.0312
# 5 20.5039 5.4978 11.0080 5.5470 49.2548 -9.8827
# 6 -9.4997 0.6660 -3.1089 0.0312 -9.8827 32.4313
#
#
#
# Elastic Compliance Matrix: (Units=1/GPa)
#
#
# Indices 1 2 3 4 5 6 
#
# 1 0.009499 -0.000399 -0.001081 0.000449 -0.003387 0.001655
# 2 -0.000399 0.011899 -0.006917 0.003607 -0.000243 -0.001102
# 3 -0.001081 -0.006917 0.021625 0.004565 -0.003989 0.000679
# 4 0.000449 0.003607 0.004565 0.018319 -0.003810 -0.000684
# 5 -0.003387 -0.000243 -0.003989 -0.003810 0.024270 0.006030
# 6 0.001655 -0.001102 0.000679 -0.000684 0.006030 0.033245
#
#
# Mechanical properties :
#
#
# Convention : Reuss Voigt Hill
#
# Bulk Modulus (GPa) = 38.12565 52.09708 45.11137
# Shear Modulus (GPa) = 34.62758 45.65715 40.14236
#
# Velocity S-wave (km/s) = 3.65614 4.19823 3.93653
# Velocity P-wave (km/s) = 5.70447 6.60390 6.17059
#
# Compressibility (1/GPa) = 0.02622906
#
# Stress axis : x y z
#
# Youngs Moduli (GPa) = 105.26953 84.04311 46.24281
#
# Poissons Ratio (x) = 0.03357 0.04997
# Poissons Ratio (y) = 0.04205 0.31986
# Poissons Ratio (z) = 0.11376 0.58132
#
# Static dielectric constant tensor:
#      x y z
#    x 2.114160 0.011220 -0.052590 
#    y 0.011220 1.967280 0.102510 
#    z -0.052590 0.102510 2.072770 
# 
# From -- ./inp_files/152403.got.cif
#   From: 2010.05.17/outbox.cif.g08.bks.cpg/sg2_77_cif.got.tgz:152403.got - 2010.06.03 11:33:40.
