data_PCOD9034466
_publ_section_title
;
Structure prediction by ZEFSAII (Michael W. Deem and Ramdas Pophale) SiO2 
 PCOD9034466
Probable space group: P -1
;
_chemical_formula_sum "Si O2"
_cell_formula_units_Z 13
_cell_length_a 22.486889
_cell_length_b 5.335955
_cell_length_c 14.298525
_cell_angle_alpha 64.900091
_cell_angle_beta 156.746575
_cell_angle_gamma 124.538450
_cell_volume 532.719346
_symmetry_space_group_name_H-M "P -1"
_symmetry_group_IT_number 2
_symmetry_cell_setting 'triclinic'
loop_
_space_group_symop_operation_xyz
x,y,z
-x,-y,-z
loop_
_atom_site_type_symbol
_atom_site_label
_atom_site_fract_x
_atom_site_fract_y
_atom_site_fract_z
Si Si1 0.307275 0.175401 0.166562
Si Si2 0.000000 0.000000 0.000000
Si Si3 0.034644 0.817682 0.294159
Si Si4 0.366941 0.128563 0.461210
Si Si5 0.068174 0.750046 0.642244
Si Si6 0.429408 0.245747 0.852705
Si Si7 0.440529 0.172428 0.163964
O O1 0.311058 0.002647 0.294278
O O2 0.451109 0.546584 0.328669
O O3 0.371082 0.075649 0.183931
O O4 0.120240 0.143056 0.889853
O O5 0.020486 0.871423 0.155345
O O6 0.210934 0.173098 0.264205
O O7 0.992992 0.464079 0.318578
O O8 0.222496 0.059819 0.569586
O O9 0.396155 0.879002 0.602676
O O10 0.000000 0.500000 0.500000
O O11 0.000000 0.000000 0.500000
O O12 0.275469 0.942351 0.901288
O O13 0.508299 0.469042 0.840217
O O14 0.500000 0.500000 0.000000
O O15 0.500000 0.000000 0.000000
#
# Coordination Sequence:
#
# PCOD9034466 Si02
#       7
#     2   1   2   2   2   2   2
#     4  10  22  44  75 111 149 195 255 324 384 468
#     4  10  24  46  82 112 164 202 248 336 402 494
#     4  11  24  50  78 116 157 205 266 323 406 469
#     4  10  22  45  72 114 150 198 253 311 402 467
#     4  12  26  47  78 112 151 203 267 327 379 459
#     4  12  30  51  77 114 163 213 264 328 392 472
#     4  12  25  45  78 105 154 201 261 321 390 463
#
# _framework density 24.403092000000001
#
# number of rings (size 3 to 8) (size 9 to 14) (size 15 to 20)
#    0.000    0.923    1.538    4.154    4.308    1.231 
#    2.769    3.846    0.000    0.000    0.000    0.000 
#    0.000    0.000    0.000    0.000    0.000    0.000 
#
# Total GULP energy -72560.760153 kJ/mol
# GULP energy per Si atom -5581.596935 kJ/mol
# Density = 2.434755 g / cm^3
# Si number density = 24.403092 Si / 1000 Ang^3
#
#
#
# Elastic Constant Matrix: (Units=GPa)
#
#
# Indices 1 2 3 4 5 6 
#
# 1 62.2179 39.1306 36.1059 -0.5107 -4.3400 4.5013
# 2 39.1306 141.9929 87.3453 -15.6989 -9.2748 0.7520
# 3 36.1059 87.3453 229.6695 -9.5376 16.8225 -8.0473
# 4 -0.5107 -15.6989 -9.5376 37.7810 9.3641 2.0016
# 5 -4.3400 -9.2748 16.8225 9.3641 33.3768 2.5253
# 6 4.5013 0.7520 -8.0473 2.0016 2.5253 42.4856
#
#
#
# Elastic Compliance Matrix: (Units=1/GPa)
#
#
# Indices 1 2 3 4 5 6 
#
# 1 0.020432 -0.004508 -0.001948 -0.002788 0.003359 -0.002522
# 2 -0.004508 0.011104 -0.003694 0.002758 0.003645 -0.000765
# 3 -0.001948 -0.003694 0.006550 0.001255 -0.005066 0.001754
# 4 -0.002788 0.002758 0.001255 0.030054 -0.008629 -0.000419
# 5 0.003359 0.003645 -0.005066 -0.008629 0.036623 -0.003150
# 6 -0.002522 -0.000765 0.001754 -0.000419 -0.003150 0.024357
#
#
# Mechanical properties :
#
#
# Convention : Reuss Voigt Hill
#
# Bulk Modulus (GPa) = 56.22101 84.33821 70.27961
# Shear Modulus (GPa) = 32.18586 40.81524 36.50055
#
# Velocity S-wave (km/s) = 3.63564 4.09411 3.87167
# Velocity P-wave (km/s) = 6.38062 7.54881 6.98916
#
# Compressibility (1/GPa) = 0.01778695
#
# Stress axis : x y z
#
# Youngs Moduli (GPa) = 48.94293 90.05754 152.68117
#
# Poissons Ratio (x) = 0.40598 0.29739
# Poissons Ratio (y) = 0.22063 0.56394
# Poissons Ratio (z) = 0.09533 0.33263
#
# Static dielectric constant tensor:
#      x y z
#    x 2.031980 0.033960 -0.035130 
#    y 0.033960 1.928330 -0.032310 
#    z -0.035130 -0.032310 1.968990 
# 
# From -- ./inp_files/542119.got.cif
#   From: 2010.05.17/outbox.cif.g08.bks.cpg/sg2_272_cif.got.tgz:542119.got - 2010.06.03 11:33:40.
