data_PCOD9034921
_publ_section_title
;
Structure prediction by ZEFSAII (Michael W. Deem and Ramdas Pophale) SiO2 
 PCOD9034921
Probable space group: P -1
;
_chemical_formula_sum "Si O2"
_cell_formula_units_Z 14
_cell_length_a 14.359100
_cell_length_b 7.489633
_cell_length_c 7.910050
_cell_angle_alpha 54.238179
_cell_angle_beta 81.999878
_cell_angle_gamma 113.441252
_cell_volume 548.753966
_symmetry_space_group_name_H-M "P -1"
_symmetry_group_IT_number 2
_symmetry_cell_setting 'triclinic'
loop_
_space_group_symop_operation_xyz
x,y,z
-x,-y,-z
loop_
_atom_site_type_symbol
_atom_site_label
_atom_site_fract_x
_atom_site_fract_y
_atom_site_fract_z
Si Si1 0.440248 0.935702 0.324544
Si Si2 0.094972 0.948146 0.967478
Si Si3 0.859773 0.939133 0.730829
Si Si4 0.386528 0.299288 0.253754
Si Si5 0.665756 0.137791 0.977614
Si Si6 0.920570 0.564783 0.805241
Si Si7 0.657820 0.638416 0.400287
O O1 0.576173 0.139590 0.124811
O O2 0.402736 0.635217 0.540862
O O3 0.392450 0.041834 0.412209
O O4 0.374449 0.892488 0.187534
O O5 0.203839 0.209725 0.700053
O O6 0.064856 0.677337 0.030847
O O7 0.138524 0.953826 0.143469
O O8 0.000000 0.000000 0.000000
O O9 0.735080 0.805881 0.747467
O O10 0.891780 0.723235 0.854728
O O11 0.964210 0.196264 0.455378
O O12 0.393736 0.421264 0.366281
O O13 0.500000 0.500000 0.000000
O O14 0.649905 0.864204 0.191835
O O15 0.798704 0.396957 0.824047
#
# Coordination Sequence:
#
# PCOD9034921 Si02
#       7
#     2   2   2   2   2   2   2
#     4  11  23  42  74  95 143 188 227 282 358 405
#     4  11  27  44  69 105 142 181 233 291 346 416
#     4  11  25  44  73  99 138 190 229 285 355 413
#     4  12  26  44  73 105 136 182 235 282 350 417
#     4  10  22  45  69 105 139 183 232 291 341 421
#     4  10  23  44  72  98 141 179 236 285 345 414
#     4  11  26  44  68 104 140 177 240 288 343 416
#
# _framework density 25.512342
#
# number of rings (size 3 to 8) (size 9 to 14) (size 15 to 20)
#    0.000    1.143    0.000    6.000    8.000    4.571 
#    0.000    1.429    0.000    0.000    0.000    0.000 
#    0.000    0.000    0.000    0.000    0.000    0.000 
#
# Total GULP energy -78445.058541 kJ/mol
# GULP energy per Si atom -5603.218467 kJ/mol
# Density = 2.545428 g / cm^3
# Si number density = 25.512342 Si / 1000 Ang^3
#
#
#
# Elastic Constant Matrix: (Units=GPa)
#
#
# Indices 1 2 3 4 5 6 
#
# 1 160.9842 46.1824 41.0728 -20.5604 -29.8164 -10.7001
# 2 46.1824 142.5472 28.6743 -10.3072 -10.9779 -21.7133
# 3 41.0728 28.6743 82.4106 -14.4020 -21.5315 3.4538
# 4 -20.5604 -10.3072 -14.4020 38.6415 5.6643 -5.3678
# 5 -29.8164 -10.9779 -21.5315 5.6643 43.3252 -1.4106
# 6 -10.7001 -21.7133 3.4538 -5.3678 -1.4106 56.3129
#
#
#
# Elastic Compliance Matrix: (Units=1/GPa)
#
#
# Indices 1 2 3 4 5 6 
#
# 1 0.008418 -0.001543 -0.002175 0.002881 0.003994 0.001512
# 2 -0.001543 0.008516 -0.002138 0.001103 -0.000006 0.003226
# 3 -0.002175 -0.002138 0.016018 0.003197 0.005446 -0.001779
# 4 0.002881 0.001103 0.003197 0.029376 0.000127 0.003580
# 5 0.003994 -0.000006 0.005446 0.000127 0.028556 0.001150
# 6 0.001512 0.003226 -0.001779 0.003580 0.001150 0.019768
#
#
# Mechanical properties :
#
#
# Convention : Reuss Voigt Hill
#
# Bulk Modulus (GPa) = 47.08105 68.64454 57.86279
# Shear Modulus (GPa) = 38.62652 45.65677 42.14165
#
# Velocity S-wave (km/s) = 3.89528 4.23495 4.06866
# Velocity P-wave (km/s) = 6.22296 7.13287 6.69340
#
# Compressibility (1/GPa) = 0.02123997
#
# Stress axis : x y z
#
# Youngs Moduli (GPa) = 118.79883 117.42536 62.42818
#
# Poissons Ratio (x) = 0.18123 0.13576
# Poissons Ratio (y) = 0.18335 0.13347
# Poissons Ratio (z) = 0.25835 0.25105
#
# Static dielectric constant tensor:
#      x y z
#    x 2.111610 -0.006200 0.048820 
#    y -0.006200 1.983680 -0.044450 
#    z 0.048820 -0.044450 1.965670 
# 
# From -- ./inp_files/297431.got.cif
#   From: 2010.05.17/outbox.cif.g08.bks.cpg/sg2_149_cif.got.tgz:297431.got - 2010.06.03 11:33:40.
