data_PCOD9034650
_publ_section_title
;
Structure prediction by ZEFSAII (Michael W. Deem and Ramdas Pophale) SiO2 
 PCOD9034650
Probable space group: P -1
;
_chemical_formula_sum "Si O2"
_cell_formula_units_Z 13
_cell_length_a 7.673581
_cell_length_b 12.257984
_cell_length_c 8.308920
_cell_angle_alpha 124.048653
_cell_angle_beta 91.383348
_cell_angle_gamma 125.546464
_cell_volume 450.488285
_symmetry_space_group_name_H-M "P -1"
_symmetry_group_IT_number 2
_symmetry_cell_setting 'triclinic'
loop_
_space_group_symop_operation_xyz
x,y,z
-x,-y,-z
loop_
_atom_site_type_symbol
_atom_site_label
_atom_site_fract_x
_atom_site_fract_y
_atom_site_fract_z
Si Si1 0.883552 0.674720 0.396451
Si Si2 0.327927 0.085778 0.667500
Si Si3 0.654378 0.784968 0.689953
Si Si4 0.000000 0.500000 0.500000
Si Si5 0.889029 0.804763 0.045332
Si Si6 0.231706 0.532313 0.076484
Si Si7 0.373189 0.806781 0.912537
O O1 0.996458 0.639209 0.502029
O O2 0.726853 0.706279 0.506672
O O3 0.709256 0.501670 0.126344
O O4 0.121866 0.861618 0.455513
O O5 0.175685 0.129834 0.758624
O O6 0.536509 0.249016 0.682020
O O7 0.489320 0.134320 0.868414
O O8 0.386181 0.699441 0.674891
O O9 0.753856 0.782502 0.861729
O O10 0.820647 0.002405 0.825628
O O11 0.080943 0.632686 0.771991
O O12 0.803690 0.617136 0.944408
O O13 0.000000 0.500000 0.000000
O O14 0.500000 0.000000 0.000000
#
# Coordination Sequence:
#
# PCOD9034650 Si02
#       7
#     2   2   2   1   2   2   2
#     4  11  25  44  68 101 137 175 233 277 340 403
#     4  10  22  45  66  95 136 182 222 277 339 404
#     4   9  22  42  72 102 130 182 225 279 338 399
#     4  12  24  38  68 102 136 176 228 280 330 402
#     4   9  21  43  70  99 135 176 226 273 338 409
#     4  12  27  42  68 100 140 182 223 279 341 404
#     4  11  22  41  70 100 140 172 222 288 338 394
#
# _framework density 28.857579999999999
#
# number of rings (size 3 to 8) (size 9 to 14) (size 15 to 20)
#    0.000    1.538    3.077    1.385    4.308    3.692 
#    0.000    1.538    0.000    0.000    0.000    0.000 
#    0.000    0.000    0.000    0.000    0.000    0.000 
#
# Total GULP energy -72624.704082 kJ/mol
# GULP energy per Si atom -5586.515699 kJ/mol
# Density = 2.879190 g / cm^3
# Si number density = 28.857580 Si / 1000 Ang^3
#
#
#
# Elastic Constant Matrix: (Units=GPa)
#
#
# Indices 1 2 3 4 5 6 
#
# 1 102.3316 39.6496 12.6969 -8.2382 -7.5365 -8.6602
# 2 39.6496 157.3958 2.6282 55.6753 8.6844 -44.7558
# 3 12.6969 2.6282 104.3733 23.2838 13.9507 -9.0630
# 4 -8.2382 55.6753 23.2838 64.2808 0.3962 -1.9317
# 5 -7.5365 8.6844 13.9507 0.3962 48.4405 -18.5955
# 6 -8.6602 -44.7558 -9.0630 -1.9317 -18.5955 55.4206
#
#
#
# Elastic Compliance Matrix: (Units=1/GPa)
#
#
# Indices 1 2 3 4 5 6 
#
# 1 0.014709 -0.009026 -0.004941 0.011345 0.003630 -0.004185
# 2 -0.009026 0.019975 0.006563 -0.020386 -0.001054 0.014730
# 3 -0.004941 0.006563 0.013416 -0.011001 -0.003772 0.005072
# 4 0.011345 -0.020386 -0.011001 0.038208 0.002820 -0.014211
# 5 0.003630 -0.001054 -0.003772 0.002820 0.025428 0.007729
# 6 -0.004185 0.014730 0.005072 -0.014211 0.007729 0.032213
#
#
# Mechanical properties :
#
#
# Convention : Reuss Voigt Hill
#
# Bulk Modulus (GPa) = 30.03906 52.67222 41.35564
# Shear Modulus (GPa) = 29.43684 54.23678 41.83681
#
# Velocity S-wave (km/s) = 3.19732 4.33998 3.81171
# Velocity P-wave (km/s) = 4.90536 6.58832 5.80812
#
# Compressibility (1/GPa) = 0.03328999
#
# Stress axis : x y z
#
# Youngs Moduli (GPa) = 67.98541 50.06188 74.53997
#
# Poissons Ratio (x) = 0.45187 0.36834
# Poissons Ratio (y) = 0.61365 -0.48918
# Poissons Ratio (z) = 0.33595 -0.32854
#
# Static dielectric constant tensor:
#      x y z
#    x 1.808890 -0.257610 -0.343240 
#    y -0.257610 2.065750 -0.252950 
#    z -0.343240 -0.252950 1.992340 
# 
# From -- ./inp_files/182616.got.cif
#   From: 2010.05.17/outbox.cif.g08.bks.cpg/sg2_92_cif.got.tgz:182616.got - 2010.06.03 11:33:40.
