data_PCOD9034932
_publ_section_title
;
Structure prediction by ZEFSAII (Michael W. Deem and Ramdas Pophale) SiO2 
 PCOD9034932
Probable space group: P -1
;
_chemical_formula_sum "Si O2"
_cell_formula_units_Z 14
_cell_length_a 16.856982
_cell_length_b 19.653707
_cell_length_c 8.836335
_cell_angle_alpha 145.275573
_cell_angle_beta 133.751845
_cell_angle_gamma 20.968714
_cell_volume 553.810243
_symmetry_space_group_name_H-M "P -1"
_symmetry_group_IT_number 2
_symmetry_cell_setting 'triclinic'
loop_
_space_group_symop_operation_xyz
x,y,z
-x,-y,-z
loop_
_atom_site_type_symbol
_atom_site_label
_atom_site_fract_x
_atom_site_fract_y
_atom_site_fract_z
Si Si1 0.435723 0.884968 0.965434
Si Si2 0.215474 0.268132 0.972595
Si Si3 0.195389 0.777140 0.476444
Si Si4 0.460099 0.784107 0.485637
Si Si5 0.606787 0.217875 0.026184
Si Si6 0.920686 0.458596 0.407838
Si Si7 0.903378 0.985268 0.741072
O O1 0.544450 0.908044 0.106140
O O2 0.503266 0.739218 0.641759
O O3 0.527837 0.757865 0.020343
O O4 0.154418 0.156844 0.125667
O O5 0.277802 0.073856 0.752475
O O6 0.141512 0.423031 0.296897
O O7 0.000000 0.500000 0.000000
O O8 0.427246 0.481829 0.188795
O O9 0.284248 0.807421 0.740422
O O10 0.000000 0.000000 0.500000
O O11 0.097058 0.788390 0.504751
O O12 0.689007 0.597371 0.344578
O O13 0.328998 0.793190 0.269662
O O14 0.812703 0.982284 0.747965
O O15 0.000000 0.500000 0.500000
O O16 0.000000 0.000000 0.000000
#
# Coordination Sequence:
#
# PCOD9034932 Si02
#       7
#     2   2   2   2   2   2   2
#     4  11  23  43  66  99 140 180 230 281 341 417
#     4  11  25  39  63 103 140 179 228 282 340 413
#     4  10  22  45  69  92 132 172 222 288 347 407
#     4  11  23  41  68  97 135 190 229 282 347 403
#     4  10  24  41  65  99 127 175 229 279 343 410
#     4  11  21  43  65  94 138 179 233 274 334 417
#     4  10  24  43  66 100 136 170 231 286 342 406
#
# _framework density 25.279416000000001
#
# number of rings (size 3 to 8) (size 9 to 14) (size 15 to 20)
#    0.000    1.429    2.857    1.714    4.000    5.714 
#    0.000    2.857    0.000    0.000    0.000    0.000 
#    0.000    0.000    0.000    0.000    0.000    0.000 
#
# Total GULP energy -77993.157349 kJ/mol
# GULP energy per Si atom -5570.939811 kJ/mol
# Density = 2.522188 g / cm^3
# Si number density = 25.279416 Si / 1000 Ang^3
#
#
#
# Elastic Constant Matrix: (Units=GPa)
#
#
# Indices 1 2 3 4 5 6 
#
# 1 128.2286 8.7287 34.8160 10.7557 -29.3023 -2.8460
# 2 8.7287 104.7024 27.5979 3.6641 3.3121 -12.9426
# 3 34.8160 27.5979 78.0817 7.7758 -18.2291 -8.2390
# 4 10.7557 3.6641 7.7758 39.1636 -4.1717 -5.1361
# 5 -29.3023 3.3121 -18.2291 -4.1717 32.1890 5.5365
# 6 -2.8460 -12.9426 -8.2390 -5.1361 5.5365 41.9430
#
#
#
# Elastic Compliance Matrix: (Units=1/GPa)
#
#
# Indices 1 2 3 4 5 6 
#
# 1 0.010506 -0.000560 -0.002546 -0.001618 0.008183 -0.001238
# 2 -0.000560 0.011343 -0.004535 -0.000100 -0.004808 0.003194
# 3 -0.002546 -0.004535 0.017582 -0.001448 0.007803 0.000674
# 4 -0.001618 -0.000100 -0.001448 0.026711 0.000706 0.002753
# 5 0.008183 -0.004808 0.007803 0.000706 0.044410 -0.005171
# 6 -0.001238 0.003194 0.000674 0.002753 -0.005171 0.025896
#
#
# Mechanical properties :
#
#
# Convention : Reuss Voigt Hill
#
# Bulk Modulus (GPa) = 41.40797 50.36642 45.88719
# Shear Modulus (GPa) = 31.29304 38.65046 34.97175
#
# Velocity S-wave (km/s) = 3.52218 3.91440 3.72345
# Velocity P-wave (km/s) = 5.74079 6.35587 6.05614
#
# Compressibility (1/GPa) = 0.02414994
#
# Stress axis : x y z
#
# Youngs Moduli (GPa) = 95.18239 88.15784 56.87638
#
# Poissons Ratio (x) = 0.04938 0.14479
# Poissons Ratio (y) = 0.05332 0.25793
# Poissons Ratio (z) = 0.24230 0.39979
#
# Static dielectric constant tensor:
#      x y z
#    x 2.309710 -0.043350 0.039460 
#    y -0.043350 2.213140 0.036150 
#    z 0.039460 0.036150 2.014300 
# 
# From -- ./inp_files/337945.got.cif
#   From: 2010.05.17/outbox.cif.g08.bks.cpg/sg2_169_cif.got.tgz:337945.got - 2010.06.03 11:33:40.
