data_PCOD9034767
_publ_section_title
;
Structure prediction by ZEFSAII (Michael W. Deem and Ramdas Pophale) SiO2 
 PCOD9034767
Probable space group: P -1
;
_chemical_formula_sum "Si O2"
_cell_formula_units_Z 16
_cell_length_a 9.096422
_cell_length_b 10.711505
_cell_length_c 11.777538
_cell_angle_alpha 107.027871
_cell_angle_beta 53.510256
_cell_angle_gamma 129.874120
_cell_volume 700.744153
_symmetry_space_group_name_H-M "P -1"
_symmetry_group_IT_number 2
_symmetry_cell_setting 'triclinic'
loop_
_space_group_symop_operation_xyz
x,y,z
-x,-y,-z
loop_
_atom_site_type_symbol
_atom_site_label
_atom_site_fract_x
_atom_site_fract_y
_atom_site_fract_z
Si Si1 0.098875 0.630853 0.311648
Si Si2 0.427781 0.611844 0.030583
Si Si3 0.934302 0.174277 0.827159
Si Si4 0.236062 0.023074 0.930173
Si Si5 0.590189 0.391706 0.438446
Si Si6 0.232044 0.528644 0.861520
Si Si7 0.595446 0.096003 0.599798
Si Si8 0.871098 0.965801 0.432415
O O1 0.182316 0.540807 0.179979
O O2 0.134355 0.765189 0.235347
O O3 0.262496 0.717295 0.368623
O O4 0.828933 0.502739 0.426267
O O5 0.598677 0.792390 0.049954
O O6 0.500000 0.500000 0.000000
O O7 0.407526 0.613839 0.905786
O O8 0.158604 0.348483 0.816886
O O9 0.976940 0.044902 0.732185
O O10 0.786823 0.091905 0.987119
O O11 0.368868 0.009089 0.761675
O O12 0.000000 0.000000 0.000000
O O13 0.500000 0.500000 0.500000
O O14 0.663184 0.371950 0.275390
O O15 0.376609 0.210643 0.522304
O O16 0.000000 0.500000 0.000000
O O17 0.500000 0.000000 0.500000
O O18 0.810319 0.089378 0.505646
O O19 0.000000 0.000000 0.500000
#
# Coordination Sequence:
#
# PCOD9034767 Si02
#       8
#     2   2   2   2   2   2   2   2
#     4  10  22  45  68 101 135 176 235 287 331 413
#     4  11  24  42  68  97 135 179 224 283 341 407
#     4  11  22  43  68 100 143 167 229 288 334 401
#     4  11  26  45  69 101 142 180 225 285 349 403
#     4  11  21  41  66  98 134 174 223 279 339 394
#     4  11  22  40  69  98 134 173 225 282 334 409
#     4  11  25  45  68  96 138 183 225 281 344 409
#     4  12  24  41  68 101 137 177 224 280 337 414
#
# _framework density 22.83287
#
# number of rings (size 3 to 8) (size 9 to 14) (size 15 to 20)
#    0.000    1.000    6.250    1.500    3.500    4.000 
#    2.250    0.625    0.000    0.000    0.000    0.000 
#    0.000    0.000    0.000    0.000    0.000    0.000 
#
# Total GULP energy -89135.356817 kJ/mol
# GULP energy per Si atom -5570.959801 kJ/mol
# Density = 2.278090 g / cm^3
# Si number density = 22.832870 Si / 1000 Ang^3
#
#
#
# Elastic Constant Matrix: (Units=GPa)
#
#
# Indices 1 2 3 4 5 6 
#
# 1 91.6231 9.2009 32.4233 6.6577 4.3071 20.4069
# 2 9.2009 60.5077 18.1884 8.7318 15.3299 16.9693
# 3 32.4233 18.1884 136.8592 24.3248 7.2889 6.7186
# 4 6.6577 8.7318 24.3248 38.7311 4.1063 -0.9932
# 5 4.3071 15.3299 7.2889 4.1063 38.8180 11.9830
# 6 20.4069 16.9693 6.7186 -0.9932 11.9830 49.9160
#
#
#
# Elastic Compliance Matrix: (Units=1/GPa)
#
#
# Indices 1 2 3 4 5 6 
#
# 1 0.013058 0.000255 -0.002770 -0.000767 0.000665 -0.005227
# 2 0.000255 0.020441 -0.001639 -0.003154 -0.005757 -0.005513
# 3 -0.002770 -0.001639 0.009026 -0.004770 -0.000381 0.000471
# 4 -0.000767 -0.003154 -0.004770 0.029937 -0.001891 0.003077
# 5 0.000665 -0.005757 -0.000381 -0.001891 0.029926 -0.005485
# 6 -0.005227 -0.005513 0.000471 0.003077 -0.005485 0.025359
#
#
# Mechanical properties :
#
#
# Convention : Reuss Voigt Hill
#
# Bulk Modulus (GPa) = 29.22583 45.40169 37.31376
# Shear Modulus (GPa) = 33.90748 40.77150 37.33949
#
# Velocity S-wave (km/s) = 3.85779 4.23028 4.04832
# Velocity P-wave (km/s) = 5.71586 6.61724 6.18300
#
# Compressibility (1/GPa) = 0.03421631
#
# Stress axis : x y z
#
# Youngs Moduli (GPa) = 76.58420 48.92193 110.79267
#
# Poissons Ratio (x) = -0.01248 0.30688
# Poissons Ratio (y) = -0.01954 0.18161
# Poissons Ratio (z) = 0.21213 0.08019
#
# Static dielectric constant tensor:
#      x y z
#    x 1.893250 -0.046290 0.118160 
#    y -0.046290 1.935630 -0.290830 
#    z 0.118160 -0.290830 2.494820 
# 
# From -- ./inp_files/392724.got.cif
#   From: 2010.05.17/outbox.cif.g08.bks.cpg/sg2_197_cif.got.tgz:392724.got - 2010.06.03 11:33:40.
