data_PCOD9034939
_publ_section_title
;
Structure prediction by ZEFSAII (Michael W. Deem and Ramdas Pophale) SiO2 
 PCOD9034939
Probable space group: P -1
;
_chemical_formula_sum "Si O2"
_cell_formula_units_Z 16
_cell_length_a 28.559266
_cell_length_b 15.871760
_cell_length_c 19.369370
_cell_angle_alpha 160.057045
_cell_angle_beta 16.345746
_cell_angle_gamma 160.424323
_cell_volume 765.487145
_symmetry_space_group_name_H-M "P -1"
_symmetry_group_IT_number 2
_symmetry_cell_setting 'triclinic'
loop_
_space_group_symop_operation_xyz
x,y,z
-x,-y,-z
loop_
_atom_site_type_symbol
_atom_site_label
_atom_site_fract_x
_atom_site_fract_y
_atom_site_fract_z
Si Si1 0.987253 0.962019 0.260728
Si Si2 0.382720 0.672914 0.928410
Si Si3 0.183704 0.569990 0.991072
Si Si4 0.406964 0.162032 0.797080
Si Si5 0.541520 0.833048 0.603443
Si Si6 0.859417 0.274629 0.576077
Si Si7 0.947251 0.879045 0.557658
Si Si8 0.523170 0.749401 0.078505
O O1 0.952236 0.958418 0.389736
O O2 0.961762 0.198970 0.436252
O O3 0.193471 0.992378 0.983089
O O4 0.855884 0.694590 0.201275
O O5 0.230371 0.567212 0.002544
O O6 0.475873 0.461501 0.624479
O O7 0.285590 0.637358 0.112341
O O8 0.500000 0.000000 0.000000
O O9 0.371262 0.789833 0.861551
O O10 0.006851 0.632228 0.283148
O O11 0.509795 0.245760 0.789545
O O12 0.500000 0.000000 0.500000
O O13 0.422659 0.442552 0.956711
O O14 0.732160 0.003111 0.504461
O O15 0.529943 0.029444 0.711512
O O16 0.000000 0.500000 0.500000
O O17 0.736723 0.817979 0.818651
O O18 0.000000 0.000000 0.500000
#
# Coordination Sequence:
#
# PCOD9034939 Si02
#       8
#     2   2   2   2   2   2   2   2
#     4  11  24  43  68 100 137 179 228 288 346 418
#     4  12  25  46  72  99 139 194 232 290 358 415
#     4  12  23  43  71  99 137 177 232 287 354 416
#     4  10  22  45  69  93 135 182 229 278 357 412
#     4  12  25  43  70 104 140 176 238 289 348 431
#     4  12  26  45  69 104 140 185 234 287 353 423
#     4  11  23  43  68 101 135 176 228 285 346 412
#     4  10  23  43  66 101 134 177 227 289 342 422
#
# _framework density 20.901724000000002
#
# number of rings (size 3 to 8) (size 9 to 14) (size 15 to 20)
#    0.000    0.750    5.000    2.625    0.000    3.000 
#    4.500    0.000    0.000    0.000    0.000    0.000 
#    0.000    0.000    0.000    0.000    0.000    0.000 
#
# Total GULP energy -89282.474234 kJ/mol
# GULP energy per Si atom -5580.154640 kJ/mol
# Density = 2.085415 g / cm^3
# Si number density = 20.901724 Si / 1000 Ang^3
#
#
#
# Elastic Constant Matrix: (Units=GPa)
#
#
# Indices 1 2 3 4 5 6 
#
# 1 111.4483 44.4470 48.4180 12.6556 7.8429 -12.2247
# 2 44.4470 78.1880 29.7283 15.7809 17.6819 7.0656
# 3 48.4180 29.7283 141.9819 16.5775 9.7056 -10.7997
# 4 12.6556 15.7809 16.5775 29.5284 -2.4853 -0.5113
# 5 7.8429 17.6819 9.7056 -2.4853 43.4362 0.7834
# 6 -12.2247 7.0656 -10.7997 -0.5113 0.7834 23.3583
#
#
#
# Elastic Compliance Matrix: (Units=1/GPa)
#
#
# Indices 1 2 3 4 5 6 
#
# 1 0.014204 -0.008138 -0.002552 -0.000058 0.001159 0.008675
# 2 -0.008138 0.022414 -0.001266 -0.008624 -0.007657 -0.011557
# 3 -0.002552 -0.001266 0.008884 -0.003268 -0.001252 0.003125
# 4 -0.000058 -0.008624 -0.003268 0.040916 0.006561 0.001743
# 5 0.001159 -0.007657 -0.001252 0.006561 0.026556 0.001597
# 6 0.008675 -0.011557 0.003125 0.001743 0.001597 0.052277
#
#
# Mechanical properties :
#
#
# Convention : Reuss Voigt Hill
#
# Bulk Modulus (GPa) = 46.32359 64.08941 55.20650
# Shear Modulus (GPa) = 25.46328 33.19958 29.33143
#
# Velocity S-wave (km/s) = 3.49411 3.98975 3.75013
# Velocity P-wave (km/s) = 6.20396 7.20784 6.72466
#
# Compressibility (1/GPa) = 0.02158727
#
# Stress axis : x y z
#
# Youngs Moduli (GPa) = 70.40341 44.61463 112.56771
#
# Poissons Ratio (x) = 0.36309 0.28731
# Poissons Ratio (y) = 0.57297 0.14257
# Poissons Ratio (z) = 0.17969 0.05650
#
# Static dielectric constant tensor:
#      x y z
#    x 1.789360 0.004120 -0.029010 
#    y 0.004120 1.774360 0.012000 
#    z -0.029010 0.012000 1.789310 
# 
# From -- ./inp_files/111068.got.cif
#   From: 2010.05.17/outbox.cif.g08.bks.cpg/sg2_56_cif.got.tgz:111068.got - 2010.06.03 11:33:40.
