data_PCOD9034749
_publ_section_title
;
Structure prediction by ZEFSAII (Michael W. Deem and Ramdas Pophale) SiO2 
 PCOD9034749
Probable space group: P -1
;
_chemical_formula_sum "Si O2"
_cell_formula_units_Z 16
_cell_length_a 16.705486
_cell_length_b 8.706239
_cell_length_c 7.658195
_cell_angle_alpha 97.501447
_cell_angle_beta 116.196110
_cell_angle_gamma 39.689757
_cell_volume 594.229782
_symmetry_space_group_name_H-M "P -1"
_symmetry_group_IT_number 2
_symmetry_cell_setting 'triclinic'
loop_
_space_group_symop_operation_xyz
x,y,z
-x,-y,-z
loop_
_atom_site_type_symbol
_atom_site_label
_atom_site_fract_x
_atom_site_fract_y
_atom_site_fract_z
Si Si1 0.952664 0.437854 0.803644
Si Si2 0.726346 0.739313 0.368135
Si Si3 0.256252 0.107620 0.928525
Si Si4 0.399317 0.499886 0.188262
Si Si5 0.018822 0.832145 0.627625
Si Si6 0.800238 0.469854 0.919664
Si Si7 0.711160 0.213752 0.541822
Si Si8 0.576661 0.627330 0.207483
O O1 0.105924 0.218045 0.809098
O O2 0.797603 0.709434 0.606799
O O3 0.900911 0.349276 0.828279
O O4 0.000000 0.500000 0.000000
O O5 0.695931 0.911463 0.223196
O O6 0.603828 0.774580 0.257000
O O7 0.872124 0.441845 0.399245
O O8 0.225382 0.318635 0.012766
O O9 0.404458 0.828608 0.108870
O O10 0.359610 0.386890 0.214453
O O11 0.565612 0.316561 0.372944
O O12 0.291018 0.752714 0.247546
O O13 0.384657 0.501168 0.964161
O O14 0.871889 0.952779 0.579528
O O15 0.000000 0.000000 0.500000
O O16 0.108996 0.748578 0.878036
O O17 0.674747 0.419460 0.424024
#
# Coordination Sequence:
#
# PCOD9034749 Si02
#       8
#     2   2   2   2   2   2   2   2
#     4  10  23  44  67 102 138 171 226 286 341 406
#     4  11  22  43  70  99 133 177 228 271 346 408
#     4  10  23  43  71 100 132 177 223 282 345 402
#     4  11  24  45  65  98 139 178 234 274 339 403
#     4  11  22  43  68  98 129 180 229 273 337 399
#     4  10  22  45  67  98 134 171 225 283 337 401
#     4  11  26  44  65 100 137 185 224 284 333 403
#     4  12  23  46  70  99 139 180 228 276 343 409
#
# _framework density 26.925613999999999
#
# number of rings (size 3 to 8) (size 9 to 14) (size 15 to 20)
#    0.000    1.250    3.750    1.875    1.750    2.500 
#    6.750    3.125    0.000    0.000    0.000    0.000 
#    0.000    0.000    0.000    0.000    0.000    0.000 
#
# Total GULP energy -89497.529335 kJ/mol
# GULP energy per Si atom -5593.595583 kJ/mol
# Density = 2.686433 g / cm^3
# Si number density = 26.925614 Si / 1000 Ang^3
#
#
#
# Elastic Constant Matrix: (Units=GPa)
#
#
# Indices 1 2 3 4 5 6 
#
# 1 182.6254 13.5776 29.2449 11.5179 20.3728 -25.2855
# 2 13.5776 69.4254 -3.1348 6.1649 -6.4910 -8.2425
# 3 29.2449 -3.1348 104.8377 16.8085 0.7547 -0.7647
# 4 11.5179 6.1649 16.8085 38.7957 0.3357 1.0916
# 5 20.3728 -6.4910 0.7547 0.3357 49.5824 -5.1929
# 6 -25.2855 -8.2425 -0.7647 1.0916 -5.1929 24.4293
#
#
#
# Elastic Compliance Matrix: (Units=1/GPa)
#
#
# Indices 1 2 3 4 5 6 
#
# 1 0.007057 -0.000765 -0.001703 -0.001401 -0.002276 0.006572
# 2 -0.000765 0.015777 0.001178 -0.002966 0.002940 0.005326
# 3 -0.001703 0.001178 0.010731 -0.004317 0.000647 -0.000698
# 4 -0.001401 -0.002966 -0.004317 0.028648 -0.000354 -0.003941
# 5 -0.002276 0.002940 0.000647 -0.000354 0.021828 0.003312
# 6 0.006572 0.005326 -0.000698 -0.003941 0.003312 0.050392
#
#
# Mechanical properties :
#
#
# Convention : Reuss Voigt Hill
#
# Bulk Modulus (GPa) = 32.27156 48.47376 40.37266
# Shear Modulus (GPa) = 33.93477 43.70821 38.82149
#
# Velocity S-wave (km/s) = 3.55394 4.03338 3.80123
# Velocity P-wave (km/s) = 5.37142 6.30340 5.85598
#
# Compressibility (1/GPa) = 0.03098703
#
# Stress axis : x y z
#
# Youngs Moduli (GPa) = 141.69359 63.38212 93.18677
#
# Poissons Ratio (x) = 0.04850 0.15866
# Poissons Ratio (y) = 0.10843 -0.10981
# Poissons Ratio (z) = 0.24125 -0.07469
#
# Static dielectric constant tensor:
#      x y z
#    x 2.115360 -0.025940 -0.077390 
#    y -0.025940 2.193070 0.055370 
#    z -0.077390 0.055370 2.316380 
# 
# From -- ./inp_files/329189.got.cif
#   From: 2010.05.17/outbox.cif.g08.bks.cpg/sg2_165_cif.got.tgz:329189.got - 2010.06.03 11:33:40.
