data_PCOD9034808
_publ_section_title
;
Structure prediction by ZEFSAII (Michael W. Deem and Ramdas Pophale) SiO2 
 PCOD9034808
Probable space group: P -1
;
_chemical_formula_sum "Si O2"
_cell_formula_units_Z 16
_cell_length_a 7.878153
_cell_length_b 15.645071
_cell_length_c 15.762499
_cell_angle_alpha 153.721788
_cell_angle_beta 61.836882
_cell_angle_gamma 123.283844
_cell_volume 717.979594
_symmetry_space_group_name_H-M "P -1"
_symmetry_group_IT_number 2
_symmetry_cell_setting 'triclinic'
loop_
_space_group_symop_operation_xyz
x,y,z
-x,-y,-z
loop_
_atom_site_type_symbol
_atom_site_label
_atom_site_fract_x
_atom_site_fract_y
_atom_site_fract_z
Si Si1 0.301340 0.735153 0.611640
Si Si2 0.837040 0.656508 0.601108
Si Si3 0.906527 0.255582 0.811623
Si Si4 0.677188 0.403931 0.123347
Si Si5 0.245512 0.040243 0.567388
Si Si6 0.591064 0.363677 0.684769
Si Si7 0.595270 0.899156 0.959803
Si Si8 0.008859 0.681772 0.405004
O O1 0.308483 0.557836 0.517888
O O2 0.418064 0.734510 0.495112
O O3 0.066408 0.676815 0.589333
O O4 0.351338 0.944683 0.836079
O O5 0.776463 0.835923 0.819480
O O6 0.855817 0.672485 0.509783
O O7 0.781917 0.131715 0.651689
O O8 0.759956 0.239073 0.911516
O O9 0.086117 0.161882 0.699386
O O10 0.000000 0.500000 0.000000
O O11 0.524898 0.471802 0.157987
O O12 0.561566 0.304071 0.145935
O O13 0.867825 0.594668 0.279519
O O14 0.162742 0.909733 0.555222
O O15 0.464020 0.205892 0.645599
O O16 0.829881 0.439283 0.721106
O O17 0.500000 0.000000 0.000000
#
# Coordination Sequence:
#
# PCOD9034808 Si02
#       8
#     2   2   2   2   2   2   2   2
#     4  10  22  45  68  91 133 169 220 274 319 394
#     4  10  23  44  66  96 130 172 216 271 331 379
#     4  11  21  41  67  99 124 177 217 266 334 383
#     4  12  24  44  68  96 138 170 222 273 329 396
#     4  11  22  42  70  94 138 170 224 273 323 398
#     4  11  23  44  70  98 129 181 219 269 338 385
#     4  12  26  39  66 101 128 174 221 266 333 396
#     4  11  25  42  68 100 135 173 220 277 327 388
#
# _framework density 22.284756999999999
#
# number of rings (size 3 to 8) (size 9 to 14) (size 15 to 20)
#    0.000    1.000    3.750    3.000    3.500    1.000 
#    2.250    3.750    0.000    0.000    0.000    0.000 
#    0.000    0.000    0.000    0.000    0.000    0.000 
#
# Total GULP energy -89345.249599 kJ/mol
# GULP energy per Si atom -5584.078100 kJ/mol
# Density = 2.223404 g / cm^3
# Si number density = 22.284757 Si / 1000 Ang^3
#
#
#
# Elastic Constant Matrix: (Units=GPa)
#
#
# Indices 1 2 3 4 5 6 
#
# 1 35.4343 3.0027 6.4985 1.0234 -12.2284 0.7040
# 2 3.0027 110.3659 16.6815 -6.7936 -8.5286 -3.2506
# 3 6.4985 16.6815 92.1902 -17.1464 -10.0807 4.7768
# 4 1.0234 -6.7936 -17.1464 42.0524 -0.3191 -4.7095
# 5 -12.2284 -8.5286 -10.0807 -0.3191 21.6270 -0.3790
# 6 0.7040 -3.2506 4.7768 -4.7095 -0.3790 25.7384
#
#
#
# Elastic Compliance Matrix: (Units=1/GPa)
#
#
# Indices 1 2 3 4 5 6 
#
# 1 0.035154 0.000583 -0.000551 -0.000909 0.019825 -0.000660
# 2 0.000583 0.009639 -0.001248 0.001254 0.003598 0.001715
# 3 -0.000551 -0.001248 0.012653 0.004839 0.005139 -0.001530
# 4 -0.000909 0.001254 0.004839 0.026465 0.002699 0.004167
# 5 0.019825 0.003598 0.005139 0.002699 0.061308 0.000355
# 6 -0.000660 0.001715 -0.001530 0.004167 0.000355 0.040139
#
#
# Mechanical properties :
#
#
# Convention : Reuss Voigt Hill
#
# Bulk Modulus (GPa) = 18.17649 32.26177 25.21913
# Shear Modulus (GPa) = 24.25701 32.00406 28.13054
#
# Velocity S-wave (km/s) = 3.30283 3.79376 3.55677
# Velocity P-wave (km/s) = 4.76645 5.80505 5.31120
#
# Compressibility (1/GPa) = 0.05501613
#
# Stress axis : x y z
#
# Youngs Moduli (GPa) = 28.44644 103.74296 79.03377
#
# Poissons Ratio (x) = -0.06052 0.04352
# Poissons Ratio (y) = -0.01660 0.09860
# Poissons Ratio (z) = 0.01566 0.12943
#
# Static dielectric constant tensor:
#      x y z
#    x 1.860790 0.031710 -0.002120 
#    y 0.031710 1.978220 0.016290 
#    z -0.002120 0.016290 1.795840 
# 
# From -- ./inp_files/56330.got.cif
#   From: 2010.05.17/outbox.cif.g08.bks.cpg/sg2_29_cif.got.tgz:56330.got - 2010.06.03 11:33:40.
