data_PCOD9034673
_publ_section_title
;
Structure prediction by ZEFSAII (Michael W. Deem and Ramdas Pophale) SiO2 
 PCOD9034673
Probable space group: P -1
;
_chemical_formula_sum "Si O2"
_cell_formula_units_Z 16
_cell_length_a 6.738352
_cell_length_b 14.412035
_cell_length_c 18.940154
_cell_angle_alpha 40.751770
_cell_angle_beta 139.702299
_cell_angle_gamma 113.299635
_cell_volume 700.491378
_symmetry_space_group_name_H-M "P -1"
_symmetry_group_IT_number 2
_symmetry_cell_setting 'triclinic'
loop_
_space_group_symop_operation_xyz
x,y,z
-x,-y,-z
loop_
_atom_site_type_symbol
_atom_site_label
_atom_site_fract_x
_atom_site_fract_y
_atom_site_fract_z
Si Si1 0.140013 0.620365 0.801245
Si Si2 0.802986 0.103603 0.952611
Si Si3 0.125200 0.522581 0.406827
Si Si4 0.871819 0.661100 0.111439
Si Si5 0.969067 0.884950 0.499351
Si Si6 0.790843 0.033889 0.719965
Si Si7 0.937990 0.136432 0.245210
Si Si8 0.960898 0.726131 0.386148
O O1 0.992325 0.500594 0.803260
O O2 0.969155 0.753644 0.738801
O O3 0.174239 0.712200 0.687614
O O4 0.500000 0.500000 0.000000
O O5 0.416845 0.145805 0.807424
O O6 0.884650 0.255077 0.886040
O O7 0.941614 0.020732 0.112106
O O8 0.000000 0.000000 0.000000
O O9 0.500000 0.500000 0.500000
O O10 0.071157 0.367111 0.499939
O O11 0.889466 0.617955 0.223573
O O12 0.054889 0.614773 0.407774
O O13 0.476369 0.776726 0.920786
O O14 0.575401 0.919024 0.372874
O O15 0.046839 0.962145 0.407408
O O16 0.000000 0.000000 0.500000
O O17 0.895837 0.896933 0.768076
O O18 0.795017 0.188226 0.597183
#
# Coordination Sequence:
#
# PCOD9034673 Si02
#       8
#     2   2   2   2   2   2   2   2
#     4   9  22  40  69  98 126 172 224 275 341 407
#     4  12  24  42  69 100 142 187 230 285 340 410
#     4  11  24  42  66  93 145 181 228 284 339 411
#     4  11  21  41  73  92 137 185 221 281 353 395
#     4  10  23  43  71  94 136 174 230 281 343 404
#     4  12  25  40  73  99 136 179 235 278 348 405
#     4  10  22  45  67 100 133 174 231 283 342 411
#     4  11  26  41  63 104 139 181 236 278 339 414
#
# _framework density 22.841107999999998
#
# number of rings (size 3 to 8) (size 9 to 14) (size 15 to 20)
#    0.000    1.250    2.500    2.625    3.500    2.000 
#    0.000    0.625    5.500    0.000    0.000    0.000 
#    0.000    0.000    0.000    0.000    0.000    0.000 
#
# Total GULP energy -89418.518126 kJ/mol
# GULP energy per Si atom -5588.657383 kJ/mol
# Density = 2.278912 g / cm^3
# Si number density = 22.841108 Si / 1000 Ang^3
#
#
#
# Elastic Constant Matrix: (Units=GPa)
#
#
# Indices 1 2 3 4 5 6 
#
# 1 74.3054 19.7160 14.2735 -11.8178 -13.7273 -18.2141
# 2 19.7160 103.2501 -2.3057 -25.6073 -15.0834 -3.8738
# 3 14.2735 -2.3057 96.4398 -8.8953 -23.4158 -3.9365
# 4 -11.8178 -25.6073 -8.8953 30.7918 1.4003 -6.3059
# 5 -13.7273 -15.0834 -23.4158 1.4003 37.9336 -1.4855
# 6 -18.2141 -3.8738 -3.9365 -6.3059 -1.4855 41.0341
#
#
#
# Elastic Compliance Matrix: (Units=1/GPa)
#
#
# Indices 1 2 3 4 5 6 
#
# 1 0.018515 0.000047 0.000151 0.008894 0.006870 0.009853
# 2 0.000047 0.014367 0.003595 0.013492 0.007610 0.004071
# 3 0.000151 0.003595 0.013586 0.007178 0.009730 0.003165
# 4 0.008894 0.013492 0.007178 0.051574 0.011669 0.014258
# 5 0.006870 0.007610 0.009730 0.011669 0.037757 0.007861
# 6 0.009853 0.004071 0.003165 0.014258 0.007861 0.031907
#
#
# Mechanical properties :
#
#
# Convention : Reuss Voigt Hill
#
# Bulk Modulus (GPa) = 18.49936 37.48479 27.99208
# Shear Modulus (GPa) = 28.06795 38.10600 33.08697
#
# Velocity S-wave (km/s) = 3.50928 4.08892 3.81014
# Velocity P-wave (km/s) = 4.95346 6.22408 5.62476
#
# Compressibility (1/GPa) = 0.05405592
#
# Stress axis : x y z
#
# Youngs Moduli (GPa) = 54.00906 69.60239 73.60261
#
# Poissons Ratio (x) = -0.00327 -0.01114
# Poissons Ratio (y) = -0.00254 -0.26460
# Poissons Ratio (z) = -0.00818 -0.25022
#
# Static dielectric constant tensor:
#      x y z
#    x 1.573230 0.078550 -0.153910 
#    y 0.078550 1.845660 0.024660 
#    z -0.153910 0.024660 1.836590 
# 
# From -- ./inp_files/77716.got.cif
#   From: 2010.05.17/outbox.cif.g08.bks.cpg/sg2_39_cif.got.tgz:77716.got - 2010.06.03 11:33:40.
