data_PCOD9034577
_publ_section_title
;
Structure prediction by ZEFSAII (Michael W. Deem and Ramdas Pophale) SiO2 
 PCOD9034577
Probable space group: P -1
;
_chemical_formula_sum "Si O2"
_cell_formula_units_Z 16
_cell_length_a 15.245247
_cell_length_b 13.769873
_cell_length_c 5.072587
_cell_angle_alpha 111.127599
_cell_angle_beta 110.490420
_cell_angle_gamma 41.601497
_cell_volume 653.889121
_symmetry_space_group_name_H-M "P -1"
_symmetry_group_IT_number 2
_symmetry_cell_setting 'triclinic'
loop_
_space_group_symop_operation_xyz
x,y,z
-x,-y,-z
loop_
_atom_site_type_symbol
_atom_site_label
_atom_site_fract_x
_atom_site_fract_y
_atom_site_fract_z
Si Si1 0.802791 0.739076 0.570418
Si Si2 0.453282 0.103699 0.297193
Si Si3 0.078590 0.512442 0.899096
Si Si4 0.579987 0.309337 0.177621
Si Si5 0.922100 0.258693 0.733071
Si Si6 0.669157 0.068545 0.667072
Si Si7 0.054419 0.072222 0.173269
Si Si8 0.666689 0.360719 0.822069
O O1 0.706545 0.770310 0.727317
O O2 0.805451 0.644829 0.267939
O O3 0.958696 0.633768 0.687608
O O4 0.741931 0.898570 0.589574
O O5 0.533850 0.148288 0.444558
O O6 0.500000 0.000000 0.500000
O O7 0.500000 0.000000 0.000000
O O8 0.117496 0.589679 0.145849
O O9 0.000000 0.500000 0.000000
O O10 0.603127 0.327261 0.518513
O O11 0.428869 0.462249 0.104116
O O12 0.620446 0.162501 0.978491
O O13 0.664027 0.317800 0.073101
O O14 0.963305 0.195963 0.422074
O O15 0.804932 0.284172 0.764095
O O16 0.043975 0.137320 0.942752
O O17 0.793525 0.040754 0.677224
O O18 0.000000 0.000000 0.000000
#
# Coordination Sequence:
#
# PCOD9034577 Si02
#       8
#     2   2   2   2   2   2   2   2
#     4  10  24  46  65  99 137 173 241 286 347 415
#     4  10  25  42  68  97 135 175 224 285 343 415
#     4  11  25  44  71  97 138 189 231 297 345 420
#     4  10  23  42  71  98 138 180 220 288 342 422
#     4  12  25  43  71  97 138 184 230 284 349 416
#     4  11  23  45  70  99 140 181 227 284 358 400
#     4  12  26  43  70 106 138 180 231 290 347 421
#     4  10  22  45  65 102 137 174 234 277 344 418
#
# _framework density 24.468978
#
# number of rings (size 3 to 8) (size 9 to 14) (size 15 to 20)
#    0.000    1.250    1.250    3.375    8.750    3.000 
#    0.000    1.250    0.000    0.000    0.000    0.000 
#    0.000    0.000    0.000    0.000    0.000    0.000 
#
# Total GULP energy -89424.484949 kJ/mol
# GULP energy per Si atom -5589.030309 kJ/mol
# Density = 2.441329 g / cm^3
# Si number density = 24.468978 Si / 1000 Ang^3
#
#
#
# Elastic Constant Matrix: (Units=GPa)
#
#
# Indices 1 2 3 4 5 6 
#
# 1 96.9137 2.7850 33.0308 10.3450 15.5921 -14.1393
# 2 2.7850 87.4840 28.1691 33.4371 3.6485 4.6935
# 3 33.0308 28.1691 158.6686 44.0117 -2.1452 7.7524
# 4 10.3450 33.4371 44.0117 51.6387 5.1576 -0.9252
# 5 15.5921 3.6485 -2.1452 5.1576 45.4118 5.5795
# 6 -14.1393 4.6935 7.7524 -0.9252 5.5795 46.4732
#
#
#
# Elastic Compliance Matrix: (Units=1/GPa)
#
#
# Indices 1 2 3 4 5 6 
#
# 1 0.012950 0.000369 -0.003233 0.000544 -0.005316 0.005091
# 2 0.000369 0.015345 0.000084 -0.010111 -0.000004 -0.001652
# 3 -0.003233 0.000084 0.009263 -0.007634 0.002779 -0.003023
# 4 0.000544 -0.010111 -0.007634 0.032763 -0.003896 0.003580
# 5 -0.005316 -0.000004 0.002779 -0.003896 0.025055 -0.005166
# 6 0.005091 -0.001652 -0.003023 0.003580 -0.005166 0.024429
#
#
# Mechanical properties :
#
#
# Convention : Reuss Voigt Hill
#
# Bulk Modulus (GPa) = 31.25083 52.33735 41.79409
# Shear Modulus (GPa) = 36.75650 47.31017 42.03334
#
# Velocity S-wave (km/s) = 3.87999 4.40190 4.14916
# Velocity P-wave (km/s) = 5.73339 6.87542 6.33021
#
# Compressibility (1/GPa) = 0.03199915
#
# Stress axis : x y z
#
# Youngs Moduli (GPa) = 77.22226 65.16690 107.95400
#
# Poissons Ratio (x) = -0.02407 0.34900
# Poissons Ratio (y) = -0.02852 -0.00908
# Poissons Ratio (z) = 0.24965 -0.00548
#
# Static dielectric constant tensor:
#      x y z
#    x 1.970910 -0.030210 0.077510 
#    y -0.030210 1.949430 0.028370 
#    z 0.077510 0.028370 1.842560 
# 
# From -- ./inp_files/98613.got.cif
#   From: 2010.05.17/outbox.cif.g08.bks.cpg/sg2_50_cif.got.tgz:98613.got - 2010.06.03 11:33:40.
