data_PCOD9034600
_publ_section_title
;
Structure prediction by ZEFSAII (Michael W. Deem and Ramdas Pophale) SiO2 
 PCOD9034600
Probable space group: P -1
;
_chemical_formula_sum "Si O2"
_cell_formula_units_Z 16
_cell_length_a 7.802694
_cell_length_b 13.397441
_cell_length_c 14.662787
_cell_angle_alpha 105.940127
_cell_angle_beta 70.997569
_cell_angle_gamma 47.482922
_cell_volume 752.429606
_symmetry_space_group_name_H-M "P -1"
_symmetry_group_IT_number 2
_symmetry_cell_setting 'triclinic'
loop_
_space_group_symop_operation_xyz
x,y,z
-x,-y,-z
loop_
_atom_site_type_symbol
_atom_site_label
_atom_site_fract_x
_atom_site_fract_y
_atom_site_fract_z
Si Si1 0.202247 0.437196 0.730317
Si Si2 0.727676 0.224669 0.099163
Si Si3 0.357622 0.955973 0.408933
Si Si4 0.854393 0.597862 0.647544
Si Si5 0.225817 0.178149 0.022879
Si Si6 0.194933 0.830595 0.321816
Si Si7 0.683670 0.301678 0.928112
Si Si8 0.555506 0.008300 0.241378
O O1 0.287222 0.276028 0.700076
O O2 0.531289 0.333241 0.690487
O O3 0.142634 0.468716 0.641116
O O4 0.905393 0.647377 0.878284
O O5 0.426148 0.346322 0.251253
O O6 0.926349 0.236407 0.085580
O O7 0.578579 0.301299 0.041729
O O8 0.000000 0.000000 0.000000
O O9 0.151516 0.973707 0.385427
O O10 0.389779 0.044219 0.369770
O O11 0.151988 0.058698 0.564526
O O12 0.000000 0.500000 0.500000
O O13 0.663088 0.798774 0.720099
O O14 0.375085 0.111166 0.878224
O O15 0.500000 0.000000 0.000000
O O16 0.347610 0.740121 0.173519
O O17 0.082401 0.122957 0.827277
O O18 0.500000 0.500000 0.000000
#
# Coordination Sequence:
#
# PCOD9034600 Si02
#       8
#     2   2   2   2   2   2   2   2
#     4  10  22  45  65  95 132 171 225 272 326 407
#     4  11  23  45  67  98 137 182 220 279 335 393
#     4   9  23  41  67  92 134 169 222 274 339 391
#     4  12  27  46  67 101 140 179 225 273 341 411
#     4  11  21  42  68  95 134 171 231 276 326 394
#     4   9  21  44  66  95 130 173 220 273 341 395
#     4  11  24  40  69  96 130 169 233 273 334 398
#     4  11  24  43  62 102 131 176 222 277 336 396
#
# _framework density 21.264448000000002
#
# number of rings (size 3 to 8) (size 9 to 14) (size 15 to 20)
#    0.750    0.750    3.750    1.500    3.500    5.000 
#    2.250    1.250    0.000    0.000    0.000    0.000 
#    0.000    0.000    0.000    0.000    0.000    0.000 
#
# Total GULP energy -89244.953131 kJ/mol
# GULP energy per Si atom -5577.809571 kJ/mol
# Density = 2.121605 g / cm^3
# Si number density = 21.264448 Si / 1000 Ang^3
#
#
#
# Elastic Constant Matrix: (Units=GPa)
#
#
# Indices 1 2 3 4 5 6 
#
# 1 55.5507 28.1149 27.8339 -17.3261 -2.0068 -10.5661
# 2 28.1149 112.3211 23.9429 -8.7836 -2.6282 -13.0406
# 3 27.8339 23.9429 101.9702 -28.7554 3.0364 -9.5084
# 4 -17.3261 -8.7836 -28.7554 37.0473 -1.6244 0.7028
# 5 -2.0068 -2.6282 3.0364 -1.6244 34.9215 -11.2668
# 6 -10.5661 -13.0406 -9.5084 0.7028 -11.2668 35.4408
#
#
#
# Elastic Compliance Matrix: (Units=1/GPa)
#
#
# Indices 1 2 3 4 5 6 
#
# 1 0.025779 -0.004285 -0.003108 0.008678 0.003877 0.006335
# 2 -0.004285 0.010560 -0.001218 -0.000432 0.001530 0.002776
# 3 -0.003108 -0.001218 0.013609 0.008765 -0.000410 0.001972
# 4 0.008678 -0.000432 0.008765 0.037792 0.003078 0.005009
# 5 0.003877 0.001530 -0.000410 0.003078 0.033041 0.012052
# 6 0.006335 0.002776 0.001972 0.005009 0.012052 0.035387
#
#
# Mechanical properties :
#
#
# Convention : Reuss Voigt Hill
#
# Bulk Modulus (GPa) = 30.55776 47.73615 39.14696
# Shear Modulus (GPa) = 27.12970 34.14528 30.63749
#
# Velocity S-wave (km/s) = 3.57574 4.01152 3.79988
# Velocity P-wave (km/s) = 5.60798 6.62978 6.14017
#
# Compressibility (1/GPa) = 0.03272491
#
# Stress axis : x y z
#
# Youngs Moduli (GPa) = 38.79057 94.69953 73.48006
#
# Poissons Ratio (x) = 0.40582 0.22839
# Poissons Ratio (y) = 0.16623 0.08951
# Poissons Ratio (z) = 0.12057 0.11536
#
# Static dielectric constant tensor:
#      x y z
#    x 1.804570 -0.020030 -0.001790 
#    y -0.020030 1.772820 -0.028590 
#    z -0.001790 -0.028590 1.851160 
# 
# From -- ./inp_files/505432.got.cif
#   From: 2010.05.17/outbox.cif.g08.bks.cpg/sg2_253_cif.got.tgz:505432.got - 2010.06.03 11:33:40.
