data_PCOD9034322
_publ_section_title
;
Structure prediction by ZEFSAII (Michael W. Deem and Ramdas Pophale) SiO2 
 PCOD9034322
Probable space group: P -1
;
_chemical_formula_sum "Si O2"
_cell_formula_units_Z 16
_cell_length_a 15.306379
_cell_length_b 9.114541
_cell_length_c 8.102795
_cell_angle_alpha 104.116596
_cell_angle_beta 97.395672
_cell_angle_gamma 40.608641
_cell_volume 710.704046
_symmetry_space_group_name_H-M "P -1"
_symmetry_group_IT_number 2
_symmetry_cell_setting 'triclinic'
loop_
_space_group_symop_operation_xyz
x,y,z
-x,-y,-z
loop_
_atom_site_type_symbol
_atom_site_label
_atom_site_fract_x
_atom_site_fract_y
_atom_site_fract_z
Si Si1 0.918329 0.737172 0.329139
Si Si2 0.209872 0.224179 0.186401
Si Si3 0.225511 0.926893 0.913002
Si Si4 0.861640 0.111349 0.568093
Si Si5 0.495553 0.888000 0.321617
Si Si6 0.599132 0.439085 0.372509
Si Si7 0.144297 0.760947 0.030488
Si Si8 0.745250 0.700257 0.144314
O O1 0.815137 0.730080 0.292891
O O2 0.071068 0.478027 0.285341
O O3 0.888403 0.874578 0.192218
O O4 0.885825 0.897674 0.510608
O O5 0.341216 0.085859 0.283836
O O6 0.248629 0.228671 0.012328
O O7 0.199640 0.059121 0.104060
O O8 0.362600 0.751174 0.791925
O O9 0.235494 0.743501 0.928970
O O10 0.737188 0.303007 0.466241
O O11 0.834782 0.221968 0.769160
O O12 0.000000 0.000000 0.500000
O O13 0.538003 0.665712 0.332130
O O14 0.601404 0.820358 0.196646
O O15 0.500000 0.000000 0.500000
O O16 0.500000 0.500000 0.500000
O O17 0.162317 0.565165 0.934552
O O18 0.000000 0.000000 0.000000
#
# Coordination Sequence:
#
# PCOD9034322 Si02
#       8
#     2   2   2   2   2   2   2   2
#     4  10  23  47  74 105 142 185 228 293 359 419
#     4  11  24  45  72 102 141 188 233 286 358 419
#     4  10  22  44  73 102 133 178 246 290 346 415
#     4  11  26  45  77 103 140 183 239 290 358 411
#     4  12  30  44  68 102 146 186 237 285 351 431
#     4  11  27  50  70  99 142 189 234 291 354 419
#     4  12  23  40  73 107 136 177 236 300 345 412
#     4  11  24  47  71 104 146 182 233 296 355 416
#
# _framework density 22.512888
#
# number of rings (size 3 to 8) (size 9 to 14) (size 15 to 20)
#    0.000    1.000    1.250    5.625   10.500    1.500 
#    0.000    1.875    0.000    0.000    0.000    0.000 
#    0.000    0.000    0.000    0.000    0.000    0.000 
#
# Total GULP energy -89395.447701 kJ/mol
# GULP energy per Si atom -5587.215481 kJ/mol
# Density = 2.246165 g / cm^3
# Si number density = 22.512888 Si / 1000 Ang^3
#
#
#
# Elastic Constant Matrix: (Units=GPa)
#
#
# Indices 1 2 3 4 5 6 
#
# 1 83.7441 37.1001 5.0100 -2.8931 5.1701 1.1379
# 2 37.1001 97.1113 12.3414 10.0702 13.7139 -5.8537
# 3 5.0100 12.3414 42.4927 11.7612 14.1838 5.4585
# 4 -2.8931 10.0702 11.7612 32.1010 1.2404 10.1095
# 5 5.1701 13.7139 14.1838 1.2404 45.2012 6.4856
# 6 1.1379 -5.8537 5.4585 10.1095 6.4856 40.9423
#
#
#
# Elastic Compliance Matrix: (Units=1/GPa)
#
#
# Indices 1 2 3 4 5 6 
#
# 1 0.014925 -0.006272 -0.001118 0.004442 0.000766 -0.002381
# 2 -0.006272 0.014232 -0.001089 -0.005871 -0.003728 0.004395
# 3 -0.001118 -0.001089 0.029697 -0.010246 -0.008551 -0.000199
# 4 0.004442 -0.005871 -0.010246 0.040202 0.004862 -0.010294
# 5 0.000766 -0.003728 -0.008551 0.004862 0.026405 -0.004798
# 6 -0.002381 0.004395 -0.000199 -0.010294 -0.004798 0.028447
#
#
# Mechanical properties :
#
#
# Convention : Reuss Voigt Hill
#
# Bulk Modulus (GPa) = 23.86806 36.91677 30.39242
# Shear Modulus (GPa) = 27.05145 34.90868 30.98006
#
# Velocity S-wave (km/s) = 3.47017 3.94205 3.71361
# Velocity P-wave (km/s) = 5.16537 6.09535 5.64953
#
# Compressibility (1/GPa) = 0.04189699
#
# Stress axis : x y z
#
# Youngs Moduli (GPa) = 67.00031 70.26237 33.67300
#
# Poissons Ratio (x) = 0.44071 0.03763
# Poissons Ratio (y) = 0.42025 0.03667
# Poissons Ratio (z) = 0.07488 0.07652
#
# Static dielectric constant tensor:
#      x y z
#    x 2.065440 0.089230 -0.005510 
#    y 0.089230 1.834470 0.017120 
#    z -0.005510 0.017120 1.922460 
# 
# From -- ./inp_files/299235.got.cif
#   From: 2010.05.17/outbox.cif.g08.bks.cpg/sg2_150_cif.got.tgz:299235.got - 2010.06.03 11:33:40.
