data_PCOD9034353
_publ_section_title
;
Structure prediction by ZEFSAII (Michael W. Deem and Ramdas Pophale) SiO2 
 PCOD9034353
Probable space group: P -1
;
_chemical_formula_sum "Si O2"
_cell_formula_units_Z 16
_cell_length_a 5.064114
_cell_length_b 11.656356
_cell_length_c 11.668029
_cell_angle_alpha 119.653491
_cell_angle_beta 87.182773
_cell_angle_gamma 96.071359
_cell_volume 595.188416
_symmetry_space_group_name_H-M "P -1"
_symmetry_group_IT_number 2
_symmetry_cell_setting 'triclinic'
loop_
_space_group_symop_operation_xyz
x,y,z
-x,-y,-z
loop_
_atom_site_type_symbol
_atom_site_label
_atom_site_fract_x
_atom_site_fract_y
_atom_site_fract_z
Si Si1 0.282760 0.888636 0.404936
Si Si2 0.971057 0.488321 0.280089
Si Si3 0.613323 0.358922 0.393050
Si Si4 0.946904 0.036677 0.324603
Si Si5 0.728643 0.417461 0.011612
Si Si6 0.455005 0.125749 0.904506
Si Si7 0.499677 0.348216 0.633951
Si Si8 0.730669 0.867619 0.842532
O O1 0.426675 0.756092 0.327034
O O2 0.145390 0.933498 0.316182
O O3 0.500000 0.000000 0.500000
O O4 0.082710 0.884359 0.516684
O O5 0.895841 0.406088 0.355294
O O6 0.821278 0.417858 0.142709
O O7 0.800002 0.616544 0.349071
O O8 0.282967 0.526882 0.285036
O O9 0.500000 0.500000 0.500000
O O10 0.582335 0.289256 0.481488
O O11 0.464928 0.257172 0.257745
O O12 0.701266 0.945130 0.233209
O O13 0.038835 0.125105 0.255733
O O14 0.500000 0.500000 0.000000
O O15 0.611982 0.263791 0.932431
O O16 0.000000 0.500000 0.000000
O O17 0.628129 0.012592 0.895248
O O18 0.252045 0.148638 0.028072
#
# Coordination Sequence:
#
# PCOD9034353 Si02
#       8
#     2   2   2   2   2   2   2   2
#     4  11  26  44  69 107 151 198 260 321 386 477
#     4  11  25  47  68 108 142 196 251 317 383 468
#     4  10  22  44  73 108 150 195 256 323 391 462
#     4  11  25  43  75 108 150 204 257 320 395 470
#     4  12  29  51  78 111 157 209 263 325 389 473
#     4  11  26  49  76 114 155 206 265 326 394 481
#     4  11  25  43  74 103 146 196 247 315 396 451
#     4  11  24  49  76 112 157 200 265 325 400 470
#
# _framework density 26.882245999999999
#
# number of rings (size 3 to 8) (size 9 to 14) (size 15 to 20)
#    0.000    1.000    1.250    3.750   10.500    2.000 
#    4.500    0.000    0.000    0.000    0.000    0.000 
#    0.000    0.000    0.000    0.000    0.000    0.000 
#
# Total GULP energy -89398.060075 kJ/mol
# GULP energy per Si atom -5587.378755 kJ/mol
# Density = 2.682106 g / cm^3
# Si number density = 26.882246 Si / 1000 Ang^3
#
#
#
# Elastic Constant Matrix: (Units=GPa)
#
#
# Indices 1 2 3 4 5 6 
#
# 1 100.4620 51.5928 9.0648 3.9006 15.3549 4.0529
# 2 51.5928 181.1255 38.3632 16.7189 -4.5696 5.9633
# 3 9.0648 38.3632 141.6530 -18.1160 11.7450 17.3299
# 4 3.9006 16.7189 -18.1160 48.9794 11.3822 7.0966
# 5 15.3549 -4.5696 11.7450 11.3822 35.9933 -0.4070
# 6 4.0529 5.9633 17.3299 7.0966 -0.4070 55.2848
#
#
#
# Elastic Compliance Matrix: (Units=1/GPa)
#
#
# Indices 1 2 3 4 5 6 
#
# 1 0.013272 -0.004554 0.001600 0.003101 -0.007759 -0.001438
# 2 -0.004554 0.008046 -0.003128 -0.005001 0.005579 0.001129
# 3 0.001600 -0.003128 0.009607 0.006491 -0.006309 -0.003671
# 4 0.003101 -0.005001 0.006491 0.028089 -0.013020 -0.005424
# 5 -0.007759 0.005579 -0.006309 -0.013020 0.038021 0.003896
# 6 -0.001438 0.001129 -0.003671 -0.005424 0.003896 0.019947
#
#
# Mechanical properties :
#
#
# Convention : Reuss Voigt Hill
#
# Bulk Modulus (GPa) = 53.30378 69.03133 61.16756
# Shear Modulus (GPa) = 36.92769 49.66615 43.29692
#
# Velocity S-wave (km/s) = 3.71034 4.30297 4.01760
# Velocity P-wave (km/s) = 6.18282 7.10087 6.65768
#
# Compressibility (1/GPa) = 0.01876040
#
# Stress axis : x y z
#
# Youngs Moduli (GPa) = 75.34747 124.28740 104.09495
#
# Poissons Ratio (x) = 0.56599 -0.16654
# Poissons Ratio (y) = 0.34312 0.32560
# Poissons Ratio (z) = -0.12054 0.38876
#
# Static dielectric constant tensor:
#      x y z
#    x 2.172680 -0.030290 -0.162440 
#    y -0.030290 1.785210 -0.100280 
#    z -0.162440 -0.100280 2.179410 
# 
# From -- ./inp_files/365032.got.cif
#   From: 2010.05.17/outbox.cif.g08.bks.cpg/sg2_183_cif.got.tgz:365032.got - 2010.06.03 11:33:40.
