data_PCOD9034225
_publ_section_title
;
Structure prediction by ZEFSAII (Michael W. Deem and Ramdas Pophale) SiO2 
 PCOD9034225
Probable space group: P -1
;
_chemical_formula_sum "Si O2"
_cell_formula_units_Z 16
_cell_length_a 17.569680
_cell_length_b 10.749048
_cell_length_c 7.850130
_cell_angle_alpha 125.028347
_cell_angle_beta 147.523656
_cell_angle_gamma 46.674890
_cell_volume 579.066551
_symmetry_space_group_name_H-M "P -1"
_symmetry_group_IT_number 2
_symmetry_cell_setting 'triclinic'
loop_
_space_group_symop_operation_xyz
x,y,z
-x,-y,-z
loop_
_atom_site_type_symbol
_atom_site_label
_atom_site_fract_x
_atom_site_fract_y
_atom_site_fract_z
Si Si1 0.039452 0.402102 0.319454
Si Si2 0.677632 0.504794 0.689149
Si Si3 0.604026 0.538224 0.974797
Si Si4 0.845029 0.996903 0.796294
Si Si5 0.006468 0.337261 0.784895
Si Si6 0.619523 0.857591 0.744187
Si Si7 0.611368 0.122574 0.147354
Si Si8 0.786630 0.179735 0.201159
O O1 0.105035 0.530057 0.467194
O O2 0.000000 0.500000 0.500000
O O3 0.132079 0.198385 0.315508
O O4 0.863970 0.431643 0.946880
O O5 0.661127 0.500040 0.857528
O O6 0.588359 0.408289 0.362460
O O7 0.590993 0.694629 0.596333
O O8 0.568834 0.728306 0.106207
O O9 0.666973 0.376645 0.086800
O O10 0.699238 0.102831 0.477386
O O11 0.816629 0.080737 0.997659
O O12 0.000000 0.000000 0.000000
O O13 0.938329 0.203227 0.573012
O O14 0.194108 0.225955 0.020815
O O15 0.000000 0.500000 0.000000
O O16 0.500000 0.000000 0.500000
O O17 0.603312 0.945132 0.964425
O O18 0.718801 0.116123 0.179062
#
# Coordination Sequence:
#
# PCOD9034225 Si02
#       8
#     2   2   2   2   2   2   2   2
#     4  11  23  46  73 107 148 197 255 312 383 460
#     4  10  22  44  72 104 146 192 258 306 373 464
#     4  11  23  45  73 103 143 205 250 312 384 447
#     4  12  25  44  74 107 150 194 244 322 380 442
#     4  11  28  47  75 109 149 205 251 309 392 463
#     4  11  26  47  72 112 155 192 254 318 379 459
#     4  12  28  45  76 112 151 200 258 315 384 456
#     4  12  28  49  75 113 153 196 264 316 383 467
#
# _framework density 27.630673999999999
#
# number of rings (size 3 to 8) (size 9 to 14) (size 15 to 20)
#    0.000    0.750    0.000    7.875    8.750    1.500 
#    0.000    2.500    0.000    0.000    0.000    0.000 
#    0.000    0.000    0.000    0.000    0.000    0.000 
#
# Total GULP energy -89374.072283 kJ/mol
# GULP energy per Si atom -5585.879518 kJ/mol
# Density = 2.756779 g / cm^3
# Si number density = 27.630674 Si / 1000 Ang^3
#
#
#
# Elastic Constant Matrix: (Units=GPa)
#
#
# Indices 1 2 3 4 5 6 
#
# 1 102.0697 36.7610 25.1697 13.4304 -7.7726 -2.2635
# 2 36.7610 183.9326 30.1937 -19.4811 -13.6940 -1.8292
# 3 25.1697 30.1937 77.1102 -9.3017 -6.2481 -3.3995
# 4 13.4304 -19.4811 -9.3017 56.0161 -3.2889 -8.9070
# 5 -7.7726 -13.6940 -6.2481 -3.2889 52.0670 9.8449
# 6 -2.2635 -1.8292 -3.3995 -8.9070 9.8449 55.0048
#
#
#
# Elastic Compliance Matrix: (Units=1/GPa)
#
#
# Indices 1 2 3 4 5 6 
#
# 1 0.012091 -0.002250 -0.003565 -0.004334 0.000627 -0.000612
# 2 -0.002250 0.006497 -0.001367 0.002688 0.001334 0.000235
# 3 -0.003565 -0.001367 0.015167 0.003125 0.000920 0.001086
# 4 -0.004334 0.002688 0.003125 0.020935 0.001135 0.003291
# 5 0.000627 0.001334 0.000920 0.001135 0.020467 -0.003352
# 6 -0.000612 0.000235 0.001086 0.003291 -0.003352 0.019363
#
#
# Mechanical properties :
#
#
# Convention : Reuss Voigt Hill
#
# Bulk Modulus (GPa) = 51.56764 60.81796 56.19280
# Shear Modulus (GPa) = 43.34804 50.68346 47.01575
#
# Velocity S-wave (km/s) = 3.96515 4.28754 4.12949
# Velocity P-wave (km/s) = 6.29817 6.82418 6.56645
#
# Compressibility (1/GPa) = 0.01939201
#
# Stress axis : x y z
#
# Youngs Moduli (GPa) = 82.70672 153.91359 65.93417
#
# Poissons Ratio (x) = 0.34626 0.23503
# Poissons Ratio (y) = 0.18607 0.09013
# Poissons Ratio (z) = 0.29482 0.21040
#
# Static dielectric constant tensor:
#      x y z
#    x 2.283650 -0.129310 -0.141280 
#    y -0.129310 1.958670 0.273090 
#    z -0.141280 0.273090 2.333810 
# 
# From -- ./inp_files/346420.got.cif
#   From: 2010.05.17/outbox.cif.g08.bks.cpg/sg2_174_cif.got.tgz:346420.got - 2010.06.03 11:33:40.
