data_PCOD9034478
_publ_section_title
;
Structure prediction by ZEFSAII (Michael W. Deem and Ramdas Pophale) SiO2 
 PCOD9034478
Probable space group: P -1
;
_chemical_formula_sum "Si O2"
_cell_formula_units_Z 16
_cell_length_a 5.434574
_cell_length_b 15.806669
_cell_length_c 23.366195
_cell_angle_alpha 26.960215
_cell_angle_beta 110.277369
_cell_angle_gamma 94.438846
_cell_volume 716.053402
_symmetry_space_group_name_H-M "P -1"
_symmetry_group_IT_number 2
_symmetry_cell_setting 'triclinic'
loop_
_space_group_symop_operation_xyz
x,y,z
-x,-y,-z
loop_
_atom_site_type_symbol
_atom_site_label
_atom_site_fract_x
_atom_site_fract_y
_atom_site_fract_z
Si Si1 0.249723 0.299857 0.335290
Si Si2 0.213039 0.977693 0.975371
Si Si3 0.450627 0.506621 0.305976
Si Si4 0.417305 0.622995 0.788297
Si Si5 0.424665 0.070441 0.332971
Si Si6 0.266586 0.562028 0.390366
Si Si7 0.261790 0.714699 0.890177
Si Si8 0.848483 0.808588 0.428172
O O1 0.203287 0.458509 0.289008
O O2 0.396169 0.362521 0.258434
O O3 0.925923 0.322532 0.283538
O O4 0.515045 0.057364 0.526073
O O5 0.383599 0.715963 0.136606
O O6 0.500000 0.000000 0.000000
O O7 0.000000 0.000000 0.000000
O O8 0.005852 0.173419 0.794672
O O9 0.414867 0.534955 0.354910
O O10 0.809042 0.307732 0.446329
O O11 0.394056 0.805906 0.720142
O O12 0.636718 0.384518 0.978573
O O13 0.070650 0.233177 0.189182
O O14 0.580625 0.890622 0.404280
O O15 0.500000 0.500000 0.500000
O O16 0.153424 0.387801 0.487993
O O17 0.235737 0.951240 0.746801
O O18 0.500000 0.500000 0.000000
#
# Coordination Sequence:
#
# PCOD9034478 Si02
#       8
#     2   2   2   2   2   2   2   2
#     4  12  26  45  74 108 150 194 250 310 363 447
#     4  10  22  44  76 104 142 184 230 298 374 449
#     4  11  24  47  73 108 144 197 242 306 387 445
#     4  12  28  44  70 111 150 195 258 306 360 435
#     4  12  25  46  75 102 149 204 251 306 377 441
#     4  11  25  47  77 111 143 186 250 313 378 454
#     4  12  26  46  72 106 153 206 251 307 373 439
#     4  12  23  45  79  99 151 194 253 298 385 441
#
# _framework density 22.344704
#
# number of rings (size 3 to 8) (size 9 to 14) (size 15 to 20)
#    0.000    0.500    5.000    2.625    1.750    1.500 
#    2.250    0.000    0.000    0.000    0.000    0.000 
#    0.000    0.000    0.000    0.000    0.000    0.000 
#
# Total GULP energy -89259.962329 kJ/mol
# GULP energy per Si atom -5578.747646 kJ/mol
# Density = 2.229385 g / cm^3
# Si number density = 22.344704 Si / 1000 Ang^3
#
#
#
# Elastic Constant Matrix: (Units=GPa)
#
#
# Indices 1 2 3 4 5 6 
#
# 1 123.6877 37.7847 65.4077 14.1984 10.9471 27.7865
# 2 37.7847 84.8398 50.6144 12.6057 -1.5871 32.7594
# 3 65.4077 50.6144 207.5618 12.2885 -11.8244 17.9243
# 4 14.1984 12.6057 12.2885 36.3309 13.7609 -1.6381
# 5 10.9471 -1.5871 -11.8244 13.7609 44.9323 -0.9389
# 6 27.7865 32.7594 17.9243 -1.6381 -0.9389 47.8729
#
#
#
# Elastic Compliance Matrix: (Units=1/GPa)
#
#
# Indices 1 2 3 4 5 6 
#
# 1 0.011688 -0.001241 -0.003003 -0.002161 -0.003123 -0.004945
# 2 -0.001241 0.019652 -0.002867 -0.006669 0.002037 -0.011842
# 3 -0.003003 -0.002867 0.006568 -0.001017 0.002697 0.001264
# 4 -0.002161 -0.006669 -0.001017 0.035392 -0.010665 0.007201
# 5 -0.003123 0.002037 0.002697 -0.010665 0.027056 -0.000425
# 6 -0.004945 -0.011842 0.001264 0.007201 -0.000425 0.031627
#
#
# Mechanical properties :
#
#
# Convention : Reuss Voigt Hill
#
# Bulk Modulus (GPa) = 42.22349 80.41142 61.31745
# Shear Modulus (GPa) = 32.44615 43.31272 37.87944
#
# Velocity S-wave (km/s) = 3.81474 4.40749 4.12179
# Velocity P-wave (km/s) = 6.19197 7.87186 7.08190
#
# Compressibility (1/GPa) = 0.02368350
#
# Stress axis : x y z
#
# Youngs Moduli (GPa) = 85.56002 50.88508 152.24895
#
# Poissons Ratio (x) = 0.06317 0.45725
# Poissons Ratio (y) = 0.10622 0.43657
# Poissons Ratio (z) = 0.25696 0.14591
#
# Static dielectric constant tensor:
#      x y z
#    x 1.866170 -0.041130 -0.072890 
#    y -0.041130 1.888820 -0.093770 
#    z -0.072890 -0.093770 1.857710 
# 
# From -- ./inp_files/604745.got.cif
#   From: 2010.05.17/outbox.cif.g08.bks.cpg/sg2_303_cif.got.tgz:604745.got - 2010.06.03 11:33:40.
