data_PCOD9034385
_publ_section_title
;
Structure prediction by ZEFSAII (Michael W. Deem and Ramdas Pophale) SiO2 
 PCOD9034385
Probable space group: P -1
;
_chemical_formula_sum "Si O2"
_cell_formula_units_Z 16
_cell_length_a 11.184658
_cell_length_b 9.318647
_cell_length_c 15.059102
_cell_angle_alpha 62.869742
_cell_angle_beta 32.207880
_cell_angle_gamma 56.647032
_cell_volume 698.627639
_symmetry_space_group_name_H-M "P -1"
_symmetry_group_IT_number 2
_symmetry_cell_setting 'triclinic'
loop_
_space_group_symop_operation_xyz
x,y,z
-x,-y,-z
loop_
_atom_site_type_symbol
_atom_site_label
_atom_site_fract_x
_atom_site_fract_y
_atom_site_fract_z
Si Si1 0.769373 0.462922 0.693187
Si Si2 0.182051 0.984043 0.469179
Si Si3 0.111110 0.633376 0.847814
Si Si4 0.451423 0.827773 0.858176
Si Si5 0.151641 0.165879 0.618015
Si Si6 0.320784 0.089809 0.009166
Si Si7 0.698965 0.110095 0.249759
Si Si8 0.549142 0.338324 0.691441
O O1 0.691216 0.219316 0.555897
O O2 0.668792 0.391884 0.689099
O O3 0.000000 0.500000 0.500000
O O4 0.909481 0.328572 0.719395
O O5 0.326152 0.105178 0.311082
O O6 0.114478 0.050411 0.592077
O O7 0.000000 0.000000 0.500000
O O8 0.159259 0.765514 0.848831
O O9 0.377263 0.504718 0.701867
O O10 0.000000 0.500000 0.000000
O O11 0.933819 0.761338 0.852417
O O12 0.282391 0.917154 0.858150
O O13 0.564631 0.624655 0.821756
O O14 0.319220 0.923560 0.001656
O O15 0.408125 0.192248 0.428705
O O16 0.205325 0.060811 0.704416
O O17 0.430229 0.206904 0.846862
O O18 0.500000 0.000000 0.000000
#
# Coordination Sequence:
#
# PCOD9034385 Si02
#       8
#     2   2   2   2   2   2   2   2
#     4  12  18  35  61  91 122 157 194 238 304 367
#     4  10  17  32  56  90 122 159 195 230 307 370
#     4  10  21  40  63  80 115 166 204 257 298 353
#     4  10  21  37  60  85 118 160 201 245 305 371
#     4  10  21  33  59  94 128 158 189 254 301 368
#     4  10  24  42  61  86 114 154 209 259 307 353
#     4  10  20  38  57  89 123 154 205 242 309 364
#     4  10  20  36  60  85 118 156 202 243 297 368
#
# _framework density 22.90204
#
# number of rings (size 3 to 8) (size 9 to 14) (size 15 to 20)
#    0.000    1.750    5.000    0.000    1.750    0.500 
#    0.000    8.750    0.000    0.000    0.000    0.000 
#    0.000    0.000    0.000    0.000    0.000    0.000 
#
# Total GULP energy -89079.690194 kJ/mol
# GULP energy per Si atom -5567.480637 kJ/mol
# Density = 2.284991 g / cm^3
# Si number density = 22.902040 Si / 1000 Ang^3
#
#
#
# Elastic Constant Matrix: (Units=GPa)
#
#
# Indices 1 2 3 4 5 6 
#
# 1 120.4740 52.6587 10.3046 13.1238 -9.4764 -27.2724
# 2 52.6587 126.0579 26.9323 20.1630 -2.7126 -17.2020
# 3 10.3046 26.9323 33.1505 -1.4444 -4.6742 -6.1566
# 4 13.1238 20.1630 -1.4444 42.2932 6.7565 -13.7684
# 5 -9.4764 -2.7126 -4.6742 6.7565 25.8302 -3.8383
# 6 -27.2724 -17.2020 -6.1566 -13.7684 -3.8383 53.6272
#
#
#
# Elastic Compliance Matrix: (Units=1/GPa)
#
#
# Indices 1 2 3 4 5 6 
#
# 1 0.011620 -0.004271 0.001435 -0.000731 0.004990 0.004874
# 2 -0.004271 0.012370 -0.009146 -0.004959 -0.000712 -0.000578
# 3 0.001435 -0.009146 0.038977 0.005675 0.005750 0.004139
# 4 -0.000731 -0.004959 0.005675 0.029354 -0.006585 0.005754
# 5 0.004990 -0.000712 0.005750 -0.006585 0.043890 0.004420
# 6 0.004874 -0.000578 0.004139 0.005754 0.004420 0.023209
#
#
# Mechanical properties :
#
#
# Convention : Reuss Voigt Hill
#
# Bulk Modulus (GPa) = 25.63966 51.05260 38.34613
# Shear Modulus (GPa) = 25.46010 37.00259 31.23134
#
# Velocity S-wave (km/s) = 3.33783 4.02392 3.69683
# Velocity P-wave (km/s) = 5.10631 6.62793 5.91624
#
# Compressibility (1/GPa) = 0.03900208
#
# Stress axis : x y z
#
# Youngs Moduli (GPa) = 86.05730 80.84006 25.65647
#
# Poissons Ratio (x) = 0.34530 -0.03681
# Poissons Ratio (y) = 0.36758 0.23465
# Poissons Ratio (z) = -0.12348 0.73935
#
# Static dielectric constant tensor:
#      x y z
#    x 1.760650 -0.104020 -0.017150 
#    y -0.104020 1.926510 0.086970 
#    z -0.017150 0.086970 1.986390 
# 
# From -- ./inp_files/494807.got.cif
#   From: 2010.05.17/outbox.cif.g08.bks.cpg/sg2_248_cif.got.tgz:494807.got - 2010.06.03 11:33:40.
