data_PCOD9034510
_publ_section_title
;
Structure prediction by ZEFSAII (Michael W. Deem and Ramdas Pophale) SiO2 
 PCOD9034510
Probable space group: P -1
;
_chemical_formula_sum "Si O2"
_cell_formula_units_Z 12
_cell_length_a 5.222628
_cell_length_b 12.985607
_cell_length_c 16.180252
_cell_angle_alpha 29.406846
_cell_angle_beta 75.254132
_cell_angle_gamma 67.185333
_cell_volume 488.167561
_symmetry_space_group_name_H-M "P -1"
_symmetry_group_IT_number 2
_symmetry_cell_setting 'triclinic'
loop_
_space_group_symop_operation_xyz
x,y,z
-x,-y,-z
loop_
_atom_site_type_symbol
_atom_site_label
_atom_site_fract_x
_atom_site_fract_y
_atom_site_fract_z
Si Si1 0.723613 0.058635 0.384306
Si Si2 0.738270 0.910396 0.918484
Si Si3 0.734770 0.258278 0.407918
Si Si4 0.744271 0.259856 0.879220
Si Si5 0.501897 0.937019 0.758213
Si Si6 0.027187 0.741366 0.320019
O O1 0.816108 0.206550 0.340498
O O2 0.500000 0.000000 0.500000
O O3 0.617226 0.179755 0.221972
O O4 0.962929 0.813725 0.521137
O O5 0.728785 0.812851 0.895577
O O6 0.728073 0.167929 0.728563
O O7 0.463168 0.885973 0.001223
O O8 0.024885 0.788157 0.032275
O O9 0.493788 0.495529 0.268129
O O10 0.618042 0.089479 0.584674
O O11 0.919926 0.232848 0.799580
O O12 0.243361 0.094315 0.724130
O O13 0.000000 0.500000 0.500000
#
# Coordination Sequence:
#
# PCOD9034510 Si02
#       6
#     2   2   2   2   2   2
#     4   9  21  43  73 106 140 190 250 311 351 422
#     4  12  28  48  68 109 159 197 232 304 374 441
#     4  10  22  44  77 105 143 189 258 298 360 429
#     4  12  28  46  74 110 155 192 238 304 380 426
#     4  11  23  45  73 104 146 194 249 296 359 436
#     4  12  26  48  75 108 144 199 252 298 353 444
#
# _framework density 24.581721000000002
#
# number of rings (size 3 to 8) (size 9 to 14) (size 15 to 20)
#    0.000    1.000    3.333    2.000    7.000    2.000 
#    0.000    1.667    0.000    0.000    0.000    0.000 
#    0.000    0.000    0.000    0.000    0.000    0.000 
#
# Total GULP energy -66853.068258 kJ/mol
# GULP energy per Si atom -5571.089022 kJ/mol
# Density = 2.452577 g / cm^3
# Si number density = 24.581721 Si / 1000 Ang^3
#
#
#
# Elastic Constant Matrix: (Units=GPa)
#
#
# Indices 1 2 3 4 5 6 
#
# 1 152.6032 36.1949 50.5579 23.7420 8.9804 -13.9015
# 2 36.1949 95.4379 28.1943 41.9120 26.9687 -8.4934
# 3 50.5579 28.1943 72.0877 29.7470 -12.7479 -3.0624
# 4 23.7420 41.9120 29.7470 41.6663 3.9239 16.9817
# 5 8.9804 26.9687 -12.7479 3.9239 48.0453 14.2437
# 6 -13.9015 -8.4934 -3.0624 16.9817 14.2437 45.8798
#
#
#
# Elastic Compliance Matrix: (Units=1/GPa)
#
#
# Indices 1 2 3 4 5 6 
#
# 1 0.010754 0.008579 -0.006270 -0.014662 -0.011249 0.013347
# 2 0.008579 0.080467 0.002063 -0.113568 -0.060177 0.078351
# 3 -0.006270 0.002063 0.027950 -0.021621 0.007401 0.006053
# 4 -0.014662 -0.113568 -0.021621 0.206858 0.082090 -0.128960
# 5 -0.011249 -0.060177 0.007401 0.082090 0.071731 -0.066708
# 6 0.013347 0.078351 0.006053 -0.128960 -0.066708 0.109192
#
#
# Mechanical properties :
#
#
# Convention : Reuss Voigt Hill
#
# Bulk Modulus (GPa) = 7.81767 61.11368 34.46567
# Shear Modulus (GPa) = 9.24479 40.79707 25.02093
#
# Velocity S-wave (km/s) = 1.94139 4.07830 3.19386
# Velocity P-wave (km/s) = 2.86575 6.86237 5.25855
#
# Compressibility (1/GPa) = 0.12791541
#
# Stress axis : x y z
#
# Youngs Moduli (GPa) = 92.98641 12.42749 35.77790
#
# Poissons Ratio (x) = -0.10661 0.22432
# Poissons Ratio (y) = -0.79773 -0.07380
# Poissons Ratio (z) = 0.58299 -0.02564
#
# Static dielectric constant tensor:
#      x y z
#    x 2.194490 0.129980 0.030200 
#    y 0.129980 2.036490 -0.045840 
#    z 0.030200 -0.045840 2.041760 
# 
# From -- ./inp_files/480955.got.cif
#   From: 2010.05.17/outbox.cif.g08.bks.cpg/sg2_241_cif.got.tgz:480955.got - 2010.06.03 11:33:40.
