data_PCOD9034619
_publ_section_title
;
Structure prediction by ZEFSAII (Michael W. Deem and Ramdas Pophale) SiO2 
 PCOD9034619
Probable space group: P -1
;
_chemical_formula_sum "Si O2"
_cell_formula_units_Z 16
_cell_length_a 18.780461
_cell_length_b 11.924502
_cell_length_c 12.721301
_cell_angle_alpha 50.576332
_cell_angle_beta 19.331379
_cell_angle_gamma 50.959580
_cell_volume 723.256916
_symmetry_space_group_name_H-M "P -1"
_symmetry_group_IT_number 2
_symmetry_cell_setting 'triclinic'
loop_
_space_group_symop_operation_xyz
x,y,z
-x,-y,-z
loop_
_atom_site_type_symbol
_atom_site_label
_atom_site_fract_x
_atom_site_fract_y
_atom_site_fract_z
Si Si1 0.744144 0.374385 0.032212
Si Si2 0.007553 0.057442 0.838690
Si Si3 0.283092 0.069989 0.822096
Si Si4 0.003914 0.438854 0.288779
Si Si5 0.282696 0.820559 0.125817
Si Si6 0.565509 0.593387 0.753271
Si Si7 0.508589 0.984345 0.873244
Si Si8 0.601447 0.723223 0.288178
O O1 0.582728 0.428813 0.128604
O O2 0.605207 0.352745 0.343889
O O3 0.916022 0.481648 0.766244
O O4 0.859890 0.212688 0.937806
O O5 0.248148 0.076399 0.459806
O O6 0.000000 0.000000 0.000000
O O7 0.913428 0.927787 0.984209
O O8 0.328385 0.212902 0.735521
O O9 0.500000 0.000000 0.500000
O O10 0.206491 0.965179 0.081968
O O11 0.888373 0.295245 0.564442
O O12 0.820961 0.545921 0.417684
O O13 0.207434 0.382455 0.967085
O O14 0.492987 0.753841 0.804904
O O15 0.352942 0.871523 0.111445
O O16 0.500000 0.500000 0.000000
O O17 0.456258 0.138478 0.791959
O O18 0.500000 0.000000 0.000000
#
# Coordination Sequence:
#
# PCOD9034619 Si02
#       8
#     2   2   2   2   2   2   2   2
#     4  12  24  48  72 101 143 186 246 300 343 436
#     4  12  23  44  75 106 132 186 239 300 367 419
#     4  11  21  42  72  97 135 178 237 299 351 417
#     4  11  27  43  70  99 146 191 230 289 370 424
#     4  10  22  45  66 100 138 181 236 294 356 424
#     4  10  23  44  68 101 135 186 239 286 345 432
#     4  11  26  41  70 107 143 177 238 307 361 427
#     4  11  25  45  66 100 142 186 235 295 359 431
#
# _framework density 22.122152
#
# number of rings (size 3 to 8) (size 9 to 14) (size 15 to 20)
#    0.000    1.000    3.750    1.875    3.500    6.500 
#    0.000    0.000    0.000    0.000    0.000    0.000 
#    0.000    0.000    0.000    0.000    0.000    0.000 
#
# Total GULP energy -89405.716439 kJ/mol
# GULP energy per Si atom -5587.857277 kJ/mol
# Density = 2.207180 g / cm^3
# Si number density = 22.122152 Si / 1000 Ang^3
#
#
#
# Elastic Constant Matrix: (Units=GPa)
#
#
# Indices 1 2 3 4 5 6 
#
# 1 166.0321 44.3527 41.4630 -10.7930 -19.7311 15.5069
# 2 44.3527 69.4151 43.4872 -3.3218 -12.5600 10.2313
# 3 41.4630 43.4872 90.7176 1.2649 -2.3407 3.1409
# 4 -10.7930 -3.3218 1.2649 52.6901 3.1637 -7.0899
# 5 -19.7311 -12.5600 -2.3407 3.1637 31.9527 -1.0324
# 6 15.5069 10.2313 3.1409 -7.0899 -1.0324 39.1997
#
#
#
# Elastic Compliance Matrix: (Units=1/GPa)
#
#
# Indices 1 2 3 4 5 6 
#
# 1 0.007972 -0.002750 -0.002181 0.001034 0.003516 -0.001982
# 2 -0.002750 0.024403 -0.010117 0.000227 0.006994 -0.004246
# 3 -0.002181 -0.010117 0.016717 -0.000996 -0.003939 0.001880
# 4 0.001034 0.000227 -0.000996 0.019724 -0.001196 0.003147
# 5 0.003516 0.006994 -0.003939 -0.001196 0.035976 -0.002169
# 6 -0.001982 -0.004246 0.001880 0.003147 -0.002169 0.027764
#
#
# Mechanical properties :
#
#
# Convention : Reuss Voigt Hill
#
# Bulk Modulus (GPa) = 52.63948 64.97452 58.80700
# Shear Modulus (GPa) = 29.58851 37.89262 33.74057
#
# Velocity S-wave (km/s) = 3.66116 4.14319 3.90961
# Velocity P-wave (km/s) = 6.45900 7.23343 6.85716
#
# Compressibility (1/GPa) = 0.01899715
#
# Stress axis : x y z
#
# Youngs Moduli (GPa) = 125.43542 40.97789 59.82001
#
# Poissons Ratio (x) = 0.11269 0.13044
# Poissons Ratio (y) = 0.34496 0.60520
# Poissons Ratio (z) = 0.27352 0.41457
#
# Static dielectric constant tensor:
#      x y z
#    x 1.836040 -0.032150 -0.018950 
#    y -0.032150 1.877670 -0.017100 
#    z -0.018950 -0.017100 1.864650 
# 
# From -- ./inp_files/465051.got.cif
#   From: 2010.05.17/outbox.cif.g08.bks.cpg/sg2_233_cif.got.tgz:465051.got - 2010.06.03 11:33:40.
