data_PCOD9034606
_publ_section_title
;
Structure prediction by ZEFSAII (Michael W. Deem and Ramdas Pophale) SiO2 
 PCOD9034606
Probable space group: P -1
;
_chemical_formula_sum "Si O2"
_cell_formula_units_Z 14
_cell_length_a 7.016645
_cell_length_b 16.878602
_cell_length_c 15.001486
_cell_angle_alpha 152.760867
_cell_angle_beta 46.508834
_cell_angle_gamma 125.261528
_cell_volume 586.732318
_symmetry_space_group_name_H-M "P -1"
_symmetry_group_IT_number 2
_symmetry_cell_setting 'triclinic'
loop_
_space_group_symop_operation_xyz
x,y,z
-x,-y,-z
loop_
_atom_site_type_symbol
_atom_site_label
_atom_site_fract_x
_atom_site_fract_y
_atom_site_fract_z
Si Si1 0.077173 0.022044 0.811947
Si Si2 0.734672 0.791050 0.585671
Si Si3 0.619730 0.661943 0.023781
Si Si4 0.563528 0.839903 0.388107
Si Si5 0.040040 0.438655 0.563573
Si Si6 0.972956 0.298014 0.782656
Si Si7 0.867971 0.226368 0.246696
O O1 0.169744 0.197462 0.915693
O O2 0.323457 0.876733 0.570746
O O3 0.835568 0.955967 0.769121
O O4 0.014261 0.076741 0.987867
O O5 0.780470 0.635613 0.487244
O O6 0.916702 0.744173 0.394193
O O7 0.430076 0.813471 0.680837
O O8 0.572341 0.668772 0.152285
O O9 0.335814 0.725237 0.136458
O O10 0.757243 0.501960 0.763558
O O11 0.841053 0.824023 0.333206
O O12 0.500000 0.000000 0.500000
O O13 0.140238 0.599593 0.639363
O O14 0.011579 0.288115 0.350002
O O15 0.000000 0.500000 0.000000
#
# Coordination Sequence:
#
# PCOD9034606 Si02
#       7
#     2   2   2   2   2   2   2
#     4  10  23  43  64  95 133 182 216 280 335 398
#     4  12  24  40  67 100 133 172 232 283 332 400
#     4  10  22  45  65  95 141 173 221 278 340 405
#     4  10  23  45  66  98 139 178 218 272 347 404
#     4  10  23  43  70  94 132 183 223 282 341 395
#     4  12  26  40  71 107 133 179 230 282 337 403
#     4  10  23  45  64  94 133 178 233 273 336 405
#
# _framework density 23.860966000000001
#
# number of rings (size 3 to 8) (size 9 to 14) (size 15 to 20)
#    0.000    1.429    1.429    2.571    4.000    4.000 
#    2.571    5.714    0.000    0.000    0.000    0.000 
#    0.000    0.000    0.000    0.000    0.000    0.000 
#
# Total GULP energy -78328.669448 kJ/mol
# GULP energy per Si atom -5594.904961 kJ/mol
# Density = 2.380666 g / cm^3
# Si number density = 23.860966 Si / 1000 Ang^3
#
#
#
# Elastic Constant Matrix: (Units=GPa)
#
#
# Indices 1 2 3 4 5 6 
#
# 1 131.8715 22.5747 33.7165 -6.1280 1.8769 -4.9275
# 2 22.5747 76.6001 31.4252 -2.2686 10.8880 0.5093
# 3 33.7165 31.4252 146.0868 -16.8110 38.7884 4.5406
# 4 -6.1280 -2.2686 -16.8110 43.1132 -1.5335 1.2492
# 5 1.8769 10.8880 38.7884 -1.5335 49.8628 -4.6227
# 6 -4.9275 0.5093 4.5406 1.2492 -4.6227 44.4034
#
#
#
# Elastic Compliance Matrix: (Units=1/GPa)
#
#
# Indices 1 2 3 4 5 6 
#
# 1 0.008470 -0.001922 -0.002026 0.000338 0.001812 0.001348
# 2 -0.001922 0.014795 -0.002443 -0.000486 -0.001297 -0.000254
# 3 -0.002026 -0.002443 0.010280 0.003387 -0.007480 -0.002122
# 4 0.000338 -0.000486 0.003387 0.024505 -0.001898 -0.001190
# 5 0.001812 -0.001297 -0.007480 -0.001898 0.026381 0.003781
# 6 0.001348 -0.000254 -0.002122 -0.001190 0.003781 0.023317
#
#
# Mechanical properties :
#
#
# Convention : Reuss Voigt Hill
#
# Bulk Modulus (GPa) = 48.15817 58.88790 53.52304
# Shear Modulus (GPa) = 39.23100 45.26534 42.24817
#
# Velocity S-wave (km/s) = 4.05921 4.36023 4.21241
# Velocity P-wave (km/s) = 6.49586 7.07687 6.79258
#
# Compressibility (1/GPa) = 0.02076491
#
# Stress axis : x y z
#
# Youngs Moduli (GPa) = 118.05909 67.59077 97.27645
#
# Poissons Ratio (x) = 0.12989 0.19704
# Poissons Ratio (y) = 0.22688 0.23763
# Poissons Ratio (z) = 0.23914 0.16511
#
# Static dielectric constant tensor:
#      x y z
#    x 1.873770 -0.042850 0.021050 
#    y -0.042850 1.988660 0.051480 
#    z 0.021050 0.051480 1.947250 
# 
# From -- ./inp_files/37506.got.cif
#   From: 2010.05.17/outbox.cif.g08.bks.cpg/sg2_19_cif.got.tgz:37506.got - 2010.06.03 11:33:40.
