data_PCOD9034897
_publ_section_title
;
Structure prediction by ZEFSAII (Michael W. Deem and Ramdas Pophale) SiO2 
 PCOD9034897
Probable space group: P -1
;
_chemical_formula_sum "Si O2"
_cell_formula_units_Z 16
_cell_length_a 18.548012
_cell_length_b 5.352664
_cell_length_c 16.077147
_cell_angle_alpha 113.672219
_cell_angle_beta 147.855194
_cell_angle_gamma 54.133134
_cell_volume 671.455807
_symmetry_space_group_name_H-M "P -1"
_symmetry_group_IT_number 2
_symmetry_cell_setting 'triclinic'
loop_
_space_group_symop_operation_xyz
x,y,z
-x,-y,-z
loop_
_atom_site_type_symbol
_atom_site_label
_atom_site_fract_x
_atom_site_fract_y
_atom_site_fract_z
Si Si1 0.719029 0.411737 0.459157
Si Si2 0.411724 0.490024 0.219406
Si Si3 0.138290 0.634252 0.090522
Si Si4 0.162769 0.174800 0.608717
Si Si5 0.149201 0.722157 0.867101
Si Si6 0.930310 0.373718 0.794125
Si Si7 0.227091 0.005839 0.829614
Si Si8 0.558764 0.802142 0.191068
O O1 0.567038 0.511141 0.381185
O O2 0.826692 0.509377 0.628559
O O3 0.648712 0.563873 0.321839
O O4 0.816532 0.040628 0.480046
O O5 0.297881 0.578429 0.198339
O O6 0.478690 0.134722 0.205959
O O7 0.299140 0.688269 0.059639
O O8 0.157727 0.519071 0.189411
O O9 0.071701 0.444961 0.948273
O O10 0.000000 0.000000 0.000000
O O11 0.183668 0.991578 0.690583
O O12 0.312578 0.223111 0.752323
O O13 0.000000 0.500000 0.500000
O O14 0.166190 0.379512 0.834177
O O15 0.152909 0.865857 0.801108
O O16 0.001630 0.996852 0.807764
O O17 0.413136 0.812325 0.003434
#
# Coordination Sequence:
#
# PCOD9034897 Si02
#       8
#     2   2   2   2   2   2   2   2
#     4  11  25  44  70 100 146 187 234 302 368 424
#     4  10  22  45  69 102 139 185 235 294 360 433
#     4  11  24  44  74 103 140 180 244 298 352 453
#     4  11  26  43  65 102 143 187 241 304 356 418
#     4  11  22  42  73 103 142 195 243 294 355 435
#     4  11  25  42  69 108 139 187 239 295 372 426
#     4  11  24  42  72 103 140 199 248 293 352 433
#     4  10  23  43  66  96 142 190 234 293 359 433
#
# _framework density 23.82882
#
# number of rings (size 3 to 8) (size 9 to 14) (size 15 to 20)
#    0.000    1.250    2.500    2.625    3.500    3.500 
#    0.000    1.250    0.000    0.000    0.000    0.000 
#    0.000    0.000    0.000    0.000    0.000    0.000 
#
# Total GULP energy -89529.737858 kJ/mol
# GULP energy per Si atom -5595.608616 kJ/mol
# Density = 2.377458 g / cm^3
# Si number density = 23.828820 Si / 1000 Ang^3
#
#
#
# Elastic Constant Matrix: (Units=GPa)
#
#
# Indices 1 2 3 4 5 6 
#
# 1 141.6850 26.3965 34.7528 -10.8372 2.9509 -12.5359
# 2 26.3965 83.8854 28.8882 -11.1838 0.7815 -5.9830
# 3 34.7528 28.8882 119.4908 0.8911 -5.9952 -10.4261
# 4 -10.8372 -11.1838 0.8911 31.6443 -3.9960 1.0130
# 5 2.9509 0.7815 -5.9952 -3.9960 32.7674 -6.5601
# 6 -12.5359 -5.9830 -10.4261 1.0130 -6.5601 30.8645
#
#
#
# Elastic Compliance Matrix: (Units=1/GPa)
#
#
# Indices 1 2 3 4 5 6 
#
# 1 0.008163 -0.001471 -0.001853 0.002216 -0.000316 0.002265
# 2 -0.001471 0.014062 -0.002918 0.004518 0.000014 0.000998
# 3 -0.001853 -0.002918 0.009973 -0.001731 0.002373 0.002612
# 4 0.002216 0.004518 -0.001731 0.034452 0.003749 0.000857
# 5 -0.000316 0.000014 0.002373 0.003749 0.032950 0.007557
# 6 0.002265 0.000998 0.002612 0.000857 0.007557 0.035973
#
#
# Mechanical properties :
#
#
# Convention : Reuss Voigt Hill
#
# Bulk Modulus (GPa) = 50.72411 58.34846 54.53629
# Shear Modulus (GPa) = 32.33561 36.05682 34.19621
#
# Velocity S-wave (km/s) = 3.68774 3.89416 3.79235
# Velocity P-wave (km/s) = 6.28217 6.69021 6.48940
#
# Compressibility (1/GPa) = 0.01971449
#
# Stress axis : x y z
#
# Youngs Moduli (GPa) = 122.50587 71.11348 100.26916
#
# Poissons Ratio (x) = 0.10458 0.18583
# Poissons Ratio (y) = 0.18015 0.29258
# Poissons Ratio (z) = 0.22704 0.20750
#
# Static dielectric constant tensor:
#      x y z
#    x 1.915270 0.019640 -0.015450 
#    y 0.019640 1.984660 -0.026860 
#    z -0.015450 -0.026860 1.919310 
# 
# From -- ./inp_files/536413.got.cif
#   From: 2010.05.17/outbox.cif.g08.bks.cpg/sg2_269_cif.got.tgz:536413.got - 2010.06.03 11:33:40.
