data_PCOD9034276
_publ_section_title
;
Structure prediction by ZEFSAII (Michael W. Deem and Ramdas Pophale) SiO2 
 PCOD9034276
Probable space group: P -1
;
_chemical_formula_sum "Si O2"
_cell_formula_units_Z 14
_cell_length_a 9.214750
_cell_length_b 10.383382
_cell_length_c 11.969174
_cell_angle_alpha 63.828875
_cell_angle_beta 64.054352
_cell_angle_gamma 114.696164
_cell_volume 604.082653
_symmetry_space_group_name_H-M "P -1"
_symmetry_group_IT_number 2
_symmetry_cell_setting 'triclinic'
loop_
_space_group_symop_operation_xyz
x,y,z
-x,-y,-z
loop_
_atom_site_type_symbol
_atom_site_label
_atom_site_fract_x
_atom_site_fract_y
_atom_site_fract_z
Si Si1 0.864960 0.334981 0.875978
Si Si2 0.795861 0.955178 0.024249
Si Si3 0.643743 0.168654 0.544078
Si Si4 0.643524 0.412121 0.085406
Si Si5 0.347657 0.113646 0.490624
Si Si6 0.170102 0.144771 0.193103
Si Si7 0.709607 0.288852 0.704751
O O1 0.695841 0.250062 0.855433
O O2 0.129713 0.573865 0.657382
O O3 0.786190 0.376196 0.993471
O O4 0.860749 0.162314 0.954106
O O5 0.503418 0.734742 0.235619
O O6 0.815778 0.938379 0.891947
O O7 0.000000 0.000000 0.000000
O O8 0.410628 0.095949 0.599042
O O9 0.634857 0.127774 0.693823
O O10 0.689509 0.054547 0.505438
O O11 0.577532 0.342593 0.263384
O O12 0.383113 0.249817 0.168958
O O13 0.784992 0.656800 0.927565
O O14 0.107168 0.049622 0.593067
O O15 0.000000 0.500000 0.500000
#
# Coordination Sequence:
#
# PCOD9034276 Si02
#       7
#     2   2   2   2   2   2   2
#     4  11  23  46  72  98 135 190 235 277 351 426
#     4  12  26  43  70 105 144 178 233 299 353 410
#     4  10  23  42  68 104 130 181 240 283 339 425
#     4  11  24  43  75  96 138 185 236 280 346 423
#     4  11  23  43  68  99 144 178 228 293 352 406
#     4  11  25  45  64 108 140 177 235 289 348 416
#     4  10  22  44  72  96 137 185 234 283 341 425
#
# _framework density 23.175636999999998
#
# number of rings (size 3 to 8) (size 9 to 14) (size 15 to 20)
#    0.000    1.143    2.857    2.571    4.000    1.714 
#    5.143    3.571    0.000    0.000    0.000    0.000 
#    0.000    0.000    0.000    0.000    0.000    0.000 
#
# Total GULP energy -78207.448666 kJ/mol
# GULP energy per Si atom -5586.246333 kJ/mol
# Density = 2.312289 g / cm^3
# Si number density = 23.175637 Si / 1000 Ang^3
#
#
#
# Elastic Constant Matrix: (Units=GPa)
#
#
# Indices 1 2 3 4 5 6 
#
# 1 99.7621 7.2203 21.4706 1.6318 -15.2142 -3.8125
# 2 7.2203 47.1042 10.6252 -0.2321 3.8352 -12.5475
# 3 21.4706 10.6252 87.2716 8.1158 -13.1110 -9.7679
# 4 1.6318 -0.2321 8.1158 34.0017 -0.5006 5.0058
# 5 -15.2142 3.8352 -13.1110 -0.5006 41.2472 4.3987
# 6 -3.8125 -12.5475 -9.7679 5.0058 4.3987 39.6909
#
#
#
# Elastic Compliance Matrix: (Units=1/GPa)
#
#
# Indices 1 2 3 4 5 6 
#
# 1 0.011122 -0.001639 -0.002033 0.000047 0.003647 -0.000360
# 2 -0.001639 0.024369 -0.002355 -0.000363 -0.004423 0.007503
# 3 -0.002033 -0.002355 0.013343 -0.003406 0.003413 0.002395
# 4 0.000047 -0.000363 -0.003406 0.030928 -0.000141 -0.004833
# 5 0.003647 -0.004423 0.003413 -0.000141 0.027428 -0.003230
# 6 -0.000360 0.007503 0.002395 -0.004833 -0.003230 0.029089
#
#
# Mechanical properties :
#
#
# Convention : Reuss Voigt Hill
#
# Bulk Modulus (GPa) = 27.18896 34.75221 30.97059
# Shear Modulus (GPa) = 31.13465 35.97607 33.55536
#
# Velocity S-wave (km/s) = 3.66925 3.94423 3.80922
# Velocity P-wave (km/s) = 5.45054 5.98083 5.72183
#
# Compressibility (1/GPa) = 0.03677963
#
# Stress axis : x y z
#
# Youngs Moduli (GPa) = 89.91358 41.03605 74.94549
#
# Poissons Ratio (x) = 0.06725 0.15240
# Poissons Ratio (y) = 0.14735 0.17648
# Poissons Ratio (z) = 0.18283 0.09663
#
# Static dielectric constant tensor:
#      x y z
#    x 1.870170 0.021380 0.008810 
#    y 0.021380 1.829610 -0.011110 
#    z 0.008810 -0.011110 1.939590 
# 
# From -- ./inp_files/381624.got.cif
#   From: 2010.05.17/outbox.cif.g08.bks.cpg/sg2_191_cif.got.tgz:381624.got - 2010.06.03 11:33:40.
