data_PCOD9034131
_publ_section_title
;
Structure prediction by ZEFSAII (Michael W. Deem and Ramdas Pophale) SiO2 
 PCOD9034131
Probable space group: P -1
;
_chemical_formula_sum "Si O2"
_cell_formula_units_Z 14
_cell_length_a 14.501266
_cell_length_b 12.597314
_cell_length_c 9.634973
_cell_angle_alpha 110.093196
_cell_angle_beta 131.125638
_cell_angle_gamma 32.357588
_cell_volume 603.509397
_symmetry_space_group_name_H-M "P -1"
_symmetry_group_IT_number 2
_symmetry_cell_setting 'triclinic'
loop_
_space_group_symop_operation_xyz
x,y,z
-x,-y,-z
loop_
_atom_site_type_symbol
_atom_site_label
_atom_site_fract_x
_atom_site_fract_y
_atom_site_fract_z
Si Si1 0.637690 0.472340 0.233269
Si Si2 0.942852 0.518075 0.792120
Si Si3 0.410225 0.887019 0.318403
Si Si4 0.549730 0.828061 0.943735
Si Si5 0.172430 0.102591 0.910361
Si Si6 0.742242 0.277805 0.545856
Si Si7 0.171417 0.050924 0.447321
O O1 0.482670 0.706006 0.242257
O O2 0.696991 0.349884 0.374278
O O3 0.896920 0.308716 0.346154
O O4 0.500000 0.500000 0.000000
O O5 0.662687 0.744281 0.558169
O O6 0.023040 0.320561 0.778500
O O7 0.000000 0.500000 0.000000
O O8 0.149567 0.425882 0.874167
O O9 0.222431 0.022237 0.322067
O O10 0.285595 0.055445 0.144676
O O11 0.402005 0.879523 0.938928
O O12 0.408397 0.916520 0.700173
O O13 0.500000 0.000000 0.000000
O O14 0.976665 0.163284 0.776116
O O15 0.500000 0.500000 0.500000
O O16 0.808750 0.094892 0.551946
#
# Coordination Sequence:
#
# PCOD9034131 Si02
#       7
#     2   2   2   2   2   2   2
#     4  12  26  43  67 105 143 184 237 286 348 423
#     4  11  22  46  72  98 138 182 234 290 346 410
#     4  12  26  47  70 108 141 181 240 289 349 424
#     4  10  22  44  71  95 136 184 230 290 351 407
#     4  11  25  45  70 102 141 179 234 294 348 416
#     4  12  24  44  72 100 145 189 230 289 358 418
#     4  12  24  45  72  99 144 191 228 290 354 416
#
# _framework density 23.197649999999999
#
# number of rings (size 3 to 8) (size 9 to 14) (size 15 to 20)
#    0.000    0.571    5.714    2.143    4.000    2.286 
#    2.571    0.000    0.000    0.000    0.000    0.000 
#    0.000    0.000    0.000    0.000    0.000    0.000 
#
# Total GULP energy -78357.096880 kJ/mol
# GULP energy per Si atom -5596.935491 kJ/mol
# Density = 2.314485 g / cm^3
# Si number density = 23.197650 Si / 1000 Ang^3
#
#
#
# Elastic Constant Matrix: (Units=GPa)
#
#
# Indices 1 2 3 4 5 6 
#
# 1 62.2074 43.7712 37.9209 -17.9921 4.3687 -37.0549
# 2 43.7712 90.0103 26.0843 2.5458 3.9387 -31.6016
# 3 37.9209 26.0843 157.8134 2.6189 3.5728 -22.5256
# 4 -17.9921 2.5458 2.6189 33.7231 -1.2396 2.7747
# 5 4.3687 3.9387 3.5728 -1.2396 50.7295 3.8869
# 6 -37.0549 -31.6016 -22.5256 2.7747 3.8869 52.9771
#
#
#
# Elastic Compliance Matrix: (Units=1/GPa)
#
#
# Indices 1 2 3 4 5 6 
#
# 1 0.056518 -0.017256 -0.007597 0.029857 -0.004159 0.024749
# 2 -0.017256 0.019779 0.001188 -0.010878 -0.000463 0.000838
# 3 -0.007597 0.001188 0.007902 -0.004676 -0.000032 -0.000998
# 4 0.029857 -0.010878 -0.004676 0.045899 -0.001048 0.010080
# 5 -0.004159 -0.000463 -0.000032 -0.001048 0.020439 -0.004644
# 6 0.024749 0.000838 -0.000998 0.010080 -0.004644 0.036075
#
#
# Mechanical properties :
#
#
# Convention : Reuss Voigt Hill
#
# Bulk Modulus (GPa) = 27.12370 58.39820 42.76095
# Shear Modulus (GPa) = 20.30598 40.96958 30.63778
#
# Velocity S-wave (km/s) = 2.96184 4.20707 3.63812
# Velocity P-wave (km/s) = 4.83885 6.98771 6.01010
#
# Compressibility (1/GPa) = 0.03686812
#
# Stress axis : x y z
#
# Youngs Moduli (GPa) = 17.69332 50.55859 126.55611
#
# Poissons Ratio (x) = 0.87244 0.96149
# Poissons Ratio (y) = 0.30532 -0.15032
# Poissons Ratio (z) = 0.13442 -0.06005
#
# Static dielectric constant tensor:
#      x y z
#    x 1.868960 0.001470 -0.003350 
#    y 0.001470 2.021900 -0.066610 
#    z -0.003350 -0.066610 1.909630 
# 
# From -- ./inp_files/221459.got.cif
#   From: 2010.05.17/outbox.cif.g08.bks.cpg/sg2_111_cif.got.tgz:221459.got - 2010.06.03 11:33:40.
