data_PCOD9034380
_publ_section_title
;
Structure prediction by ZEFSAII (Michael W. Deem and Ramdas Pophale) SiO2 
 PCOD9034380
Probable space group: P -1
;
_chemical_formula_sum "Si O2"
_cell_formula_units_Z 14
_cell_length_a 14.177305
_cell_length_b 9.349802
_cell_length_c 8.760928
_cell_angle_alpha 116.773232
_cell_angle_beta 83.965607
_cell_angle_gamma 139.510707
_cell_volume 614.133176
_symmetry_space_group_name_H-M "P -1"
_symmetry_group_IT_number 2
_symmetry_cell_setting 'triclinic'
loop_
_space_group_symop_operation_xyz
x,y,z
-x,-y,-z
loop_
_atom_site_type_symbol
_atom_site_label
_atom_site_fract_x
_atom_site_fract_y
_atom_site_fract_z
Si Si1 0.553594 0.720488 0.204735
Si Si2 0.504099 0.985885 0.175750
Si Si3 0.133161 0.826663 0.973819
Si Si4 0.195890 0.392534 0.570269
Si Si5 0.165816 0.523349 0.935594
Si Si6 0.083138 0.788244 0.619778
Si Si7 0.639422 0.638899 0.654159
O O1 0.546275 0.868576 0.173487
O O2 0.433054 0.563623 0.292349
O O3 0.735587 0.958369 0.350253
O O4 0.500000 0.500000 0.000000
O O5 0.643012 0.292143 0.353032
O O6 0.317806 0.759439 0.132470
O O7 0.500000 0.000000 0.000000
O O8 0.988375 0.686273 0.035792
O O9 0.291265 0.109874 0.157464
O O10 0.145164 0.650577 0.890384
O O11 0.107051 0.861461 0.828558
O O12 0.187894 0.402264 0.760355
O O13 0.226923 0.265474 0.425269
O O14 0.037771 0.258464 0.466331
O O15 0.000000 0.500000 0.500000
O O16 0.500000 0.500000 0.500000
#
# Coordination Sequence:
#
# PCOD9034380 Si02
#       7
#     2   2   2   2   2   2   2
#     4  12  27  46  75 110 147 197 241 306 382 425
#     4  10  22  44  74 102 142 192 246 294 360 445
#     4  11  24  46  70 108 146 197 242 311 371 435
#     4  11  25  44  73 106 141 197 246 301 368 442
#     4  10  23  42  77 100 141 196 254 295 369 441
#     4  12  23  46  74 105 148 186 249 306 359 446
#     4  12  30  47  70 108 158 190 248 313 374 438
#
# _framework density 22.796358000000001
#
# number of rings (size 3 to 8) (size 9 to 14) (size 15 to 20)
#    0.000    0.857    4.286    1.714    8.000    4.000 
#    0.000    0.000    0.000    0.000    0.000    0.000 
#    0.000    0.000    0.000    0.000    0.000    0.000 
#
# Total GULP energy -78298.310838 kJ/mol
# GULP energy per Si atom -5592.736488 kJ/mol
# Density = 2.274447 g / cm^3
# Si number density = 22.796358 Si / 1000 Ang^3
#
#
#
# Elastic Constant Matrix: (Units=GPa)
#
#
# Indices 1 2 3 4 5 6 
#
# 1 75.1506 -4.0144 12.1013 -2.5078 15.3360 18.6342
# 2 -4.0144 59.5306 9.5222 -1.7851 -1.7284 16.3044
# 3 12.1013 9.5222 93.9358 5.8303 6.4802 9.6481
# 4 -2.5078 -1.7851 5.8303 33.2489 12.7020 3.9357
# 5 15.3360 -1.7284 6.4802 12.7020 46.1189 5.2552
# 6 18.6342 16.3044 9.6481 3.9357 5.2552 34.8257
#
#
#
# Elastic Compliance Matrix: (Units=1/GPa)
#
#
# Indices 1 2 3 4 5 6 
#
# 1 0.017869 0.004445 -0.001563 0.005366 -0.005787 -0.010942
# 2 0.004445 0.020740 -0.001640 0.003145 0.000030 -0.011994
# 3 -0.001563 -0.001640 0.011289 -0.001857 -0.000475 -0.001242
# 4 0.005366 0.003145 -0.001857 0.035743 -0.010535 -0.006279
# 5 -0.005787 0.000030 -0.000475 -0.010535 0.026531 0.000401
# 6 -0.010942 -0.011994 -0.001242 -0.006279 0.000401 0.041178
#
#
# Mechanical properties :
#
#
# Convention : Reuss Voigt Hill
#
# Bulk Modulus (GPa) = 19.09068 29.31502 24.20285
# Shear Modulus (GPa) = 29.70414 36.90589 33.30501
#
# Velocity S-wave (km/s) = 3.61365 4.02797 3.82642
# Velocity P-wave (km/s) = 5.07976 5.87538 5.49200
#
# Compressibility (1/GPa) = 0.05238158
#
# Stress axis : x y z
#
# Youngs Moduli (GPa) = 55.96301 48.21540 88.58392
#
# Poissons Ratio (x) = -0.21431 0.13841
# Poissons Ratio (y) = -0.24874 0.14531
# Poissons Ratio (z) = 0.08744 0.07909
#
# Static dielectric constant tensor:
#      x y z
#    x 1.867710 0.036490 -0.000960 
#    y 0.036490 1.890120 0.026420 
#    z -0.000960 0.026420 1.844950 
# 
# From -- ./inp_files/299499.got.cif
#   From: 2010.05.17/outbox.cif.g08.bks.cpg/sg2_150_cif.got.tgz:299499.got - 2010.06.03 11:33:40.
