data_PCOD9034774
_publ_section_title
;
Structure prediction by ZEFSAII (Michael W. Deem and Ramdas Pophale) SiO2 
 PCOD9034774
Probable space group: P -1
;
_chemical_formula_sum "Si O2"
_cell_formula_units_Z 12
_cell_length_a 8.433909
_cell_length_b 16.743211
_cell_length_c 14.703277
_cell_angle_alpha 158.593978
_cell_angle_beta 51.794636
_cell_angle_gamma 139.093023
_cell_volume 463.653176
_symmetry_space_group_name_H-M "P -1"
_symmetry_group_IT_number 2
_symmetry_cell_setting 'triclinic'
loop_
_space_group_symop_operation_xyz
x,y,z
-x,-y,-z
loop_
_atom_site_type_symbol
_atom_site_label
_atom_site_fract_x
_atom_site_fract_y
_atom_site_fract_z
Si Si1 0.075004 0.702156 0.839176
Si Si2 0.246362 0.206693 0.067902
Si Si3 0.496159 0.259176 0.372432
Si Si4 0.602322 0.069417 0.756991
Si Si5 0.406542 0.189357 0.700072
Si Si6 0.949577 0.371656 0.721447
O O1 0.225476 0.640094 0.653236
O O2 0.835482 0.662535 0.836180
O O3 0.009942 0.522043 0.762211
O O4 0.284910 0.036304 0.139128
O O5 0.472093 0.464103 0.324358
O O6 0.354543 0.061176 0.830431
O O7 0.000000 0.000000 0.000000
O O8 0.423288 0.083684 0.303700
O O9 0.620189 0.912617 0.502171
O O10 0.845621 0.395600 0.033429
O O11 0.661734 0.259127 0.730898
O O12 0.126824 0.938103 0.577603
O O13 0.500000 0.500000 0.000000
#
# Coordination Sequence:
#
# PCOD9034774 Si02
#       6
#     2   2   2   2   2   2
#     4  10  22  45  68 101 147 185 235 285 345 424
#     4  12  25  40  70 106 143 193 231 280 351 423
#     4  10  23  43  66 103 142 189 232 285 350 415
#     4  11  25  47  71 104 146 186 238 291 351 428
#     4  11  26  48  75 105 135 185 244 301 355 416
#     4  10  25  46  73 104 143 184 238 294 356 416
#
# _framework density 25.881416000000002
#
# number of rings (size 3 to 8) (size 9 to 14) (size 15 to 20)
#    0.000    1.333    1.667    2.000    2.333   10.667 
#    0.000    0.000    0.000    3.000    0.000    0.000 
#    0.000    0.000    0.000    0.000    0.000    0.000 
#
# Total GULP energy -67202.457824 kJ/mol
# GULP energy per Si atom -5600.204819 kJ/mol
# Density = 2.582251 g / cm^3
# Si number density = 25.881416 Si / 1000 Ang^3
#
#
#
# Elastic Constant Matrix: (Units=GPa)
#
#
# Indices 1 2 3 4 5 6 
#
# 1 51.6692 18.3398 18.7588 -1.4446 18.5098 -6.5895
# 2 18.3398 120.0732 51.7338 17.7605 4.5844 -20.9673
# 3 18.7588 51.7338 193.5835 20.2177 26.5642 1.4469
# 4 -1.4446 17.7605 20.2177 51.8070 7.1395 2.2862
# 5 18.5098 4.5844 26.5642 7.1395 34.4547 6.7282
# 6 -6.5895 -20.9673 1.4469 2.2862 6.7282 41.3214
#
#
#
# Elastic Compliance Matrix: (Units=1/GPa)
#
#
# Indices 1 2 3 4 5 6 
#
# 1 0.026890 -0.003176 -0.000027 0.003801 -0.015773 0.005035
# 2 -0.003176 0.011298 -0.002660 -0.003421 0.001949 0.005191
# 3 -0.000027 -0.002660 0.006588 -0.001026 -0.004338 -0.000822
# 4 0.003801 -0.003421 -0.001026 0.021737 -0.005011 -0.001481
# 5 -0.015773 0.001949 -0.004338 -0.005011 0.043209 -0.008133
# 6 0.005035 0.005191 -0.000822 -0.001481 -0.008133 0.029073
#
#
# Mechanical properties :
#
#
# Convention : Reuss Voigt Hill
#
# Bulk Modulus (GPa) = 30.25876 60.33232 45.29554
# Shear Modulus (GPa) = 30.95254 43.94953 37.45104
#
# Velocity S-wave (km/s) = 3.46198 4.12529 3.80810
# Velocity P-wave (km/s) = 5.26281 6.78618 6.07246
#
# Compressibility (1/GPa) = 0.03304828
#
# Stress axis : x y z
#
# Youngs Moduli (GPa) = 37.18850 88.51317 151.79536
#
# Poissons Ratio (x) = 0.28113 0.00410
# Poissons Ratio (y) = 0.11812 0.40385
# Poissons Ratio (z) = 0.00101 0.23549
#
# Static dielectric constant tensor:
#      x y z
#    x 2.242910 -0.052840 -0.293880 
#    y -0.052840 2.051230 0.101240 
#    z -0.293880 0.101240 2.424900 
# 
# From -- ./inp_files/28581.got.cif
#   From: 2010.05.17/outbox.cif.g08.bks.cpg/sg2_15_cif.got.tgz:28581.got - 2010.06.03 11:33:40.
