data_PCOD9034084
_publ_section_title
;
Structure prediction by ZEFSAII (Michael W. Deem and Ramdas Pophale) SiO2 
 PCOD9034084
Probable space group: P -1
;
_chemical_formula_sum "Si O2"
_cell_formula_units_Z 14
_cell_length_a 18.667815
_cell_length_b 8.453325
_cell_length_c 9.266552
_cell_angle_alpha 77.978399
_cell_angle_beta 150.530892
_cell_angle_gamma 115.054939
_cell_volume 608.013961
_symmetry_space_group_name_H-M "P -1"
_symmetry_group_IT_number 2
_symmetry_cell_setting 'triclinic'
loop_
_space_group_symop_operation_xyz
x,y,z
-x,-y,-z
loop_
_atom_site_type_symbol
_atom_site_label
_atom_site_fract_x
_atom_site_fract_y
_atom_site_fract_z
Si Si1 0.343306 0.333476 0.172812
Si Si2 0.327713 0.845808 0.149424
Si Si3 0.935341 0.636770 0.928823
Si Si4 0.815249 0.055391 0.880536
Si Si5 0.511463 0.901907 0.181327
Si Si6 0.450854 0.463774 0.754935
Si Si7 0.096995 0.442314 0.793794
O O1 0.500000 0.500000 0.500000
O O2 0.423308 0.352248 0.153075
O O3 0.270550 0.159411 0.185717
O O4 0.177836 0.347419 0.859775
O O5 0.181936 0.861563 0.972558
O O6 0.360518 0.863774 0.033622
O O7 0.500000 0.000000 0.500000
O O8 0.264019 0.630458 0.107607
O O9 0.737358 0.571074 0.588725
O O10 0.988259 0.661936 0.186610
O O11 0.000000 0.500000 0.000000
O O12 0.017711 0.824039 0.939414
O O13 0.677216 0.052376 0.530119
O O14 0.523682 0.713630 0.211424
O O15 0.500000 0.000000 0.000000
O O16 0.500000 0.500000 0.000000
O O17 0.000000 0.500000 0.500000
#
# Coordination Sequence:
#
# PCOD9034084 Si02
#       7
#     2   2   2   2   2   2   2
#     4  12  23  51  75 102 148 199 249 304 364 455
#     4  10  22  44  71 104 141 193 246 290 366 445
#     4  12  28  48  72 107 156 194 243 313 375 439
#     4  11  25  45  76 104 146 199 242 294 386 437
#     4  11  25  43  73 110 145 185 253 306 360 441
#     4  12  29  47  76 109 148 198 253 303 368 443
#     4  12  26  45  76 108 150 196 246 308 381 438
#
# _framework density 23.025789
#
# number of rings (size 3 to 8) (size 9 to 14) (size 15 to 20)
#    0.000    0.571    5.714    0.857    8.000    2.286 
#    0.000    1.429    0.000    0.000    0.000    0.000 
#    0.000    0.000    0.000    0.000    0.000    0.000 
#
# Total GULP energy -78027.632433 kJ/mol
# GULP energy per Si atom -5573.402317 kJ/mol
# Density = 2.297338 g / cm^3
# Si number density = 23.025789 Si / 1000 Ang^3
#
#
#
# Elastic Constant Matrix: (Units=GPa)
#
#
# Indices 1 2 3 4 5 6 
#
# 1 178.7392 56.9022 76.1563 -10.5726 5.3193 43.4337
# 2 56.9022 109.1414 42.1115 -5.9575 5.7677 42.4722
# 3 76.1563 42.1115 99.1352 -35.1106 -4.5188 19.0462
# 4 -10.5726 -5.9575 -35.1106 35.3649 2.0864 0.9834
# 5 5.3193 5.7677 -4.5188 2.0864 32.9155 4.5509
# 6 43.4337 42.4722 19.0462 0.9834 4.5509 51.9548
#
#
#
# Elastic Compliance Matrix: (Units=1/GPa)
#
#
# Indices 1 2 3 4 5 6 
#
# 1 0.010462 -0.000234 -0.009082 -0.005682 -0.001851 -0.004956
# 2 -0.000234 0.015213 -0.005245 -0.002327 -0.001802 -0.010116
# 3 -0.009082 -0.005245 0.027688 0.023596 0.004570 0.000884
# 4 -0.005682 -0.002327 0.023596 0.049589 0.001850 -0.003098
# 5 -0.001851 -0.001802 0.004570 0.001850 0.031709 -0.001467
# 6 -0.004956 -0.010116 0.000884 -0.003098 -0.001467 0.031524
#
#
# Mechanical properties :
#
#
# Convention : Reuss Voigt Hill
#
# Bulk Modulus (GPa) = 41.25431 81.92842 61.59137
# Shear Modulus (GPa) = 24.58356 38.17011 31.37683
#
# Velocity S-wave (km/s) = 3.27104 4.07592 3.69546
# Velocity P-wave (km/s) = 5.67642 7.60324 6.70936
#
# Compressibility (1/GPa) = 0.02423989
#
# Stress axis : x y z
#
# Youngs Moduli (GPa) = 95.58161 65.73233 36.11691
#
# Poissons Ratio (x) = 0.01538 0.32802
# Poissons Ratio (y) = 0.02237 0.18945
# Poissons Ratio (z) = 0.86809 0.34480
#
# Static dielectric constant tensor:
#      x y z
#    x 2.326580 -0.072930 0.037600 
#    y -0.072930 1.947260 0.039750 
#    z 0.037600 0.039750 1.858490 
# 
# From -- ./inp_files/328793.got.cif
#   From: 2010.05.17/outbox.cif.g08.bks.cpg/sg2_165_cif.got.tgz:328793.got - 2010.06.03 11:33:40.
