data_PCOD9034920
_publ_section_title
;
Structure prediction by ZEFSAII (Michael W. Deem and Ramdas Pophale) SiO2 
 PCOD9034920
Probable space group: P -1
;
_chemical_formula_sum "Si O2"
_cell_formula_units_Z 12
_cell_length_a 18.365398
_cell_length_b 5.757567
_cell_length_c 18.199590
_cell_angle_alpha 51.990166
_cell_angle_beta 19.985794
_cell_angle_gamma 49.738625
_cell_volume 501.663973
_symmetry_space_group_name_H-M "P -1"
_symmetry_group_IT_number 2
_symmetry_cell_setting 'triclinic'
loop_
_space_group_symop_operation_xyz
x,y,z
-x,-y,-z
loop_
_atom_site_type_symbol
_atom_site_label
_atom_site_fract_x
_atom_site_fract_y
_atom_site_fract_z
Si Si1 0.852410 0.084835 0.383069
Si Si2 0.112156 0.995350 0.004625
Si Si3 0.609155 0.662059 0.925674
Si Si4 0.472311 0.362697 0.248516
Si Si5 0.890576 0.003081 0.523280
Si Si6 0.735958 0.759648 0.321675
O O1 0.981247 0.998768 0.355367
O O2 0.723695 0.438437 0.428970
O O3 0.677300 0.875638 0.580303
O O4 0.020279 0.062083 0.160635
O O5 0.921204 0.873367 0.169730
O O6 0.348569 0.754585 0.835740
O O7 0.173458 0.253287 0.845375
O O8 0.798964 0.715838 0.682783
O O9 0.500000 0.500000 0.000000
O O10 0.620998 0.440945 0.026119
O O11 0.500000 0.000000 0.000000
O O12 0.297742 0.682247 0.364848
O O13 0.000000 0.000000 0.500000
O O14 0.500000 0.000000 0.500000
#
# Coordination Sequence:
#
# PCOD9034920 Si02
#       6
#     2   2   2   2   2   2
#     4  12  25  45  74 105 144 189 250 305 379 448
#     4  11  26  45  74 107 143 186 247 301 385 450
#     4  10  22  45  69 104 150 202 254 313 378 451
#     4  11  26  46  69 106 147 195 249 309 371 452
#     4  11  26  46  72 105 152 201 250 312 373 449
#     4  11  26  50  75 105 146 184 240 311 383 459
#
# _framework density 23.920394999999999
#
# number of rings (size 3 to 8) (size 9 to 14) (size 15 to 20)
#    0.000    1.000    1.667    3.500    4.667   10.000 
#    0.000    0.000    0.000    0.000    0.000    0.000 
#    0.000    0.000    0.000    0.000    0.000    0.000 
#
# Total GULP energy -66866.435472 kJ/mol
# GULP energy per Si atom -5572.202956 kJ/mol
# Density = 2.386595 g / cm^3
# Si number density = 23.920395 Si / 1000 Ang^3
#
#
#
# Elastic Constant Matrix: (Units=GPa)
#
#
# Indices 1 2 3 4 5 6 
#
# 1 164.6541 35.8917 73.0335 3.8664 32.6506 -27.4983
# 2 35.8917 98.7939 70.9247 -5.2302 9.7567 -22.3271
# 3 73.0335 70.9247 106.9665 -10.7478 28.4248 -12.3144
# 4 3.8664 -5.2302 -10.7478 58.9218 -6.9374 4.7732
# 5 32.6506 9.7567 28.4248 -6.9374 72.2695 -7.3714
# 6 -27.4983 -22.3271 -12.3144 4.7732 -7.3714 39.1764
#
#
#
# Elastic Compliance Matrix: (Units=1/GPa)
#
#
# Indices 1 2 3 4 5 6 
#
# 1 0.010834 0.004488 -0.009469 -0.002783 -0.001301 0.007280
# 2 0.004488 0.024292 -0.018844 -0.002175 0.003112 0.011922
# 3 -0.009469 -0.018844 0.028997 0.004423 -0.005156 -0.009780
# 4 -0.002783 -0.002175 0.004423 0.018214 0.001172 -0.003801
# 5 -0.001301 0.003112 -0.005156 0.001172 0.016367 0.002176
# 6 0.007280 0.011922 -0.009780 -0.003801 0.002176 0.035228
#
#
# Mechanical properties :
#
#
# Convention : Reuss Voigt Hill
#
# Bulk Modulus (GPa) = 60.70399 81.12381 70.91390
# Shear Modulus (GPa) = 26.72754 46.77786 36.75270
#
# Velocity S-wave (km/s) = 3.34631 4.42697 3.92402
# Velocity P-wave (km/s) = 6.35319 7.75361 7.08807
#
# Compressibility (1/GPa) = 0.01647338
#
# Stress axis : x y z
#
# Youngs Moduli (GPa) = 92.30030 41.16661 34.48617
#
# Poissons Ratio (x) = -0.18477 0.32655
# Poissons Ratio (y) = -0.41427 0.64986
# Poissons Ratio (z) = 0.87399 0.77575
#
# Static dielectric constant tensor:
#      x y z
#    x 2.041320 0.026930 -0.006730 
#    y 0.026930 1.971160 0.073120 
#    z -0.006730 0.073120 1.942360 
# 
# From -- ./inp_files/50007.got.cif
#   From: 2010.05.17/outbox.cif.g08.bks.cpg/sg2_26_cif.got.tgz:50007.got - 2010.06.03 11:33:40.
