data_PCOD9034390
_publ_section_title
;
Structure prediction by ZEFSAII (Michael W. Deem and Ramdas Pophale) SiO2 
 PCOD9034390
Probable space group: P -1
;
_chemical_formula_sum "Si O2"
_cell_formula_units_Z 12
_cell_length_a 5.413423
_cell_length_b 12.556929
_cell_length_c 13.389976
_cell_angle_alpha 139.605032
_cell_angle_beta 56.584485
_cell_angle_gamma 117.410603
_cell_volume 490.939037
_symmetry_space_group_name_H-M "P -1"
_symmetry_group_IT_number 2
_symmetry_cell_setting 'triclinic'
loop_
_space_group_symop_operation_xyz
x,y,z
-x,-y,-z
loop_
_atom_site_type_symbol
_atom_site_label
_atom_site_fract_x
_atom_site_fract_y
_atom_site_fract_z
Si Si1 0.762472 0.728287 0.858360
Si Si2 0.716125 0.161461 0.447820
Si Si3 0.241838 0.365295 0.426628
Si Si4 0.640315 0.093782 0.177580
Si Si5 0.098099 0.120999 0.651831
Si Si6 0.683770 0.406294 0.975775
O O1 0.798782 0.625228 0.675859
O O2 0.097723 0.795740 0.859065
O O3 0.553242 0.625607 0.906747
O O4 0.627139 0.907326 0.010796
O O5 0.686577 0.119712 0.305715
O O6 0.411159 0.203987 0.600356
O O7 0.940838 0.325364 0.526329
O O8 0.822547 0.994887 0.356101
O O9 0.500000 0.500000 0.500000
O O10 0.353174 0.182929 0.281525
O O11 0.817924 0.230508 0.799798
O O12 0.000000 0.000000 0.500000
O O13 0.500000 0.500000 0.000000
O O14 0.000000 0.500000 0.000000
#
# Coordination Sequence:
#
# PCOD9034390 Si02
#       6
#     2   2   2   2   2   2
#     4  10  24  45  73 100 142 197 248 303 376 448
#     4  10  23  42  75 109 140 195 252 310 369 453
#     4  11  24  42  69 109 148 185 242 313 381 446
#     4  10  22  44  74 103 140 187 253 310 367 451
#     4  11  25  47  76 104 146 198 259 308 373 459
#     4  12  31  49  74 113 159 201 251 315 386 456
#
# _framework density 24.442951999999998
#
# number of rings (size 3 to 8) (size 9 to 14) (size 15 to 20)
#    0.000    1.333    0.000    3.500    9.333    8.000 
#    0.000    0.000    0.000    0.000    0.000    0.000 
#    0.000    0.000    0.000    0.000    0.000    0.000 
#
# Total GULP energy -67015.519564 kJ/mol
# GULP energy per Si atom -5584.626630 kJ/mol
# Density = 2.438732 g / cm^3
# Si number density = 24.442952 Si / 1000 Ang^3
#
#
#
# Elastic Constant Matrix: (Units=GPa)
#
#
# Indices 1 2 3 4 5 6 
#
# 1 86.7296 74.4283 12.0271 -5.3475 -20.5176 2.7084
# 2 74.4283 197.5413 39.4303 -42.9273 -4.0384 53.2691
# 3 12.0271 39.4303 93.7996 -9.4442 -19.2440 5.9001
# 4 -5.3475 -42.9273 -9.4442 34.9020 6.6064 -4.3546
# 5 -20.5176 -4.0384 -19.2440 6.6064 51.4874 8.7414
# 6 2.7084 53.2691 5.9001 -4.3546 8.7414 35.4795
#
#
#
# Elastic Compliance Matrix: (Units=1/GPa)
#
#
# Indices 1 2 3 4 5 6 
#
# 1 0.036903 -0.030484 0.005448 -0.028172 0.011912 0.035654
# 2 -0.030484 0.038784 -0.007406 0.036616 -0.008405 -0.048107
# 3 0.005448 -0.007406 0.013441 -0.005018 0.006183 0.006330
# 4 -0.028172 0.036616 -0.005018 0.065073 -0.011594 -0.041147
# 5 0.011912 -0.008405 0.006183 -0.011594 0.026860 0.002641
# 6 0.035654 -0.048107 0.006330 -0.041147 0.002641 0.090938
#
#
# Mechanical properties :
#
#
# Convention : Reuss Voigt Hill
#
# Bulk Modulus (GPa) = 41.25143 69.98244 55.61694
# Shear Modulus (GPa) = 14.49417 41.18609 27.84013
#
# Velocity S-wave (km/s) = 2.43776 4.10931 3.37855
# Velocity P-wave (km/s) = 4.98365 7.15600 6.16625
#
# Compressibility (1/GPa) = 0.02424158
#
# Stress axis : x y z
#
# Youngs Moduli (GPa) = 27.09813 25.78393 74.39902
#
# Poissons Ratio (x) = 0.78601 -0.40530
# Poissons Ratio (y) = 0.82607 0.55104
# Poissons Ratio (z) = -0.14762 0.19097
#
# Static dielectric constant tensor:
#      x y z
#    x 2.237750 -0.338770 -0.006040 
#    y -0.338770 2.348440 0.067810 
#    z -0.006040 0.067810 1.897940 
# 
# From -- ./inp_files/359733.got.cif
#   From: 2010.05.17/outbox.cif.g08.bks.cpg/sg2_180_cif.got.tgz:359733.got - 2010.06.03 11:33:40.
