data_PCOD9034428
_publ_section_title
;
Structure prediction by ZEFSAII (Michael W. Deem and Ramdas Pophale) SiO2 
 PCOD9034428
Probable space group: P -1
;
_chemical_formula_sum "Si O2"
_cell_formula_units_Z 14
_cell_length_a 22.349024
_cell_length_b 4.860864
_cell_length_c 16.561320
_cell_angle_alpha 99.101933
_cell_angle_beta 19.041297
_cell_angle_gamma 102.798262
_cell_volume 564.925782
_symmetry_space_group_name_H-M "P -1"
_symmetry_group_IT_number 2
_symmetry_cell_setting 'triclinic'
loop_
_space_group_symop_operation_xyz
x,y,z
-x,-y,-z
loop_
_atom_site_type_symbol
_atom_site_label
_atom_site_fract_x
_atom_site_fract_y
_atom_site_fract_z
Si Si1 0.327980 0.427754 0.777306
Si Si2 0.771337 0.471649 0.457464
Si Si3 0.119245 0.232148 0.502269
Si Si4 0.970070 0.010883 0.133942
Si Si5 0.576794 0.255279 0.087401
Si Si6 0.000000 0.500000 0.500000
Si Si7 0.716917 0.007530 0.054317
Si Si8 0.500000 0.000000 0.000000
O O1 0.500000 0.500000 0.500000
O O2 0.273644 0.717184 0.887962
O O3 0.375833 0.267844 0.788861
O O4 0.155147 0.207142 0.946740
O O5 0.825632 0.540207 0.485236
O O6 0.570172 0.545015 0.704564
O O7 0.802885 0.166586 0.377382
O O8 0.915064 0.700316 0.229584
O O9 0.067584 0.372573 0.493010
O O10 0.295209 0.092542 0.256637
O O11 0.931946 0.001988 0.756740
O O12 0.000000 0.000000 0.000000
O O13 0.613150 0.079546 0.110732
O O14 0.781168 0.435809 0.808976
O O15 0.498498 0.056411 0.102080
#
# Coordination Sequence:
#
# PCOD9034428 Si02
#       8
#     2   2   2   2   2   1   2   1
#     4  12  26  49  80 111 154 197 257 319 388 465
#     4  11  25  48  78 113 155 205 251 318 388 462
#     4  10  22  44  74 112 154 200 256 316 386 454
#     4  12  26  49  80 111 154 197 257 319 388 465
#     4  10  26  46  74 114 154 206 256 320 380 466
#     4  10  24  44  72 110 152 202 262 316 382 456
#     4  11  25  48  78 113 155 205 251 318 388 462
#     4  10  24  44  72 110 152 202 262 316 382 456
#
# _framework density 24.782017
#
# number of rings (size 3 to 8) (size 9 to 14) (size 15 to 20)
#    0.000    1.143    2.857    0.857    2.000   14.857 
#    0.000    0.000    0.000    0.000    0.000    0.000 
#    0.000    0.000    0.000    0.000    0.000    0.000 
#
# Total GULP energy -78078.050872 kJ/mol
# GULP energy per Si atom -5577.003634 kJ/mol
# Density = 2.472561 g / cm^3
# Si number density = 24.782017 Si / 1000 Ang^3
#
#
#
# Elastic Constant Matrix: (Units=GPa)
#
#
# Indices 1 2 3 4 5 6 
#
# 1 178.0910 22.4575 80.8459 1.6622 1.7807 -18.4430
# 2 22.4575 65.7462 3.2154 -9.1145 15.3404 -7.3707
# 3 80.8459 3.2154 112.5009 -19.6932 -3.2247 -8.6916
# 4 1.6622 -9.1145 -19.6932 25.9062 -0.5523 3.6330
# 5 1.7807 15.3404 -3.2247 -0.5523 45.3557 -0.2417
# 6 -18.4430 -7.3707 -8.6916 3.6330 -0.2417 30.3225
#
#
#
# Elastic Compliance Matrix: (Units=1/GPa)
#
#
# Indices 1 2 3 4 5 6 
#
# 1 0.010680 -0.004126 -0.008891 -0.009462 0.000251 0.004080
# 2 -0.004126 0.019415 0.004121 0.009796 -0.005981 0.002170
# 3 -0.008891 0.004121 0.017839 0.015755 0.000409 -0.001177
# 4 -0.009462 0.009796 0.015755 0.055377 -0.001177 -0.005502
# 5 0.000251 -0.005981 0.000409 -0.001177 0.024071 -0.000851
# 6 0.004080 0.002170 -0.001177 -0.005502 -0.000851 0.036303
#
#
# Mechanical properties :
#
#
# Convention : Reuss Voigt Hill
#
# Bulk Modulus (GPa) = 33.17629 63.26395 48.22012
# Shear Modulus (GPa) = 26.10652 36.97150 31.53901
#
# Velocity S-wave (km/s) = 3.24920 3.86666 3.57130
# Velocity P-wave (km/s) = 5.24335 6.74673 6.04198
#
# Compressibility (1/GPa) = 0.03014200
#
# Stress axis : x y z
#
# Youngs Moduli (GPa) = 93.63498 51.50767 56.05759
#
# Poissons Ratio (x) = 0.21252 0.49839
# Poissons Ratio (y) = 0.38634 -0.23102
# Poissons Ratio (z) = 0.83249 -0.21227
#
# Static dielectric constant tensor:
#      x y z
#    x 1.972560 0.160950 -0.010000 
#    y 0.160950 2.181920 0.008440 
#    z -0.010000 0.008440 1.930950 
# 
# From -- ./inp_files/539803.got.cif
#   From: 2010.05.17/outbox.cif.g08.bks.cpg/sg2_270_cif.got.tgz:539803.got - 2010.06.03 11:33:40.
