data_PCOD9034660
_publ_section_title
;
Structure prediction by ZEFSAII (Michael W. Deem and Ramdas Pophale) SiO2 
 PCOD9034660
Probable space group: P -1
;
_chemical_formula_sum "Si O2"
_cell_formula_units_Z 16
_cell_length_a 5.716676
_cell_length_b 8.116580
_cell_length_c 19.774996
_cell_angle_alpha 49.911562
_cell_angle_beta 76.881304
_cell_angle_gamma 65.607815
_cell_volume 638.318546
_symmetry_space_group_name_H-M "P -1"
_symmetry_group_IT_number 2
_symmetry_cell_setting 'triclinic'
loop_
_space_group_symop_operation_xyz
x,y,z
-x,-y,-z
loop_
_atom_site_type_symbol
_atom_site_label
_atom_site_fract_x
_atom_site_fract_y
_atom_site_fract_z
Si Si1 0.770385 0.432654 0.404333
Si Si2 0.679321 0.828579 0.587905
Si Si3 0.252052 0.555813 0.826707
Si Si4 0.394907 0.629548 0.262443
Si Si5 0.755822 0.929531 0.051295
Si Si6 0.431698 0.734120 0.898746
Si Si7 0.489954 0.214284 0.586032
Si Si8 0.809115 0.961347 0.749571
O O1 0.657998 0.565625 0.306778
O O2 0.585347 0.331632 0.486961
O O3 0.779936 0.625016 0.407664
O O4 0.022531 0.217677 0.428593
O O5 0.699454 0.567902 0.653613
O O6 0.500000 0.000000 0.500000
O O7 0.536310 0.954440 0.630982
O O8 0.521486 0.432162 0.803776
O O9 0.144856 0.348111 0.886477
O O10 0.267648 0.667679 0.868507
O O11 0.059372 0.784892 0.743934
O O12 0.198476 0.882895 0.224566
O O13 0.670178 0.054149 0.096818
O O14 0.500000 0.000000 0.000000
O O15 0.000000 0.000000 0.000000
O O16 0.645046 0.804861 0.825037
O O17 0.500000 0.500000 0.000000
O O18 0.680363 0.164106 0.650546
#
# Coordination Sequence:
#
# PCOD9034660 Si02
#       8
#     2   2   2   2   2   2   2   2
#     4  10  23  44  66  95 143 193 246 320 372 457
#     4  12  24  38  68  99 134 191 251 307 381 457
#     4  12  27  47  80 110 155 204 256 326 387 471
#     4  11  25  46  67 107 148 195 257 314 391 455
#     4  12  28  52  85 120 160 206 263 328 400 486
#     4  12  26  49  78 111 155 198 260 310 398 476
#     4  10  22  45  66  96 143 190 251 314 383 449
#     4  11  26  46  71 108 147 197 253 324 390 462
#
# _framework density 25.065854999999999
#
# number of rings (size 3 to 8) (size 9 to 14) (size 15 to 20)
#    0.000    0.750    3.750    2.625    3.500    4.500 
#    2.250    0.000    0.000    0.000    0.000    0.000 
#    0.000    0.000    0.000    0.000    0.000    0.000 
#
# Total GULP energy -89146.211520 kJ/mol
# GULP energy per Si atom -5571.638220 kJ/mol
# Density = 2.500880 g / cm^3
# Si number density = 25.065855 Si / 1000 Ang^3
#
#
#
# Elastic Constant Matrix: (Units=GPa)
#
#
# Indices 1 2 3 4 5 6 
#
# 1 47.8757 48.7306 18.0760 1.0149 -8.9271 13.4489
# 2 48.7306 221.0319 29.2207 -16.7117 0.0833 20.2705
# 3 18.0760 29.2207 83.7083 -11.0040 -5.7135 0.8170
# 4 1.0149 -16.7117 -11.0040 49.3785 5.6876 -0.7593
# 5 -8.9271 0.0833 -5.7135 5.6876 31.9047 -4.8757
# 6 13.4489 20.2705 0.8170 -0.7593 -4.8757 31.6959
#
#
#
# Elastic Compliance Matrix: (Units=1/GPa)
#
#
# Indices 1 2 3 4 5 6 
#
# 1 0.033188 -0.006217 -0.005020 -0.004955 0.007930 -0.008875
# 2 -0.006217 0.006329 -0.000712 0.002381 -0.002572 -0.001730
# 3 -0.005020 -0.000712 0.013692 0.002845 0.000915 0.002442
# 4 -0.004955 0.002381 0.002845 0.022353 -0.004822 0.000300
# 5 0.007930 -0.002572 0.000915 -0.004822 0.035134 0.003546
# 6 -0.008875 -0.001730 0.002442 0.000300 0.003546 0.036912
#
#
# Mechanical properties :
#
#
# Convention : Reuss Voigt Hill
#
# Bulk Modulus (GPa) = 34.11854 60.51894 47.31874
# Shear Modulus (GPa) = 27.58237 39.70173 33.64205
#
# Velocity S-wave (km/s) = 3.32082 3.98414 3.66751
# Velocity P-wave (km/s) = 5.32399 6.73505 6.07066
#
# Compressibility (1/GPa) = 0.02930957
#
# Stress axis : x y z
#
# Youngs Moduli (GPa) = 30.13179 158.01201 73.03746
#
# Poissons Ratio (x) = 0.98234 0.36663
# Poissons Ratio (y) = 0.18732 0.05204
# Poissons Ratio (z) = 0.15126 0.11258
#
# Static dielectric constant tensor:
#      x y z
#    x 2.579930 0.378210 0.266840 
#    y 0.378210 2.382180 0.228390 
#    z 0.266840 0.228390 2.174850 
# 
# From -- ./inp_files/582252.got.cif
#   From: 2010.05.17/outbox.cif.g08.bks.cpg/sg2_292_cif.got.tgz:582252.got - 2010.06.03 11:33:40.
