data_PCOD9034033
_publ_section_title
;
Structure prediction by ZEFSAII (Michael W. Deem and Ramdas Pophale) SiO2 
 PCOD9034033
Probable space group: P -1
;
_chemical_formula_sum "Si O2"
_cell_formula_units_Z 14
_cell_length_a 10.734512
_cell_length_b 10.968547
_cell_length_c 8.815729
_cell_angle_alpha 66.149038
_cell_angle_beta 136.892889
_cell_angle_gamma 122.967574
_cell_volume 595.058704
_symmetry_space_group_name_H-M "P -1"
_symmetry_group_IT_number 2
_symmetry_cell_setting 'triclinic'
loop_
_space_group_symop_operation_xyz
x,y,z
-x,-y,-z
loop_
_atom_site_type_symbol
_atom_site_label
_atom_site_fract_x
_atom_site_fract_y
_atom_site_fract_z
Si Si1 0.049836 0.362059 0.081260
Si Si2 0.874809 0.237513 0.425979
Si Si3 0.642689 0.696752 0.794393
Si Si4 0.712470 0.598562 0.423518
Si Si5 0.192951 0.926454 0.868382
Si Si6 0.525159 0.761929 0.980048
Si Si7 0.119703 0.005886 0.258606
O O1 0.177079 0.353984 0.053803
O O2 0.195453 0.361235 0.348847
O O3 0.851611 0.215824 0.996330
O O4 0.000000 0.500000 0.000000
O O5 0.833277 0.130019 0.297316
O O6 0.707382 0.300443 0.229610
O O7 0.096495 0.355976 0.539721
O O8 0.845634 0.137230 0.598112
O O9 0.436700 0.567925 0.632620
O O10 0.631186 0.731696 0.942429
O O11 0.689266 0.844745 0.667408
O O12 0.587810 0.690646 0.213406
O O13 0.019491 0.977371 0.739896
O O14 0.392765 0.065224 0.007703
O O15 0.000000 0.000000 0.000000
#
# Coordination Sequence:
#
# PCOD9034033 Si02
#       7
#     2   2   2   2   2   2   2
#     4  10  25  46  73 103 136 184 232 278 351 414
#     4  11  25  43  72 101 137 185 235 276 338 424
#     4  11  25  44  70 101 146 179 221 296 345 398
#     4  11  25  47  69  98 143 183 224 287 339 410
#     4  10  22  44  71 100 139 181 228 293 331 411
#     4  12  25  45  71 105 136 182 236 278 351 403
#     4  11  21  44  70 101 139 175 228 288 348 393
#
# _framework density 23.527093000000001
#
# number of rings (size 3 to 8) (size 9 to 14) (size 15 to 20)
#    0.000    1.143    2.857    1.714    8.000    2.286 
#    7.714    0.000    0.000    0.000    0.000    0.000 
#    0.000    0.000    0.000    0.000    0.000    0.000 
#
# Total GULP energy -78323.850955 kJ/mol
# GULP energy per Si atom -5594.560782 kJ/mol
# Density = 2.347354 g / cm^3
# Si number density = 23.527093 Si / 1000 Ang^3
#
#
#
# Elastic Constant Matrix: (Units=GPa)
#
#
# Indices 1 2 3 4 5 6 
#
# 1 88.2319 25.4569 48.7812 -12.4512 -2.2845 -1.3053
# 2 25.4569 132.0118 29.4366 19.1366 22.6006 33.5849
# 3 48.7812 29.4366 85.4704 -12.5574 14.8516 7.2915
# 4 -12.4512 19.1366 -12.5574 34.7319 -7.7548 9.7787
# 5 -2.2845 22.6006 14.8516 -7.7548 34.8701 11.6252
# 6 -1.3053 33.5849 7.2915 9.7787 11.6252 29.9528
#
#
#
# Elastic Compliance Matrix: (Units=1/GPa)
#
#
# Indices 1 2 3 4 5 6 
#
# 1 0.019902 -0.004948 -0.010482 0.007463 0.009715 0.002760
# 2 -0.004948 0.013768 -0.001070 -0.008715 -0.007520 -0.009629
# 3 -0.010482 -0.001070 0.019935 0.003173 -0.006964 -0.002443
# 4 0.007463 -0.008715 0.003173 0.045334 0.019175 -0.012918
# 5 0.009715 -0.007520 -0.006964 0.019175 0.045931 -0.013536
# 6 0.002760 -0.009629 -0.002443 -0.012918 -0.013536 0.054369
#
#
# Mechanical properties :
#
#
# Convention : Reuss Voigt Hill
#
# Bulk Modulus (GPa) = 48.52891 57.00706 52.76798
# Shear Modulus (GPa) = 20.91102 33.38027 27.14565
#
# Velocity S-wave (km/s) = 2.98452 3.77078 3.40045
# Velocity P-wave (km/s) = 5.70509 6.57582 6.15587
#
# Compressibility (1/GPa) = 0.02060627
#
# Stress axis : x y z
#
# Youngs Moduli (GPa) = 50.24627 72.63065 50.16183
#
# Poissons Ratio (x) = 0.35936 0.52579
# Poissons Ratio (y) = 0.24860 0.05369
# Poissons Ratio (z) = 0.52667 0.07773
#
# Static dielectric constant tensor:
#      x y z
#    x 1.911420 -0.000950 -0.000200 
#    y -0.000950 1.930640 -0.002760 
#    z -0.000200 -0.002760 1.890140 
# 
# From -- ./inp_files/262240.got.cif
#   From: 2010.05.17/outbox.cif.g08.bks.cpg/sg2_132_cif.got.tgz:262240.got - 2010.06.03 11:33:40.
