data_PCOD9034562
_publ_section_title
;
Structure prediction by ZEFSAII (Michael W. Deem and Ramdas Pophale) SiO2 
 PCOD9034562
Probable space group: P -1
;
_chemical_formula_sum "Si O2"
_cell_formula_units_Z 13
_cell_length_a 6.356129
_cell_length_b 9.775435
_cell_length_c 17.069906
_cell_angle_alpha 50.328234
_cell_angle_beta 72.705307
_cell_angle_gamma 44.728504
_cell_volume 550.099690
_symmetry_space_group_name_H-M "P -1"
_symmetry_group_IT_number 2
_symmetry_cell_setting 'triclinic'
loop_
_space_group_symop_operation_xyz
x,y,z
-x,-y,-z
loop_
_atom_site_type_symbol
_atom_site_label
_atom_site_fract_x
_atom_site_fract_y
_atom_site_fract_z
Si Si1 0.800476 0.039600 0.242042
Si Si2 0.122175 0.560776 0.083964
Si Si3 0.785958 0.843520 0.164198
Si Si4 0.413639 0.166744 0.558435
Si Si5 0.990383 0.657654 0.612021
Si Si6 0.939742 0.760667 0.865259
Si Si7 0.500000 0.500000 0.500000
O O1 0.459848 0.323897 0.168677
O O2 0.027864 0.062852 0.239072
O O3 0.910135 0.906279 0.194018
O O4 0.766938 0.889356 0.355922
O O5 0.971042 0.452870 0.122464
O O6 0.922346 0.790675 0.082164
O O7 0.137830 0.638655 0.967917
O O8 0.875789 0.591748 0.269039
O O9 0.414169 0.071342 0.130127
O O10 0.245820 0.278332 0.452686
O O11 0.402095 0.351801 0.541023
O O12 0.766593 0.898818 0.605180
O O13 0.261039 0.622524 0.557872
#
# Coordination Sequence:
#
# PCOD9034562 Si02
#       7
#     2   2   2   2   2   2   1
#     4  11  23  41  65  95 129 168 211 262 320 379
#     4  10  22  45  64  94 131 166 216 264 316 380
#     4  11  23  41  64  96 129 167 216 262 315 381
#     4  11  25  45  63  95 132 168 212 261 319 380
#     4  11  25  43  64  94 130 168 214 261 316 383
#     4  10  24  41  68  95 127 170 213 266 318 373
#     4  12  24  44  70  90 126 170 214 266 310 376
#
# _framework density 23.632080999999999
#
# number of rings (size 3 to 8) (size 9 to 14) (size 15 to 20)
#    0.000    1.231    3.077    1.846    2.154    1.846 
#    5.538    0.000    0.000    0.000    0.000    0.000 
#    0.000    0.000    0.000    0.000    0.000    0.000 
#
# Total GULP energy -72549.654738 kJ/mol
# GULP energy per Si atom -5580.742672 kJ/mol
# Density = 2.357829 g / cm^3
# Si number density = 23.632081 Si / 1000 Ang^3
#
#
#
# Elastic Constant Matrix: (Units=GPa)
#
#
# Indices 1 2 3 4 5 6 
#
# 1 40.7975 12.2806 24.5421 1.1286 -23.4336 14.3594
# 2 12.2806 117.0122 2.6758 3.3401 -10.2417 18.4430
# 3 24.5421 2.6758 57.2904 -3.7400 -6.0808 6.3770
# 4 1.1286 3.3401 -3.7400 35.4516 -2.6735 4.1695
# 5 -23.4336 -10.2417 -6.0808 -2.6735 48.8671 -7.5693
# 6 14.3594 18.4430 6.3770 4.1695 -7.5693 27.6714
#
#
#
# Elastic Compliance Matrix: (Units=1/GPa)
#
#
# Indices 1 2 3 4 5 6 
#
# 1 0.054374 -0.000661 -0.019086 -0.000033 0.020821 -0.017677
# 2 -0.000661 0.009617 0.000583 -0.000059 0.000845 -0.005962
# 3 -0.019086 0.000583 0.024979 0.002554 -0.005492 0.001872
# 4 -0.000033 -0.000059 0.002554 0.029113 0.001170 -0.004599
# 5 0.020821 0.000845 -0.005492 0.001170 0.029671 -0.002162
# 6 -0.017677 -0.005962 0.001872 -0.004599 -0.002162 0.048955
#
#
# Mechanical properties :
#
#
# Convention : Reuss Voigt Hill
#
# Bulk Modulus (GPa) = 19.74622 32.67747 26.21185
# Shear Modulus (GPa) = 19.84779 34.10477 26.97628
#
# Velocity S-wave (km/s) = 2.90119 3.80301 3.38229
# Velocity P-wave (km/s) = 4.42678 5.75686 5.13507
#
# Compressibility (1/GPa) = 0.05064260
#
# Stress axis : x y z
#
# Youngs Moduli (GPa) = 18.39128 103.97842 40.03309
#
# Poissons Ratio (x) = 0.06870 0.76409
# Poissons Ratio (y) = 0.01215 -0.02335
# Poissons Ratio (z) = 0.35102 -0.06064
#
# Static dielectric constant tensor:
#      x y z
#    x 1.822380 0.064230 0.026450 
#    y 0.064230 1.723410 0.009510 
#    z 0.026450 0.009510 1.932950 
# 
# From -- ./inp_files/34220.got.cif
#   From: 2010.05.17/outbox.cif.g08.bks.cpg/sg2_18_cif.got.tgz:34220.got - 2010.06.03 11:33:40.
