data_PCOD9034529
_publ_section_title
;
Structure prediction by ZEFSAII (Michael W. Deem and Ramdas Pophale) SiO2 
 PCOD9034529
Probable space group: P -1
;
_chemical_formula_sum "Si O2"
_cell_formula_units_Z 14
_cell_length_a 7.745959
_cell_length_b 14.736169
_cell_length_c 9.449962
_cell_angle_alpha 37.250099
_cell_angle_beta 72.491665
_cell_angle_gamma 57.323133
_cell_volume 531.694120
_symmetry_space_group_name_H-M "P -1"
_symmetry_group_IT_number 2
_symmetry_cell_setting 'triclinic'
loop_
_space_group_symop_operation_xyz
x,y,z
-x,-y,-z
loop_
_atom_site_type_symbol
_atom_site_label
_atom_site_fract_x
_atom_site_fract_y
_atom_site_fract_z
Si Si1 0.131530 0.815658 0.430790
Si Si2 0.383935 0.189656 0.364888
Si Si3 0.231050 0.815232 0.840017
Si Si4 0.844571 0.649902 0.195613
Si Si5 0.954294 0.348133 0.112321
Si Si6 0.835621 0.344897 0.678290
Si Si7 0.441107 0.963743 0.211745
O O1 0.127016 0.771792 0.322908
O O2 0.291753 0.883857 0.329776
O O3 0.186172 0.648887 0.723130
O O4 0.902532 0.981289 0.330412
O O5 0.553029 0.246904 0.219133
O O6 0.163652 0.308076 0.195379
O O7 0.378312 0.159867 0.569788
O O8 0.500000 0.000000 0.500000
O O9 0.077549 0.790035 0.803260
O O10 0.273487 0.700171 0.113363
O O11 0.734931 0.544131 0.402177
O O12 0.950917 0.685721 0.259859
O O13 0.028966 0.549215 0.157084
O O14 0.681924 0.840025 0.936584
O O15 0.500000 0.000000 0.000000
#
# Coordination Sequence:
#
# PCOD9034529 Si02
#       7
#     2   2   2   2   2   2   2
#     4  12  21  39  65  98 124 164 218 276 306 375
#     4  12  22  37  66  99 120 173 208 269 330 364
#     4  11  21  41  64  99 130 166 219 267 312 392
#     4  10  22  45  60  94 133 174 209 262 326 395
#     4  11  22  40  68  92 134 163 219 265 323 381
#     4  10  24  38  67  92 132 175 211 258 333 378
#     4  12  26  40  65  99 129 158 222 276 315 380
#
# _framework density 26.330929000000001
#
# number of rings (size 3 to 8) (size 9 to 14) (size 15 to 20)
#    0.000    0.857    7.143    0.857    4.000    0.571 
#    0.000    2.857    0.000    1.714    0.000    0.000 
#    0.000    0.000    0.000    0.000    0.000    0.000 
#
# Total GULP energy -78250.663927 kJ/mol
# GULP energy per Si atom -5589.333138 kJ/mol
# Density = 2.627100 g / cm^3
# Si number density = 26.330929 Si / 1000 Ang^3
#
#
#
# Elastic Constant Matrix: (Units=GPa)
#
#
# Indices 1 2 3 4 5 6 
#
# 1 95.3474 26.6705 50.3663 7.9567 6.8853 9.0259
# 2 26.6705 90.4370 49.2745 34.7853 18.0701 23.8452
# 3 50.3663 49.2745 184.5498 35.6777 -6.3811 0.8952
# 4 7.9567 34.7853 35.6777 62.8615 -3.1898 5.3599
# 5 6.8853 18.0701 -6.3811 -3.1898 46.1477 12.1260
# 6 9.0259 23.8452 0.8952 5.3599 12.1260 28.9253
#
#
#
# Elastic Compliance Matrix: (Units=1/GPa)
#
#
# Indices 1 2 3 4 5 6 
#
# 1 0.012917 -0.001662 -0.003366 0.001345 -0.001024 -0.002376
# 2 -0.001662 0.021603 -0.003754 -0.008798 -0.005904 -0.013068
# 3 -0.003366 -0.003754 0.007801 -0.002118 0.001995 0.003460
# 4 0.001345 -0.008798 -0.002118 0.021928 0.004183 0.001082
# 5 -0.001024 -0.005904 0.001995 0.004183 0.026472 -0.006748
# 6 -0.002376 -0.013068 0.003460 0.001082 -0.006748 0.048608
#
#
# Mechanical properties :
#
#
# Convention : Reuss Voigt Hill
#
# Bulk Modulus (GPa) = 40.39141 69.21742 54.80442
# Shear Modulus (GPa) = 30.27636 43.85510 37.06573
#
# Velocity S-wave (km/s) = 3.39461 4.08552 3.75599
# Velocity P-wave (km/s) = 5.54416 6.97136 6.29832
#
# Compressibility (1/GPa) = 0.02475774
#
# Stress axis : x y z
#
# Youngs Moduli (GPa) = 77.41538 46.29089 128.18674
#
# Poissons Ratio (x) = 0.07693 0.43143
# Poissons Ratio (y) = 0.12866 0.48123
# Poissons Ratio (z) = 0.26055 0.17378
#
# Static dielectric constant tensor:
#      x y z
#    x 2.051540 -0.081540 -0.003600 
#    y -0.081540 2.214840 -0.106070 
#    z -0.003600 -0.106070 2.125510 
# 
# From -- ./inp_files/205131.got.cif
#   From: 2010.05.17/outbox.cif.g08.bks.cpg/sg2_103_cif.got.tgz:205131.got - 2010.06.03 11:33:40.
