data_PCOD9034590
_publ_section_title
;
Structure prediction by ZEFSAII (Michael W. Deem and Ramdas Pophale) SiO2 
 PCOD9034590
Probable space group: P -1
;
_chemical_formula_sum "Si O2"
_cell_formula_units_Z 16
_cell_length_a 11.269128
_cell_length_b 12.397046
_cell_length_c 11.121236
_cell_angle_alpha 96.532659
_cell_angle_beta 136.171967
_cell_angle_gamma 114.517342
_cell_volume 739.086056
_symmetry_space_group_name_H-M "P -1"
_symmetry_group_IT_number 2
_symmetry_cell_setting 'triclinic'
loop_
_space_group_symop_operation_xyz
x,y,z
-x,-y,-z
loop_
_atom_site_type_symbol
_atom_site_label
_atom_site_fract_x
_atom_site_fract_y
_atom_site_fract_z
Si Si1 0.134401 0.813868 0.387445
Si Si2 0.547928 0.904626 0.079667
Si Si3 0.800088 0.339544 0.401557
Si Si4 0.527588 0.728634 0.435137
Si Si5 0.349602 0.855804 0.192596
Si Si6 0.020110 0.003187 0.715932
Si Si7 0.151502 0.359337 0.081295
Si Si8 0.369363 0.223486 0.216040
O O1 0.112583 0.733639 0.483194
O O2 0.429515 0.958418 0.592482
O O3 0.041435 0.896905 0.339330
O O4 0.985738 0.689952 0.154338
O O5 0.427088 0.854060 0.115511
O O6 0.824640 0.985972 0.273348
O O7 0.395865 0.761169 0.860759
O O8 0.500000 0.000000 0.000000
O O9 0.651554 0.331040 0.397449
O O10 0.000000 0.500000 0.500000
O O11 0.379411 0.764536 0.285397
O O12 0.337330 0.541274 0.274628
O O13 0.647811 0.812874 0.661759
O O14 0.761989 0.824009 0.529517
O O15 0.068527 0.763291 0.998196
O O16 0.186437 0.079167 0.970348
O O17 0.307850 0.321831 0.176576
#
# Coordination Sequence:
#
# PCOD9034590 Si02
#       8
#     2   2   2   2   2   2   2   2
#     4  10  22  45  65  94 126 172 215 261 321 382
#     4  11  24  44  66  97 127 171 217 255 318 386
#     4  11  25  43  68  92 131 170 211 267 321 381
#     4  11  23  39  68  96 128 166 212 275 311 370
#     4  11  24  42  65  94 130 172 211 261 319 385
#     4   9  23  44  67  94 128 170 215 259 318 386
#     4  11  24  40  66  99 130 163 215 269 322 368
#     4  10  23  43  62  97 126 169 215 256 328 380
#
# _framework density 21.648358000000002
#
# number of rings (size 3 to 8) (size 9 to 14) (size 15 to 20)
#    0.000    1.500    1.250    2.250    5.250    5.000 
#    2.250    1.875    0.000    0.000    0.000    0.000 
#    0.000    0.000    0.000    0.000    0.000    0.000 
#
# Total GULP energy -89340.582590 kJ/mol
# GULP energy per Si atom -5583.786412 kJ/mol
# Density = 2.159909 g / cm^3
# Si number density = 21.648358 Si / 1000 Ang^3
#
#
#
# Elastic Constant Matrix: (Units=GPa)
#
#
# Indices 1 2 3 4 5 6 
#
# 1 91.5818 27.2216 47.6982 3.8930 11.3672 5.3544
# 2 27.2216 75.5439 25.6395 0.2064 16.7866 7.3459
# 3 47.6982 25.6395 70.8283 2.6686 8.0591 4.8637
# 4 3.8930 0.2064 2.6686 35.5432 11.9406 -2.9131
# 5 11.3672 16.7866 8.0591 11.9406 39.5723 -2.8831
# 6 5.3544 7.3459 4.8637 -2.9131 -2.8831 22.4397
#
#
#
# Elastic Compliance Matrix: (Units=1/GPa)
#
#
# Indices 1 2 3 4 5 6 
#
# 1 0.017431 -0.002108 -0.010638 -0.000589 -0.001876 -0.001481
# 2 -0.002108 0.017327 -0.003801 0.002378 -0.007048 -0.004942
# 3 -0.010638 -0.003801 0.022751 -0.000670 0.000149 -0.001216
# 4 -0.000589 0.002378 -0.000670 0.031833 -0.010138 0.002337
# 5 -0.001876 -0.007048 0.000149 -0.010138 0.032232 0.005548
# 6 -0.001481 -0.004942 -0.001216 0.002337 0.005548 0.047815
#
#
# Mechanical properties :
#
#
# Convention : Reuss Voigt Hill
#
# Bulk Modulus (GPa) = 40.95917 48.78583 44.87250
# Shear Modulus (GPa) = 23.73924 28.67069 26.20496
#
# Velocity S-wave (km/s) = 3.31506 3.64315 3.48297
# Velocity P-wave (km/s) = 5.79777 6.34675 6.07846
#
# Compressibility (1/GPa) = 0.02441456
#
# Stress axis : x y z
#
# Youngs Moduli (GPa) = 57.36937 57.71236 43.95494
#
# Poissons Ratio (x) = 0.12165 0.46760
# Poissons Ratio (y) = 0.12093 0.16708
# Poissons Ratio (z) = 0.61030 0.21937
#
# Static dielectric constant tensor:
#      x y z
#    x 1.839220 0.005110 0.024910 
#    y 0.005110 1.749830 -0.052130 
#    z 0.024910 -0.052130 1.780870 
# 
# From -- ./inp_files/261659.got.cif
#   From: 2010.05.17/outbox.cif.g08.bks.cpg/sg2_131_cif.got.tgz:261659.got - 2010.06.03 11:33:40.
