data_PCOD9034973
_publ_section_title
;
Structure prediction by ZEFSAII (Michael W. Deem and Ramdas Pophale) SiO2 
 PCOD9034973
Probable space group: P -1
;
_chemical_formula_sum "Si O2"
_cell_formula_units_Z 14
_cell_length_a 7.458125
_cell_length_b 8.268289
_cell_length_c 14.251746
_cell_angle_alpha 122.644075
_cell_angle_beta 82.896632
_cell_angle_gamma 56.830279
_cell_volume 498.240216
_symmetry_space_group_name_H-M "P -1"
_symmetry_group_IT_number 2
_symmetry_cell_setting 'triclinic'
loop_
_space_group_symop_operation_xyz
x,y,z
-x,-y,-z
loop_
_atom_site_type_symbol
_atom_site_label
_atom_site_fract_x
_atom_site_fract_y
_atom_site_fract_z
Si Si1 0.908020 0.259990 0.716228
Si Si2 0.122958 0.059943 0.936646
Si Si3 0.898493 0.497365 0.221742
Si Si4 0.383483 0.528012 0.383916
Si Si5 0.688299 0.638208 0.474434
Si Si6 0.348413 0.420784 0.999601
Si Si7 0.636150 0.087965 0.710526
O O1 0.840887 0.302542 0.626024
O O2 0.676316 0.555923 0.880258
O O3 0.862146 0.077278 0.697566
O O4 0.131245 0.249309 0.712042
O O5 0.936189 0.306428 0.945121
O O6 0.358446 0.776314 0.774501
O O7 0.138701 0.223405 0.060235
O O8 0.000000 0.000000 0.000000
O O9 0.902898 0.453216 0.318354
O O10 0.626301 0.621803 0.234478
O O11 0.448901 0.696027 0.462449
O O12 0.292661 0.483913 0.466748
O O13 0.695383 0.853886 0.573106
O O14 0.500000 0.500000 0.000000
O O15 0.513633 0.141821 0.839052
#
# Coordination Sequence:
#
# PCOD9034973 Si02
#       7
#     2   2   2   2   2   2   2
#     4  11  24  45  69 107 134 178 237 288 335 409
#     4  11  21  43  72 102 139 184 227 283 344 408
#     4  11  24  41  73 103 134 182 235 279 349 403
#     4  11  25  45  70 100 143 183 226 281 353 405
#     4  11  24  46  68  97 142 190 220 280 351 417
#     4   9  21  41  69 104 135 171 234 288 333 393
#     4  10  22  45  69  97 143 179 223 288 345 407
#
# _framework density 28.098894000000001
#
# number of rings (size 3 to 8) (size 9 to 14) (size 15 to 20)
#    0.000    1.429    2.857    2.143    4.000    2.857 
#    5.143    1.429    0.000    0.000    0.000    0.000 
#    0.000    0.000    0.000    0.000    0.000    0.000 
#
# Total GULP energy -78163.649909 kJ/mol
# GULP energy per Si atom -5583.117851 kJ/mol
# Density = 2.803494 g / cm^3
# Si number density = 28.098894 Si / 1000 Ang^3
#
#
#
# Elastic Constant Matrix: (Units=GPa)
#
#
# Indices 1 2 3 4 5 6 
#
# 1 125.8199 27.0920 41.1078 18.5051 23.5552 35.3312
# 2 27.0920 57.2498 66.1937 -3.3752 4.7872 9.1996
# 3 41.1078 66.1937 231.0521 -6.1937 31.7036 6.5089
# 4 18.5051 -3.3752 -6.1937 66.8631 6.3161 8.5310
# 5 23.5552 4.7872 31.7036 6.3161 40.9788 10.0264
# 6 35.3312 9.1996 6.5089 8.5310 10.0264 33.9262
#
#
#
# Elastic Compliance Matrix: (Units=1/GPa)
#
#
# Indices 1 2 3 4 5 6 
#
# 1 0.012901 -0.003595 -0.000519 -0.002083 -0.003640 -0.010761
# 2 -0.003595 0.029226 -0.008381 0.001735 0.006042 -0.004796
# 3 -0.000519 -0.008381 0.007482 0.000555 -0.005282 0.002799
# 4 -0.002083 0.001735 0.000555 0.016064 -0.001415 -0.002029
# 5 -0.003640 0.006042 -0.005282 -0.001415 0.031511 -0.005791
# 6 -0.010761 -0.004796 0.002799 -0.002029 -0.005791 0.043668
#
#
# Mechanical properties :
#
#
# Convention : Reuss Voigt Hill
#
# Bulk Modulus (GPa) = 40.61518 75.87873 58.24696
# Shear Modulus (GPa) = 28.72780 47.00219 37.86500
#
# Velocity S-wave (km/s) = 3.20094 4.09435 3.67490
# Velocity P-wave (km/s) = 5.30538 7.02954 6.22742
#
# Compressibility (1/GPa) = 0.02462134
#
# Stress axis : x y z
#
# Youngs Moduli (GPa) = 77.51251 34.21583 133.65203
#
# Poissons Ratio (x) = 0.12299 0.06932
# Poissons Ratio (y) = 0.27862 1.12012
# Poissons Ratio (z) = 0.04020 0.28676
#
# Static dielectric constant tensor:
#      x y z
#    x 2.257070 -0.014510 -0.069340 
#    y -0.014510 1.325670 0.045090 
#    z -0.069340 0.045090 2.218510 
# 
# From -- ./inp_files/493850.got.cif
#   From: 2010.05.17/outbox.cif.g08.bks.cpg/sg2_247_cif.got.tgz:493850.got - 2010.06.03 11:33:40.
