data_PCOD9034818
_publ_section_title
;
Structure prediction by ZEFSAII (Michael W. Deem and Ramdas Pophale) SiO2 
 PCOD9034818
Probable space group: P -1
;
_chemical_formula_sum "Si O2"
_cell_formula_units_Z 16
_cell_length_a 19.593013
_cell_length_b 9.010546
_cell_length_c 9.455606
_cell_angle_alpha 112.919665
_cell_angle_beta 128.683797
_cell_angle_gamma 107.689051
_cell_volume 778.413026
_symmetry_space_group_name_H-M "P -1"
_symmetry_group_IT_number 2
_symmetry_cell_setting 'triclinic'
loop_
_space_group_symop_operation_xyz
x,y,z
-x,-y,-z
loop_
_atom_site_type_symbol
_atom_site_label
_atom_site_fract_x
_atom_site_fract_y
_atom_site_fract_z
Si Si1 0.899000 0.651380 0.710899
Si Si2 0.089398 0.772167 0.761983
Si Si3 0.360645 0.835169 0.678317
Si Si4 0.858085 0.891833 0.282333
Si Si5 0.141026 0.063902 0.366016
Si Si6 0.631781 0.464140 0.621841
Si Si7 0.378773 0.186850 0.364452
Si Si8 0.602318 0.779167 0.291456
O O1 0.773649 0.358915 0.470654
O O2 0.839175 0.736915 0.611345
O O3 0.004197 0.748509 0.760890
O O4 0.990106 0.801744 0.025662
O O5 0.000000 0.500000 0.500000
O O6 0.123788 0.926469 0.725875
O O7 0.230352 0.908358 0.056599
O O8 0.342620 0.659685 0.481338
O O9 0.380442 0.036510 0.708341
O O10 0.500000 0.000000 0.000000
O O11 0.835499 0.893145 0.419335
O O12 0.737439 0.627192 0.949096
O O13 0.000000 0.000000 0.500000
O O14 0.250756 0.095123 0.461106
O O15 0.478984 0.259006 0.403900
O O16 0.642012 0.648279 0.618030
O O17 0.443303 0.240553 0.618022
O O18 0.500000 0.500000 0.000000
#
# Coordination Sequence:
#
# PCOD9034818 Si02
#       8
#     2   2   2   2   2   2   2   2
#     4  11  24  45  69  99 136 182 221 280 339 404
#     4  11  25  41  66  99 140 177 222 277 338 397
#     4  12  28  43  68  99 136 179 225 284 337 403
#     4  11  22  41  67 100 131 183 222 276 334 398
#     4  11  23  43  72  98 137 178 226 274 336 406
#     4  10  23  43  69  97 134 174 228 277 339 399
#     4  10  22  45  68  95 131 181 223 277 334 400
#     4  12  25  44  68  99 132 176 228 275 339 404
#
# _framework density 20.554642000000001
#
# number of rings (size 3 to 8) (size 9 to 14) (size 15 to 20)
#    0.000    1.000    2.500    3.750    7.000    4.000 
#    0.000    0.000    0.000    0.000    0.000    0.000 
#    0.000    0.000    0.000    0.000    0.000    0.000 
#
# Total GULP energy -89403.123492 kJ/mol
# GULP energy per Si atom -5587.695218 kJ/mol
# Density = 2.050786 g / cm^3
# Si number density = 20.554642 Si / 1000 Ang^3
#
#
#
# Elastic Constant Matrix: (Units=GPa)
#
#
# Indices 1 2 3 4 5 6 
#
# 1 59.7592 16.6317 19.8669 1.5806 4.6019 3.1760
# 2 16.6317 86.5267 53.9443 1.9644 1.6691 5.2740
# 3 19.8669 53.9443 126.1521 5.0162 -5.7613 3.0052
# 4 1.5806 1.9644 5.0162 34.6180 2.2524 -1.4800
# 5 4.6019 1.6691 -5.7613 2.2524 31.4251 -5.1615
# 6 3.1760 5.2740 3.0052 -1.4800 -5.1615 30.4534
#
#
#
# Elastic Compliance Matrix: (Units=1/GPa)
#
#
# Indices 1 2 3 4 5 6 
#
# 1 0.018362 -0.002022 -0.002119 -0.000286 -0.003265 -0.001923
# 2 -0.002022 0.016306 -0.006707 0.000183 -0.002193 -0.002314
# 3 -0.002119 -0.006707 0.011299 -0.001322 0.002948 0.000703
# 4 -0.000286 0.000183 -0.001322 0.029269 -0.002112 0.001193
# 5 -0.003265 -0.002193 0.002948 -0.002112 0.034112 0.006108
# 6 -0.001923 -0.002314 0.000703 0.001193 0.006108 0.034462
#
#
# Mechanical properties :
#
#
# Convention : Reuss Voigt Hill
#
# Bulk Modulus (GPa) = 41.19893 50.36932 45.78412
# Shear Modulus (GPa) = 28.80250 31.43230 30.11740
#
# Velocity S-wave (km/s) = 3.74741 3.91475 3.83199
# Velocity P-wave (km/s) = 6.22987 6.70761 6.47314
#
# Compressibility (1/GPa) = 0.02427248
#
# Stress axis : x y z
#
# Youngs Moduli (GPa) = 54.45958 61.32684 88.50370
#
# Poissons Ratio (x) = 0.12398 0.18756
# Poissons Ratio (y) = 0.11009 0.59356
# Poissons Ratio (z) = 0.11541 0.41129
#
# Static dielectric constant tensor:
#      x y z
#    x 1.785380 0.094390 -0.047060 
#    y 0.094390 1.858740 -0.075090 
#    z -0.047060 -0.075090 1.780120 
# 
# From -- ./inp_files/343698.got.cif
#   From: 2010.05.17/outbox.cif.g08.bks.cpg/sg2_172_cif.got.tgz:343698.got - 2010.06.03 11:33:40.
