data_PCOD9034406
_publ_section_title
;
Structure prediction by ZEFSAII (Michael W. Deem and Ramdas Pophale) SiO2 
 PCOD9034406
Probable space group: P -1
;
_chemical_formula_sum "Si O2"
_cell_formula_units_Z 8
_cell_length_a 8.898507
_cell_length_b 8.473943
_cell_length_c 7.216464
_cell_angle_alpha 143.914277
_cell_angle_beta 105.725068
_cell_angle_gamma 72.390319
_cell_volume 305.147321
_symmetry_space_group_name_H-M "P -1"
_symmetry_group_IT_number 2
_symmetry_cell_setting 'triclinic'
loop_
_space_group_symop_operation_xyz
x,y,z
-x,-y,-z
loop_
_atom_site_type_symbol
_atom_site_label
_atom_site_fract_x
_atom_site_fract_y
_atom_site_fract_z
Si Si1 0.628566 0.018674 0.215100
Si Si2 0.945880 0.748254 0.351216
Si Si3 0.782482 0.499555 0.583100
Si Si4 0.606252 0.695249 0.328780
O O1 0.690110 0.304469 0.490360
O O2 0.511819 0.055913 0.386476
O O3 0.500000 0.000000 0.000000
O O4 0.761897 0.782195 0.957688
O O5 0.759627 0.775098 0.349519
O O6 0.040238 0.663948 0.494778
O O7 0.000000 0.000000 0.500000
O O8 0.000000 0.500000 0.000000
O O9 0.696786 0.537932 0.391561
O O10 0.500000 0.500000 0.000000
#
# Coordination Sequence:
#
# PCOD9034406 Si02
#       4
#     2   2   2   2
#     4  10  22  44  74 107 142 188 243 302 362 432
#     4  12  28  48  72 108 151 194 244 303 366 435
#     4  11  24  48  76 105 146 192 241 303 369 434
#     4  11  25  48  78 112 146 194 248 302 365 441
#
# _framework density 26.216843000000001
#
# number of rings (size 3 to 8) (size 9 to 14) (size 15 to 20)
#    0.000    1.000    0.000    6.750    0.000    8.000 
#    0.000   27.500    0.000    0.000    0.000    0.000 
#    0.000    0.000    0.000    0.000    0.000    0.000 
#
# Total GULP energy -44706.331928 kJ/mol
# GULP energy per Si atom -5588.291491 kJ/mol
# Density = 2.615717 g / cm^3
# Si number density = 26.216843 Si / 1000 Ang^3
#
#
#
# Elastic Constant Matrix: (Units=GPa)
#
#
# Indices 1 2 3 4 5 6 
#
# 1 230.5354 84.2065 56.4837 0.1983 3.5657 -26.1573
# 2 84.2065 143.7311 45.7808 -18.6827 -3.0112 -22.1529
# 3 56.4837 45.7808 156.0039 3.1012 8.2162 11.0206
# 4 0.1983 -18.6827 3.1012 55.8054 2.3914 2.8224
# 5 3.5657 -3.0112 8.2162 2.3914 38.1206 9.6668
# 6 -26.1573 -22.1529 11.0206 2.8224 9.6668 84.5703
#
#
#
# Elastic Compliance Matrix: (Units=1/GPa)
#
#
# Indices 1 2 3 4 5 6 
#
# 1 0.005912 -0.002989 -0.001297 -0.000983 -0.000787 0.001337
# 2 -0.002989 0.010121 -0.002128 0.003389 0.000871 0.001791
# 3 -0.001297 -0.002128 0.007713 -0.000995 -0.001192 -0.001794
# 4 -0.000983 0.003389 -0.000995 0.019134 -0.000664 0.000151
# 5 -0.000787 0.000871 -0.001192 -0.000664 0.027427 -0.002973
# 6 0.001337 0.001791 -0.001794 0.000151 -0.002973 0.013276
#
#
# Mechanical properties :
#
#
# Convention : Reuss Voigt Hill
#
# Bulk Modulus (GPa) = 91.57897 100.35693 95.96795
# Shear Modulus (GPa) = 49.97500 58.61922 54.29711
#
# Velocity S-wave (km/s) = 4.37076 4.73370 4.55585
# Velocity P-wave (km/s) = 7.77680 8.26074 8.02242
#
# Compressibility (1/GPa) = 0.01091954
#
# Stress axis : x y z
#
# Youngs Moduli (GPa) = 169.15025 98.80440 129.64458
#
# Poissons Ratio (x) = 0.29529 0.16814
# Poissons Ratio (y) = 0.50553 0.27586
# Poissons Ratio (z) = 0.21938 0.21024
#
# Static dielectric constant tensor:
#      x y z
#    x 2.122140 -0.054960 -0.012730 
#    y -0.054960 2.270120 0.001020 
#    z -0.012730 0.001020 1.874880 
# 
# From -- ./inp_files/152601.got.cif
#   From: 2010.05.17/outbox.cif.g08.bks.cpg/sg2_77_cif.got.tgz:152601.got - 2010.06.03 11:33:40.
