data_PCOD9034274
_publ_section_title
;
Structure prediction by ZEFSAII (Michael W. Deem and Ramdas Pophale) SiO2 
 PCOD9034274
Probable space group: P -1
;
_chemical_formula_sum "Si O2"
_cell_formula_units_Z 13
_cell_length_a 5.171492
_cell_length_b 6.566133
_cell_length_c 18.936396
_cell_angle_alpha 115.883789
_cell_angle_beta 119.747096
_cell_angle_gamma 81.882890
_cell_volume 499.931213
_symmetry_space_group_name_H-M "P -1"
_symmetry_group_IT_number 2
_symmetry_cell_setting 'triclinic'
loop_
_space_group_symop_operation_xyz
x,y,z
-x,-y,-z
loop_
_atom_site_type_symbol
_atom_site_label
_atom_site_fract_x
_atom_site_fract_y
_atom_site_fract_z
Si Si1 0.283238 0.795364 0.473406
Si Si2 0.755358 0.932393 0.893302
Si Si3 0.500000 0.000000 0.000000
Si Si4 0.824047 0.440854 0.144738
Si Si5 0.311857 0.402346 0.694310
Si Si6 0.162469 0.870932 0.215565
Si Si7 0.475105 0.323430 0.367722
O O1 0.378617 0.559572 0.418733
O O2 0.314479 0.767044 0.557324
O O3 0.942808 0.779926 0.399764
O O4 0.500000 0.000000 0.500000
O O5 0.462757 0.959292 0.902960
O O6 0.883199 0.698032 0.851683
O O7 0.780440 0.093725 0.854515
O O8 0.000000 0.000000 0.000000
O O9 0.435504 0.719547 0.954011
O O10 0.784896 0.487919 0.229247
O O11 0.877625 0.693511 0.160281
O O12 0.584964 0.258265 0.729595
O O13 0.374081 0.603028 0.675301
O O14 0.206313 0.124614 0.291328
#
# Coordination Sequence:
#
# PCOD9034274 Si02
#       7
#     2   2   1   2   2   2   2
#     4  11  25  47  71 102 142 183 231 285 342 410
#     4  10  24  46  68  97 136 178 228 286 346 411
#     4  10  22  44  72  96 130 176 228 284 344 406
#     4  11  24  45  69  99 139 179 230 288 347 413
#     4  12  25  43  69 101 138 183 231 285 348 410
#     4  12  25  43  69 101 138 182 234 286 345 413
#     4  11  25  44  69 101 141 184 230 286 343 410
#
# _framework density 26.003577
#
# number of rings (size 3 to 8) (size 9 to 14) (size 15 to 20)
#    0.000    0.923    0.000    6.923    0.000   12.308 
#    0.000    8.462    0.000    0.000    0.000    0.000 
#    0.000    0.000    0.000    0.000    0.000    0.000 
#
# Total GULP energy -72462.371042 kJ/mol
# GULP energy per Si atom -5574.028542 kJ/mol
# Density = 2.594439 g / cm^3
# Si number density = 26.003577 Si / 1000 Ang^3
#
#
#
# Elastic Constant Matrix: (Units=GPa)
#
#
# Indices 1 2 3 4 5 6 
#
# 1 39.9921 54.7616 16.3364 -0.0683 -17.3797 0.6187
# 2 54.7616 206.5624 84.9472 20.8104 -4.8492 26.5819
# 3 16.3364 84.9472 128.2501 9.6282 -6.1584 17.5761
# 4 -0.0683 20.8104 9.6282 60.8688 12.2687 4.8638
# 5 -17.3797 -4.8492 -6.1584 12.2687 64.8518 -2.7649
# 6 0.6187 26.5819 17.5761 4.8638 -2.7649 44.7918
#
#
#
# Elastic Compliance Matrix: (Units=1/GPa)
#
#
# Indices 1 2 3 4 5 6 
#
# 1 0.050429 -0.015623 0.003328 0.001687 0.012679 0.007868
# 2 -0.015623 0.011883 -0.005238 -0.002146 -0.003593 -0.004769
# 3 0.003328 -0.005238 0.011091 -0.000175 0.001536 -0.001175
# 4 0.001687 -0.002146 -0.000175 0.017891 -0.003145 -0.000818
# 5 0.012679 -0.003593 0.001536 -0.003145 0.019413 0.002894
# 6 0.007868 -0.004769 -0.001175 -0.000818 0.002894 0.025776
#
#
# Mechanical properties :
#
#
# Convention : Reuss Voigt Hill
#
# Bulk Modulus (GPa) = 26.08486 76.32168 51.20327
# Shear Modulus (GPa) = 27.12564 48.68644 37.90604
#
# Velocity S-wave (km/s) = 3.23329 4.33170 3.82216
# Velocity P-wave (km/s) = 4.89815 7.37783 6.26196
#
# Compressibility (1/GPa) = 0.03833642
#
# Stress axis : x y z
#
# Youngs Moduli (GPa) = 19.83000 84.15586 90.16269
#
# Poissons Ratio (x) = 1.31473 -0.30006
# Poissons Ratio (y) = 0.30980 0.47231
# Poissons Ratio (z) = -0.06599 0.44084
#
# Static dielectric constant tensor:
#      x y z
#    x 2.052180 0.036050 0.084640 
#    y 0.036050 2.033320 0.027140 
#    z 0.084640 0.027140 2.050550 
# 
# From -- ./inp_files/545551.got.cif
#   From: 2010.05.17/outbox.cif.g08.bks.cpg/sg2_273_cif.got.tgz:545551.got - 2010.06.03 11:33:40.
