data_PCOD9034275
_publ_section_title
;
Structure prediction by ZEFSAII (Michael W. Deem and Ramdas Pophale) SiO2 
 PCOD9034275
Probable space group: P -1
;
_chemical_formula_sum "Si O2"
_cell_formula_units_Z 10
_cell_length_a 12.744611
_cell_length_b 10.255075
_cell_length_c 9.243837
_cell_angle_alpha 40.178762
_cell_angle_beta 50.658713
_cell_angle_gamma 34.491956
_cell_volume 441.372523
_symmetry_space_group_name_H-M "P -1"
_symmetry_group_IT_number 2
_symmetry_cell_setting 'triclinic'
loop_
_space_group_symop_operation_xyz
x,y,z
-x,-y,-z
loop_
_atom_site_type_symbol
_atom_site_label
_atom_site_fract_x
_atom_site_fract_y
_atom_site_fract_z
Si Si1 0.385872 0.836887 0.005743
Si Si2 0.245666 0.699392 0.823762
Si Si3 0.194864 0.915464 0.388972
Si Si4 0.167397 0.172440 0.628125
Si Si5 0.708768 0.777497 0.809079
O O1 0.503030 0.904911 0.916808
O O2 0.264135 0.039365 0.809114
O O3 0.560893 0.521010 0.073479
O O4 0.272628 0.834197 0.229138
O O5 0.302916 0.698475 0.610662
O O6 0.120760 0.998254 0.750152
O O7 0.167696 0.551908 0.017042
O O8 0.200772 0.143604 0.238790
O O9 0.000000 0.000000 0.500000
O O10 0.301801 0.126582 0.425825
O O11 0.000000 0.500000 0.500000
#
# Coordination Sequence:
#
# PCOD9034275 Si02
#       5
#     2   2   2   2   2
#     4  10  22  44  72  96 134 184 220 270 336 410
#     4   9  23  44  67  95 139 175 228 264 337 406
#     4  11  23  43  67 105 135 171 225 286 334 387
#     4  11  23  43  67 105 135 171 225 286 334 387
#     4   9  23  44  67  95 139 175 228 264 337 406
#
# _framework density 22.656600000000001
#
# number of rings (size 3 to 8) (size 9 to 14) (size 15 to 20)
#    1.200    0.800    0.000    2.400    2.800    1.600 
#    7.200    0.000    0.000    0.000    0.000    0.000 
#    0.000    0.000    0.000    0.000    0.000    0.000 
#
# Total GULP energy -55729.977793 kJ/mol
# GULP energy per Si atom -5572.997779 kJ/mol
# Density = 2.260503 g / cm^3
# Si number density = 22.656600 Si / 1000 Ang^3
#
#
#
# Elastic Constant Matrix: (Units=GPa)
#
#
# Indices 1 2 3 4 5 6 
#
# 1 81.4162 14.6749 31.9445 -2.8749 -9.9155 1.4553
# 2 14.6749 41.0244 24.0913 -9.9731 8.7370 -10.3593
# 3 31.9445 24.0913 94.3946 -17.9943 -4.7638 7.0299
# 4 -2.8749 -9.9731 -17.9943 45.0397 -8.1787 -9.6015
# 5 -9.9155 8.7370 -4.7638 -8.1787 41.9440 -0.4325
# 6 1.4553 -10.3593 7.0299 -9.6015 -0.4325 27.6630
#
#
#
# Elastic Compliance Matrix: (Units=1/GPa)
#
#
# Indices 1 2 3 4 5 6 
#
# 1 0.015101 -0.004856 -0.003782 -0.001360 0.003865 -0.002064
# 2 -0.004856 0.040342 -0.009145 0.007663 -0.008887 0.020207
# 3 -0.003782 -0.009145 0.015437 0.003233 0.003333 -0.005975
# 4 -0.001360 0.007663 0.003233 0.028420 0.004115 0.012048
# 5 0.003865 -0.008887 0.003333 0.004115 0.027761 -0.002516
# 6 -0.002064 0.020207 -0.005975 0.012048 -0.002516 0.049486
#
#
# Mechanical properties :
#
#
# Convention : Reuss Voigt Hill
#
# Bulk Modulus (GPa) = 28.31746 39.80629 34.06187
# Shear Modulus (GPa) = 22.33299 32.67099 27.50199
#
# Velocity S-wave (km/s) = 3.14302 3.80150 3.48783
# Velocity P-wave (km/s) = 5.06923 6.07257 5.59344
#
# Compressibility (1/GPa) = 0.03531390
#
# Stress axis : x y z
#
# Youngs Moduli (GPa) = 66.21965 24.78833 64.77961
#
# Poissons Ratio (x) = 0.12038 0.24497
# Poissons Ratio (y) = 0.32158 0.59242
# Poissons Ratio (z) = 0.25042 0.22669
#
# Static dielectric constant tensor:
#      x y z
#    x 1.886200 0.008290 -0.012980 
#    y 0.008290 1.891450 -0.014060 
#    z -0.012980 -0.014060 1.852700 
# 
# From -- ./inp_files/229201.got.cif
#   From: 2010.05.17/outbox.cif.g08.bks.cpg/sg2_115_cif.got.tgz:229201.got - 2010.06.03 11:33:40.
