data_PCOD9034423
_publ_section_title
;
Structure prediction by ZEFSAII (Michael W. Deem and Ramdas Pophale) SiO2 
 PCOD9034423
Probable space group: P -1
;
_chemical_formula_sum "Si O2"
_cell_formula_units_Z 15
_cell_length_a 5.445657
_cell_length_b 4.991037
_cell_length_c 21.960484
_cell_angle_alpha 109.841821
_cell_angle_beta 105.885236
_cell_angle_gamma 83.102416
_cell_volume 539.755676
_symmetry_space_group_name_H-M "P -1"
_symmetry_group_IT_number 2
_symmetry_cell_setting 'triclinic'
loop_
_space_group_symop_operation_xyz
x,y,z
-x,-y,-z
loop_
_atom_site_type_symbol
_atom_site_label
_atom_site_fract_x
_atom_site_fract_y
_atom_site_fract_z
Si Si1 0.305121 0.670778 0.955214
Si Si2 0.261686 0.038581 0.196906
Si Si3 0.500000 0.500000 0.500000
Si Si4 0.494032 0.927711 0.395685
Si Si5 0.884138 0.370756 0.738615
Si Si6 0.002928 0.571217 0.431906
Si Si7 0.748982 0.788725 0.924033
Si Si8 0.739534 0.122695 0.305081
O O1 0.469067 0.654881 0.902792
O O2 0.007018 0.588146 0.927232
O O3 0.500000 0.500000 0.000000
O O4 0.258961 0.992262 0.002617
O O5 0.071925 0.297302 0.225008
O O6 0.240884 0.025959 0.122302
O O7 0.534681 0.169546 0.242190
O O8 0.217926 0.766956 0.215461
O O9 0.386142 0.196658 0.446704
O O10 0.290557 0.670959 0.454527
O O11 0.586135 0.105705 0.356064
O O12 0.316177 0.703442 0.333383
O O13 0.761075 0.787005 0.426127
O O14 0.129455 0.181285 0.722991
O O15 0.000000 0.500000 0.500000
O O16 0.944331 0.349668 0.356992
#
# Coordination Sequence:
#
# PCOD9034423 Si02
#       8
#     2   2   1   2   2   2   2   2
#     4  10  22  44  74 110 153 199 242 315 361 440
#     4  11  27  46  71 106 138 191 242 291 357 438
#     4  12  24  40  62  92 120 170 218 284 362 430
#     4  11  25  44  64  95 128 171 229 292 361 435
#     4  11  26  46  71  97 141 183 234 295 362 426
#     4  12  25  42  64  92 124 170 226 291 355 436
#     4  10  24  43  72 110 151 194 258 298 374 434
#     4  11  25  44  67  92 137 176 233 293 358 432
#
# _framework density 27.790351000000001
#
# number of rings (size 3 to 8) (size 9 to 14) (size 15 to 20)
#    0.000    1.067    4.000    0.800    5.600    2.667 
#    0.000    0.000    0.000    0.000    0.000    0.000 
#    0.000    0.000    0.000    0.000    0.000    0.000 
#
# Total GULP energy -83685.737319 kJ/mol
# GULP energy per Si atom -5579.049155 kJ/mol
# Density = 2.772710 g / cm^3
# Si number density = 27.790351 Si / 1000 Ang^3
#
#
#
# Elastic Constant Matrix: (Units=GPa)
#
#
# Indices 1 2 3 4 5 6 
#
# 1 126.9877 15.2325 37.4153 -5.2515 0.5030 -36.4978
# 2 15.2325 104.7897 21.3848 -10.2941 9.6025 -15.8392
# 3 37.4153 21.3848 122.3318 -26.5006 0.3341 -5.1373
# 4 -5.2515 -10.2941 -26.5006 48.1938 1.0968 1.1550
# 5 0.5030 9.6025 0.3341 1.0968 35.7848 -8.1147
# 6 -36.4978 -15.8392 -5.1373 1.1550 -8.1147 46.9791
#
#
#
# Elastic Compliance Matrix: (Units=1/GPa)
#
#
# Indices 1 2 3 4 5 6 
#
# 1 0.011325 0.000108 -0.003292 -0.000807 0.001867 0.008817
# 2 0.000108 0.010633 -0.001438 0.001468 -0.002184 0.003098
# 3 -0.003292 -0.001438 0.010460 0.005143 -0.000294 -0.002076
# 4 -0.000807 0.001468 0.005143 0.023840 -0.001245 -0.000371
# 5 0.001867 -0.002184 -0.000294 -0.001245 0.029877 0.005873
# 6 0.008817 0.003098 -0.002076 -0.000371 0.005873 0.029977
#
#
# Mechanical properties :
#
#
# Convention : Reuss Voigt Hill
#
# Bulk Modulus (GPa) = 43.15040 55.79715 49.47378
# Shear Modulus (GPa) = 37.57053 44.86332 41.21692
#
# Velocity S-wave (km/s) = 3.68084 4.02225 3.85533
# Velocity P-wave (km/s) = 5.79876 6.45700 6.13671
#
# Compressibility (1/GPa) = 0.02317475
#
# Stress axis : x y z
#
# Youngs Moduli (GPa) = 88.29800 94.04434 95.59829
#
# Poissons Ratio (x) = -0.01016 0.31475
# Poissons Ratio (y) = -0.00954 0.13745
# Poissons Ratio (z) = 0.29071 0.13521
#
# Static dielectric constant tensor:
#      x y z
#    x 2.224700 -0.051830 0.071610 
#    y -0.051830 2.254010 0.016290 
#    z 0.071610 0.016290 2.122390 
# 
# From -- ./inp_files/113938.got.cif
#   From: 2010.05.17/outbox.cif.g08.bks.cpg/sg2_57_cif.got.tgz:113938.got - 2010.06.03 11:33:40.
