data_PCOD9034039
_publ_section_title
;
Structure prediction by ZEFSAII (Michael W. Deem and Ramdas Pophale) SiO2 
 PCOD9034039
Probable space group: P -1
;
_chemical_formula_sum "Si O2"
_cell_formula_units_Z 16
_cell_length_a 8.571604
_cell_length_b 14.601409
_cell_length_c 6.397447
_cell_angle_alpha 87.032928
_cell_angle_beta 68.919422
_cell_angle_gamma 110.013017
_cell_volume 687.885736
_symmetry_space_group_name_H-M "P -1"
_symmetry_group_IT_number 2
_symmetry_cell_setting 'triclinic'
loop_
_space_group_symop_operation_xyz
x,y,z
-x,-y,-z
loop_
_atom_site_type_symbol
_atom_site_label
_atom_site_fract_x
_atom_site_fract_y
_atom_site_fract_z
Si Si1 0.180817 0.075320 0.297136
Si Si2 0.523943 0.733649 0.765355
Si Si3 0.639451 0.473278 0.296826
Si Si4 0.011925 0.835584 0.903848
Si Si5 0.948555 0.587185 0.425274
Si Si6 0.247535 0.795723 0.127622
Si Si7 0.345959 0.939412 0.415830
Si Si8 0.266153 0.368095 0.101461
O O1 0.283230 0.175324 0.373948
O O2 0.123073 0.108211 0.098760
O O3 0.312640 0.016958 0.263930
O O4 0.000000 0.000000 0.500000
O O5 0.429645 0.645613 0.658538
O O6 0.579625 0.675403 0.930417
O O7 0.380979 0.779212 0.896836
O O8 0.500000 0.500000 0.500000
O O9 0.836441 0.533310 0.284868
O O10 0.655622 0.527123 0.062300
O O11 0.167788 0.879027 0.647447
O O12 0.892599 0.719006 0.936723
O O13 0.117473 0.843783 0.070724
O O14 0.819567 0.617053 0.640543
O O15 0.000000 0.500000 0.500000
O O16 0.117546 0.687228 0.282144
O O17 0.363715 0.858635 0.258248
O O18 0.500000 0.000000 0.500000
#
# Coordination Sequence:
#
# PCOD9034039 Si02
#       8
#     2   2   2   2   2   2   2   2
#     4   9  22  45  72 101 140 196 239 301 361 425
#     4  11  25  43  70 107 147 186 243 296 356 433
#     4  12  26  44  72 104 144 193 240 297 359 425
#     4  10  22  44  71 100 143 188 242 293 352 442
#     4  12  27  43  72 106 144 196 239 294 366 431
#     4  12  26  45  73 109 147 192 240 304 368 430
#     4  11  24  45  73 105 146 184 244 307 365 425
#     4  11  23  48  67 101 145 189 242 289 353 444
#
# _framework density 23.259675999999999
#
# number of rings (size 3 to 8) (size 9 to 14) (size 15 to 20)
#    0.000    1.000    3.750    1.875    3.500    4.500 
#    0.000    3.750    0.000    0.000    0.000    0.000 
#    0.000    0.000    0.000    0.000    0.000    0.000 
#
# Total GULP energy -89344.349722 kJ/mol
# GULP energy per Si atom -5584.021858 kJ/mol
# Density = 2.320674 g / cm^3
# Si number density = 23.259676 Si / 1000 Ang^3
#
#
#
# Elastic Constant Matrix: (Units=GPa)
#
#
# Indices 1 2 3 4 5 6 
#
# 1 106.1719 53.2215 21.7478 1.9734 22.9947 6.1356
# 2 53.2215 169.9007 34.5391 -6.2928 8.1481 33.2101
# 3 21.7478 34.5391 45.8144 -14.0300 4.7415 11.6990
# 4 1.9734 -6.2928 -14.0300 44.6760 6.9709 6.6815
# 5 22.9947 8.1481 4.7415 6.9709 35.7798 -4.9542
# 6 6.1356 33.2101 11.6990 6.6815 -4.9542 42.2167
#
#
#
# Elastic Compliance Matrix: (Units=1/GPa)
#
#
# Indices 1 2 3 4 5 6 
#
# 1 0.013321 -0.003348 -0.003799 -0.001354 -0.006871 0.001158
# 2 -0.003348 0.008775 -0.003056 0.001380 -0.000521 -0.005849
# 3 -0.003799 -0.003056 0.032158 0.011801 -0.004581 -0.008360
# 4 -0.001354 0.001380 0.011801 0.029043 -0.008009 -0.009696
# 5 -0.006871 -0.000521 -0.004581 -0.008009 0.035778 0.008144
# 6 0.001158 -0.005849 -0.008360 -0.009696 0.008144 0.032927
#
#
# Mechanical properties :
#
#
# Convention : Reuss Voigt Hill
#
# Bulk Modulus (GPa) = 29.54375 60.10043 44.82209
# Shear Modulus (GPa) = 27.21955 38.69308 32.95631
#
# Velocity S-wave (km/s) = 3.42460 4.08306 3.76824
# Velocity P-wave (km/s) = 5.32601 6.93711 6.18425
#
# Compressibility (1/GPa) = 0.03384810
#
# Stress axis : x y z
#
# Youngs Moduli (GPa) = 75.06726 113.95831 31.09688
#
# Poissons Ratio (x) = 0.38149 0.11814
# Poissons Ratio (y) = 0.25129 0.09504
# Poissons Ratio (z) = 0.28519 0.34829
#
# Static dielectric constant tensor:
#      x y z
#    x 2.077290 0.054090 0.117640 
#    y 0.054090 1.884470 0.042670 
#    z 0.117640 0.042670 1.928410 
# 
# From -- ./inp_files/37959.got.cif
#   From: 2010.05.17/outbox.cif.g08.bks.cpg/sg2_19_cif.got.tgz:37959.got - 2010.06.03 11:33:40.
