data_PCOD9034682
_publ_section_title
;
Structure prediction by ZEFSAII (Michael W. Deem and Ramdas Pophale) SiO2 
 PCOD9034682
Probable space group: P -1
;
_chemical_formula_sum "Si O2"
_cell_formula_units_Z 16
_cell_length_a 13.557325
_cell_length_b 11.152969
_cell_length_c 13.518121
_cell_angle_alpha 32.091903
_cell_angle_beta 143.200300
_cell_angle_gamma 132.303927
_cell_volume 650.404662
_symmetry_space_group_name_H-M "P -1"
_symmetry_group_IT_number 2
_symmetry_cell_setting 'triclinic'
loop_
_space_group_symop_operation_xyz
x,y,z
-x,-y,-z
loop_
_atom_site_type_symbol
_atom_site_label
_atom_site_fract_x
_atom_site_fract_y
_atom_site_fract_z
Si Si1 0.240370 0.382306 0.098616
Si Si2 0.206593 0.797275 0.243183
Si Si3 0.912160 0.085042 0.717352
Si Si4 0.264342 0.544048 0.778300
Si Si5 0.655907 0.927495 0.289535
Si Si6 0.358199 0.678571 0.144691
Si Si7 0.538733 0.852077 0.843173
Si Si8 0.876722 0.542692 0.735071
O O1 0.260810 0.444532 0.956199
O O2 0.070344 0.503311 0.912567
O O3 0.211218 0.116499 0.270332
O O4 0.372564 0.488063 0.204455
O O5 0.193468 0.548267 0.362386
O O6 0.139613 0.816769 0.286132
O O7 0.378475 0.923589 0.287151
O O8 0.081954 0.948701 0.968153
O O9 0.894437 0.299328 0.481445
O O10 0.414142 0.718565 0.766460
O O11 0.313307 0.333842 0.894614
O O12 0.526005 0.730995 0.299816
O O13 0.823285 0.796785 0.541083
O O14 0.569943 0.080107 0.197154
O O15 0.682019 0.085592 0.106400
O O16 0.215792 0.609666 0.152896
#
# Coordination Sequence:
#
# PCOD9034682 Si02
#       8
#     2   2   2   2   2   2   2   2
#     4  11  24  45  65 103 133 164 230 269 321 407
#     4  10  22  45  67 101 132 166 232 269 318 409
#     4  10  24  44  70  97 133 176 213 278 338 376
#     4  11  25  45  69  99 134 174 213 280 334 384
#     4  11  25  44  65  97 132 178 219 266 325 392
#     4  11  24  42  66  95 134 174 221 266 319 392
#     4  11  23  46  66  97 139 166 225 272 317 405
#     4  11  25  43  68  96 133 175 216 274 327 384
#
# _framework density 24.600068
#
# number of rings (size 3 to 8) (size 9 to 14) (size 15 to 20)
#    0.000    1.250    3.750    0.750    1.750    5.500 
#    0.000    0.000    0.000    0.000    0.000    0.000 
#    0.000    0.000    0.000    0.000    0.000    0.000 
#
# Total GULP energy -89509.477803 kJ/mol
# GULP energy per Si atom -5594.342363 kJ/mol
# Density = 2.454408 g / cm^3
# Si number density = 24.600068 Si / 1000 Ang^3
#
#
#
# Elastic Constant Matrix: (Units=GPa)
#
#
# Indices 1 2 3 4 5 6 
#
# 1 76.8128 -12.5265 43.1078 -6.8220 13.2278 -14.1706
# 2 -12.5265 101.5035 6.0317 -14.6398 6.3313 -15.2030
# 3 43.1078 6.0317 91.2265 -23.0529 20.4046 -8.8902
# 4 -6.8220 -14.6398 -23.0529 18.7171 -2.8936 4.7199
# 5 13.2278 6.3313 20.4046 -2.8936 23.7690 -8.8182
# 6 -14.1706 -15.2030 -8.8902 4.7199 -8.8182 42.5920
#
#
#
# Elastic Compliance Matrix: (Units=1/GPa)
#
#
# Indices 1 2 3 4 5 6 
#
# 1 0.020122 0.003571 -0.009561 -0.003474 -0.002173 0.005909
# 2 0.003571 0.012726 0.001709 0.011749 -0.003941 0.003969
# 3 -0.009561 0.001709 0.025313 0.027604 -0.014767 -0.003404
# 4 -0.003474 0.011749 0.027604 0.094207 -0.015201 -0.004787
# 5 -0.002173 -0.003941 -0.014767 -0.015201 0.058328 0.008549
# 6 0.005909 0.003969 -0.003404 -0.004787 0.008549 0.028451
#
#
# Mechanical properties :
#
#
# Convention : Reuss Voigt Hill
#
# Bulk Modulus (GPa) = 20.16167 38.08542 29.12354
# Shear Modulus (GPa) = 18.92195 32.54427 25.73311
#
# Velocity S-wave (km/s) = 2.77642 3.64116 3.23779
# Velocity P-wave (km/s) = 4.30019 5.76132 5.08353
#
# Compressibility (1/GPa) = 0.04959907
#
# Stress axis : x y z
#
# Youngs Moduli (GPa) = 49.69639 78.57952 39.50491
#
# Poissons Ratio (x) = -0.28060 0.37769
# Poissons Ratio (y) = -0.17746 -0.06750
# Poissons Ratio (z) = 0.47513 -0.13426
#
# Static dielectric constant tensor:
#      x y z
#    x 1.903680 -0.012550 0.020680 
#    y -0.012550 1.995670 0.038780 
#    z 0.020680 0.038780 1.997680 
# 
# From -- ./inp_files/532309.got.cif
#   From: 2010.05.17/outbox.cif.g08.bks.cpg/sg2_267_cif.got.tgz:532309.got - 2010.06.03 11:33:40.
