data_PCOD9034996
_publ_section_title
;
Structure prediction by ZEFSAII (Michael W. Deem and Ramdas Pophale) SiO2 
 PCOD9034996
Probable space group: P -1
;
_chemical_formula_sum "Si O2"
_cell_formula_units_Z 16
_cell_length_a 24.910052
_cell_length_b 25.330001
_cell_length_c 7.879683
_cell_angle_alpha 39.994540
_cell_angle_beta 137.340012
_cell_angle_gamma 168.102674
_cell_volume 654.949818
_symmetry_space_group_name_H-M "P -1"
_symmetry_group_IT_number 2
_symmetry_cell_setting 'triclinic'
loop_
_space_group_symop_operation_xyz
x,y,z
-x,-y,-z
loop_
_atom_site_type_symbol
_atom_site_label
_atom_site_fract_x
_atom_site_fract_y
_atom_site_fract_z
Si Si1 0.785881 0.777163 0.909215
Si Si2 0.111042 0.757231 0.567723
Si Si3 0.792896 0.592111 0.314511
Si Si4 0.432728 0.618709 0.025361
Si Si5 0.628537 0.181698 0.698975
Si Si6 0.378559 0.673783 0.091765
Si Si7 0.901747 0.992026 0.342804
Si Si8 0.145507 0.752214 0.060657
O O1 0.824356 0.721598 0.067947
O O2 0.500000 0.500000 0.000000
O O3 0.800442 0.870910 0.591878
O O4 0.000000 0.000000 0.000000
O O5 0.120419 0.741245 0.826353
O O6 0.035795 0.778585 0.348446
O O7 0.865607 0.469174 0.618637
O O8 0.381039 0.992374 0.533932
O O9 0.719757 0.484709 0.594735
O O10 0.571762 0.353984 0.245647
O O11 0.455907 0.701718 0.034205
O O12 0.661279 0.779276 0.189741
O O13 0.144548 0.293274 0.175398
O O14 0.753634 0.241743 0.708268
O O15 0.500000 0.000000 0.000000
O O16 0.137490 0.496578 0.922139
O O17 0.626439 0.966815 0.022065
O O18 0.000000 0.000000 0.500000
#
# Coordination Sequence:
#
# PCOD9034996 Si02
#       8
#     2   2   2   2   2   2   2   2
#     4  12  27  44  70  99 130 172 222 273 333 397
#     4  10  20  33  58  94 126 164 219 263 320 393
#     4  11  25  43  68  94 132 170 213 276 333 381
#     4  12  27  45  70  96 133 176 219 276 329 395
#     4  10  17  32  57  93 127 167 216 262 317 386
#     4  11  23  41  63  98 131 170 221 265 328 393
#     4  12  25  47  67  95 130 171 224 271 330 396
#     4  10  19  36  62  91 135 172 211 272 320 383
#
# _framework density 24.429352999999999
#
# number of rings (size 3 to 8) (size 9 to 14) (size 15 to 20)
#    0.000    1.000    1.250    8.625    1.750    7.000 
#    0.000    0.000    0.000    4.500    0.000    0.000 
#    0.000    0.000    0.000    0.000    0.000    0.000 
#
# Total GULP energy -89555.556976 kJ/mol
# GULP energy per Si atom -5597.222311 kJ/mol
# Density = 2.437375 g / cm^3
# Si number density = 24.429353 Si / 1000 Ang^3
#
#
#
# Elastic Constant Matrix: (Units=GPa)
#
#
# Indices 1 2 3 4 5 6 
#
# 1 110.9460 31.0674 14.7983 13.2717 31.7346 0.5873
# 2 31.0674 177.1729 28.1024 17.5532 18.6949 2.4159
# 3 14.7983 28.1024 115.8574 9.5068 8.3887 7.6948
# 4 13.2717 17.5532 9.5068 42.1671 10.6719 18.3106
# 5 31.7346 18.6949 8.3887 10.6719 38.8308 8.2645
# 6 0.5873 2.4159 7.6948 18.3106 8.2645 49.4709
#
#
#
# Elastic Compliance Matrix: (Units=1/GPa)
#
#
# Indices 1 2 3 4 5 6 
#
# 1 0.012262 -0.000891 -0.000661 -0.001957 -0.009400 0.002296
# 2 -0.000891 0.006363 -0.001198 -0.002074 -0.001707 0.000939
# 3 -0.000661 -0.001198 0.009170 -0.000825 -0.000428 -0.000983
# 4 -0.001957 -0.002074 -0.000825 0.030852 -0.003449 -0.010590
# 5 -0.009400 -0.001707 -0.000428 -0.003449 0.036258 -0.004519
# 6 0.002296 0.000939 -0.000983 -0.010590 -0.004519 0.024968
#
#
# Mechanical properties :
#
#
# Convention : Reuss Voigt Hill
#
# Bulk Modulus (GPa) = 44.85402 61.32362 53.08882
# Shear Modulus (GPa) = 37.64867 48.09432 42.87149
#
# Velocity S-wave (km/s) = 3.92997 4.44183 4.19372
# Velocity P-wave (km/s) = 6.24448 7.17380 6.72521
#
# Compressibility (1/GPa) = 0.02229455
#
# Stress axis : x y z
#
# Youngs Moduli (GPa) = 81.55466 157.15291 109.04622
#
# Poissons Ratio (x) = 0.13998 0.07212
# Poissons Ratio (y) = 0.07264 0.13067
# Poissons Ratio (z) = 0.05394 0.18832
#
# Static dielectric constant tensor:
#      x y z
#    x 2.108620 0.067050 -0.162670 
#    y 0.067050 1.895160 -0.034350 
#    z -0.162670 -0.034350 2.209910 
# 
# From -- ./inp_files/357986.got.cif
#   From: 2010.05.17/outbox.cif.g08.bks.cpg/sg2_179_cif.got.tgz:357986.got - 2010.06.03 11:33:40.
