data_PCOD9034703
_publ_section_title
;
Structure prediction by ZEFSAII (Michael W. Deem and Ramdas Pophale) SiO2 
 PCOD9034703
Probable space group: P -1
;
_chemical_formula_sum "Si O2"
_cell_formula_units_Z 16
_cell_length_a 12.170241
_cell_length_b 16.254146
_cell_length_c 9.055126
_cell_angle_alpha 61.270864
_cell_angle_beta 36.280309
_cell_angle_gamma 42.464092
_cell_volume 685.841093
_symmetry_space_group_name_H-M "P -1"
_symmetry_group_IT_number 2
_symmetry_cell_setting 'triclinic'
loop_
_space_group_symop_operation_xyz
x,y,z
-x,-y,-z
loop_
_atom_site_type_symbol
_atom_site_label
_atom_site_fract_x
_atom_site_fract_y
_atom_site_fract_z
Si Si1 0.085924 0.826931 0.767753
Si Si2 0.794940 0.058829 0.044610
Si Si3 0.947446 0.376222 0.082719
Si Si4 0.939423 0.160530 0.553339
Si Si5 0.557523 0.729483 0.533895
Si Si6 0.612081 0.620868 0.057565
Si Si7 0.142992 0.276560 0.281487
Si Si8 0.274640 0.503709 0.258238
O O1 0.041929 0.875808 0.605421
O O2 0.327136 0.791016 0.616422
O O3 0.838797 0.941563 0.028888
O O4 0.130366 0.700661 0.820591
O O5 0.887433 0.099504 0.782930
O O6 0.539647 0.174860 0.304045
O O7 0.000000 0.000000 0.000000
O O8 0.206656 0.310587 0.774585
O O9 0.002497 0.353476 0.215966
O O10 0.741125 0.524317 0.137093
O O11 0.676198 0.308279 0.711920
O O12 0.162094 0.157590 0.354171
O O13 0.638649 0.603419 0.626140
O O14 0.627044 0.728734 0.959043
O O15 0.761554 0.534301 0.826914
O O16 0.971461 0.360526 0.534273
O O17 0.500000 0.500000 0.000000
#
# Coordination Sequence:
#
# PCOD9034703 Si02
#       8
#     2   2   2   2   2   2   2   2
#     4  10  24  41  68  89 124 169 214 259 313 363
#     4  10  22  45  67  90 121 168 212 268 314 361
#     4  11  25  39  62  99 127 169 207 251 314 380
#     4  11  23  42  65  96 124 163 212 261 313 374
#     4  11  22  42  61  90 131 160 211 259 306 369
#     4  12  23  38  63  95 132 169 202 247 321 375
#     4  11  24  39  61  93 135 163 206 251 309 382
#     4  12  22  38  58  89 128 167 201 249 302 370
#
# _framework density 23.329018999999999
#
# number of rings (size 3 to 8) (size 9 to 14) (size 15 to 20)
#    0.000    1.000    3.750    2.625    1.750    2.500 
#    0.000    2.500    0.000    9.000    0.000    0.000 
#    0.000    0.000    0.000    0.000    0.000    0.000 
#
# Total GULP energy -89494.054708 kJ/mol
# GULP energy per Si atom -5593.378419 kJ/mol
# Density = 2.327592 g / cm^3
# Si number density = 23.329019 Si / 1000 Ang^3
#
#
#
# Elastic Constant Matrix: (Units=GPa)
#
#
# Indices 1 2 3 4 5 6 
#
# 1 83.9331 12.0118 17.7043 -6.4654 9.1605 9.1692
# 2 12.0118 44.3855 12.3660 -0.6885 -6.4501 4.1875
# 3 17.7043 12.3660 81.4592 -6.7773 5.0508 3.5893
# 4 -6.4654 -0.6885 -6.7773 30.3486 9.6350 8.2070
# 5 9.1605 -6.4501 5.0508 9.6350 36.7913 0.4758
# 6 9.1692 4.1875 3.5893 8.2070 0.4758 26.6998
#
#
#
# Elastic Compliance Matrix: (Units=1/GPa)
#
#
# Indices 1 2 3 4 5 6 
#
# 1 0.014471 -0.003654 -0.001482 0.006040 -0.005545 -0.005955
# 2 -0.003654 0.025607 -0.003660 -0.002698 0.006628 -0.001558
# 3 -0.001482 -0.003660 0.013800 0.004265 -0.003258 -0.002025
# 4 0.006040 -0.002698 0.004265 0.043675 -0.013801 -0.015403
# 5 -0.005545 0.006628 -0.003258 -0.013801 0.033720 0.004944
# 6 -0.005955 -0.001558 -0.002025 -0.015403 0.004944 0.044662
#
#
# Mechanical properties :
#
#
# Convention : Reuss Voigt Hill
#
# Bulk Modulus (GPa) = 27.55832 32.66021 30.10927
# Shear Modulus (GPa) = 24.31667 29.94767 27.13217
#
# Velocity S-wave (km/s) = 3.23202 3.58678 3.41401
# Velocity P-wave (km/s) = 5.07607 5.58422 5.33620
#
# Compressibility (1/GPa) = 0.03628668
#
# Stress axis : x y z
#
# Youngs Moduli (GPa) = 69.10561 39.05246 72.46485
#
# Poissons Ratio (x) = 0.14268 0.10737
# Poissons Ratio (y) = 0.25248 0.26521
# Poissons Ratio (z) = 0.10239 0.14293
#
# Static dielectric constant tensor:
#      x y z
#    x 1.874750 0.026550 0.008270 
#    y 0.026550 1.895050 0.015840 
#    z 0.008270 0.015840 1.873090 
# 
# From -- ./inp_files/256024.got.cif
#   From: 2010.05.17/outbox.cif.g08.bks.cpg/sg2_129_cif.got.tgz:256024.got - 2010.06.03 11:33:40.
