data_PCOD9034486
_publ_section_title
;
Structure prediction by ZEFSAII (Michael W. Deem and Ramdas Pophale) SiO2 
 PCOD9034486
Probable space group: P -1
;
_chemical_formula_sum "Si O2"
_cell_formula_units_Z 14
_cell_length_a 10.060213
_cell_length_b 9.194353
_cell_length_c 9.411931
_cell_angle_alpha 122.492545
_cell_angle_beta 55.344161
_cell_angle_gamma 131.847709
_cell_volume 515.457488
_symmetry_space_group_name_H-M "P -1"
_symmetry_group_IT_number 2
_symmetry_cell_setting 'triclinic'
loop_
_space_group_symop_operation_xyz
x,y,z
-x,-y,-z
loop_
_atom_site_type_symbol
_atom_site_label
_atom_site_fract_x
_atom_site_fract_y
_atom_site_fract_z
Si Si1 0.360729 0.421478 0.906947
Si Si2 0.331422 0.422129 0.402166
Si Si3 0.166809 0.151032 0.641050
Si Si4 0.251091 0.820650 0.341908
Si Si5 0.064417 0.365708 0.280587
Si Si6 0.145625 0.742041 0.053025
Si Si7 0.657610 0.164572 0.316668
O O1 0.490208 0.573545 0.780732
O O2 0.286859 0.221290 0.751443
O O3 0.500000 0.500000 0.000000
O O4 0.168338 0.372440 0.073125
O O5 0.266242 0.303528 0.526967
O O6 0.176744 0.338143 0.325567
O O7 0.365684 0.644794 0.532793
O O8 0.979238 0.154747 0.794283
O O9 0.155919 0.952375 0.487921
O O10 0.119852 0.598927 0.369370
O O11 0.262387 0.786993 0.150432
O O12 0.462991 0.952344 0.342491
O O13 0.844184 0.207440 0.309239
O O14 0.278772 0.818118 0.876290
O O15 0.000000 0.500000 0.000000
#
# Coordination Sequence:
#
# PCOD9034486 Si02
#       7
#     2   2   2   2   2   2   2
#     4  10  22  44  76 106 150 201 243 308 379 444
#     4  11  24  43  78 111 148 202 249 306 379 451
#     4  12  23  46  78 112 151 193 256 312 372 447
#     4  12  27  44  77 114 148 196 255 313 371 449
#     4  11  25  50  75 108 155 200 245 310 384 443
#     4  12  23  45  75 110 152 199 246 316 381 442
#     4  12  24  44  75 109 151 196 254 304 379 448
#
# _framework density 27.160340000000001
#
# number of rings (size 3 to 8) (size 9 to 14) (size 15 to 20)
#    0.000    0.571    5.714    1.714    0.000    1.714 
#    0.000    0.000    0.000    6.000    0.000    0.000 
#    0.000    0.000    0.000    0.000    0.000    0.000 
#
# Total GULP energy -78409.825649 kJ/mol
# GULP energy per Si atom -5600.701832 kJ/mol
# Density = 2.709852 g / cm^3
# Si number density = 27.160340 Si / 1000 Ang^3
#
#
#
# Elastic Constant Matrix: (Units=GPa)
#
#
# Indices 1 2 3 4 5 6 
#
# 1 140.3992 67.0304 68.1218 -0.3435 16.1777 26.5446
# 2 67.0304 153.2243 50.2220 -0.5380 -3.3543 16.7016
# 3 68.1218 50.2220 191.4141 -3.2062 17.5630 4.6890
# 4 -0.3435 -0.5380 -3.2062 39.3786 10.4299 -3.4490
# 5 16.1777 -3.3543 17.5630 10.4299 71.7596 -4.4162
# 6 26.5446 16.7016 4.6890 -3.4490 -4.4162 47.9057
#
#
#
# Elastic Compliance Matrix: (Units=1/GPa)
#
#
# Indices 1 2 3 4 5 6 
#
# 1 0.011402 -0.003583 -0.002777 0.000013 -0.002369 -0.005014
# 2 -0.003583 0.008572 -0.001100 -0.000470 0.001497 -0.000791
# 3 -0.002777 -0.001100 0.006586 0.000895 -0.001091 0.001242
# 4 0.000013 -0.000470 0.000895 0.026668 -0.004020 0.001618
# 5 -0.002369 0.001497 -0.001091 -0.004020 0.015516 0.002038
# 6 -0.005014 -0.000791 0.001242 0.001618 0.002038 0.024111
#
#
# Mechanical properties :
#
#
# Convention : Reuss Voigt Hill
#
# Bulk Modulus (GPa) = 85.91488 95.08734 90.50111
# Shear Modulus (GPa) = 44.78146 51.78633 48.28389
#
# Velocity S-wave (km/s) = 4.06492 4.37130 4.22089
# Velocity P-wave (km/s) = 7.33025 7.78225 7.55963
#
# Compressibility (1/GPa) = 0.01163943
#
# Stress axis : x y z
#
# Youngs Moduli (GPa) = 87.70754 116.66514 151.84021
#
# Poissons Ratio (x) = 0.41798 0.42170
# Poissons Ratio (y) = 0.31423 0.16698
# Poissons Ratio (z) = 0.24359 0.12830
#
# Static dielectric constant tensor:
#      x y z
#    x 2.196380 0.005770 -0.035240 
#    y 0.005770 2.123140 -0.001380 
#    z -0.035240 -0.001380 2.111520 
# 
# From -- ./inp_files/245384.got.cif
#   From: 2010.05.17/outbox.cif.g08.bks.cpg/sg2_123_cif.got.tgz:245384.got - 2010.06.03 11:33:40.
