data_PCOD9034375
_publ_section_title
;
Structure prediction by ZEFSAII (Michael W. Deem and Ramdas Pophale) SiO2 
 PCOD9034375
Probable space group: P -1
;
_chemical_formula_sum "Si O2"
_cell_formula_units_Z 15
_cell_length_a 11.392302
_cell_length_b 20.849068
_cell_length_c 5.755839
_cell_angle_alpha 93.829970
_cell_angle_beta 82.647722
_cell_angle_gamma 28.252354
_cell_volume 593.035336
_symmetry_space_group_name_H-M "P -1"
_symmetry_group_IT_number 2
_symmetry_cell_setting 'triclinic'
loop_
_space_group_symop_operation_xyz
x,y,z
-x,-y,-z
loop_
_atom_site_type_symbol
_atom_site_label
_atom_site_fract_x
_atom_site_fract_y
_atom_site_fract_z
Si Si1 0.429900 0.429017 0.528810
Si Si2 0.029592 0.115999 0.902067
Si Si3 0.893703 0.637453 0.594955
Si Si4 0.473755 0.843725 0.382540
Si Si5 0.000000 0.500000 0.000000
Si Si6 0.270520 0.621356 0.900229
Si Si7 0.507709 0.920036 0.007772
Si Si8 0.427399 0.731531 0.169135
O O1 0.243655 0.566045 0.773295
O O2 0.617953 0.384719 0.325315
O O3 0.620730 0.289883 0.598254
O O4 0.205405 0.502741 0.451238
O O5 0.755423 0.208589 0.973358
O O6 0.964869 0.222309 0.884097
O O7 0.234140 0.982067 0.641983
O O8 0.208855 0.036502 0.066835
O O9 0.739037 0.685789 0.414876
O O10 0.883390 0.597429 0.813807
O O11 0.710701 0.788928 0.739334
O O12 0.578980 0.854393 0.220612
O O13 0.368993 0.834773 0.256686
O O14 0.249719 0.428448 0.950600
O O15 0.500000 0.500000 0.000000
O O16 0.500000 0.000000 0.000000
#
# Coordination Sequence:
#
# PCOD9034375 Si02
#       8
#     2   2   2   2   1   2   2   2
#     4  10  24  41  70 101 140 173 235 300 349 433
#     4  11  26  43  72 104 139 190 230 296 353 422
#     4  10  23  45  69 105 132 192 231 297 359 413
#     4  11  26  46  69 104 146 190 242 287 356 431
#     4  10  22  44  74 100 144 180 238 290 358 424
#     4  11  23  44  66 103 137 182 234 291 366 415
#     4  11  25  47  71 102 142 190 243 295 349 428
#     4  11  23  46  69 106 141 185 235 291 360 421
#
# _framework density 25.293603000000001
#
# number of rings (size 3 to 8) (size 9 to 14) (size 15 to 20)
#    0.000    1.333    2.667    1.200    1.867   10.133 
#    0.000    0.000    0.000    0.000    0.000    0.000 
#    0.000    0.000    0.000    0.000    0.000    0.000 
#
# Total GULP energy -83634.241326 kJ/mol
# GULP energy per Si atom -5575.616088 kJ/mol
# Density = 2.523603 g / cm^3
# Si number density = 25.293603 Si / 1000 Ang^3
#
#
#
# Elastic Constant Matrix: (Units=GPa)
#
#
# Indices 1 2 3 4 5 6 
#
# 1 139.5166 48.0475 41.7112 -15.2919 8.8897 7.9994
# 2 48.0475 127.5628 18.9507 -7.6556 4.7101 9.4029
# 3 41.7112 18.9507 30.0697 -13.7799 0.4391 4.1482
# 4 -15.2919 -7.6556 -13.7799 50.9038 4.9562 2.6700
# 5 8.8897 4.7101 0.4391 4.9562 44.0559 -1.2573
# 6 7.9994 9.4029 4.1482 2.6700 -1.2573 71.4469
#
#
#
# Elastic Compliance Matrix: (Units=1/GPa)
#
#
# Indices 1 2 3 4 5 6 
#
# 1 0.013139 -0.002373 -0.017043 -0.000806 -0.002142 -0.000177
# 2 -0.002373 0.009162 -0.002300 0.000136 -0.000517 -0.000821
# 3 -0.017043 -0.002300 0.063992 0.011796 0.001665 -0.001916
# 4 -0.000806 0.000136 0.011796 0.022949 -0.002594 -0.001516
# 5 -0.002142 -0.000517 0.001665 -0.002594 0.023482 0.000721
# 6 -0.000177 -0.000821 -0.001916 -0.001516 0.000721 0.014305
#
#
# Mechanical properties :
#
#
# Convention : Reuss Voigt Hill
#
# Bulk Modulus (GPa) = 23.33089 57.17423 40.25256
# Shear Modulus (GPa) = 24.42039 45.84397 35.13218
#
# Velocity S-wave (km/s) = 3.11058 4.26193 3.73094
# Velocity P-wave (km/s) = 4.70585 6.84632 5.87440
#
# Compressibility (1/GPa) = 0.04286163
#
# Stress axis : x y z
#
# Youngs Moduli (GPa) = 76.11215 109.14104 15.62690
#
# Poissons Ratio (x) = 0.25900 0.26633
# Poissons Ratio (y) = 0.18062 0.03594
# Poissons Ratio (z) = 1.29719 0.25098
#
# Static dielectric constant tensor:
#      x y z
#    x 1.952020 -0.110450 -0.123340 
#    y -0.110450 1.825250 -0.446650 
#    z -0.123340 -0.446650 0.983780 
# 
# From -- ./inp_files/82652.got.cif
#   From: 2010.05.17/outbox.cif.g08.bks.cpg/sg2_42_cif.got.tgz:82652.got - 2010.06.03 11:33:40.
