data_PCOD9034260
_publ_section_title
;
Structure prediction by ZEFSAII (Michael W. Deem and Ramdas Pophale) SiO2 
 PCOD9034260
Probable space group: P -1
;
_chemical_formula_sum "Si O2"
_cell_formula_units_Z 12
_cell_length_a 13.539141
_cell_length_b 16.318212
_cell_length_c 8.995117
_cell_angle_alpha 151.044612
_cell_angle_beta 134.463437
_cell_angle_gamma 36.151403
_cell_volume 567.448972
_symmetry_space_group_name_H-M "P -1"
_symmetry_group_IT_number 2
_symmetry_cell_setting 'triclinic'
loop_
_space_group_symop_operation_xyz
x,y,z
-x,-y,-z
loop_
_atom_site_type_symbol
_atom_site_label
_atom_site_fract_x
_atom_site_fract_y
_atom_site_fract_z
Si Si1 0.358799 0.721078 0.627871
Si Si2 0.401242 0.174810 0.049325
Si Si3 0.282380 0.556554 0.731630
Si Si4 0.073883 0.072791 0.071047
Si Si5 0.316753 0.174933 0.642646
Si Si6 0.588742 0.555810 0.990167
O O1 0.500000 0.500000 0.500000
O O2 0.450038 0.836060 0.899329
O O3 0.336809 0.669123 0.354709
O O4 0.186780 0.875759 0.773253
O O5 0.296074 0.395961 0.371203
O O6 0.301723 0.162282 0.785768
O O7 0.500000 0.000000 0.000000
O O8 0.388666 0.646307 0.923570
O O9 0.095000 0.728405 0.855441
O O10 0.373994 0.433745 0.783267
O O11 0.184156 0.147166 0.376355
O O12 0.000000 0.000000 0.000000
O O13 0.500000 0.000000 0.500000
O O14 0.321645 0.366413 0.895595
#
# Coordination Sequence:
#
# PCOD9034260 Si02
#       6
#     2   2   2   2   2   2
#     4  11  21  43  70  96 132 182 221 271 338 405
#     4  11  23  41  70 100 134 178 228 273 334 405
#     4  10  24  43  66 101 138 171 224 288 331 391
#     4  12  26  41  67 101 138 169 226 289 333 388
#     4  12  22  41  70  95 127 183 228 263 336 409
#     4  10  22  44  72  90 132 186 224 263 343 409
#
# _framework density 21.147276000000002
#
# number of rings (size 3 to 8) (size 9 to 14) (size 15 to 20)
#    0.000    1.000    3.333    4.000    0.000    4.667 
#    0.000    0.000    0.000    0.000    0.000    0.000 
#    0.000    0.000    0.000    0.000    0.000    0.000 
#
# Total GULP energy -66859.549637 kJ/mol
# GULP energy per Si atom -5571.629136 kJ/mol
# Density = 2.109914 g / cm^3
# Si number density = 21.147276 Si / 1000 Ang^3
#
#
#
# Elastic Constant Matrix: (Units=GPa)
#
#
# Indices 1 2 3 4 5 6 
#
# 1 91.5629 31.1805 23.7786 1.4857 -14.2530 -12.8920
# 2 31.1805 76.7054 29.8586 -1.8210 -7.6625 -12.3779
# 3 23.7786 29.8586 79.7397 -15.9499 -18.7798 -12.7568
# 4 1.4857 -1.8210 -15.9499 34.8601 0.2657 -6.3030
# 5 -14.2530 -7.6625 -18.7798 0.2657 56.6490 4.7932
# 6 -12.8920 -12.3779 -12.7568 -6.3030 4.7932 42.4483
#
#
#
# Elastic Compliance Matrix: (Units=1/GPa)
#
#
# Indices 1 2 3 4 5 6 
#
# 1 0.013467 -0.004260 -0.001921 -0.001358 0.002026 0.001840
# 2 -0.004260 0.017000 -0.005087 -0.000878 -0.000630 0.002075
# 3 -0.001921 -0.005087 0.018614 0.009086 0.004588 0.004358
# 4 -0.001358 -0.000878 0.009086 0.034093 0.001806 0.006920
# 5 0.002026 -0.000630 0.004588 0.001806 0.019601 -0.000135
# 6 0.001840 0.002075 0.004358 0.006920 -0.000135 0.027075
#
#
# Mechanical properties :
#
#
# Convention : Reuss Voigt Hill
#
# Bulk Modulus (GPa) = 37.67221 46.40482 42.03852
# Shear Modulus (GPa) = 31.01088 37.67082 34.34085
#
# Velocity S-wave (km/s) = 3.83355 4.22519 4.03412
# Velocity P-wave (km/s) = 6.11945 6.76714 6.45143
#
# Compressibility (1/GPa) = 0.02654476
#
# Stress axis : x y z
#
# Youngs Moduli (GPa) = 74.25324 58.82415 53.72372
#
# Poissons Ratio (x) = 0.25056 0.10321
# Poissons Ratio (y) = 0.31628 0.27332
# Poissons Ratio (z) = 0.14265 0.29927
#
# Static dielectric constant tensor:
#      x y z
#    x 1.723310 -0.027800 0.004940 
#    y -0.027800 1.927980 -0.173070 
#    z 0.004940 -0.173070 2.013200 
# 
# From -- ./inp_files/148924.got.cif
#   From: 2010.05.17/outbox.cif.g08.bks.cpg/sg2_75_cif.got.tgz:148924.got - 2010.06.03 11:33:40.
