data_PCOD9034507
_publ_section_title
;
Structure prediction by ZEFSAII (Michael W. Deem and Ramdas Pophale) SiO2 
 PCOD9034507
Probable space group: P -1
;
_chemical_formula_sum "Si O2"
_cell_formula_units_Z 13
_cell_length_a 9.014117
_cell_length_b 8.910177
_cell_length_c 10.204117
_cell_angle_alpha 106.986099
_cell_angle_beta 43.526005
_cell_angle_gamma 97.042772
_cell_volume 534.826230
_symmetry_space_group_name_H-M "P -1"
_symmetry_group_IT_number 2
_symmetry_cell_setting 'triclinic'
loop_
_space_group_symop_operation_xyz
x,y,z
-x,-y,-z
loop_
_atom_site_type_symbol
_atom_site_label
_atom_site_fract_x
_atom_site_fract_y
_atom_site_fract_z
Si Si1 0.253859 0.209939 0.622187
Si Si2 0.120075 0.152352 0.985044
Si Si3 0.157121 0.762122 0.283626
Si Si4 0.185103 0.554484 0.800657
Si Si5 0.494384 0.338340 0.162518
Si Si6 0.000000 0.500000 0.500000
Si Si7 0.464770 0.008336 0.217168
O O1 0.235621 0.186333 0.782491
O O2 0.278965 0.393624 0.627541
O O3 0.433850 0.093840 0.401237
O O4 0.023071 0.188044 0.699865
O O5 0.309448 0.108271 0.956646
O O6 0.943762 0.305449 0.168508
O O7 0.000000 0.000000 0.000000
O O8 0.046727 0.665652 0.438266
O O9 0.265192 0.910892 0.302037
O O10 0.352213 0.651016 0.058288
O O11 0.360676 0.615684 0.796952
O O12 0.000000 0.500000 0.000000
O O13 0.264077 0.442624 0.326171
O O14 0.469842 0.153259 0.152117
#
# Coordination Sequence:
#
# PCOD9034507 Si02
#       7
#     2   2   2   2   2   1   2
#     4  11  24  47  71 104 153 197 242 307 367 445
#     4  11  22  45  72 112 141 196 252 300 381 442
#     4  12  26  51  75 105 155 198 250 311 370 449
#     4  10  22  44  77 103 150 194 249 300 371 444
#     4  12  25  51  76 111 150 200 249 314 372 448
#     4  12  30  46  74 116 150 196 260 300 390 438
#     4  12  26  47  74 113 152 192 252 310 376 443
#
# _framework density 24.306961000000001
#
# number of rings (size 3 to 8) (size 9 to 14) (size 15 to 20)
#    0.000    0.615    6.154    1.846    4.308    1.846 
#    2.769    0.000    0.000    0.000    0.000    0.000 
#    0.000    0.000    0.000    0.000    0.000    0.000 
#
# Total GULP energy -72581.472669 kJ/mol
# GULP energy per Si atom -5583.190205 kJ/mol
# Density = 2.425164 g / cm^3
# Si number density = 24.306961 Si / 1000 Ang^3
#
#
#
# Elastic Constant Matrix: (Units=GPa)
#
#
# Indices 1 2 3 4 5 6 
#
# 1 94.2926 47.9284 27.8901 19.1349 -29.4361 2.9229
# 2 47.9284 95.6928 20.9877 3.1487 -14.0033 8.3765
# 3 27.8901 20.9877 94.1028 3.5161 -19.9460 -0.7621
# 4 19.1349 3.1487 3.5161 51.3665 -8.0048 -8.1882
# 5 -29.4361 -14.0033 -19.9460 -8.0048 44.5764 5.6989
# 6 2.9229 8.3765 -0.7621 -8.1882 5.6989 44.2660
#
#
#
# Elastic Compliance Matrix: (Units=1/GPa)
#
#
# Indices 1 2 3 4 5 6 
#
# 1 0.018713 -0.007363 -0.001924 -0.005381 0.008468 -0.001961
# 2 -0.007363 0.014470 -0.001187 0.001579 -0.000316 -0.001940
# 3 -0.001924 -0.001187 0.012275 0.000589 0.003934 0.000165
# 4 -0.005381 0.001579 0.000589 0.022085 0.000652 0.004068
# 5 0.008468 -0.000316 0.003934 0.000652 0.030342 -0.004217
# 6 -0.001961 -0.001940 0.000165 0.004068 -0.004217 0.024386
#
#
# Mechanical properties :
#
#
# Convention : Reuss Voigt Hill
#
# Bulk Modulus (GPa) = 40.79889 53.07786 46.93837
# Shear Modulus (GPa) = 33.02783 40.52725 36.77754
#
# Velocity S-wave (km/s) = 3.69016 4.08770 3.89401
# Velocity P-wave (km/s) = 5.91420 6.64552 6.29050
#
# Compressibility (1/GPa) = 0.02451047
#
# Stress axis : x y z
#
# Youngs Moduli (GPa) = 53.43881 69.11014 81.46835
#
# Poissons Ratio (x) = 0.50884 0.15675
# Poissons Ratio (y) = 0.39345 0.09668
# Poissons Ratio (z) = 0.10282 0.08201
#
# Static dielectric constant tensor:
#      x y z
#    x 1.919130 0.061490 0.024930 
#    y 0.061490 1.848620 0.068830 
#    z 0.024930 0.068830 1.963960 
# 
# From -- ./inp_files/176217.got.cif
#   From: 2010.05.17/outbox.cif.g08.bks.cpg/sg2_89_cif.got.tgz:176217.got - 2010.06.03 11:33:40.
