data_PCOD9034851
_publ_section_title
;
Structure prediction by ZEFSAII (Michael W. Deem and Ramdas Pophale) SiO2 
 PCOD9034851
Probable space group: P -1
;
_chemical_formula_sum "Si O2"
_cell_formula_units_Z 12
_cell_length_a 9.151753
_cell_length_b 10.393236
_cell_length_c 16.749210
_cell_angle_alpha 148.804576
_cell_angle_beta 145.121826
_cell_angle_gamma 46.077603
_cell_volume 471.685988
_symmetry_space_group_name_H-M "P -1"
_symmetry_group_IT_number 2
_symmetry_cell_setting 'triclinic'
loop_
_space_group_symop_operation_xyz
x,y,z
-x,-y,-z
loop_
_atom_site_type_symbol
_atom_site_label
_atom_site_fract_x
_atom_site_fract_y
_atom_site_fract_z
Si Si1 0.185767 0.661165 0.035001
Si Si2 0.631267 0.906140 0.764768
Si Si3 0.390760 0.292058 0.505618
Si Si4 0.666325 0.830459 0.925214
Si Si5 0.680370 0.774397 0.391236
Si Si6 0.937196 0.278193 0.599557
O O1 0.420574 0.610584 0.171652
O O2 0.325906 0.823729 0.113011
O O3 0.038114 0.446939 0.806575
O O4 0.964935 0.787492 0.055630
O O5 0.759863 0.752232 0.668420
O O6 0.697037 0.924066 0.896282
O O7 0.363273 0.751621 0.562827
O O8 0.525058 0.560716 0.712302
O O9 0.231883 0.253593 0.494129
O O10 0.591268 0.059128 0.482179
O O11 0.500000 0.000000 0.000000
O O12 0.896209 0.676377 0.379449
O O13 0.000000 0.000000 0.500000
#
# Coordination Sequence:
#
# PCOD9034851 Si02
#       6
#     2   2   2   2   2   2
#     4  11  24  44  70 100 142 178 228 289 339 408
#     4  11  25  46  70  97 144 180 229 279 345 408
#     4  10  22  45  68  98 139 181 226 286 337 402
#     4  12  27  45  68 103 138 188 233 276 344 410
#     4  10  23  42  72 106 135 173 237 283 348 401
#     4  12  22  42  72 106 135 183 225 283 350 404
#
# _framework density 25.440653000000001
#
# number of rings (size 3 to 8) (size 9 to 14) (size 15 to 20)
#    0.000    1.000    5.000    1.500    2.333    4.667 
#    0.000    4.167    0.000    0.000    0.000    0.000 
#    0.000    0.000    0.000    0.000    0.000    0.000 
#
# Total GULP energy -66976.842828 kJ/mol
# GULP energy per Si atom -5581.403569 kJ/mol
# Density = 2.538275 g / cm^3
# Si number density = 25.440653 Si / 1000 Ang^3
#
#
#
# Elastic Constant Matrix: (Units=GPa)
#
#
# Indices 1 2 3 4 5 6 
#
# 1 155.4609 38.3523 44.9491 -14.0812 -34.9444 -14.9252
# 2 38.3523 55.5832 17.0442 9.0747 -7.7701 -9.3079
# 3 44.9491 17.0442 157.3950 1.9885 3.7301 -17.4634
# 4 -14.0812 9.0747 1.9885 30.6539 -1.6409 1.9654
# 5 -34.9444 -7.7701 3.7301 -1.6409 36.9673 -2.2959
# 6 -14.9252 -9.3079 -17.4634 1.9654 -2.2959 35.7745
#
#
#
# Elastic Compliance Matrix: (Units=1/GPa)
#
#
# Indices 1 2 3 4 5 6 
#
# 1 0.012560 -0.007241 -0.002935 0.008562 0.011162 0.002169
# 2 -0.007241 0.025244 -0.000036 -0.011151 -0.001780 0.004028
# 3 -0.002935 -0.000036 0.007567 -0.002166 -0.003495 0.002355
# 4 0.008562 -0.011151 -0.002166 0.040542 0.007636 -0.002124
# 5 0.011162 -0.001780 -0.003495 0.007636 0.038200 0.004520
# 6 0.002169 0.004028 0.002355 -0.002124 0.004520 0.031462
#
#
# Mechanical properties :
#
#
# Convention : Reuss Voigt Hill
#
# Bulk Modulus (GPa) = 40.08245 63.23670 51.65958
# Shear Modulus (GPa) = 27.12753 38.55203 32.83978
#
# Velocity S-wave (km/s) = 3.26898 3.89700 3.59672
# Velocity P-wave (km/s) = 5.48067 6.72007 6.13177
#
# Compressibility (1/GPa) = 0.02494857
#
# Stress axis : x y z
#
# Youngs Moduli (GPa) = 79.61751 39.61280 132.15398
#
# Poissons Ratio (x) = 0.28682 0.38785
# Poissons Ratio (y) = 0.57648 0.00475
# Poissons Ratio (z) = 0.23366 0.00142
#
# Static dielectric constant tensor:
#      x y z
#    x 2.049900 0.052750 -0.026520 
#    y 0.052750 2.148520 -0.001130 
#    z -0.026520 -0.001130 1.986370 
# 
# From -- ./inp_files/560216.got.cif
#   From: 2010.05.17/outbox.cif.g08.bks.cpg/sg2_281_cif.got.tgz:560216.got - 2010.06.03 11:33:40.
