data_PCOD9034493
_publ_section_title
;
Structure prediction by ZEFSAII (Michael W. Deem and Ramdas Pophale) SiO2 
 PCOD9034493
Probable space group: P -1
;
_chemical_formula_sum "Si O2"
_cell_formula_units_Z 15
_cell_length_a 8.700947
_cell_length_b 16.929714
_cell_length_c 11.873285
_cell_angle_alpha 148.083601
_cell_angle_beta 136.516383
_cell_angle_gamma 62.495766
_cell_volume 576.428974
_symmetry_space_group_name_H-M "P -1"
_symmetry_group_IT_number 2
_symmetry_cell_setting 'triclinic'
loop_
_space_group_symop_operation_xyz
x,y,z
-x,-y,-z
loop_
_atom_site_type_symbol
_atom_site_label
_atom_site_fract_x
_atom_site_fract_y
_atom_site_fract_z
Si Si1 0.448760 0.256866 0.247880
Si Si2 0.500000 0.000000 0.500000
Si Si3 0.626519 0.292886 0.643386
Si Si4 0.828001 0.067491 0.428219
Si Si5 0.124852 0.345068 0.746394
Si Si6 0.164917 0.473587 0.382233
Si Si7 0.841512 0.871337 0.666526
Si Si8 0.344397 0.638524 0.918174
O O1 0.541910 0.263746 0.433065
O O2 0.229893 0.318544 0.205841
O O3 0.673139 0.389349 0.455505
O O4 0.351500 0.078254 0.923285
O O5 0.269584 0.042672 0.378190
O O6 0.597810 0.170666 0.831621
O O7 0.691515 0.141113 0.530302
O O8 0.388777 0.264880 0.555147
O O9 0.847226 0.471180 0.995689
O O10 0.995598 0.228815 0.641916
O O11 0.000000 0.000000 0.500000
O O12 0.017306 0.224170 0.436102
O O13 0.409566 0.375270 0.932143
O O14 0.267810 0.544397 0.645893
O O15 0.876690 0.427937 0.189126
O O16 0.000000 0.000000 0.000000
#
# Coordination Sequence:
#
# PCOD9034493 Si02
#       8
#     2   1   2   2   2   2   2   2
#     4  11  25  48  74 113 153 206 257 315 389 470
#     4  10  26  44  76 116 156 192 266 318 390 460
#     4  12  27  52  74 112 156 202 260 325 391 471
#     4  12  29  48  77 107 155 204 260 319 393 471
#     4  11  25  52  75 113 152 201 257 324 394 462
#     4  10  23  43  76 114 157 200 259 314 392 464
#     4  11  27  48  82 115 158 206 260 329 394 470
#     4  10  22  44  76 111 149 202 256 320 385 463
#
# _framework density 26.022286000000001
#
# number of rings (size 3 to 8) (size 9 to 14) (size 15 to 20)
#    0.000    1.067    1.333    2.800   13.067    1.067 
#    7.200    0.000    0.000    0.000    0.000    0.000 
#    0.000    0.000    0.000    0.000    0.000    0.000 
#
# Total GULP energy -83878.827404 kJ/mol
# GULP energy per Si atom -5591.921827 kJ/mol
# Density = 2.596306 g / cm^3
# Si number density = 26.022286 Si / 1000 Ang^3
#
#
#
# Elastic Constant Matrix: (Units=GPa)
#
#
# Indices 1 2 3 4 5 6 
#
# 1 90.9570 2.3834 6.8849 8.6549 4.4180 -10.0506
# 2 2.3834 80.9217 22.1695 10.3287 -5.6409 -10.6669
# 3 6.8849 22.1695 147.9786 20.2052 -20.3325 -4.8972
# 4 8.6549 10.3287 20.2052 53.5269 -8.9802 -8.4640
# 5 4.4180 -5.6409 -20.3325 -8.9802 52.6134 7.5926
# 6 -10.0506 -10.6669 -4.8972 -8.4640 7.5926 41.7894
#
#
#
# Elastic Compliance Matrix: (Units=1/GPa)
#
#
# Indices 1 2 3 4 5 6 
#
# 1 0.011575 0.000245 -0.000516 -0.001587 -0.001819 0.002795
# 2 0.000245 0.013405 -0.001707 -0.001501 0.000073 0.002963
# 3 -0.000516 -0.001707 0.007660 -0.002141 0.002535 -0.000556
# 4 -0.001587 -0.001501 -0.002141 0.020865 0.002303 0.002792
# 5 -0.001819 0.000073 0.002535 0.002303 0.021042 -0.003478
# 6 0.002795 0.002963 -0.000556 0.002792 -0.003478 0.026490
#
#
# Mechanical properties :
#
#
# Convention : Reuss Voigt Hill
#
# Bulk Modulus (GPa) = 34.86230 42.52589 38.69409
# Shear Modulus (GPa) = 43.64744 48.81391 46.23067
#
# Velocity S-wave (km/s) = 4.09994 4.33581 4.21952
# Velocity P-wave (km/s) = 5.98656 6.43764 6.21619
#
# Compressibility (1/GPa) = 0.02868428
#
# Stress axis : x y z
#
# Youngs Moduli (GPa) = 86.39232 74.59747 130.55295
#
# Poissons Ratio (x) = -0.01825 0.06736
# Poissons Ratio (y) = -0.02113 0.22280
# Poissons Ratio (z) = 0.04457 0.12731
#
# Static dielectric constant tensor:
#      x y z
#    x 2.117890 0.009180 -0.022560 
#    y 0.009180 2.124040 -0.004760 
#    z -0.022560 -0.004760 2.037600 
# 
# From -- ./inp_files/403664.got.cif
#   From: 2010.05.17/outbox.cif.g08.bks.cpg/sg2_202_cif.got.tgz:403664.got - 2010.06.03 11:33:40.
