data_PCOD9034638
_publ_section_title
;
Structure prediction by ZEFSAII (Michael W. Deem and Ramdas Pophale) SiO2 
 PCOD9034638
Probable space group: P -1
;
_chemical_formula_sum "Si O2"
_cell_formula_units_Z 16
_cell_length_a 9.570695
_cell_length_b 20.103593
_cell_length_c 5.086544
_cell_angle_alpha 50.197321
_cell_angle_beta 90.578133
_cell_angle_gamma 99.399908
_cell_volume 735.993941
_symmetry_space_group_name_H-M "P -1"
_symmetry_group_IT_number 2
_symmetry_cell_setting 'triclinic'
loop_
_space_group_symop_operation_xyz
x,y,z
-x,-y,-z
loop_
_atom_site_type_symbol
_atom_site_label
_atom_site_fract_x
_atom_site_fract_y
_atom_site_fract_z
Si Si1 0.778650 0.844707 0.320883
Si Si2 0.161578 0.042437 0.468375
Si Si3 0.650896 0.276977 0.691363
Si Si4 0.439664 0.541565 0.142458
Si Si5 0.501791 0.267665 0.209326
Si Si6 0.810985 0.144199 0.166629
Si Si7 0.869254 0.420845 0.107017
Si Si8 0.030789 0.756057 0.588086
O O1 0.623473 0.811210 0.521700
O O2 0.866934 0.766744 0.549605
O O3 0.840036 0.925222 0.315178
O O4 0.783069 0.879076 0.935670
O O5 0.233874 0.959367 0.624105
O O6 0.000000 0.000000 0.500000
O O7 0.631355 0.255859 0.435473
O O8 0.781933 0.361344 0.492912
O O9 0.527282 0.293013 0.841710
O O10 0.675789 0.188982 0.053688
O O11 0.500000 0.500000 0.500000
O O12 0.500000 0.500000 0.000000
O O13 0.521243 0.642847 0.885034
O O14 0.267032 0.543986 0.118542
O O15 0.900142 0.181120 0.330999
O O16 0.902252 0.193321 0.800854
O O17 0.937615 0.343892 0.155807
O O18 0.000000 0.500000 0.000000
#
# Coordination Sequence:
#
# PCOD9034638 Si02
#       8
#     2   2   2   2   2   2   2   2
#     4  12  24  40  65  98 130 177 217 269 337 387
#     4  12  22  40  63  99 134 161 219 279 333 393
#     4  10  22  45  66  91 130 182 213 267 335 386
#     4  11  24  45  68  96 133 178 219 274 340 396
#     4  11  24  45  65  88 136 177 221 259 327 416
#     4  11  21  39  67  92 128 170 213 270 335 388
#     4  10  24  45  73 105 136 172 233 284 330 404
#     4  11  22  40  64  96 134 171 214 271 337 380
#
# _framework density 21.739308000000001
#
# number of rings (size 3 to 8) (size 9 to 14) (size 15 to 20)
#    0.000    1.000    2.500    5.625    1.750    1.000 
#    4.500   14.375    0.000    0.000    0.000    0.000 
#    0.000    0.000    0.000    0.000    0.000    0.000 
#
# Total GULP energy -89075.999028 kJ/mol
# GULP energy per Si atom -5567.249939 kJ/mol
# Density = 2.168983 g / cm^3
# Si number density = 21.739308 Si / 1000 Ang^3
#
#
#
# Elastic Constant Matrix: (Units=GPa)
#
#
# Indices 1 2 3 4 5 6 
#
# 1 67.7784 28.7162 28.2603 -10.9524 2.7698 3.4141
# 2 28.7162 71.2484 30.3324 8.6534 19.6858 -9.2214
# 3 28.2603 30.3324 87.9839 11.1092 9.1102 -8.3503
# 4 -10.9524 8.6534 11.1092 43.6870 -12.9984 -6.1487
# 5 2.7698 19.6858 9.1102 -12.9984 32.0831 -8.5572
# 6 3.4141 -9.2214 -8.3503 -6.1487 -8.5572 27.3472
#
#
#
# Elastic Compliance Matrix: (Units=1/GPa)
#
#
# Indices 1 2 3 4 5 6 
#
# 1 0.024749 -0.012444 -0.006912 0.013775 0.012397 -0.002420
# 2 -0.012444 0.027207 -0.001363 -0.014293 -0.020872 0.000567
# 3 -0.006912 -0.001363 0.015630 -0.006685 -0.005165 0.002057
# 4 0.013775 -0.014293 -0.006685 0.040687 0.028492 0.009483
# 5 0.012397 -0.020872 -0.005165 0.028492 0.059914 0.014991
# 6 -0.002420 0.000567 0.002057 0.009483 0.014991 0.044511
#
#
# Mechanical properties :
#
#
# Convention : Reuss Voigt Hill
#
# Bulk Modulus (GPa) = 38.24337 44.62540 41.43438
# Shear Modulus (GPa) = 19.02203 29.93691 24.47947
#
# Velocity S-wave (km/s) = 2.96126 3.71494 3.35930
# Velocity P-wave (km/s) = 5.41499 6.24284 5.84359
#
# Compressibility (1/GPa) = 0.02614832
#
# Stress axis : x y z
#
# Youngs Moduli (GPa) = 40.40494 36.75470 63.98038
#
# Poissons Ratio (x) = 0.45738 0.44224
# Poissons Ratio (y) = 0.50280 0.08721
# Poissons Ratio (z) = 0.27928 0.05010
#
# Static dielectric constant tensor:
#      x y z
#    x 1.671210 0.346560 -0.218650 
#    y 0.346560 1.315990 0.433260 
#    z -0.218650 0.433260 1.561390 
# 
# From -- ./inp_files/52235.got.cif
#   From: 2010.05.17/outbox.cif.g08.bks.cpg/sg2_27_cif.got.tgz:52235.got - 2010.06.03 11:33:40.
