data_PCOD9034185
_publ_section_title
;
Structure prediction by ZEFSAII (Michael W. Deem and Ramdas Pophale) SiO2 
 PCOD9034185
Probable space group: P -1
;
_chemical_formula_sum "Si O2"
_cell_formula_units_Z 12
_cell_length_a 12.559311
_cell_length_b 11.805061
_cell_length_c 5.567764
_cell_angle_alpha 107.189477
_cell_angle_beta 56.929493
_cell_angle_gamma 131.606799
_cell_volume 514.298369
_symmetry_space_group_name_H-M "P -1"
_symmetry_group_IT_number 2
_symmetry_cell_setting 'triclinic'
loop_
_space_group_symop_operation_xyz
x,y,z
-x,-y,-z
loop_
_atom_site_type_symbol
_atom_site_label
_atom_site_fract_x
_atom_site_fract_y
_atom_site_fract_z
Si Si1 0.860215 0.886481 0.909492
Si Si2 0.899324 0.125285 0.678046
Si Si3 0.811249 0.454402 0.930836
Si Si4 0.160413 0.694952 0.789873
Si Si5 0.598947 0.560909 0.167928
Si Si6 0.350073 0.880259 0.282480
O O1 0.934318 0.828957 0.605305
O O2 0.826816 0.980355 0.845185
O O3 0.705738 0.742685 0.141361
O O4 0.000000 0.000000 0.000000
O O5 0.778314 0.089650 0.591908
O O6 0.907949 0.249139 0.901174
O O7 0.804331 0.408987 0.190436
O O8 0.718521 0.517998 0.011919
O O9 0.720318 0.289315 0.819706
O O10 0.005190 0.587665 0.738524
O O11 0.327935 0.846676 0.572977
O O12 0.500000 0.500000 0.500000
O O13 0.500000 0.500000 0.000000
O O14 0.500000 0.000000 0.000000
#
# Coordination Sequence:
#
# PCOD9034185 Si02
#       6
#     2   2   2   2   2   2
#     4  11  25  45  75  99 141 191 249 294 356 442
#     4  10  23  41  73 100 132 181 243 292 352 426
#     4  10  24  43  71  98 137 187 242 289 361 427
#     4  10  22  44  72 101 133 184 242 302 348 433
#     4  12  31  47  73 109 156 193 239 305 375 438
#     4  11  24  39  67 100 139 175 227 297 362 423
#
# _framework density 23.33276
#
# number of rings (size 3 to 8) (size 9 to 14) (size 15 to 20)
#    0.000    1.333    0.000    3.500   11.667    5.333 
#    0.000    0.000    0.000    0.000    0.000    0.000 
#    0.000    0.000    0.000    0.000    0.000    0.000 
#
# Total GULP energy -67005.952142 kJ/mol
# GULP energy per Si atom -5583.829345 kJ/mol
# Density = 2.327965 g / cm^3
# Si number density = 23.332760 Si / 1000 Ang^3
#
#
#
# Elastic Constant Matrix: (Units=GPa)
#
#
# Indices 1 2 3 4 5 6 
#
# 1 120.3909 22.7108 11.2680 -11.4666 7.1845 -27.6197
# 2 22.7108 105.2413 41.4473 -37.2523 15.7704 -9.0193
# 3 11.2680 41.4473 86.8807 -30.0882 30.6740 -0.1274
# 4 -11.4666 -37.2523 -30.0882 53.5765 -8.5845 8.1892
# 5 7.1845 15.7704 30.6740 -8.5845 20.5761 -1.5315
# 6 -27.6197 -9.0193 -0.1274 8.1892 -1.5315 41.3021
#
#
#
# Elastic Compliance Matrix: (Units=1/GPa)
#
#
# Indices 1 2 3 4 5 6 
#
# 1 0.010154 -0.001373 0.000100 -0.000057 -0.002189 0.006421
# 2 -0.001373 0.014005 -0.003093 0.007198 -0.002595 0.000607
# 3 0.000100 -0.003093 0.029584 0.008910 -0.038325 -0.003705
# 4 -0.000057 0.007198 0.008910 0.028138 -0.007360 -0.004291
# 5 -0.002189 -0.002595 -0.038325 -0.007360 0.105656 0.003228
# 6 0.006421 0.000607 -0.003705 -0.004291 0.003228 0.029597
#
#
# Mechanical properties :
#
#
# Convention : Reuss Voigt Hill
#
# Bulk Modulus (GPa) = 22.21604 51.48500 36.85052
# Shear Modulus (GPa) = 20.75802 38.89672 29.82737
#
# Velocity S-wave (km/s) = 2.98594 4.08737 3.57928
# Velocity P-wave (km/s) = 4.62924 6.66250 5.73667
#
# Compressibility (1/GPa) = 0.04501251
#
# Stress axis : x y z
#
# Youngs Moduli (GPa) = 98.48243 71.40090 33.80200
#
# Poissons Ratio (x) = 0.09801 -0.00339
# Poissons Ratio (y) = 0.13518 0.10456
# Poissons Ratio (z) = -0.00989 0.22086
#
# Static dielectric constant tensor:
#      x y z
#    x 1.917850 0.058440 0.114790 
#    y 0.058440 1.887600 -0.008180 
#    z 0.114790 -0.008180 2.037050 
# 
# From -- ./inp_files/45439.got.cif
#   From: 2010.05.17/outbox.cif.g08.bks.cpg/sg2_23_cif.got.tgz:45439.got - 2010.06.03 11:33:40.
