data_PCOD9034194
_publ_section_title
;
Structure prediction by ZEFSAII (Michael W. Deem and Ramdas Pophale) SiO2 
 PCOD9034194
Probable space group: P -1
;
_chemical_formula_sum "Si O2"
_cell_formula_units_Z 15
_cell_length_a 7.478811
_cell_length_b 17.697648
_cell_length_c 11.472569
_cell_angle_alpha 37.970648
_cell_angle_beta 47.395905
_cell_angle_gamma 38.869358
_cell_volume 578.393037
_symmetry_space_group_name_H-M "P -1"
_symmetry_group_IT_number 2
_symmetry_cell_setting 'triclinic'
loop_
_space_group_symop_operation_xyz
x,y,z
-x,-y,-z
loop_
_atom_site_type_symbol
_atom_site_label
_atom_site_fract_x
_atom_site_fract_y
_atom_site_fract_z
Si Si1 0.784206 0.994976 0.692272
Si Si2 0.690601 0.221934 0.658453
Si Si3 0.285631 0.587868 0.765659
Si Si4 0.884595 0.699852 0.095329
Si Si5 0.709368 0.607630 0.722184
Si Si6 0.661230 0.974479 0.334238
Si Si7 0.000000 0.500000 0.500000
Si Si8 0.374033 0.281030 0.132044
O O1 0.509004 0.036538 0.684675
O O2 0.715352 0.108811 0.687091
O O3 0.905042 0.835494 0.888113
O O4 0.000000 0.000000 0.500000
O O5 0.586714 0.371723 0.451477
O O6 0.447932 0.249526 0.822483
O O7 0.008100 0.153460 0.650045
O O8 0.442313 0.614207 0.770151
O O9 0.938999 0.694888 0.785182
O O10 0.367839 0.423454 0.922229
O O11 0.985336 0.629770 0.265153
O O12 0.080102 0.551030 0.117268
O O13 0.895885 0.604547 0.536150
O O14 0.625020 0.131832 0.148667
O O15 0.500000 0.000000 0.500000
O O16 0.607073 0.720264 0.733993
#
# Coordination Sequence:
#
# PCOD9034194 Si02
#       8
#     2   2   2   2   2   2   1   2
#     4  12  27  45  78 104 149 198 242 305 368 434
#     4  12  25  49  72 105 153 195 240 307 364 446
#     4  11  23  41  72 102 142 187 246 301 362 426
#     4  10  24  48  74 112 145 194 251 295 377 445
#     4  10  22  44  72 101 142 188 241 304 365 426
#     4  12  27  45  70 113 148 192 252 296 371 442
#     4   8  20  42  74  96 140 184 240 290 352 444
#     4  11  26  40  69 110 145 185 247 311 359 430
#
# _framework density 25.933924000000001
#
# number of rings (size 3 to 8) (size 9 to 14) (size 15 to 20)
#    0.800    0.267    4.000    0.800    9.333    1.600 
#    0.000    4.000    0.000    0.000    0.000    0.000 
#    0.000    0.000    0.000    0.000    0.000    0.000 
#
# Total GULP energy -83825.778821 kJ/mol
# GULP energy per Si atom -5588.385255 kJ/mol
# Density = 2.587490 g / cm^3
# Si number density = 25.933924 Si / 1000 Ang^3
#
#
#
# Elastic Constant Matrix: (Units=GPa)
#
#
# Indices 1 2 3 4 5 6 
#
# 1 172.2787 36.7479 27.6022 -2.0058 -2.8070 -5.0532
# 2 36.7479 79.5530 39.6866 -9.5853 -9.6538 -8.9060
# 3 27.6022 39.6866 156.5586 -23.9293 15.0979 -1.7531
# 4 -2.0058 -9.5853 -23.9293 40.9020 -4.7834 -7.7731
# 5 -2.8070 -9.6538 15.0979 -4.7834 38.8537 1.1937
# 6 -5.0532 -8.9060 -1.7531 -7.7731 1.1937 27.0970
#
#
#
# Elastic Compliance Matrix: (Units=1/GPa)
#
#
# Indices 1 2 3 4 5 6 
#
# 1 0.006481 -0.002821 -0.000514 -0.000645 -0.000114 0.000068
# 2 -0.002821 0.017630 -0.003952 0.003470 0.005963 0.005745
# 3 -0.000514 -0.003952 0.008402 0.003579 -0.003854 0.000345
# 4 -0.000645 0.003470 0.003579 0.029468 0.002758 0.009584
# 5 -0.000114 0.005963 -0.003854 0.002758 0.029011 0.001202
# 6 0.000068 0.005745 0.000345 0.009584 0.001202 0.041524
#
#
# Mechanical properties :
#
#
# Convention : Reuss Voigt Hill
#
# Bulk Modulus (GPa) = 55.74506 68.49595 62.12050
# Shear Modulus (GPa) = 32.66435 41.66078 37.16257
#
# Velocity S-wave (km/s) = 3.55283 4.01237 3.78957
# Velocity P-wave (km/s) = 6.19450 6.92347 6.56910
#
# Compressibility (1/GPa) = 0.01793881
#
# Stress axis : x y z
#
# Youngs Moduli (GPa) = 154.28837 56.72163 119.01263
#
# Poissons Ratio (x) = 0.16003 0.06120
# Poissons Ratio (y) = 0.43529 0.47033
# Poissons Ratio (z) = 0.07934 0.22416
#
# Static dielectric constant tensor:
#      x y z
#    x 2.808490 -0.492100 -0.172700 
#    y -0.492100 2.424050 0.087130 
#    z -0.172700 0.087130 2.165600 
# 
# From -- ./inp_files/508273.got.cif
#   From: 2010.05.17/outbox.cif.g08.bks.cpg/sg2_255_cif.got.tgz:508273.got - 2010.06.03 11:33:40.
