data_PCOD9034884
_publ_section_title
;
Structure prediction by ZEFSAII (Michael W. Deem and Ramdas Pophale) SiO2 
 PCOD9034884
Probable space group: P -1
;
_chemical_formula_sum "Si O2"
_cell_formula_units_Z 14
_cell_length_a 11.577296
_cell_length_b 7.738007
_cell_length_c 8.892066
_cell_angle_alpha 125.778487
_cell_angle_beta 115.983570
_cell_angle_gamma 53.173073
_cell_volume 512.567621
_symmetry_space_group_name_H-M "P -1"
_symmetry_group_IT_number 2
_symmetry_cell_setting 'triclinic'
loop_
_space_group_symop_operation_xyz
x,y,z
-x,-y,-z
loop_
_atom_site_type_symbol
_atom_site_label
_atom_site_fract_x
_atom_site_fract_y
_atom_site_fract_z
Si Si1 0.312599 0.754925 0.764156
Si Si2 0.879020 0.909097 0.412702
Si Si3 0.367260 0.376992 0.335918
Si Si4 0.475213 0.176118 0.833833
Si Si5 0.175812 0.664592 0.904750
Si Si6 0.940475 0.592912 0.846570
Si Si7 0.333962 0.790455 0.299065
O O1 0.363879 0.541930 0.558988
O O2 0.192884 0.720151 0.772875
O O3 0.223298 0.001495 0.747741
O O4 0.427739 0.770951 0.956765
O O5 0.975825 0.627402 0.331786
O O6 0.770799 0.007813 0.541821
O O7 0.000000 0.000000 0.500000
O O8 0.361913 0.546184 0.280675
O O9 0.226171 0.336644 0.226469
O O10 0.494282 0.100914 0.270812
O O11 0.307369 0.383244 0.856426
O O12 0.534180 0.197779 0.710982
O O13 0.016290 0.747308 0.918121
O O14 0.235561 0.805989 0.111959
O O15 0.000000 0.500000 0.000000
#
# Coordination Sequence:
#
# PCOD9034884 Si02
#       7
#     2   2   2   2   2   2   2
#     4  10  23  44  70 107 139 188 246 298 355 435
#     4  11  21  42  70 103 146 181 239 306 366 418
#     4  11  24  46  75 108 142 189 253 299 365 428
#     4  11  26  49  72 105 151 198 237 299 371 430
#     4  11  25  47  70 102 150 190 239 300 364 442
#     4  12  23  45  71 104 143 187 240 302 364 436
#     4  10  22  45  69 101 144 186 241 299 349 437
#
# _framework density 27.313469000000001
#
# number of rings (size 3 to 8) (size 9 to 14) (size 15 to 20)
#    0.000    1.143    4.286    2.571    2.000    2.857 
#    5.143    9.286    0.000    0.000    0.000    0.000 
#    0.000    0.000    0.000    0.000    0.000    0.000 
#
# Total GULP energy -78363.292016 kJ/mol
# GULP energy per Si atom -5597.378001 kJ/mol
# Density = 2.725130 g / cm^3
# Si number density = 27.313469 Si / 1000 Ang^3
#
#
#
# Elastic Constant Matrix: (Units=GPa)
#
#
# Indices 1 2 3 4 5 6 
#
# 1 143.4977 22.8469 22.7566 -17.4199 -3.6398 -32.1853
# 2 22.8469 118.0275 23.8571 4.3873 -12.9930 -12.2865
# 3 22.7566 23.8571 112.2650 4.2607 -22.8658 -9.6766
# 4 -17.4199 4.3873 4.2607 37.2898 2.4706 0.5990
# 5 -3.6398 -12.9930 -22.8658 2.4706 52.9563 -4.7808
# 6 -32.1853 -12.2865 -9.6766 0.5990 -4.7808 47.4934
#
#
#
# Elastic Compliance Matrix: (Units=1/GPa)
#
#
# Indices 1 2 3 4 5 6 
#
# 1 0.009146 -0.001080 -0.001288 0.004450 0.000107 0.005611
# 2 -0.001080 0.009367 -0.001170 -0.001628 0.001946 0.001670
# 3 -0.001288 -0.001170 0.010508 -0.001978 0.004383 0.001432
# 4 0.004450 -0.001628 -0.001978 0.029432 -0.002176 0.001601
# 5 0.000107 0.001946 0.004383 -0.002176 0.021695 0.003680
# 6 0.005611 0.001670 0.001432 0.001601 0.003680 0.025932
#
#
# Mechanical properties :
#
#
# Convention : Reuss Voigt Hill
#
# Bulk Modulus (GPa) = 45.56531 56.96792 51.26662
# Shear Modulus (GPa) = 41.50411 47.83654 44.67033
#
# Velocity S-wave (km/s) = 3.90237 4.18950 4.04848
# Velocity P-wave (km/s) = 6.08467 6.65619 6.37684
#
# Compressibility (1/GPa) = 0.02194652
#
# Stress axis : x y z
#
# Youngs Moduli (GPa) = 109.33340 106.76329 95.16152
#
# Poissons Ratio (x) = 0.11527 0.12258
# Poissons Ratio (y) = 0.11804 0.11130
# Poissons Ratio (z) = 0.14083 0.12487
#
# Static dielectric constant tensor:
#      x y z
#    x 2.562100 -0.020160 0.119290 
#    y -0.020160 2.176680 0.066040 
#    z 0.119290 0.066040 2.163170 
# 
# From -- ./inp_files/245575.got.cif
#   From: 2010.05.17/outbox.cif.g08.bks.cpg/sg2_123_cif.got.tgz:245575.got - 2010.06.03 11:33:40.
