data_PCOD9034710
_publ_section_title
;
Structure prediction by ZEFSAII (Michael W. Deem and Ramdas Pophale) SiO2 
 PCOD9034710
Probable space group: P -1
;
_chemical_formula_sum "Si O2"
_cell_formula_units_Z 16
_cell_length_a 11.894010
_cell_length_b 14.836602
_cell_length_c 8.558851
_cell_angle_alpha 100.278319
_cell_angle_beta 118.615153
_cell_angle_gamma 35.550698
_cell_volume 701.783992
_symmetry_space_group_name_H-M "P -1"
_symmetry_group_IT_number 2
_symmetry_cell_setting 'triclinic'
loop_
_space_group_symop_operation_xyz
x,y,z
-x,-y,-z
loop_
_atom_site_type_symbol
_atom_site_label
_atom_site_fract_x
_atom_site_fract_y
_atom_site_fract_z
Si Si1 0.176465 0.013943 0.267237
Si Si2 0.381496 0.670114 0.568574
Si Si3 0.030740 0.893442 0.140026
Si Si4 0.323660 0.211419 0.576692
Si Si5 0.267053 0.549555 0.534403
Si Si6 0.189580 0.468249 0.754232
Si Si7 0.240984 0.080345 0.634187
Si Si8 0.406865 0.814629 0.851399
O O1 0.443799 0.885666 0.373691
O O2 0.157023 0.915918 0.213530
O O3 0.121318 0.089733 0.421531
O O4 0.997273 0.147854 0.048583
O O5 0.399277 0.567991 0.652806
O O6 0.603435 0.562950 0.572124
O O7 0.304254 0.803225 0.657938
O O8 0.175936 0.764569 0.339180
O O9 0.764798 0.073565 0.079306
O O10 0.229715 0.339654 0.683346
O O11 0.383480 0.077069 0.648076
O O12 0.089789 0.341875 0.353062
O O13 0.283066 0.475885 0.675853
O O14 0.985067 0.734188 0.380259
O O15 0.346115 0.376906 0.985329
O O16 0.396457 0.919913 0.795158
#
# Coordination Sequence:
#
# PCOD9034710 Si02
#       8
#     2   2   2   2   2   2   2   2
#     4  11  22  40  68 100 129 175 221 266 335 392
#     4  11  22  41  66  98 141 176 212 275 338 397
#     4  11  22  39  69 103 133 167 215 279 329 396
#     4  10  22  45  67  92 135 178 224 267 330 387
#     4  10  23  43  62  95 138 180 212 269 338 392
#     4  10  23  43  68  92 134 181 219 272 328 396
#     4  11  23  43  70  97 134 175 222 281 318 390
#     4  12  23  41  69 106 131 170 227 271 336 389
#
# _framework density 22.799036999999998
#
# number of rings (size 3 to 8) (size 9 to 14) (size 15 to 20)
#    0.000    1.250    3.750    2.250    1.750    1.000 
#    9.000    0.625    0.000    0.000    0.000    0.000 
#    0.000    0.000    0.000    0.000    0.000    0.000 
#
# Total GULP energy -89325.503244 kJ/mol
# GULP energy per Si atom -5582.843953 kJ/mol
# Density = 2.274715 g / cm^3
# Si number density = 22.799037 Si / 1000 Ang^3
#
#
#
# Elastic Constant Matrix: (Units=GPa)
#
#
# Indices 1 2 3 4 5 6 
#
# 1 124.4049 36.8193 46.0358 -22.4344 -2.9606 20.4888
# 2 36.8193 34.4992 8.1868 -9.5175 -4.9153 9.7070
# 3 46.0358 8.1868 84.2273 -21.7954 -15.0056 3.0839
# 4 -22.4344 -9.5175 -21.7954 27.5523 -2.0880 -1.2341
# 5 -2.9606 -4.9153 -15.0056 -2.0880 20.6477 -10.1832
# 6 20.4888 9.7070 3.0839 -1.2341 -10.1832 38.4463
#
#
#
# Elastic Compliance Matrix: (Units=1/GPa)
#
#
# Indices 1 2 3 4 5 6 
#
# 1 0.017300 -0.015849 -0.009997 -0.000585 -0.012428 -0.007726
# 2 -0.015849 0.049896 0.010994 0.014518 0.019337 0.000554
# 3 -0.009997 0.010994 0.025004 0.017674 0.024951 0.007723
# 4 -0.000585 0.014518 0.017674 0.056749 0.023581 0.003296
# 5 -0.012428 0.019337 0.024951 0.023581 0.082836 0.022437
# 6 -0.007726 0.000554 0.007723 0.003296 0.022437 0.035417
#
#
# Mechanical properties :
#
#
# Convention : Reuss Voigt Hill
#
# Bulk Modulus (GPa) = 16.00109 47.24614 31.62362
# Shear Modulus (GPa) = 15.73621 27.46856 21.60238
#
# Velocity S-wave (km/s) = 2.63004 3.47481 3.08151
# Velocity P-wave (km/s) = 4.03192 6.07181 5.15380
#
# Compressibility (1/GPa) = 0.06249573
#
# Stress axis : x y z
#
# Youngs Moduli (GPa) = 57.80438 20.04168 39.99316
#
# Poissons Ratio (x) = 0.31763 0.39983
# Poissons Ratio (y) = 0.91612 -0.43969
# Poissons Ratio (z) = 0.57790 -0.22034
#
# Static dielectric constant tensor:
#      x y z
#    x 1.913080 0.005660 -0.038840 
#    y 0.005660 1.879140 -0.046960 
#    z -0.038840 -0.046960 1.943050 
# 
# From -- ./inp_files/273483.got.cif
#   From: 2010.05.17/outbox.cif.g08.bks.cpg/sg2_137_cif.got.tgz:273483.got - 2010.06.03 11:33:40.
