data_PCOD9034317
_publ_section_title
;
Structure prediction by ZEFSAII (Michael W. Deem and Ramdas Pophale) SiO2 
 PCOD9034317
Probable space group: P -1
;
_chemical_formula_sum "Si O2"
_cell_formula_units_Z 14
_cell_length_a 8.408896
_cell_length_b 13.340381
_cell_length_c 20.527448
_cell_angle_alpha 24.797104
_cell_angle_beta 143.053578
_cell_angle_gamma 133.423024
_cell_volume 573.818607
_symmetry_space_group_name_H-M "P -1"
_symmetry_group_IT_number 2
_symmetry_cell_setting 'triclinic'
loop_
_space_group_symop_operation_xyz
x,y,z
-x,-y,-z
loop_
_atom_site_type_symbol
_atom_site_label
_atom_site_fract_x
_atom_site_fract_y
_atom_site_fract_z
Si Si1 0.864838 0.404887 0.104277
Si Si2 0.643630 0.336989 0.850746
Si Si3 0.730080 0.253355 0.573714
Si Si4 0.795456 0.531525 0.555729
Si Si5 0.970229 0.775062 0.077354
Si Si6 0.515866 0.165087 0.217571
Si Si7 0.183664 0.970283 0.801991
O O1 0.788936 0.241007 0.236606
O O2 0.145950 0.498448 0.148442
O O3 0.859353 0.243541 0.134232
O O4 0.631442 0.638097 0.895697
O O5 0.377480 0.508838 0.642129
O O6 0.798414 0.243764 0.890434
O O7 0.603752 0.142777 0.007378
O O8 0.857531 0.343196 0.627670
O O9 0.931984 0.070301 0.705827
O O10 0.489303 0.105588 0.600392
O O11 0.500000 0.500000 0.500000
O O12 0.986428 0.455860 0.724153
O O13 0.774480 0.800950 0.362432
O O14 0.690900 0.806299 0.928829
O O15 0.000000 0.000000 0.000000
#
# Coordination Sequence:
#
# PCOD9034317 Si02
#       7
#     2   2   2   2   2   2   2
#     4  10  23  45  69  97 140 184 229 280 339 397
#     4  11  25  44  70 101 140 182 228 280 343 403
#     4  12  24  44  70 104 139 178 227 284 346 404
#     4  12  25  45  70  99 136 179 227 282 343 409
#     4  11  21  42  73 101 136 179 229 281 340 404
#     4  10  22  44  73 101 138 180 230 287 332 406
#     4  12  26  46  67 100 143 178 226 287 342 406
#
# _framework density 24.397953999999999
#
# number of rings (size 3 to 8) (size 9 to 14) (size 15 to 20)
#    0.000    0.857    5.714    1.714    0.000    2.857 
#    5.143    0.000    0.000    0.000    0.000    0.000 
#    0.000    0.000    0.000    0.000    0.000    0.000 
#
# Total GULP energy -78434.725187 kJ/mol
# GULP energy per Si atom -5602.480371 kJ/mol
# Density = 2.434242 g / cm^3
# Si number density = 24.397954 Si / 1000 Ang^3
#
#
#
# Elastic Constant Matrix: (Units=GPa)
#
#
# Indices 1 2 3 4 5 6 
#
# 1 90.8523 55.9920 34.6310 -4.9468 -15.2960 -15.2449
# 2 55.9920 122.0629 20.7272 -21.3020 -6.5119 -38.0401
# 3 34.6310 20.7272 136.2230 -7.0382 -42.1562 -11.3230
# 4 -4.9468 -21.3020 -7.0382 25.9085 6.4566 -1.0519
# 5 -15.2960 -6.5119 -42.1562 6.4566 43.5025 -13.1667
# 6 -15.2449 -38.0401 -11.3230 -1.0519 -13.1667 58.2961
#
#
#
# Elastic Compliance Matrix: (Units=1/GPa)
#
#
# Indices 1 2 3 4 5 6 
#
# 1 0.017281 -0.008574 -0.002604 -0.005178 0.002717 -0.001061
# 2 -0.008574 0.017423 0.001856 0.012966 0.002586 0.010305
# 3 -0.002604 0.001856 0.012225 0.001406 0.012759 0.005811
# 4 -0.005178 0.012966 0.001406 0.049867 -0.003663 0.007452
# 5 0.002717 0.002586 0.012759 -0.003663 0.041532 0.014190
# 6 -0.001061 0.010305 0.005811 0.007452 0.014190 0.028069
#
#
# Mechanical properties :
#
#
# Convention : Reuss Voigt Hill
#
# Bulk Modulus (GPa) = 35.35607 63.53763 49.44685
# Shear Modulus (GPa) = 25.71105 41.39396 33.55250
#
# Velocity S-wave (km/s) = 3.24978 4.12347 3.71242
# Velocity P-wave (km/s) = 5.34830 6.98351 6.21988
#
# Compressibility (1/GPa) = 0.02828369
#
# Stress axis : x y z
#
# Youngs Moduli (GPa) = 57.86673 57.39572 81.80283
#
# Poissons Ratio (x) = 0.49214 0.21298
# Poissons Ratio (y) = 0.49617 -0.15179
# Poissons Ratio (z) = 0.15066 -0.10650
#
# Static dielectric constant tensor:
#      x y z
#    x 1.955340 0.014100 -0.035600 
#    y 0.014100 1.928270 -0.022160 
#    z -0.035600 -0.022160 1.967920 
# 
# From -- ./inp_files/171858.got.cif
#   From: 2010.05.17/outbox.cif.g08.bks.cpg/sg2_86_cif.got.tgz:171858.got - 2010.06.03 11:33:40.
