data_PCOD9034414
_publ_section_title
;
Structure prediction by ZEFSAII (Michael W. Deem and Ramdas Pophale) SiO2 
 PCOD9034414
Probable space group: P -1
;
_chemical_formula_sum "Si O2"
_cell_formula_units_Z 15
_cell_length_a 12.501191
_cell_length_b 12.502536
_cell_length_c 4.990492
_cell_angle_alpha 98.496440
_cell_angle_beta 89.387965
_cell_angle_gamma 49.110870
_cell_volume 577.141028
_symmetry_space_group_name_H-M "P -1"
_symmetry_group_IT_number 2
_symmetry_cell_setting 'triclinic'
loop_
_space_group_symop_operation_xyz
x,y,z
-x,-y,-z
loop_
_atom_site_type_symbol
_atom_site_label
_atom_site_fract_x
_atom_site_fract_y
_atom_site_fract_z
Si Si1 0.578358 0.611562 0.393067
Si Si2 0.651320 0.387223 0.729642
Si Si3 0.846189 0.073635 0.400959
Si Si4 0.255624 0.230988 0.205397
Si Si5 0.871719 0.363363 0.072671
Si Si6 0.000000 0.500000 0.000000
Si Si7 0.582770 0.839491 0.339010
Si Si8 0.146666 0.074276 0.169254
O O1 0.592031 0.532585 0.632136
O O2 0.485131 0.597308 0.195925
O O3 0.743863 0.513318 0.273433
O O4 0.518245 0.771844 0.429802
O O5 0.737014 0.246512 0.478756
O O6 0.778061 0.338014 0.905290
O O7 0.805376 0.004388 0.578413
O O8 0.000000 0.000000 0.500000
O O9 0.850605 0.021746 0.086462
O O10 0.271812 0.242784 0.523847
O O11 0.245608 0.109785 0.111030
O O12 0.114122 0.384561 0.173651
O O13 0.380662 0.189367 0.986725
O O14 0.953729 0.399123 0.915551
O O15 0.985209 0.229525 0.213886
O O16 0.500000 0.000000 0.500000
#
# Coordination Sequence:
#
# PCOD9034414 Si02
#       8
#     2   2   2   2   2   1   2   2
#     4  11  26  46  70 103 142 196 248 296 362 440
#     4  11  26  44  72 101 147 195 243 299 361 437
#     4  12  24  46  69 107 145 193 238 305 358 439
#     4  11  25  48  73 109 144 189 247 304 381 430
#     4  11  22  46  68 104 141 192 238 302 363 432
#     4  10  22  44  74 108 142 190 236 320 354 452
#     4  12  27  50  74 107 147 196 246 310 363 445
#     4  11  26  42  75 105 148 185 241 300 374 432
#
# _framework density 25.990179999999999
#
# number of rings (size 3 to 8) (size 9 to 14) (size 15 to 20)
#    0.000    0.800    2.667    3.600    5.600    0.533 
#    2.400    0.000    0.000    0.000    0.000    0.000 
#    0.000    0.000    0.000    0.000    0.000    0.000 
#
# Total GULP energy -83693.060572 kJ/mol
# GULP energy per Si atom -5579.537371 kJ/mol
# Density = 2.593103 g / cm^3
# Si number density = 25.990180 Si / 1000 Ang^3
#
#
#
# Elastic Constant Matrix: (Units=GPa)
#
#
# Indices 1 2 3 4 5 6 
#
# 1 104.2038 48.7715 16.8052 -15.5466 9.5119 10.1129
# 2 48.7715 116.2006 10.5832 -10.4376 -18.9887 20.6116
# 3 16.8052 10.5832 56.9655 -1.3436 -0.6645 10.0820
# 4 -15.5466 -10.4376 -1.3436 14.1219 4.4754 0.4450
# 5 9.5119 -18.9887 -0.6645 4.4754 26.2622 -6.5817
# 6 10.1129 20.6116 10.0820 0.4450 -6.5817 52.2493
#
#
#
# Elastic Compliance Matrix: (Units=1/GPa)
#
#
# Indices 1 2 3 4 5 6 
#
# 1 0.018465 -0.008033 -0.003338 0.019324 -0.016372 -0.001988
# 2 -0.008033 0.014320 0.000246 -0.002290 0.013038 -0.002480
# 3 -0.003338 0.000246 0.018977 -0.002069 0.001491 -0.002907
# 4 0.019324 -0.002290 -0.002069 0.099050 -0.027270 -0.006716
# 5 -0.016372 0.013038 0.001491 -0.027270 0.059489 0.005463
# 6 -0.001988 -0.002480 -0.002907 -0.006716 0.005463 0.021808
#
#
# Mechanical properties :
#
#
# Convention : Reuss Voigt Hill
#
# Bulk Modulus (GPa) = 33.88505 47.74331 40.81418
# Shear Modulus (GPa) = 18.92531 31.94067 25.43299
#
# Velocity S-wave (km/s) = 2.70139 3.50944 3.13159
# Velocity P-wave (km/s) = 4.77451 5.90180 5.36783
#
# Compressibility (1/GPa) = 0.02951154
#
# Stress axis : x y z
#
# Youngs Moduli (GPa) = 54.15583 69.83313 52.69615
#
# Poissons Ratio (x) = 0.56098 0.17592
# Poissons Ratio (y) = 0.43504 -0.01299
# Poissons Ratio (z) = 0.18079 -0.01721
#
# Static dielectric constant tensor:
#      x y z
#    x 2.202700 -0.068780 -0.059900 
#    y -0.068780 2.096610 0.062570 
#    z -0.059900 0.062570 2.076480 
# 
# From -- ./inp_files/71223.got.cif
#   From: 2010.05.17/outbox.cif.g08.bks.cpg/sg2_36_cif.got.tgz:71223.got - 2010.06.03 11:33:40.
