data_PCOD9034852
_publ_section_title
;
Structure prediction by ZEFSAII (Michael W. Deem and Ramdas Pophale) SiO2 
 PCOD9034852
Probable space group: P -1
;
_chemical_formula_sum "Si O2"
_cell_formula_units_Z 16
_cell_length_a 12.407485
_cell_length_b 11.027946
_cell_length_c 9.876569
_cell_angle_alpha 132.202050
_cell_angle_beta 125.846971
_cell_angle_gamma 83.165968
_cell_volume 721.786062
_symmetry_space_group_name_H-M "P -1"
_symmetry_group_IT_number 2
_symmetry_cell_setting 'triclinic'
loop_
_space_group_symop_operation_xyz
x,y,z
-x,-y,-z
loop_
_atom_site_type_symbol
_atom_site_label
_atom_site_fract_x
_atom_site_fract_y
_atom_site_fract_z
Si Si1 0.372727 0.550384 0.895267
Si Si2 0.066638 0.719044 0.179923
Si Si3 0.181664 0.978215 0.004181
Si Si4 0.922320 0.624780 0.586231
Si Si5 0.784106 0.638100 0.753970
Si Si6 0.550152 0.283866 0.225837
Si Si7 0.670099 0.150628 0.758788
Si Si8 0.742105 0.070013 0.264742
O O1 0.209447 0.390706 0.620425
O O2 0.417981 0.656030 0.863336
O O3 0.500000 0.500000 0.000000
O O4 0.342280 0.667773 0.074111
O O5 0.198811 0.794450 0.217473
O O6 0.149410 0.845930 0.465123
O O7 0.000000 0.500000 0.000000
O O8 0.913321 0.724326 0.026294
O O9 0.169399 0.896352 0.783955
O O10 0.024027 0.839688 0.845049
O O11 0.288149 0.928844 0.137017
O O12 0.232607 0.192342 0.195051
O O13 0.858716 0.556890 0.637866
O O14 0.000000 0.500000 0.500000
O O15 0.622232 0.461692 0.511313
O O16 0.634569 0.167341 0.248802
O O17 0.373092 0.148198 0.991882
O O18 0.500000 0.000000 0.500000
#
# Coordination Sequence:
#
# PCOD9034852 Si02
#       8
#     2   2   2   2   2   2   2   2
#     4  11  24  43  72 106 141 182 240 307 354 432
#     4  12  26  45  73 107 149 187 244 306 367 432
#     4  12  25  43  73 102 137 189 243 296 366 435
#     4  11  21  43  73  99 133 186 240 290 363 430
#     4  11  24  43  71 104 136 181 244 309 351 431
#     4  10  22  45  68  98 140 193 237 284 375 436
#     4  12  27  44  72 107 143 190 245 300 368 436
#     4  11  24  44  72  96 143 198 229 291 371 448
#
# _framework density 22.167235000000002
#
# number of rings (size 3 to 8) (size 9 to 14) (size 15 to 20)
#    0.000    0.750    5.000    1.875    7.000    2.000 
#    2.250    0.000    0.000    0.000    0.000    0.000 
#    0.000    0.000    0.000    0.000    0.000    0.000 
#
# Total GULP energy -89205.918030 kJ/mol
# GULP energy per Si atom -5575.369877 kJ/mol
# Density = 2.211678 g / cm^3
# Si number density = 22.167235 Si / 1000 Ang^3
#
#
#
# Elastic Constant Matrix: (Units=GPa)
#
#
# Indices 1 2 3 4 5 6 
#
# 1 66.5508 24.2020 29.6441 -15.2102 2.9439 -8.8324
# 2 24.2020 76.1944 45.8004 1.0724 4.7150 -12.1733
# 3 29.6441 45.8004 174.0440 -14.6941 28.5351 -13.9402
# 4 -15.2102 1.0724 -14.6941 43.7820 11.2277 -1.2497
# 5 2.9439 4.7150 28.5351 11.2277 31.4473 0.8299
# 6 -8.8324 -12.1733 -13.9402 -1.2497 0.8299 29.6963
#
#
#
# Elastic Compliance Matrix: (Units=1/GPa)
#
#
# Indices 1 2 3 4 5 6 
#
# 1 0.019576 -0.005246 -0.000390 0.007832 -0.003592 0.003919
# 2 -0.005246 0.017878 -0.004484 -0.004544 0.003412 0.003377
# 3 -0.000390 -0.004484 0.009331 0.005723 -0.009879 0.002943
# 4 0.007832 -0.004544 0.005723 0.032048 -0.016819 0.004972
# 5 -0.003592 0.003412 -0.009879 -0.016819 0.046760 -0.006322
# 6 0.003919 0.003377 0.002943 0.004972 -0.006322 0.037992
#
#
# Mechanical properties :
#
#
# Convention : Reuss Voigt Hill
#
# Bulk Modulus (GPa) = 37.66992 57.34248 47.50620
# Shear Modulus (GPa) = 25.95082 35.46128 30.70605
#
# Velocity S-wave (km/s) = 3.42524 4.00398 3.72587
# Velocity P-wave (km/s) = 5.71607 6.87751 6.32351
#
# Compressibility (1/GPa) = 0.02654638
#
# Stress axis : x y z
#
# Youngs Moduli (GPa) = 51.08207 55.93450 107.17387
#
# Poissons Ratio (x) = 0.29341 0.04179
# Poissons Ratio (y) = 0.26795 0.48055
# Poissons Ratio (z) = 0.01992 0.25080
#
# Static dielectric constant tensor:
#      x y z
#    x 1.982740 -0.019400 0.157810 
#    y -0.019400 2.017130 0.000790 
#    z 0.157810 0.000790 1.986740 
# 
# From -- ./inp_files/263598.got.cif
#   From: 2010.05.17/outbox.cif.g08.bks.cpg/sg2_132_cif.got.tgz:263598.got - 2010.06.03 11:33:40.
