data_PCOD9034386
_publ_section_title
;
Structure prediction by ZEFSAII (Michael W. Deem and Ramdas Pophale) SiO2 
 PCOD9034386
Probable space group: P -1
;
_chemical_formula_sum "Si O2"
_cell_formula_units_Z 16
_cell_length_a 20.233838
_cell_length_b 8.816571
_cell_length_c 9.554293
_cell_angle_alpha 148.946868
_cell_angle_beta 54.301060
_cell_angle_gamma 121.706146
_cell_volume 712.648626
_symmetry_space_group_name_H-M "P -1"
_symmetry_group_IT_number 2
_symmetry_cell_setting 'triclinic'
loop_
_space_group_symop_operation_xyz
x,y,z
-x,-y,-z
loop_
_atom_site_type_symbol
_atom_site_label
_atom_site_fract_x
_atom_site_fract_y
_atom_site_fract_z
Si Si1 0.144000 0.787449 0.907873
Si Si2 0.287853 0.823570 0.968352
Si Si3 0.817121 0.882876 0.141429
Si Si4 0.971022 0.775778 0.475576
Si Si5 0.083818 0.641960 0.447298
Si Si6 0.394719 0.176650 0.883410
Si Si7 0.684818 0.827264 0.505861
Si Si8 0.417463 0.817561 0.287509
O O1 0.200419 0.759299 0.951140
O O2 0.090903 0.489713 0.705090
O O3 0.198912 0.902850 0.799466
O O4 0.079317 0.035127 0.204410
O O5 0.328268 0.513184 0.700555
O O6 0.338070 0.030881 0.958670
O O7 0.283224 0.991570 0.254331
O O8 0.748915 0.839636 0.308722
O O9 0.892588 0.055846 0.264413
O O10 0.842821 0.571227 0.805863
O O11 0.056162 0.676211 0.350483
O O12 0.000000 0.000000 0.500000
O O13 0.000000 0.500000 0.500000
O O14 0.485731 0.217369 0.867973
O O15 0.400797 0.976181 0.580257
O O16 0.372510 0.494155 0.102712
O O17 0.610764 0.991996 0.657839
#
# Coordination Sequence:
#
# PCOD9034386 Si02
#       8
#     2   2   2   2   2   2   2   2
#     4  12  25  46  64  93 129 175 220 266 339 401
#     4  12  27  43  66 100 144 176 220 279 344 394
#     4  12  25  43  69  91 128 173 221 276 327 399
#     4  12  27  42  67  95 125 169 213 282 339 400
#     4  12  23  44  68  94 121 164 227 276 330 397
#     4  10  22  44  74 103 136 184 222 277 323 403
#     4  12  27  43  66 103 137 180 221 282 334 395
#     4  10  22  44  74 103 136 180 235 263 327 400
#
# _framework density 22.451456
#
# number of rings (size 3 to 8) (size 9 to 14) (size 15 to 20)
#    0.000    0.500    2.500    5.250    5.250    3.000 
#    0.000    0.000    0.000    0.000    0.000    0.000 
#    0.000    0.000    0.000    0.000    0.000    0.000 
#
# Total GULP energy -89518.567515 kJ/mol
# GULP energy per Si atom -5594.910470 kJ/mol
# Density = 2.240036 g / cm^3
# Si number density = 22.451456 Si / 1000 Ang^3
#
#
#
# Elastic Constant Matrix: (Units=GPa)
#
#
# Indices 1 2 3 4 5 6 
#
# 1 57.5516 27.0545 -5.2922 -1.6217 -6.6606 -25.0512
# 2 27.0545 105.4891 28.6818 9.6856 4.6449 -19.1997
# 3 -5.2922 28.6818 98.9211 18.7056 4.1840 -7.8393
# 4 -1.6217 9.6856 18.7056 33.4556 -10.9149 0.8772
# 5 -6.6606 4.6449 4.1840 -10.9149 22.5560 0.1264
# 6 -25.0512 -19.1997 -7.8393 0.8772 0.1264 28.2934
#
#
#
# Elastic Compliance Matrix: (Units=1/GPa)
#
#
# Indices 1 2 3 4 5 6 
#
# 1 0.033812 -0.005868 0.004331 0.004215 0.012278 0.026969
# 2 -0.005868 0.012964 -0.002701 -0.004614 -0.006151 0.003024
# 3 0.004331 -0.002701 0.013326 -0.008115 -0.004597 0.005967
# 4 0.004215 -0.004614 -0.008115 0.044248 0.025129 -0.003132
# 5 0.012278 -0.006151 -0.004597 0.025129 0.062214 0.004366
# 6 0.026969 0.003024 0.005967 -0.003132 0.004366 0.063005
#
#
# Mechanical properties :
#
#
# Convention : Reuss Voigt Hill
#
# Bulk Modulus (GPa) = 19.36997 40.31666 29.84332
# Shear Modulus (GPa) = 19.58847 30.96219 25.27533
#
# Velocity S-wave (km/s) = 2.95698 3.71762 3.35890
# Velocity P-wave (km/s) = 4.50606 6.03521 5.32580
#
# Compressibility (1/GPa) = 0.05162630
#
# Stress axis : x y z
#
# Youngs Moduli (GPa) = 29.57564 77.13871 75.04354
#
# Poissons Ratio (x) = 0.45266 -0.32504
# Poissons Ratio (y) = 0.17355 0.20266
# Poissons Ratio (z) = -0.12810 0.20831
#
# Static dielectric constant tensor:
#      x y z
#    x 1.797310 0.044520 0.026340 
#    y 0.044520 1.796980 -0.047270 
#    z 0.026340 -0.047270 1.800760 
# 
# From -- ./inp_files/343965.got.cif
#   From: 2010.05.17/outbox.cif.g08.bks.cpg/sg2_172_cif.got.tgz:343965.got - 2010.06.03 11:33:40.
