data_PCOD9034267
_publ_section_title
;
Structure prediction by ZEFSAII (Michael W. Deem and Ramdas Pophale) SiO2 
 PCOD9034267
Probable space group: P -1
;
_chemical_formula_sum "Si O2"
_cell_formula_units_Z 15
_cell_length_a 9.106314
_cell_length_b 17.736217
_cell_length_c 11.572007
_cell_angle_alpha 151.626523
_cell_angle_beta 123.954113
_cell_angle_gamma 44.981651
_cell_volume 616.402585
_symmetry_space_group_name_H-M "P -1"
_symmetry_group_IT_number 2
_symmetry_cell_setting 'triclinic'
loop_
_space_group_symop_operation_xyz
x,y,z
-x,-y,-z
loop_
_atom_site_type_symbol
_atom_site_label
_atom_site_fract_x
_atom_site_fract_y
_atom_site_fract_z
Si Si1 0.114985 0.805614 0.543029
Si Si2 0.363871 0.841494 0.229983
Si Si3 0.307674 0.032368 0.879289
Si Si4 0.258134 0.621292 0.590064
Si Si5 0.883789 0.615631 0.364659
Si Si6 0.824383 0.365293 0.160088
Si Si7 0.000000 0.500000 0.000000
Si Si8 0.479718 0.987197 0.283618
O O1 0.163392 0.787574 0.677411
O O2 0.276598 0.855323 0.626627
O O3 0.104531 0.629177 0.254513
O O4 0.876915 0.981955 0.655495
O O5 0.460077 0.905432 0.454970
O O6 0.486021 0.823461 0.140045
O O7 0.331522 0.678738 0.033785
O O8 0.362507 0.074474 0.834839
O O9 0.075161 0.207802 0.048347
O O10 0.500000 0.000000 0.000000
O O11 0.500000 0.500000 0.500000
O O12 0.231409 0.648098 0.750751
O O13 0.128466 0.525480 0.378466
O O14 0.792185 0.549426 0.335049
O O15 0.754883 0.844069 0.628119
O O16 0.885406 0.552416 0.148913
#
# Coordination Sequence:
#
# PCOD9034267 Si02
#       8
#     2   2   2   2   2   2   1   2
#     4  10  24  45  68 101 141 186 238 294 343 427
#     4  10  24  45  69 101 137 185 233 295 352 418
#     4  11  27  42  72 104 144 187 236 291 352 423
#     4  11  25  44  70  98 143 186 236 289 353 422
#     4  11  25  45  70 103 141 183 231 299 341 431
#     4  11  27  43  72 101 141 182 240 292 354 415
#     4  10  22  44  72  92 144 188 228 282 366 392
#     4  11  24  45  70 100 144 180 234 288 360 419
#
# _framework density 24.334745999999999
#
# number of rings (size 3 to 8) (size 9 to 14) (size 15 to 20)
#    0.000    1.333    2.667    1.200    9.333    4.800 
#    0.000    0.000    0.000    0.000    0.000    0.000 
#    0.000    0.000    0.000    0.000    0.000    0.000 
#
# Total GULP energy -83542.541245 kJ/mol
# GULP energy per Si atom -5569.502750 kJ/mol
# Density = 2.427936 g / cm^3
# Si number density = 24.334746 Si / 1000 Ang^3
#
#
#
# Elastic Constant Matrix: (Units=GPa)
#
#
# Indices 1 2 3 4 5 6 
#
# 1 175.8931 22.7442 35.2879 -9.3022 -3.9798 -8.9168
# 2 22.7442 35.2901 1.8534 -1.4762 -1.2782 -4.4090
# 3 35.2879 1.8534 44.6102 -4.3641 6.1635 3.3709
# 4 -9.3022 -1.4762 -4.3641 18.2045 5.6697 0.0164
# 5 -3.9798 -1.2782 6.1635 5.6697 53.2313 -6.0745
# 6 -8.9168 -4.4090 3.3709 0.0164 -6.0745 25.9729
#
#
#
# Elastic Compliance Matrix: (Units=1/GPa)
#
#
# Indices 1 2 3 4 5 6 
#
# 1 0.007746 -0.004161 -0.006209 0.001703 0.001368 0.003078
# 2 -0.004161 0.031459 0.001670 0.000628 0.000622 0.003840
# 3 -0.006209 0.001670 0.029028 0.005532 -0.005153 -0.006824
# 4 0.001703 0.000628 0.005532 0.059366 -0.007016 -0.001705
# 5 0.001368 0.000622 -0.005153 -0.007016 0.020949 0.006148
# 6 0.003078 0.003840 -0.006824 -0.001705 0.006148 0.042535
#
#
# Mechanical properties :
#
#
# Convention : Reuss Voigt Hill
#
# Bulk Modulus (GPa) = 19.67283 41.72937 30.70110
# Shear Modulus (GPa) = 22.18008 32.54227 27.36118
#
# Velocity S-wave (km/s) = 3.02231 3.66085 3.35680
# Velocity P-wave (km/s) = 4.50344 5.92067 5.26000
#
# Compressibility (1/GPa) = 0.05083152
#
# Stress axis : x y z
#
# Youngs Moduli (GPa) = 129.09706 31.78727 34.44977
#
# Poissons Ratio (x) = 0.13226 0.21391
# Poissons Ratio (y) = 0.53716 -0.05752
# Poissons Ratio (z) = 0.80162 -0.05307
#
# Static dielectric constant tensor:
#      x y z
#    x 1.912930 -0.010120 0.002560 
#    y -0.010120 1.988060 0.013860 
#    z 0.002560 0.013860 2.008130 
# 
# From -- ./inp_files/199393.got.cif
#   From: 2010.05.17/outbox.cif.g08.bks.cpg/sg2_100_cif.got.tgz:199393.got - 2010.06.03 11:33:40.
