data_PCOD9034896
_publ_section_title
;
Structure prediction by ZEFSAII (Michael W. Deem and Ramdas Pophale) SiO2 
 PCOD9034896
Probable space group: P -1
;
_chemical_formula_sum "Si O2"
_cell_formula_units_Z 14
_cell_length_a 7.983921
_cell_length_b 5.232381
_cell_length_c 17.046487
_cell_angle_alpha 61.637003
_cell_angle_beta 104.194768
_cell_angle_gamma 120.525637
_cell_volume 539.773126
_symmetry_space_group_name_H-M "P -1"
_symmetry_group_IT_number 2
_symmetry_cell_setting 'triclinic'
loop_
_space_group_symop_operation_xyz
x,y,z
-x,-y,-z
loop_
_atom_site_type_symbol
_atom_site_label
_atom_site_fract_x
_atom_site_fract_y
_atom_site_fract_z
Si Si1 0.106391 0.672005 0.307654
Si Si2 0.433478 0.642059 0.873034
Si Si3 0.671962 0.889992 0.299251
Si Si4 0.833465 0.700492 0.975198
Si Si5 0.324902 0.235821 0.360611
Si Si6 0.838691 0.125248 0.453588
Si Si7 0.881260 0.953560 0.161851
O O1 0.207888 0.446127 0.331949
O O2 0.961528 0.503203 0.389919
O O3 0.988735 0.721358 0.215420
O O4 0.253423 0.021267 0.306711
O O5 0.647692 0.737914 0.915526
O O6 0.322568 0.284538 0.870210
O O7 0.439654 0.919386 0.776370
O O8 0.286362 0.597829 0.935458
O O9 0.544896 0.503219 0.336621
O O10 0.846237 0.000726 0.241348
O O11 0.723015 0.973390 0.382883
O O12 0.964167 0.720629 0.911889
O O13 0.000000 0.000000 0.000000
O O14 0.289868 0.999860 0.465562
O O15 0.000000 0.000000 0.500000
#
# Coordination Sequence:
#
# PCOD9034896 Si02
#       7
#     2   2   2   2   2   2   2
#     4  11  23  45  71 103 143 196 244 301 364 427
#     4  10  22  45  69 102 139 182 241 297 363 439
#     4  12  25  42  67 106 141 188 246 302 359 434
#     4   9  21  44  72  98 140 185 230 303 362 443
#     4  11  26  42  71 103 146 196 247 305 361 423
#     4  10  22  46  66  99 143 193 245 296 362 425
#     4  11  23  40  70 102 142 185 240 295 365 431
#
# _framework density 25.936821999999999
#
# number of rings (size 3 to 8) (size 9 to 14) (size 15 to 20)
#    0.000    1.429    1.429    3.429    4.000    1.714 
#    0.000   10.714    0.000    0.000    0.000    0.000 
#    0.000    0.000    0.000    0.000    0.000    0.000 
#
# Total GULP energy -78364.005067 kJ/mol
# GULP energy per Si atom -5597.428933 kJ/mol
# Density = 2.587779 g / cm^3
# Si number density = 25.936822 Si / 1000 Ang^3
#
#
#
# Elastic Constant Matrix: (Units=GPa)
#
#
# Indices 1 2 3 4 5 6 
#
# 1 119.1975 35.4037 41.0455 11.3588 -15.1979 18.3093
# 2 35.4037 128.3812 37.3662 6.6005 -3.9230 18.9125
# 3 41.0455 37.3662 139.6734 -1.6973 3.8936 25.2712
# 4 11.3588 6.6005 -1.6973 41.9393 12.1622 -1.5760
# 5 -15.1979 -3.9230 3.8936 12.1622 48.4559 -4.1023
# 6 18.3093 18.9125 25.2712 -1.5760 -4.1023 42.1521
#
#
#
# Elastic Compliance Matrix: (Units=1/GPa)
#
#
# Indices 1 2 3 4 5 6 
#
# 1 0.011072 -0.001616 -0.002587 -0.004215 0.004416 -0.002261
# 2 -0.001616 0.009130 -0.001550 -0.001292 0.000472 -0.002468
# 3 -0.002587 -0.001550 0.009116 0.001885 -0.002466 -0.003816
# 4 -0.004215 -0.001292 0.001885 0.027763 -0.008420 0.001499
# 5 0.004416 0.000472 -0.002466 -0.008420 0.024492 0.001417
# 6 -0.002261 -0.002468 -0.003816 0.001499 0.001417 0.028295
#
#
# Mechanical properties :
#
#
# Convention : Reuss Voigt Hill
#
# Bulk Modulus (GPa) = 56.13594 68.32034 62.22814
# Shear Modulus (GPa) = 39.27358 44.73856 42.00607
#
# Velocity S-wave (km/s) = 3.89550 4.15770 4.02873
# Velocity P-wave (km/s) = 6.47484 7.03185 6.75908
#
# Compressibility (1/GPa) = 0.01781390
#
# Stress axis : x y z
#
# Youngs Moduli (GPa) = 90.31679 109.52370 109.69156
#
# Poissons Ratio (x) = 0.17696 0.28374
# Poissons Ratio (y) = 0.14593 0.17004
# Poissons Ratio (z) = 0.23362 0.16978
#
# Static dielectric constant tensor:
#      x y z
#    x 2.226490 -0.015310 0.082550 
#    y -0.015310 1.997860 -0.036880 
#    z 0.082550 -0.036880 2.095160 
# 
# From -- ./inp_files/553278.got.cif
#   From: 2010.05.17/outbox.cif.g08.bks.cpg/sg2_277_cif.got.tgz:553278.got - 2010.06.03 11:33:40.
