data_PCOD9034042
_publ_section_title
;
Structure prediction by ZEFSAII (Michael W. Deem and Ramdas Pophale) SiO2 
 PCOD9034042
Probable space group: P -1
;
_chemical_formula_sum "Si O2"
_cell_formula_units_Z 16
_cell_length_a 13.490795
_cell_length_b 13.172286
_cell_length_c 10.075251
_cell_angle_alpha 26.110107
_cell_angle_beta 76.535890
_cell_angle_gamma 70.702949
_cell_volume 734.835363
_symmetry_space_group_name_H-M "P -1"
_symmetry_group_IT_number 2
_symmetry_cell_setting 'triclinic'
loop_
_space_group_symop_operation_xyz
x,y,z
-x,-y,-z
loop_
_atom_site_type_symbol
_atom_site_label
_atom_site_fract_x
_atom_site_fract_y
_atom_site_fract_z
Si Si1 0.274400 0.097728 0.279170
Si Si2 0.795638 0.064179 0.769688
Si Si3 0.853945 0.633547 0.472239
Si Si4 0.706356 0.910673 0.422137
Si Si5 0.065022 0.733464 0.333288
Si Si6 0.398142 0.570072 0.268440
Si Si7 0.490380 0.263195 0.355264
Si Si8 0.368142 0.477340 0.672792
O O1 0.237116 0.111066 0.427121
O O2 0.199381 0.027449 0.274839
O O3 0.390812 0.903940 0.469894
O O4 0.300634 0.338202 0.939403
O O5 0.868600 0.230285 0.602192
O O6 0.676221 0.238365 0.619155
O O7 0.821890 0.845016 0.122835
O O8 0.774179 0.723601 0.513166
O O9 0.864045 0.394598 0.663328
O O10 0.972774 0.602354 0.529610
O O11 0.593449 0.855139 0.547380
O O12 0.678096 0.182239 0.055471
O O13 0.000000 0.000000 0.000000
O O14 0.434887 0.361037 0.395903
O O15 0.357009 0.462748 0.535901
O O16 0.508240 0.625624 0.210321
O O17 0.500000 0.500000 0.000000
#
# Coordination Sequence:
#
# PCOD9034042 Si02
#       8
#     2   2   2   2   2   2   2   2
#     4  12  25  39  60  95 140 181 219 264 332 383
#     4  11  22  39  66  96 134 171 211 273 336 391
#     4  10  22  44  71 101 122 169 223 273 334 394
#     4  12  25  41  67  96 134 180 229 267 315 401
#     4   9  21  43  72  97 129 160 215 282 339 395
#     4  11  23  39  61  92 132 180 229 273 312 380
#     4  12  24  39  60  87 138 189 223 265 316 379
#     4  11  23  38  60  94 136 172 223 276 325 377
#
# _framework density 21.773585000000001
#
# number of rings (size 3 to 8) (size 9 to 14) (size 15 to 20)
#    0.000    1.000    5.000    1.875    3.500    0.500 
#    0.000    0.625    0.000   10.500    0.000    0.000 
#    0.000    0.000    0.000    0.000    0.000    0.000 
#
# Total GULP energy -89379.952879 kJ/mol
# GULP energy per Si atom -5586.247055 kJ/mol
# Density = 2.172403 g / cm^3
# Si number density = 21.773585 Si / 1000 Ang^3
#
#
#
# Elastic Constant Matrix: (Units=GPa)
#
#
# Indices 1 2 3 4 5 6 
#
# 1 110.6657 43.4223 10.9137 11.2141 4.1495 20.2740
# 2 43.4223 155.1316 39.2414 10.5208 19.0551 14.9082
# 3 10.9137 39.2414 92.0746 5.0907 18.8362 -1.0717
# 4 11.2141 10.5208 5.0907 36.2525 1.3885 11.7521
# 5 4.1495 19.0551 18.8362 1.3885 19.5453 -3.4234
# 6 20.2740 14.9082 -1.0717 11.7521 -3.4234 36.7266
#
#
#
# Elastic Compliance Matrix: (Units=1/GPa)
#
#
# Indices 1 2 3 4 5 6 
#
# 1 0.011021 -0.002441 -0.000141 -0.001103 -0.000586 -0.004799
# 2 -0.002441 0.008745 -0.002141 -0.000345 -0.006401 -0.002751
# 3 -0.000141 -0.002141 0.014182 -0.001104 -0.011357 0.000655
# 4 -0.001103 -0.000345 -0.001104 0.031356 -0.002262 -0.009528
# 5 -0.000586 -0.006401 -0.011357 -0.002262 0.070363 0.009873
# 6 -0.004799 -0.002751 0.000655 -0.009528 0.009873 0.034982
#
#
# Mechanical properties :
#
#
# Convention : Reuss Voigt Hill
#
# Bulk Modulus (GPa) = 40.81368 60.55851 50.68610
# Shear Modulus (GPa) = 26.55864 36.12453 31.34159
#
# Velocity S-wave (km/s) = 3.49630 4.07762 3.79810
# Velocity P-wave (km/s) = 5.92318 7.07408 6.52406
#
# Compressibility (1/GPa) = 0.02450159
#
# Stress axis : x y z
#
# Youngs Moduli (GPa) = 90.73723 114.34937 70.51198
#
# Poissons Ratio (x) = 0.27915 0.00993
# Poissons Ratio (y) = 0.22151 0.15097
# Poissons Ratio (z) = 0.01278 0.24483
#
# Static dielectric constant tensor:
#      x y z
#    x 1.887330 0.015510 -0.011090 
#    y 0.015510 1.860600 -0.022730 
#    z -0.011090 -0.022730 1.794250 
# 
# From -- ./inp_files/109496.got.cif
#   From: 2010.05.17/outbox.cif.g08.bks.cpg/sg2_55_cif.got.tgz:109496.got - 2010.06.03 11:33:40.
