data_PCOD9034254
_publ_section_title
;
Structure prediction by ZEFSAII (Michael W. Deem and Ramdas Pophale) SiO2 
 PCOD9034254
Probable space group: P -1
;
_chemical_formula_sum "Si O2"
_cell_formula_units_Z 14
_cell_length_a 11.670232
_cell_length_b 19.047269
_cell_length_c 7.860440
_cell_angle_alpha 46.435048
_cell_angle_beta 65.327246
_cell_angle_gamma 31.341230
_cell_volume 586.676087
_symmetry_space_group_name_H-M "P -1"
_symmetry_group_IT_number 2
_symmetry_cell_setting 'triclinic'
loop_
_space_group_symop_operation_xyz
x,y,z
-x,-y,-z
loop_
_atom_site_type_symbol
_atom_site_label
_atom_site_fract_x
_atom_site_fract_y
_atom_site_fract_z
Si Si1 0.562830 0.246216 0.898826
Si Si2 0.330057 0.700267 0.577644
Si Si3 0.990875 0.609748 0.733410
Si Si4 0.206080 0.285407 0.686169
Si Si5 0.756510 0.258079 0.053531
Si Si6 0.254033 0.038139 0.172041
Si Si7 0.829319 0.913836 0.473129
O O1 0.628708 0.243930 0.678056
O O2 0.270880 0.448415 0.773232
O O3 0.697233 0.224294 0.994954
O O4 0.659417 0.075061 0.166587
O O5 0.287144 0.758529 0.703498
O O6 0.092572 0.794567 0.512595
O O7 0.565783 0.473601 0.803067
O O8 0.825248 0.715122 0.492581
O O9 0.883955 0.765574 0.655346
O O10 0.000000 0.500000 0.000000
O O11 0.000000 0.500000 0.500000
O O12 0.482549 0.141436 0.783504
O O13 0.173045 0.204612 0.933748
O O14 0.029605 0.122081 0.102463
O O15 0.286618 0.992720 0.426309
#
# Coordination Sequence:
#
# PCOD9034254 Si02
#       7
#     2   2   2   2   2   2   2
#     4  12  25  45  75 110 148 194 243 302 373 436
#     4  10  22  44  72 111 152 189 242 295 372 441
#     4  12  27  48  73 101 147 194 245 306 363 434
#     4  11  25  48  71 103 139 194 243 297 362 436
#     4  10  22  45  74 108 148 195 236 308 368 433
#     4  10  24  45  71 104 145 186 245 298 357 438
#     4  11  25  46  71 108 144 189 242 304 364 438
#
# _framework density 23.863253
#
# number of rings (size 3 to 8) (size 9 to 14) (size 15 to 20)
#    0.000    1.143    1.429    3.429    2.000    6.857 
#   12.857    0.000    0.000    0.000    0.000    0.000 
#    0.000    0.000    0.000    0.000    0.000    0.000 
#
# Total GULP energy -78541.897110 kJ/mol
# GULP energy per Si atom -5610.135508 kJ/mol
# Density = 2.380894 g / cm^3
# Si number density = 23.863253 Si / 1000 Ang^3
#
#
#
# Elastic Constant Matrix: (Units=GPa)
#
#
# Indices 1 2 3 4 5 6 
#
# 1 108.8766 47.5531 32.8723 -1.3596 1.0528 -12.0072
# 2 47.5531 94.7297 36.1156 -15.0705 -8.9543 -16.0041
# 3 32.8723 36.1156 136.4027 5.7970 -14.3183 2.8239
# 4 -1.3596 -15.0705 5.7970 54.2577 0.1715 -1.3351
# 5 1.0528 -8.9543 -14.3183 0.1715 43.5797 -8.1270
# 6 -12.0072 -16.0041 2.8239 -1.3351 -8.1270 29.8968
#
#
#
# Elastic Compliance Matrix: (Units=1/GPa)
#
#
# Indices 1 2 3 4 5 6 
#
# 1 0.012310 -0.005604 -0.001649 -0.001027 -0.001689 0.001595
# 2 -0.005604 0.017276 -0.003179 0.005198 0.004239 0.008682
# 3 -0.001649 -0.003179 0.008900 -0.001950 0.001795 -0.002804
# 4 -0.001027 0.005198 -0.001950 0.020146 0.001071 0.003745
# 5 -0.001689 0.004239 0.001795 0.001071 0.026038 0.008547
# 6 0.001595 0.008682 -0.002804 0.003745 0.008547 0.041492
#
#
# Mechanical properties :
#
#
# Convention : Reuss Voigt Hill
#
# Bulk Modulus (GPa) = 56.75404 63.67677 60.21541
# Shear Modulus (GPa) = 32.70092 40.44470 36.57281
#
# Velocity S-wave (km/s) = 3.70584 4.12133 3.91909
# Velocity P-wave (km/s) = 6.49196 7.02773 6.76516
#
# Compressibility (1/GPa) = 0.01761989
#
# Stress axis : x y z
#
# Youngs Moduli (GPa) = 81.23613 57.88301 112.36040
#
# Poissons Ratio (x) = 0.32439 0.18533
# Poissons Ratio (y) = 0.45527 0.35723
# Poissons Ratio (z) = 0.13399 0.18403
#
# Static dielectric constant tensor:
#      x y z
#    x 1.901020 0.019060 -0.027870 
#    y 0.019060 1.900530 -0.006260 
#    z -0.027870 -0.006260 1.885010 
# 
# From -- ./inp_files/282704.got.cif
#   From: 2010.05.17/outbox.cif.g08.bks.cpg/sg2_142_cif.got.tgz:282704.got - 2010.06.03 11:33:40.
