data_PCOD9034050
_publ_section_title
;
Structure prediction by ZEFSAII (Michael W. Deem and Ramdas Pophale) SiO2 
 PCOD9034050
Probable space group: P -1
;
_chemical_formula_sum "Si O2"
_cell_formula_units_Z 16
_cell_length_a 11.761298
_cell_length_b 13.334619
_cell_length_c 11.441116
_cell_angle_alpha 121.352344
_cell_angle_beta 95.672160
_cell_angle_gamma 133.973975
_cell_volume 731.095906
_symmetry_space_group_name_H-M "P -1"
_symmetry_group_IT_number 2
_symmetry_cell_setting 'triclinic'
loop_
_space_group_symop_operation_xyz
x,y,z
-x,-y,-z
loop_
_atom_site_type_symbol
_atom_site_label
_atom_site_fract_x
_atom_site_fract_y
_atom_site_fract_z
Si Si1 0.802798 0.328049 0.044765
Si Si2 0.344286 0.409481 0.689408
Si Si3 0.304836 0.234923 0.255417
Si Si4 0.962756 0.094979 0.257812
Si Si5 0.059326 0.782801 0.899901
Si Si6 0.716827 0.132144 0.667282
Si Si7 0.461049 0.671956 0.308071
Si Si8 0.553015 0.324015 0.962355
O O1 0.848158 0.266150 0.104088
O O2 0.043729 0.620435 0.227885
O O3 0.751612 0.213715 0.849441
O O4 0.601254 0.245294 0.986554
O O5 0.587977 0.667547 0.804686
O O6 0.145900 0.262281 0.485552
O O7 0.398501 0.323644 0.669197
O O8 0.291695 0.434372 0.815762
O O9 0.500000 0.500000 0.500000
O O10 0.062937 0.078148 0.178741
O O11 0.237372 0.035611 0.137786
O O12 0.963868 0.201327 0.228359
O O13 0.711474 0.868698 0.159116
O O14 0.792599 0.556062 0.789233
O O15 0.500000 0.000000 0.500000
O O16 0.639161 0.927812 0.535149
O O17 0.403526 0.651545 0.155305
#
# Coordination Sequence:
#
# PCOD9034050 Si02
#       8
#     2   2   2   2   2   2   2   2
#     4  11  26  43  72 103 148 189 233 300 346 424
#     4  11  25  45  72 106 141 187 231 300 360 416
#     4  10  22  44  71 101 138 179 240 297 339 414
#     4  11  25  45  71  99 143 186 234 294 349 419
#     4  12  23  45  76 105 132 195 247 281 352 425
#     4  11  22  48  69 106 143 188 245 294 345 414
#     4  12  25  44  80 105 138 188 243 295 357 422
#     4  12  26  48  64 109 155 181 227 300 362 421
#
# _framework density 21.884955999999999
#
# number of rings (size 3 to 8) (size 9 to 14) (size 15 to 20)
#    0.000    0.750    5.000    2.250    5.250    1.000 
#    2.250    0.625    0.000    0.000    0.000    0.000 
#    0.000    0.000    0.000    0.000    0.000    0.000 
#
# Total GULP energy -89274.410761 kJ/mol
# GULP energy per Si atom -5579.650673 kJ/mol
# Density = 2.183514 g / cm^3
# Si number density = 21.884956 Si / 1000 Ang^3
#
#
#
# Elastic Constant Matrix: (Units=GPa)
#
#
# Indices 1 2 3 4 5 6 
#
# 1 79.0201 11.5574 27.6186 7.5356 -5.1755 -26.9300
# 2 11.5574 45.9919 24.1568 -4.6495 -4.2218 -19.2229
# 3 27.6186 24.1568 110.8428 7.3676 -5.8266 -8.4044
# 4 7.5356 -4.6495 7.3676 29.7595 -16.2450 -1.1720
# 5 -5.1755 -4.2218 -5.8266 -16.2450 36.3604 3.3622
# 6 -26.9300 -19.2229 -8.4044 -1.1720 3.3622 41.8453
#
#
#
# Elastic Compliance Matrix: (Units=1/GPa)
#
#
# Indices 1 2 3 4 5 6 
#
# 1 0.017936 0.002076 -0.003855 -0.002915 -0.000204 0.011657
# 2 0.002076 0.032570 -0.006854 0.010213 0.006182 0.014711
# 3 -0.003855 -0.006854 0.011411 -0.003463 -0.000751 -0.003374
# 4 -0.002915 0.010213 -0.003463 0.048792 0.021855 0.001731
# 5 -0.000204 0.006182 -0.000751 0.021855 0.037823 0.000131
# 6 0.011657 0.014711 -0.003374 0.001731 0.000131 0.037518
#
#
# Mechanical properties :
#
#
# Convention : Reuss Voigt Hill
#
# Bulk Modulus (GPa) = 22.39548 40.28005 31.33776
# Shear Modulus (GPa) = 22.91493 33.09454 28.00473
#
# Velocity S-wave (km/s) = 3.23935 3.89293 3.58108
# Velocity P-wave (km/s) = 4.92409 6.21706 5.60796
#
# Compressibility (1/GPa) = 0.04465187
#
# Stress axis : x y z
#
# Youngs Moduli (GPa) = 55.75371 30.70334 87.63600
#
# Poissons Ratio (x) = -0.06375 0.33781
# Poissons Ratio (y) = -0.11576 0.60066
# Poissons Ratio (z) = 0.21491 0.21044
#
# Static dielectric constant tensor:
#      x y z
#    x 1.808330 -0.021200 -0.040590 
#    y -0.021200 1.808500 -0.037360 
#    z -0.040590 -0.037360 2.146590 
# 
# From -- ./inp_files/428740.got.cif
#   From: 2010.05.17/outbox.cif.g08.bks.cpg/sg2_215_cif.got.tgz:428740.got - 2010.06.03 11:33:40.
