data_PCOD9034331
_publ_section_title
;
Structure prediction by ZEFSAII (Michael W. Deem and Ramdas Pophale) SiO2 
 PCOD9034331
Probable space group: P -1
;
_chemical_formula_sum "Si O2"
_cell_formula_units_Z 16
_cell_length_a 8.814343
_cell_length_b 21.172558
_cell_length_c 5.360674
_cell_angle_alpha 58.576343
_cell_angle_beta 59.644731
_cell_angle_gamma 55.723207
_cell_volume 672.876862
_symmetry_space_group_name_H-M "P -1"
_symmetry_group_IT_number 2
_symmetry_cell_setting 'triclinic'
loop_
_space_group_symop_operation_xyz
x,y,z
-x,-y,-z
loop_
_atom_site_type_symbol
_atom_site_label
_atom_site_fract_x
_atom_site_fract_y
_atom_site_fract_z
Si Si1 0.360628 0.064042 0.292489
Si Si2 0.381089 0.432048 0.484696
Si Si3 0.369883 0.605189 0.137990
Si Si4 0.389553 0.828896 0.145516
Si Si5 0.773120 0.688635 0.048719
Si Si6 0.945976 0.733094 0.308047
Si Si7 0.965046 0.885042 0.199556
Si Si8 0.206105 0.967400 0.278082
O O1 0.143476 0.118688 0.449098
O O2 0.500000 0.000000 0.500000
O O3 0.334455 0.005175 0.229949
O O4 0.471719 0.122735 0.067748
O O5 0.315949 0.527933 0.300504
O O6 0.503595 0.411867 0.681058
O O7 0.211421 0.401970 0.732210
O O8 0.510067 0.391134 0.215499
O O9 0.173762 0.682437 0.190512
O O10 0.540513 0.740295 0.139748
O O11 0.194185 0.854766 0.094439
O O12 0.289757 0.870086 0.404708
O O13 0.851202 0.716597 0.171598
O O14 0.865424 0.704430 0.683442
O O15 0.910168 0.826723 0.183891
O O16 0.854528 0.980154 0.033602
O O17 0.000000 0.000000 0.500000
#
# Coordination Sequence:
#
# PCOD9034331 Si02
#       8
#     2   2   2   2   2   2   2   2
#     4  12  24  43  67  91 130 170 229 286 348 413
#     4  10  22  44  73 105 140 186 237 280 351 421
#     4  10  22  44  73 103 143 187 231 288 345 422
#     4  12  25  44  66  95 131 180 229 290 347 419
#     4  12  27  44  70 105 142 185 236 293 350 419
#     4  12  27  45  70 103 145 182 235 295 351 415
#     4  12  26  45  65  94 134 177 232 288 351 419
#     4  12  25  42  68  96 126 178 232 290 355 417
#
# _framework density 23.778496000000001
#
# number of rings (size 3 to 8) (size 9 to 14) (size 15 to 20)
#    0.000    0.500    3.750    4.500    1.750    3.000 
#    0.000    0.000    0.000    0.000    0.000    0.000 
#    0.000    0.000    0.000    0.000    0.000    0.000 
#
# Total GULP energy -89227.738346 kJ/mol
# GULP energy per Si atom -5576.733647 kJ/mol
# Density = 2.372437 g / cm^3
# Si number density = 23.778496 Si / 1000 Ang^3
#
#
#
# Elastic Constant Matrix: (Units=GPa)
#
#
# Indices 1 2 3 4 5 6 
#
# 1 124.7573 -12.6419 27.7845 3.0143 3.5971 18.2904
# 2 -12.6419 53.8814 3.2595 13.1545 1.1149 12.6533
# 3 27.7845 3.2595 110.5062 19.3649 7.3814 11.0812
# 4 3.0143 13.1545 19.3649 33.8828 2.2078 -9.9154
# 5 3.5971 1.1149 7.3814 2.2078 32.7806 2.2928
# 6 18.2904 12.6533 11.0812 -9.9154 2.2928 35.6139
#
#
#
# Elastic Compliance Matrix: (Units=1/GPa)
#
#
# Indices 1 2 3 4 5 6 
#
# 1 0.010131 0.005555 -0.001026 -0.004860 -0.000169 -0.008200
# 2 0.005555 0.028911 0.003031 -0.019160 0.000374 -0.019426
# 3 -0.001026 0.003031 0.011689 -0.009652 -0.001498 -0.006778
# 4 -0.004860 -0.019160 -0.009652 0.050803 -0.001922 0.026575
# 5 -0.000169 0.000374 -0.001498 -0.001922 0.031127 -0.002119
# 6 -0.008200 -0.019426 -0.006778 0.026575 -0.002119 0.048836
#
#
# Mechanical properties :
#
#
# Convention : Reuss Voigt Hill
#
# Bulk Modulus (GPa) = 15.18565 36.21658 25.70111
# Shear Modulus (GPa) = 26.54946 38.50499 32.52723
#
# Velocity S-wave (km/s) = 3.34508 4.02844 3.70256
# Velocity P-wave (km/s) = 4.61731 6.07468 5.39543
#
# Compressibility (1/GPa) = 0.06585165
#
# Stress axis : x y z
#
# Youngs Moduli (GPa) = 98.70323 34.58861 85.55094
#
# Poissons Ratio (x) = -0.19213 0.08777
# Poissons Ratio (y) = -0.54827 -0.25933
# Poissons Ratio (z) = 0.10127 -0.10485
#
# Static dielectric constant tensor:
#      x y z
#    x 1.869160 0.312770 3.081440 
#    y 0.312770 2.085340 -2.082850 
#    z 3.081440 -2.082850 -35.665440 
# 
# From -- ./inp_files/52360.got.cif
#   From: 2010.05.17/outbox.cif.g08.bks.cpg/sg2_27_cif.got.tgz:52360.got - 2010.06.03 11:33:40.
