data_PCOD9034441
_publ_section_title
;
Structure prediction by ZEFSAII (Michael W. Deem and Ramdas Pophale) SiO2 
 PCOD9034441
Probable space group: P -1
;
_chemical_formula_sum "Si O2"
_cell_formula_units_Z 16
_cell_length_a 22.996634
_cell_length_b 6.062935
_cell_length_c 7.230463
_cell_angle_alpha 92.303469
_cell_angle_beta 50.452237
_cell_angle_gamma 76.214745
_cell_volume 729.755083
_symmetry_space_group_name_H-M "P -1"
_symmetry_group_IT_number 2
_symmetry_cell_setting 'triclinic'
loop_
_space_group_symop_operation_xyz
x,y,z
-x,-y,-z
loop_
_atom_site_type_symbol
_atom_site_label
_atom_site_fract_x
_atom_site_fract_y
_atom_site_fract_z
Si Si1 0.559140 0.643894 0.375487
Si Si2 0.839106 0.577486 0.787369
Si Si3 0.267898 0.708874 0.978760
Si Si4 0.280034 0.055563 0.251300
Si Si5 0.210664 0.054570 0.792076
Si Si6 0.462991 0.023820 0.874965
Si Si7 0.076707 0.428585 0.708120
Si Si8 0.095714 0.912332 0.782700
O O1 0.500000 0.500000 0.500000
O O2 0.652232 0.510758 0.218846
O O3 0.524861 0.844164 0.604736
O O4 0.551459 0.728606 0.183097
O O5 0.922632 0.535160 0.512393
O O6 0.772642 0.739305 0.776463
O O7 0.811809 0.356619 0.868600
O O8 0.833325 0.710222 0.996644
O O9 0.268743 0.888615 0.820452
O O10 0.269713 0.822954 0.178131
O O11 0.253503 0.096537 0.520522
O O12 0.374857 0.005327 0.047908
O O13 0.147431 0.931201 0.855360
O O14 0.500000 0.000000 0.000000
O O15 0.117008 0.632628 0.683845
O O16 0.107249 0.138206 0.653854
O O17 0.000000 0.500000 0.000000
O O18 0.000000 0.000000 0.000000
#
# Coordination Sequence:
#
# PCOD9034441 Si02
#       8
#     2   2   2   2   2   2   2   2
#     4  11  24  45  62  91 139 174 228 289 347 411
#     4  11  24  43  69  97 138 177 232 283 352 411
#     4  11  25  42  67  98 134 183 226 292 351 418
#     4  11  23  44  64  95 136 176 225 290 348 410
#     4  11  26  40  71 103 134 177 241 281 349 433
#     4  11  26  40  66  94 131 179 232 285 352 417
#     4  10  22  44  74  98 140 186 225 285 359 420
#     4  10  22  45  73 100 141 184 225 289 358 420
#
# _framework density 21.925163999999999
#
# number of rings (size 3 to 8) (size 9 to 14) (size 15 to 20)
#    0.000    1.250    3.750    0.750    7.000    2.500 
#    0.000    5.000    0.000    0.000    0.000    0.000 
#    0.000    0.000    0.000    0.000    0.000    0.000 
#
# Total GULP energy -89068.552764 kJ/mol
# GULP energy per Si atom -5566.784548 kJ/mol
# Density = 2.187526 g / cm^3
# Si number density = 21.925164 Si / 1000 Ang^3
#
#
#
# Elastic Constant Matrix: (Units=GPa)
#
#
# Indices 1 2 3 4 5 6 
#
# 1 53.5778 19.9888 25.9323 2.9102 8.1984 8.0634
# 2 19.9888 92.4671 32.0085 -9.0565 6.5648 27.9549
# 3 25.9323 32.0085 148.2080 3.1438 9.3596 6.4871
# 4 2.9102 -9.0565 3.1438 36.0052 -0.8384 -1.0358
# 5 8.1984 6.5648 9.3596 -0.8384 38.6938 1.6484
# 6 8.0634 27.9549 6.4871 -1.0358 1.6484 39.0950
#
#
#
# Elastic Compliance Matrix: (Units=1/GPa)
#
#
# Indices 1 2 3 4 5 6 
#
# 1 0.022180 -0.003320 -0.002821 -0.002509 -0.003438 -0.001654
# 2 -0.003320 0.015917 -0.002445 0.004173 -0.000883 -0.010143
# 3 -0.002821 -0.002445 0.007805 -0.001060 -0.000943 0.001047
# 4 -0.002509 0.004173 -0.001060 0.029092 0.000777 -0.001552
# 5 -0.003438 -0.000883 -0.000943 0.000777 0.026951 0.000381
# 6 -0.001654 -0.010143 0.001047 -0.001552 0.000381 0.032942
#
#
# Mechanical properties :
#
#
# Convention : Reuss Voigt Hill
#
# Bulk Modulus (GPa) = 34.80788 50.01246 42.41017
# Shear Modulus (GPa) = 30.93385 37.18035 34.05710
#
# Velocity S-wave (km/s) = 3.76025 4.12246 3.94551
# Velocity P-wave (km/s) = 5.89600 6.74682 6.33571
#
# Compressibility (1/GPa) = 0.02872912
#
# Stress axis : x y z
#
# Youngs Moduli (GPa) = 45.08633 62.82730 128.11877
#
# Poissons Ratio (x) = 0.20856 0.36144
# Poissons Ratio (y) = 0.14967 0.31331
# Poissons Ratio (z) = 0.12720 0.15364
#
# Static dielectric constant tensor:
#      x y z
#    x 1.576700 0.049760 -0.792450 
#    y 0.049760 1.842900 0.296960 
#    z -0.792450 0.296960 -0.548720 
# 
# From -- ./inp_files/13172.got.cif
#   From: 2010.05.17/outbox.cif.g08.bks.cpg/sg2_7_cif.got.tgz:13172.got - 2010.06.03 11:33:40.
