data_PCOD9034530
_publ_section_title
;
Structure prediction by ZEFSAII (Michael W. Deem and Ramdas Pophale) SiO2 
 PCOD9034530
Probable space group: P -1
;
_chemical_formula_sum "Si O2"
_cell_formula_units_Z 16
_cell_length_a 12.165002
_cell_length_b 10.946835
_cell_length_c 13.053056
_cell_angle_alpha 146.876874
_cell_angle_beta 49.271200
_cell_angle_gamma 121.791142
_cell_volume 718.994319
_symmetry_space_group_name_H-M "P -1"
_symmetry_group_IT_number 2
_symmetry_cell_setting 'triclinic'
loop_
_space_group_symop_operation_xyz
x,y,z
-x,-y,-z
loop_
_atom_site_type_symbol
_atom_site_label
_atom_site_fract_x
_atom_site_fract_y
_atom_site_fract_z
Si Si1 0.194431 0.110079 0.047657
Si Si2 0.507694 0.705586 0.062514
Si Si3 0.752288 0.781307 0.677469
Si Si4 0.588133 0.901487 0.475472
Si Si5 0.837563 0.234749 0.899687
Si Si6 0.889909 0.669807 0.059553
Si Si7 0.944423 0.325431 0.244069
Si Si8 0.534511 0.427127 0.241473
O O1 0.237289 0.106771 0.138006
O O2 0.043357 0.258579 0.234333
O O3 0.328158 0.215488 0.983197
O O4 0.164501 0.870301 0.849692
O O5 0.404017 0.901803 0.309334
O O6 0.500000 0.500000 0.000000
O O7 0.472855 0.648200 0.926380
O O8 0.860905 0.564216 0.459009
O O9 0.590318 0.692303 0.704298
O O10 0.797980 0.982918 0.718734
O O11 0.742512 0.804611 0.273305
O O12 0.515258 0.694342 0.431235
O O13 0.500000 0.000000 0.500000
O O14 0.979285 0.242398 0.889641
O O15 0.868891 0.408624 0.912641
O O16 0.696094 0.350124 0.123818
O O17 0.938738 0.694271 0.931737
#
# Coordination Sequence:
#
# PCOD9034530 Si02
#       8
#     2   2   2   2   2   2   2   2
#     4  10  23  40  61  93 131 156 201 262 312 375
#     4  11  22  39  62  94 122 159 208 255 308 373
#     4  11  22  41  65  91 122 166 209 259 306 367
#     4  11  21  40  64  93 127 162 201 259 319 362
#     4  10  22  45  61  87 130 166 211 258 301 363
#     4  10  23  42  65  89 129 168 204 259 305 370
#     4  11  22  41  64  92 125 165 206 252 319 367
#     4  10  23  42  63  91 124 165 209 256 312 365
#
# _framework density 22.253305000000001
#
# number of rings (size 3 to 8) (size 9 to 14) (size 15 to 20)
#    0.000    1.500    2.500    2.250    1.750    2.500 
#    6.750    0.625    0.000    0.000    0.000    0.000 
#    0.000    0.000    0.000    0.000    0.000    0.000 
#
# Total GULP energy -89471.592089 kJ/mol
# GULP energy per Si atom -5591.974506 kJ/mol
# Density = 2.220266 g / cm^3
# Si number density = 22.253305 Si / 1000 Ang^3
#
#
#
# Elastic Constant Matrix: (Units=GPa)
#
#
# Indices 1 2 3 4 5 6 
#
# 1 66.5565 28.4564 12.5162 1.2546 -26.1791 13.7422
# 2 28.4564 141.8190 44.0232 27.3925 -7.2406 29.8499
# 3 12.5162 44.0232 72.2816 23.4533 -12.6344 -5.3412
# 4 1.2546 27.3925 23.4533 39.9907 -4.1686 -4.6902
# 5 -26.1791 -7.2406 -12.6344 -4.1686 28.5188 -5.3082
# 6 13.7422 29.8499 -5.3412 -4.6902 -5.3082 22.9557
#
#
#
# Elastic Compliance Matrix: (Units=1/GPa)
#
#
# Indices 1 2 3 4 5 6 
#
# 1 0.026740 -0.004054 0.000429 0.003598 0.023397 -0.004491
# 2 -0.004054 0.019565 -0.011861 -0.011096 -0.011338 -0.030662
# 3 0.000429 -0.011861 0.025940 -0.003004 0.012819 0.023553
# 4 0.003598 -0.011096 -0.003004 0.037646 0.008615 0.021259
# 5 0.023397 -0.011338 0.012819 0.008615 0.064394 0.020369
# 6 -0.004491 -0.030662 0.023553 0.021259 0.020369 0.100655
#
#
# Mechanical properties :
#
#
# Convention : Reuss Voigt Hill
#
# Bulk Modulus (GPa) = 24.22918 50.07206 37.15062
# Shear Modulus (GPa) = 15.64122 31.33711 23.48916
#
# Velocity S-wave (km/s) = 2.65405 3.75667 3.25243
# Velocity P-wave (km/s) = 4.50594 6.43168 5.55293
#
# Compressibility (1/GPa) = 0.04127255
#
# Stress axis : x y z
#
# Youngs Moduli (GPa) = 37.39757 51.11288 38.55010
#
# Poissons Ratio (x) = 0.20720 -0.01654
# Poissons Ratio (y) = 0.15160 0.45725
# Poissons Ratio (z) = -0.01604 0.60626
#
# Static dielectric constant tensor:
#      x y z
#    x 1.861360 -0.012800 -0.002470 
#    y -0.012800 1.831580 0.016380 
#    z -0.002470 0.016380 1.781770 
# 
# From -- ./inp_files/438526.got.cif
#   From: 2010.05.17/outbox.cif.g08.bks.cpg/sg2_220_cif.got.tgz:438526.got - 2010.06.03 11:33:40.
