data_PCOD9034143
_publ_section_title
;
Structure prediction by ZEFSAII (Michael W. Deem and Ramdas Pophale) SiO2 
 PCOD9034143
Probable space group: P -1
;
_chemical_formula_sum "Si O2"
_cell_formula_units_Z 16
_cell_length_a 12.661708
_cell_length_b 9.332059
_cell_length_c 14.141299
_cell_angle_alpha 112.734185
_cell_angle_beta 76.081893
_cell_angle_gamma 151.824630
_cell_volume 708.175595
_symmetry_space_group_name_H-M "P -1"
_symmetry_group_IT_number 2
_symmetry_cell_setting 'triclinic'
loop_
_space_group_symop_operation_xyz
x,y,z
-x,-y,-z
loop_
_atom_site_type_symbol
_atom_site_label
_atom_site_fract_x
_atom_site_fract_y
_atom_site_fract_z
Si Si1 0.232208 0.219755 0.253255
Si Si2 0.406928 0.274153 0.546113
Si Si3 0.237155 0.737568 0.453607
Si Si4 0.132087 0.207906 0.620553
Si Si5 0.102838 0.702422 0.886379
Si Si6 0.826212 0.553618 0.780627
Si Si7 0.336356 0.011132 0.104551
Si Si8 0.386397 0.813789 0.764661
O O1 0.401179 0.519807 0.365675
O O2 0.188966 0.282936 0.193287
O O3 0.329007 0.176802 0.187771
O O4 0.015771 0.919970 0.291805
O O5 0.500000 0.500000 0.500000
O O6 0.238065 0.175399 0.614054
O O7 0.303406 0.986292 0.456945
O O8 0.144425 0.494412 0.338538
O O9 0.000000 0.500000 0.500000
O O10 0.500000 0.000000 0.500000
O O11 0.310734 0.571922 0.656492
O O12 0.000000 0.000000 0.500000
O O13 0.179840 0.672661 0.786169
O O14 0.025551 0.758460 0.862820
O O15 0.883643 0.355653 0.898819
O O16 0.303114 0.973758 0.989810
O O17 0.595908 0.180070 0.774257
O O18 0.545906 0.179543 0.147470
#
# Coordination Sequence:
#
# PCOD9034143 Si02
#       8
#     2   2   2   2   2   2   2   2
#     4  12  24  45  63 100 138 175 226 287 349 422
#     4  12  25  42  65  96 136 181 239 282 344 420
#     4  12  28  48  70 101 148 198 233 289 359 435
#     4  12  25  39  69  98 132 180 228 287 347 420
#     4  10  23  44  70  98 130 177 228 292 350 428
#     4  11  27  42  67 101 140 179 231 285 359 425
#     4  10  22  44  71  97 129 174 232 290 355 415
#     4  11  23  43  69 100 133 178 231 288 351 426
#
# _framework density 22.593267000000001
#
# number of rings (size 3 to 8) (size 9 to 14) (size 15 to 20)
#    0.000    0.750    5.000    1.875    5.250    1.500 
#    0.000    0.625    0.000    0.000    0.000    0.000 
#    0.000    0.000    0.000    0.000    0.000    0.000 
#
# Total GULP energy -89237.475439 kJ/mol
# GULP energy per Si atom -5577.342215 kJ/mol
# Density = 2.254184 g / cm^3
# Si number density = 22.593267 Si / 1000 Ang^3
#
#
#
# Elastic Constant Matrix: (Units=GPa)
#
#
# Indices 1 2 3 4 5 6 
#
# 1 118.5495 26.2212 9.3787 -10.0764 15.2175 -17.1682
# 2 26.2212 56.5480 5.3128 -1.8120 10.3268 -2.5730
# 3 9.3787 5.3128 55.8428 5.3917 18.2934 -5.7555
# 4 -10.0764 -1.8120 5.3917 21.0551 1.2811 -1.3819
# 5 15.2175 10.3268 18.2934 1.2811 36.0732 1.3152
# 6 -17.1682 -2.5730 -5.7555 -1.3819 1.3152 36.6763
#
#
#
# Elastic Compliance Matrix: (Units=1/GPa)
#
#
# Indices 1 2 3 4 5 6 
#
# 1 0.011051 -0.003995 -0.000238 0.005578 -0.003785 0.005201
# 2 -0.003995 0.020276 0.000065 0.000050 -0.004143 -0.000287
# 3 -0.000238 0.000065 0.022489 -0.004942 -0.011280 0.003640
# 4 0.005578 0.000050 -0.004942 0.051799 -0.001841 0.003857
# 5 -0.003785 -0.004143 -0.011280 -0.001841 0.036480 -0.005210
# 6 0.005201 -0.000287 0.003640 0.003857 -0.005210 0.030584
#
#
# Mechanical properties :
#
#
# Convention : Reuss Voigt Hill
#
# Bulk Modulus (GPa) = 21.98880 34.75174 28.37027
# Shear Modulus (GPa) = 25.48750 31.42940 28.45845
#
# Velocity S-wave (km/s) = 3.36237 3.73379 3.55293
# Velocity P-wave (km/s) = 4.98273 5.83121 5.42359
#
# Compressibility (1/GPa) = 0.04547770
#
# Stress axis : x y z
#
# Youngs Moduli (GPa) = 90.48935 49.31996 44.46667
#
# Poissons Ratio (x) = 0.19705 0.01060
# Poissons Ratio (y) = 0.36154 -0.00288
# Poissons Ratio (z) = 0.02158 -0.00320
#
# Static dielectric constant tensor:
#      x y z
#    x 1.883490 0.065000 0.059560 
#    y 0.065000 2.049130 0.044510 
#    z 0.059560 0.044510 1.867920 
# 
# From -- ./inp_files/46614.got.cif
#   From: 2010.05.17/outbox.cif.g08.bks.cpg/sg2_24_cif.got.tgz:46614.got - 2010.06.03 11:33:40.
