data_PCOD9034144
_publ_section_title
;
Structure prediction by ZEFSAII (Michael W. Deem and Ramdas Pophale) SiO2 
 PCOD9034144
Probable space group: P -1
;
_chemical_formula_sum "Si O2"
_cell_formula_units_Z 12
_cell_length_a 13.859894
_cell_length_b 10.163728
_cell_length_c 20.244306
_cell_angle_alpha 28.615168
_cell_angle_beta 23.164657
_cell_angle_gamma 29.601923
_cell_volume 506.943439
_symmetry_space_group_name_H-M "P -1"
_symmetry_group_IT_number 2
_symmetry_cell_setting 'triclinic'
loop_
_space_group_symop_operation_xyz
x,y,z
-x,-y,-z
loop_
_atom_site_type_symbol
_atom_site_label
_atom_site_fract_x
_atom_site_fract_y
_atom_site_fract_z
Si Si1 0.600960 0.118899 0.948731
Si Si2 0.174823 0.874110 0.700120
Si Si3 0.638431 0.171098 0.535824
Si Si4 0.849618 0.900454 0.195416
Si Si5 0.699138 0.671301 0.821743
Si Si6 0.530259 0.667116 0.670625
O O1 0.881470 0.917624 0.887466
O O2 0.642241 0.406998 0.765231
O O3 0.395078 0.212619 0.096634
O O4 0.500000 0.000000 0.000000
O O5 0.271164 0.150786 0.535003
O O6 0.157910 0.847889 0.642524
O O7 0.424003 0.615368 0.687989
O O8 0.500000 0.500000 0.500000
O O9 0.418504 0.090245 0.670790
O O10 0.710915 0.938841 0.651453
O O11 0.022823 0.578741 0.247593
O O12 0.753152 0.138517 0.207857
O O13 0.000000 0.000000 0.000000
O O14 0.500000 0.500000 0.000000
#
# Coordination Sequence:
#
# PCOD9034144 Si02
#       6
#     2   2   2   2   2   2
#     4  12  27  41  68 106 141 173 224 290 352 397
#     4  10  24  44  67  95 136 182 226 274 340 419
#     4  11  27  43  67 100 138 179 222 283 345 399
#     4  11  21  42  71  98 129 175 237 277 324 407
#     4  12  24  45  74 101 133 185 235 278 331 415
#     4  10  22  44  71  97 130 186 229 278 335 409
#
# _framework density 23.671281
#
# number of rings (size 3 to 8) (size 9 to 14) (size 15 to 20)
#    0.000    1.000    3.333    2.500    4.667    5.333 
#    0.000    0.000    0.000    0.000    0.000    0.000 
#    0.000    0.000    0.000    0.000    0.000    0.000 
#
# Total GULP energy -67014.131553 kJ/mol
# GULP energy per Si atom -5584.510963 kJ/mol
# Density = 2.361740 g / cm^3
# Si number density = 23.671281 Si / 1000 Ang^3
#
#
#
# Elastic Constant Matrix: (Units=GPa)
#
#
# Indices 1 2 3 4 5 6 
#
# 1 93.0599 14.1025 -4.0884 -2.8864 4.7626 -0.4057
# 2 14.1025 71.8311 1.4614 4.6888 1.2287 0.8797
# 3 -4.0884 1.4614 24.3860 3.5476 14.6807 1.5412
# 4 -2.8864 4.6888 3.5476 34.2170 -13.5155 7.1524
# 5 4.7626 1.2287 14.6807 -13.5155 43.8240 -1.1538
# 6 -0.4057 0.8797 1.5412 7.1524 -1.1538 44.6060
#
#
#
# Elastic Compliance Matrix: (Units=1/GPa)
#
#
# Indices 1 2 3 4 5 6 
#
# 1 0.011358 -0.002260 0.003441 -0.000001 -0.002325 -0.000031
# 2 -0.002260 0.014547 -0.000431 -0.002463 -0.000775 0.000082
# 3 0.003441 -0.000431 0.058858 -0.015550 -0.024878 -0.000144
# 4 -0.000001 -0.002463 -0.015550 0.039057 0.017186 -0.005232
# 5 -0.002325 -0.000775 -0.024878 0.017186 0.036702 -0.000953
# 6 -0.000031 0.000082 -0.000144 -0.005232 -0.000953 0.023236
#
#
# Mechanical properties :
#
#
# Convention : Reuss Voigt Hill
#
# Bulk Modulus (GPa) = 11.59220 23.58090 17.58655
# Shear Modulus (GPa) = 23.69544 36.38285 30.03914
#
# Velocity S-wave (km/s) = 3.16732 3.92472 3.56618
# Velocity P-wave (km/s) = 4.27595 5.52461 4.93989
#
# Compressibility (1/GPa) = 0.08626489
#
# Stress axis : x y z
#
# Youngs Moduli (GPa) = 88.04193 68.74278 16.99004
#
# Poissons Ratio (x) = 0.15534 -0.05847
# Poissons Ratio (y) = 0.19895 0.00732
# Poissons Ratio (z) = -0.30298 0.02961
#
# Static dielectric constant tensor:
#      x y z
#    x 2.368960 0.270980 0.273330 
#    y 0.270980 2.276970 0.210780 
#    z 0.273330 0.210780 2.051950 
# 
# From -- ./inp_files/596753.got.cif
#   From: 2010.05.17/outbox.cif.g08.bks.cpg/sg2_299_cif.got.tgz:596753.got - 2010.06.03 11:33:40.
