data_PCOD9034957
_publ_section_title
;
Structure prediction by ZEFSAII (Michael W. Deem and Ramdas Pophale) SiO2 
 PCOD9034957
Probable space group: P -1
;
_chemical_formula_sum "Si O2"
_cell_formula_units_Z 14
_cell_length_a 6.453216
_cell_length_b 8.252703
_cell_length_c 13.164353
_cell_angle_alpha 66.236108
_cell_angle_beta 99.926106
_cell_angle_gamma 76.236700
_cell_volume 594.167980
_symmetry_space_group_name_H-M "P -1"
_symmetry_group_IT_number 2
_symmetry_cell_setting 'triclinic'
loop_
_space_group_symop_operation_xyz
x,y,z
-x,-y,-z
loop_
_atom_site_type_symbol
_atom_site_label
_atom_site_fract_x
_atom_site_fract_y
_atom_site_fract_z
Si Si1 0.737338 0.509908 0.199462
Si Si2 0.219442 0.826814 0.586042
Si Si3 0.944126 0.324899 0.909177
Si Si4 0.396257 0.004361 0.711201
Si Si5 0.665819 0.661254 0.938839
Si Si6 0.341387 0.746483 0.248597
Si Si7 0.084436 0.666276 0.425371
O O1 0.826481 0.295422 0.294470
O O2 0.165838 0.808374 0.123608
O O3 0.558162 0.615071 0.241101
O O4 0.640416 0.553530 0.066306
O O5 0.406847 0.903581 0.627966
O O6 0.238755 0.707536 0.516352
O O7 0.000000 0.000000 0.500000
O O8 0.762461 0.511529 0.895149
O O9 0.071131 0.399364 0.814018
O O10 0.132542 0.261036 0.029114
O O11 0.457661 0.838076 0.842214
O O12 0.578102 0.104648 0.721027
O O13 0.145278 0.155385 0.658487
O O14 0.238456 0.638238 0.346763
O O15 0.000000 0.500000 0.500000
#
# Coordination Sequence:
#
# PCOD9034957 Si02
#       7
#     2   2   2   2   2   2   2
#     4  10  22  45  69  96 136 180 226 270 333 404
#     4  10  23  43  68  93 133 177 222 283 330 385
#     4   9  21  44  67 100 132 181 217 274 339 400
#     4  11  25  43  65 106 133 170 230 275 336 403
#     4   9  22  45  69 100 136 177 221 277 334 400
#     4  12  24  41  70  99 134 181 219 278 337 399
#     4  11  26  49  69  95 135 179 226 283 334 393
#
# _framework density 23.562363000000001
#
# number of rings (size 3 to 8) (size 9 to 14) (size 15 to 20)
#    0.857    0.857    0.000    3.429    0.000    8.571 
#    2.571    4.286    0.000    0.000    0.000    0.000 
#    0.000    0.000    0.000    0.000    0.000    0.000 
#
# Total GULP energy -78073.499464 kJ/mol
# GULP energy per Si atom -5576.678533 kJ/mol
# Density = 2.350873 g / cm^3
# Si number density = 23.562363 Si / 1000 Ang^3
#
#
#
# Elastic Constant Matrix: (Units=GPa)
#
#
# Indices 1 2 3 4 5 6 
#
# 1 110.7626 58.8843 50.8616 20.4958 9.2052 13.3379
# 2 58.8843 89.0361 62.0239 24.9227 10.7643 22.6056
# 3 50.8616 62.0239 150.2990 -7.6632 15.2721 -4.3634
# 4 20.4958 24.9227 -7.6632 51.4134 0.9514 20.0892
# 5 9.2052 10.7643 15.2721 0.9514 43.7982 26.5264
# 6 13.3379 22.6056 -4.3634 20.0892 26.5264 50.8204
#
#
#
# Elastic Compliance Matrix: (Units=1/GPa)
#
#
# Indices 1 2 3 4 5 6 
#
# 1 0.014357 -0.007799 -0.001612 -0.002653 -0.001245 0.001261
# 2 -0.007799 0.027548 -0.009926 -0.007679 0.004908 -0.010585
# 3 -0.001612 -0.009926 0.012348 0.004586 -0.005997 0.007216
# 4 -0.002653 -0.007679 0.004586 0.028789 0.006410 -0.010220
# 5 -0.001245 0.004908 -0.005997 0.006410 0.039203 -0.025368
# 6 0.001261 -0.010585 0.007216 -0.010220 -0.025368 0.041955
#
#
# Mechanical properties :
#
#
# Convention : Reuss Voigt Hill
#
# Bulk Modulus (GPa) = 64.19498 77.07080 70.63289
# Shear Modulus (GPa) = 24.03039 41.09493 32.56266
#
# Velocity S-wave (km/s) = 3.19699 4.18076 3.72153
# Velocity P-wave (km/s) = 6.39778 7.48901 6.96480
#
# Compressibility (1/GPa) = 0.01557754
#
# Stress axis : x y z
#
# Youngs Moduli (GPa) = 69.65009 36.30002 80.98434
#
# Poissons Ratio (x) = 0.28312 0.13056
# Poissons Ratio (y) = 0.54323 0.80389
# Poissons Ratio (z) = 0.11229 0.36033
#
# Static dielectric constant tensor:
#      x y z
#    x 1.941030 0.072910 0.042040 
#    y 0.072910 1.954270 0.018890 
#    z 0.042040 0.018890 1.902710 
# 
# From -- ./inp_files/480217.got.cif
#   From: 2010.05.17/outbox.cif.g08.bks.cpg/sg2_241_cif.got.tgz:480217.got - 2010.06.03 11:33:40.
