data_PCOD9034734
_publ_section_title
;
Structure prediction by ZEFSAII (Michael W. Deem and Ramdas Pophale) SiO2 
 PCOD9034734
Probable space group: P -1
;
_chemical_formula_sum "Si O2"
_cell_formula_units_Z 14
_cell_length_a 9.206599
_cell_length_b 12.294025
_cell_length_c 9.194869
_cell_angle_alpha 52.766724
_cell_angle_beta 53.385846
_cell_angle_gamma 73.611338
_cell_volume 660.034079
_symmetry_space_group_name_H-M "P -1"
_symmetry_group_IT_number 2
_symmetry_cell_setting 'triclinic'
loop_
_space_group_symop_operation_xyz
x,y,z
-x,-y,-z
loop_
_atom_site_type_symbol
_atom_site_label
_atom_site_fract_x
_atom_site_fract_y
_atom_site_fract_z
Si Si1 0.815597 0.653255 0.353672
Si Si2 0.871855 0.074080 0.406823
Si Si3 0.552793 0.649511 0.273716
Si Si4 0.922819 0.383090 0.025051
Si Si5 0.540396 0.484108 0.156260
Si Si6 0.977574 0.907239 0.231086
Si Si7 0.333289 0.888397 0.228249
O O1 0.704009 0.721245 0.236055
O O2 0.654478 0.565027 0.611664
O O3 0.910504 0.757797 0.329826
O O4 0.968061 0.589410 0.216125
O O5 0.948371 0.228373 0.185897
O O6 0.703831 0.092419 0.595178
O O7 0.000000 0.000000 0.500000
O O8 0.842710 0.975218 0.365425
O O9 0.500000 0.500000 0.500000
O O10 0.613784 0.619470 0.098371
O O11 0.386532 0.736453 0.297480
O O12 0.705265 0.390421 0.141963
O O13 0.000000 0.500000 0.000000
O O14 0.500000 0.500000 0.000000
O O15 0.162258 0.907116 0.213079
O O16 0.000000 0.000000 0.000000
O O17 0.500000 0.000000 0.000000
#
# Coordination Sequence:
#
# PCOD9034734 Si02
#       7
#     2   2   2   2   2   2   2
#     4  11  24  46  71  98 146 188 231 290 357 413
#     4  10  24  44  68 102 137 178 237 285 347 422
#     4  10  22  45  67  96 141 180 231 287 345 417
#     4  12  25  45  78 104 138 192 237 289 361 421
#     4  11  27  44  67 109 145 180 239 293 352 421
#     4  11  23  44  68 100 142 181 234 289 351 422
#     4  11  25  42  71 102 135 184 233 287 358 414
#
# _framework density 21.211024999999999
#
# number of rings (size 3 to 8) (size 9 to 14) (size 15 to 20)
#    0.000    1.143    2.857    2.571    6.000    4.000 
#    0.000    2.143    0.000    0.000    0.000    0.000 
#    0.000    0.000    0.000    0.000    0.000    0.000 
#
# Total GULP energy -78071.871883 kJ/mol
# GULP energy per Si atom -5576.562277 kJ/mol
# Density = 2.116275 g / cm^3
# Si number density = 21.211025 Si / 1000 Ang^3
#
#
#
# Elastic Constant Matrix: (Units=GPa)
#
#
# Indices 1 2 3 4 5 6 
#
# 1 86.1339 51.4800 34.2228 7.8315 5.4429 15.7389
# 2 51.4800 150.8630 63.1032 31.7896 7.4204 9.8091
# 3 34.2228 63.1032 130.0616 33.7354 -4.5567 5.7382
# 4 7.8315 31.7896 33.7354 44.0280 5.7979 8.0972
# 5 5.4429 7.4204 -4.5567 5.7979 36.3384 4.4981
# 6 15.7389 9.8091 5.7382 8.0972 4.4981 52.4891
#
#
#
# Elastic Compliance Matrix: (Units=1/GPa)
#
#
# Indices 1 2 3 4 5 6 
#
# 1 0.016067 -0.004746 -0.002766 0.003677 -0.001871 -0.004035
# 2 -0.004746 0.010329 -0.002645 -0.004551 -0.001075 0.000576
# 3 -0.002766 -0.002645 0.011629 -0.007120 0.003443 0.000856
# 4 0.003677 -0.004551 -0.007120 0.032215 -0.005159 -0.004001
# 5 -0.001871 -0.001075 0.003443 -0.005159 0.029440 -0.001341
# 6 -0.004035 0.000576 0.000856 -0.004001 -0.001341 0.020792
#
#
# Mechanical properties :
#
#
# Convention : Reuss Voigt Hill
#
# Bulk Modulus (GPa) = 56.46396 73.85229 65.15812
# Shear Modulus (GPa) = 34.08535 41.12126 37.60330
#
# Velocity S-wave (km/s) = 4.01304 4.40781 4.21505
# Velocity P-wave (km/s) = 6.93906 7.79734 7.38069
#
# Compressibility (1/GPa) = 0.01771041
#
# Stress axis : x y z
#
# Youngs Moduli (GPa) = 62.24078 96.81627 85.98832
#
# Poissons Ratio (x) = 0.45947 0.23786
# Poissons Ratio (y) = 0.29538 0.22746
# Poissons Ratio (z) = 0.17217 0.25610
#
# Static dielectric constant tensor:
#      x y z
#    x 1.807410 0.028250 -0.046180 
#    y 0.028250 1.879100 -0.026400 
#    z -0.046180 -0.026400 1.820700 
# 
# From -- ./inp_files/174765.got.cif
#   From: 2010.05.17/outbox.cif.g08.bks.cpg/sg2_88_cif.got.tgz:174765.got - 2010.06.03 11:33:40.
