data_PCOD9034112
_publ_section_title
;
Structure prediction by ZEFSAII (Michael W. Deem and Ramdas Pophale) SiO2 
 PCOD9034112
Probable space group: P -1
;
_chemical_formula_sum "Si O2"
_cell_formula_units_Z 16
_cell_length_a 18.350994
_cell_length_b 5.450863
_cell_length_c 8.562688
_cell_angle_alpha 110.614802
_cell_angle_beta 119.564078
_cell_angle_gamma 59.688609
_cell_volume 637.068201
_symmetry_space_group_name_H-M "P -1"
_symmetry_group_IT_number 2
_symmetry_cell_setting 'triclinic'
loop_
_space_group_symop_operation_xyz
x,y,z
-x,-y,-z
loop_
_atom_site_type_symbol
_atom_site_label
_atom_site_fract_x
_atom_site_fract_y
_atom_site_fract_z
Si Si1 0.642774 0.047123 0.859281
Si Si2 0.999992 0.593067 0.788168
Si Si3 0.541277 0.814991 0.156276
Si Si4 0.924212 0.217835 0.785290
Si Si5 0.253747 0.463490 0.659431
Si Si6 0.405537 0.765841 0.485621
Si Si7 0.282406 0.505251 0.362493
Si Si8 0.190227 0.114593 0.761596
O O1 0.655048 0.728147 0.746250
O O2 0.544512 0.235091 0.874987
O O3 0.644572 0.179320 0.722423
O O4 0.730514 0.971282 0.042648
O O5 0.094629 0.346843 0.776042
O O6 0.933462 0.431078 0.711141
O O7 0.018134 0.721816 0.999726
O O8 0.962408 0.880805 0.707819
O O9 0.644195 0.582369 0.181290
O O10 0.562629 0.004661 0.353396
O O11 0.500000 0.000000 0.000000
O O12 0.820761 0.311403 0.759520
O O13 0.267325 0.359550 0.471660
O O14 0.218464 0.275470 0.688457
O O15 0.190638 0.803285 0.657763
O O16 0.500000 0.500000 0.500000
O O17 0.338891 0.690034 0.512371
#
# Coordination Sequence:
#
# PCOD9034112 Si02
#       8
#     2   2   2   2   2   2   2   2
#     4  12  26  43  73 102 144 194 247 298 357 429
#     4  10  22  44  71 109 145 175 243 302 360 427
#     4  12  25  47  67 107 149 192 243 294 367 427
#     4  10  23  41  75 108 139 187 234 303 358 428
#     4  12  28  47  70 104 153 193 241 297 362 438
#     4  12  26  44  71 104 144 193 245 304 351 427
#     4  12  26  47  71 104 144 193 244 296 364 433
#     4  12  27  48  73 108 145 196 238 301 369 430
#
# _framework density 25.11505
#
# number of rings (size 3 to 8) (size 9 to 14) (size 15 to 20)
#    0.000    0.500    5.000    2.625    5.250    1.500 
#    0.000    3.750    0.000    0.000    0.000    0.000 
#    0.000    0.000    0.000    0.000    0.000    0.000 
#
# Total GULP energy -89479.619595 kJ/mol
# GULP energy per Si atom -5592.476225 kJ/mol
# Density = 2.505789 g / cm^3
# Si number density = 25.115050 Si / 1000 Ang^3
#
#
#
# Elastic Constant Matrix: (Units=GPa)
#
#
# Indices 1 2 3 4 5 6 
#
# 1 133.2670 55.1604 13.0141 0.0109 15.6740 2.2889
# 2 55.1604 176.3880 9.7368 3.0772 3.1405 -10.1060
# 3 13.0141 9.7368 61.0795 -12.2467 -2.2404 14.9781
# 4 0.0109 3.0772 -12.2467 37.7960 1.5550 -3.0396
# 5 15.6740 3.1405 -2.2404 1.5550 42.8173 -4.6059
# 6 2.2889 -10.1060 14.9781 -3.0396 -4.6059 34.0275
#
#
#
# Elastic Compliance Matrix: (Units=1/GPa)
#
#
# Indices 1 2 3 4 5 6 
#
# 1 0.009224 -0.002824 -0.001346 -0.000178 -0.003378 -0.001340
# 2 -0.002824 0.006785 -0.001297 -0.000778 0.000799 0.002814
# 3 -0.001346 -0.001297 0.020177 0.005933 0.000506 -0.008578
# 4 -0.000178 -0.000778 0.005933 0.028440 -0.000641 -0.000377
# 5 -0.003378 0.000799 0.000506 -0.000641 0.024966 0.003564
# 6 -0.001340 0.002814 -0.008578 -0.000377 0.003564 0.034538
#
#
# Mechanical properties :
#
#
# Convention : Reuss Voigt Hill
#
# Bulk Modulus (GPa) = 39.60015 58.50635 49.05325
# Shear Modulus (GPa) = 34.84767 42.44971 38.64869
#
# Velocity S-wave (km/s) = 3.72899 4.11568 3.92709
# Velocity P-wave (km/s) = 5.86022 6.77724 6.33534
#
# Compressibility (1/GPa) = 0.02525243
#
# Stress axis : x y z
#
# Youngs Moduli (GPa) = 108.40930 147.39315 49.56065
#
# Poissons Ratio (x) = 0.41621 0.06672
# Poissons Ratio (y) = 0.30613 0.06427
# Poissons Ratio (z) = 0.14595 0.19113
#
# Static dielectric constant tensor:
#      x y z
#    x 1.977990 0.022740 -0.017370 
#    y 0.022740 2.075780 -0.015970 
#    z -0.017370 -0.015970 1.995610 
# 
# From -- ./inp_files/112976.got.cif
#   From: 2010.05.17/outbox.cif.g08.bks.cpg/sg2_57_cif.got.tgz:112976.got - 2010.06.03 11:33:40.
