data_PCOD9034601
_publ_section_title
;
Structure prediction by ZEFSAII (Michael W. Deem and Ramdas Pophale) SiO2 
 PCOD9034601
Probable space group: P -1
;
_chemical_formula_sum "Si O2"
_cell_formula_units_Z 14
_cell_length_a 12.034236
_cell_length_b 10.563118
_cell_length_c 6.308354
_cell_angle_alpha 107.519131
_cell_angle_beta 86.961882
_cell_angle_gamma 124.063656
_cell_volume 626.683139
_symmetry_space_group_name_H-M "P -1"
_symmetry_group_IT_number 2
_symmetry_cell_setting 'triclinic'
loop_
_space_group_symop_operation_xyz
x,y,z
-x,-y,-z
loop_
_atom_site_type_symbol
_atom_site_label
_atom_site_fract_x
_atom_site_fract_y
_atom_site_fract_z
Si Si1 0.287700 0.272471 0.959955
Si Si2 0.089763 0.318520 0.250636
Si Si3 0.897137 0.041076 0.449234
Si Si4 0.371034 0.847675 0.822570
Si Si5 0.410734 0.610091 0.938087
Si Si6 0.860188 0.211309 0.895464
Si Si7 0.270674 0.675514 0.343476
O O1 0.321467 0.415736 0.864007
O O2 0.211517 0.102830 0.763028
O O3 0.191298 0.269102 0.148589
O O4 0.432738 0.324243 0.057868
O O5 0.176524 0.507193 0.392460
O O6 0.987140 0.205303 0.386645
O O7 0.005003 0.293637 0.032823
O O8 0.834873 0.069131 0.674852
O O9 0.000000 0.000000 0.500000
O O10 0.374243 0.694734 0.811400
O O11 0.350386 0.830500 0.565008
O O12 0.245295 0.839585 0.930937
O O13 0.500000 0.000000 0.000000
O O14 0.376563 0.662769 0.188187
O O15 0.829345 0.314980 0.799784
#
# Coordination Sequence:
#
# PCOD9034601 Si02
#       7
#     2   2   2   2   2   2   2
#     4  10  22  45  65  95 134 171 217 265 319 389
#     4  11  24  44  68  98 134 171 220 267 328 387
#     4  12  26  39  67  98 137 174 211 266 329 390
#     4  11  26  42  68  97 131 171 220 271 326 387
#     4   9  23  44  68  93 131 172 218 271 317 384
#     4  11  25  43  67  99 129 174 216 275 322 388
#     4  10  24  45  69  97 129 173 220 271 329 382
#
# _framework density 22.339839999999999
#
# number of rings (size 3 to 8) (size 9 to 14) (size 15 to 20)
#    0.000    1.429    1.429    1.714    8.000    4.571 
#    0.000    2.143    0.000    0.000    0.000    0.000 
#    0.000    0.000    0.000    0.000    0.000    0.000 
#
# Total GULP energy -78293.101234 kJ/mol
# GULP energy per Si atom -5592.364374 kJ/mol
# Density = 2.228899 g / cm^3
# Si number density = 22.339840 Si / 1000 Ang^3
#
#
#
# Elastic Constant Matrix: (Units=GPa)
#
#
# Indices 1 2 3 4 5 6 
#
# 1 117.6075 19.3316 24.8622 -4.1363 -15.7360 6.6724
# 2 19.3316 47.4729 26.3188 9.5764 5.9401 9.2702
# 3 24.8622 26.3188 69.3168 12.7010 9.0863 0.9854
# 4 -4.1363 9.5764 12.7010 24.5458 -3.4565 1.8666
# 5 -15.7360 5.9401 9.0863 -3.4565 28.7915 1.7883
# 6 6.6724 9.2702 0.9854 1.8666 1.7883 26.5480
#
#
#
# Elastic Compliance Matrix: (Units=1/GPa)
#
#
# Indices 1 2 3 4 5 6 
#
# 1 0.012264 -0.004370 -0.005617 0.008364 0.010546 -0.002646
# 2 -0.004370 0.031517 -0.007618 -0.009444 -0.007094 -0.008482
# 3 -0.005617 -0.007618 0.022742 -0.011561 -0.010358 0.004738
# 4 0.008364 -0.009444 -0.011561 0.054452 0.016913 -0.003343
# 5 0.010546 -0.007094 -0.010358 0.016913 0.047518 -0.004179
# 6 -0.002646 -0.008482 0.004738 -0.003343 -0.004179 0.041635
#
#
# Mechanical properties :
#
#
# Convention : Reuss Voigt Hill
#
# Bulk Modulus (GPa) = 31.93569 41.71359 36.82464
# Shear Modulus (GPa) = 19.54828 26.90269 23.22549
#
# Velocity S-wave (km/s) = 2.96132 3.47399 3.22785
# Velocity P-wave (km/s) = 5.10088 5.89952 5.51468
#
# Compressibility (1/GPa) = 0.03131292
#
# Stress axis : x y z
#
# Youngs Moduli (GPa) = 81.54028 31.72912 43.97084
#
# Poissons Ratio (x) = 0.13866 0.24697
# Poissons Ratio (y) = 0.35634 0.33498
# Poissons Ratio (z) = 0.45799 0.24172
#
# Static dielectric constant tensor:
#      x y z
#    x 1.814430 -0.026830 0.010540 
#    y -0.026830 1.843140 -0.014940 
#    z 0.010540 -0.014940 1.812480 
# 
# From -- ./inp_files/68710.got.cif
#   From: 2010.05.17/outbox.cif.g08.bks.cpg/sg2_35_cif.got.tgz:68710.got - 2010.06.03 11:33:40.
