data_PCOD9034975
_publ_section_title
;
Structure prediction by ZEFSAII (Michael W. Deem and Ramdas Pophale) SiO2 
 PCOD9034975
Probable space group: P -1
;
_chemical_formula_sum "Si O2"
_cell_formula_units_Z 10
_cell_length_a 5.791591
_cell_length_b 9.023280
_cell_length_c 14.671491
_cell_angle_alpha 41.275505
_cell_angle_beta 52.482132
_cell_angle_gamma 72.066045
_cell_volume 384.386497
_symmetry_space_group_name_H-M "P -1"
_symmetry_group_IT_number 2
_symmetry_cell_setting 'triclinic'
loop_
_space_group_symop_operation_xyz
x,y,z
-x,-y,-z
loop_
_atom_site_type_symbol
_atom_site_label
_atom_site_fract_x
_atom_site_fract_y
_atom_site_fract_z
Si Si1 0.361987 0.851820 0.874548
Si Si2 0.918089 0.959756 0.404182
Si Si3 0.213779 0.288489 0.641183
Si Si4 0.364560 0.662741 0.769150
Si Si5 0.384429 0.728978 0.128336
O O1 0.281234 0.681524 0.885735
O O2 0.205762 0.060939 0.809767
O O3 0.312587 0.717928 0.043394
O O4 0.722499 0.984867 0.715141
O O5 0.782017 0.808468 0.416646
O O6 0.721186 0.814876 0.600651
O O7 0.826361 0.200986 0.305426
O O8 0.500000 0.500000 0.500000
O O9 0.915049 0.368237 0.694967
O O10 0.367260 0.408431 0.853289
O O11 0.500000 0.000000 0.000000
#
# Coordination Sequence:
#
# PCOD9034975 Si02
#       5
#     2   2   2   2   2
#     4  11  23  45  66  98 136 173 223 270 335 391
#     4  10  22  45  69  98 131 177 228 270 322 398
#     4  11  25  43  70  99 133 177 223 274 328 393
#     4  10  24  42  68  98 132 180 220 270 327 399
#     4  12  25  44  67 101 138 174 214 279 337 387
#
# _framework density 26.015485000000002
#
# number of rings (size 3 to 8) (size 9 to 14) (size 15 to 20)
#    0.000    1.200    2.000    3.000    2.800    5.600 
#    3.600    0.000    0.000    0.000    0.000    0.000 
#    0.000    0.000    0.000    0.000    0.000    0.000 
#
# Total GULP energy -56129.323418 kJ/mol
# GULP energy per Si atom -5612.932342 kJ/mol
# Density = 2.595627 g / cm^3
# Si number density = 26.015485 Si / 1000 Ang^3
#
#
#
# Elastic Constant Matrix: (Units=GPa)
#
#
# Indices 1 2 3 4 5 6 
#
# 1 63.4094 42.8420 11.9936 -13.5054 -7.9645 -18.9383
# 2 42.8420 150.3307 50.0265 -14.1068 6.6944 -24.9417
# 3 11.9936 50.0265 80.8825 -5.7159 -1.7984 -0.1994
# 4 -13.5054 -14.1068 -5.7159 56.7656 -0.0200 4.4067
# 5 -7.9645 6.6944 -1.7984 -0.0200 54.1390 -5.0319
# 6 -18.9383 -24.9417 -0.1994 4.4067 -5.0319 51.9529
#
#
#
# Elastic Compliance Matrix: (Units=1/GPa)
#
#
# Indices 1 2 3 4 5 6 
#
# 1 0.022396 -0.005441 0.000412 0.003578 0.004511 0.005687
# 2 -0.005441 0.010783 -0.005861 0.000567 -0.002057 0.002923
# 3 0.000412 -0.005861 0.015977 0.000447 0.001080 -0.002536
# 4 0.003578 0.000567 0.000447 0.018650 0.000482 0.000043
# 5 0.004511 -0.002057 0.001080 0.000482 0.019660 0.002524
# 6 0.005687 0.002923 -0.002536 0.000043 0.002524 0.022956
#
#
# Mechanical properties :
#
#
# Convention : Reuss Voigt Hill
#
# Bulk Modulus (GPa) = 36.52969 56.03851 46.28410
# Shear Modulus (GPa) = 35.37882 45.22221 40.30052
#
# Velocity S-wave (km/s) = 3.69170 4.17379 3.94013
# Velocity P-wave (km/s) = 5.67834 6.69437 6.20718
#
# Compressibility (1/GPa) = 0.02737499
#
# Stress axis : x y z
#
# Youngs Moduli (GPa) = 44.65080 92.73987 62.59004
#
# Poissons Ratio (x) = 0.50461 -0.02576
# Poissons Ratio (y) = 0.24295 0.36683
# Poissons Ratio (z) = -0.01838 0.54354
#
# Static dielectric constant tensor:
#      x y z
#    x 2.034160 0.020260 -0.042510 
#    y 0.020260 1.965830 -0.020620 
#    z -0.042510 -0.020620 2.045950 
# 
# From -- ./inp_files/15118.got.cif
#   From: 2010.05.17/outbox.cif.g08.bks.cpg/sg2_8_cif.got.tgz:15118.got - 2010.06.03 11:33:40.
