data_PCOD9034448
_publ_section_title
;
Structure prediction by ZEFSAII (Michael W. Deem and Ramdas Pophale) SiO2 
 PCOD9034448
Probable space group: P -1
;
_chemical_formula_sum "Si O2"
_cell_formula_units_Z 14
_cell_length_a 27.277362
_cell_length_b 11.923249
_cell_length_c 12.192452
_cell_angle_alpha 145.273627
_cell_angle_beta 160.515324
_cell_angle_gamma 25.426990
_cell_volume 555.704051
_symmetry_space_group_name_H-M "P -1"
_symmetry_group_IT_number 2
_symmetry_cell_setting 'triclinic'
loop_
_space_group_symop_operation_xyz
x,y,z
-x,-y,-z
loop_
_atom_site_type_symbol
_atom_site_label
_atom_site_fract_x
_atom_site_fract_y
_atom_site_fract_z
Si Si1 0.713003 0.355411 0.391284
Si Si2 0.324926 0.017283 0.420776
Si Si3 0.299681 0.753388 0.343645
Si Si4 0.991064 0.782205 0.265412
Si Si5 0.586682 0.741540 0.046845
Si Si6 0.236624 0.490538 0.140484
Si Si7 0.970080 0.722645 0.416273
O O1 0.725264 0.455466 0.614480
O O2 0.824390 0.394725 0.569956
O O3 0.839260 0.036135 0.413260
O O4 0.500000 0.500000 0.000000
O O5 0.225572 0.985664 0.288326
O O6 0.545822 0.749267 0.642579
O O7 0.355998 0.211941 0.681289
O O8 0.194708 0.094904 0.103767
O O9 0.500000 0.500000 0.500000
O O10 0.156594 0.720183 0.066354
O O11 0.404731 0.757438 0.674955
O O12 0.963482 0.690527 0.245435
O O13 0.000000 0.000000 0.500000
O O14 0.792658 0.466030 0.212539
O O15 0.500000 0.000000 0.000000
O O16 0.112282 0.402053 0.805179
#
# Coordination Sequence:
#
# PCOD9034448 Si02
#       7
#     2   2   2   2   2   2   2
#     4  11  26  43  70 109 149 190 243 305 368 433
#     4  10  22  44  75 101 147 194 250 298 368 433
#     4   9  22  42  73  99 142 195 240 299 359 433
#     4  10  23  43  72 103 141 193 241 296 368 432
#     4  10  23  46  74 104 141 199 247 295 364 436
#     4  11  24  43  70 113 146 189 243 305 368 434
#     4  11  26  45  75 109 148 189 245 303 367 441
#
# _framework density 25.193266000000001
#
# number of rings (size 3 to 8) (size 9 to 14) (size 15 to 20)
#    0.000    1.714    0.000    2.571   12.000    4.571 
#    0.000   12.857    0.000    0.000    0.000    0.000 
#    0.000    0.000    0.000    0.000    0.000    0.000 
#
# Total GULP energy -78261.515242 kJ/mol
# GULP energy per Si atom -5590.108232 kJ/mol
# Density = 2.513592 g / cm^3
# Si number density = 25.193266 Si / 1000 Ang^3
#
#
#
# Elastic Constant Matrix: (Units=GPa)
#
#
# Indices 1 2 3 4 5 6 
#
# 1 120.1427 21.9203 17.2719 19.2560 10.1487 17.1066
# 2 21.9203 106.0276 20.1480 -4.9763 1.9052 -6.3087
# 3 17.2719 20.1480 90.0950 -1.8661 -5.3412 11.2843
# 4 19.2560 -4.9763 -1.8661 46.9957 -2.9788 1.6366
# 5 10.1487 1.9052 -5.3412 -2.9788 48.3810 13.4482
# 6 17.1066 -6.3087 11.2843 1.6366 13.4482 44.6853
#
#
#
# Elastic Compliance Matrix: (Units=1/GPa)
#
#
# Indices 1 2 3 4 5 6 
#
# 1 0.010227 -0.002259 -0.001227 -0.004462 -0.001551 -0.003294
# 2 -0.002259 0.010640 -0.002368 0.001784 -0.000985 0.003196
# 3 -0.001227 -0.002368 0.012553 0.001072 0.002899 -0.003946
# 4 -0.004462 0.001784 0.001072 0.023487 0.002400 0.000107
# 5 -0.001551 -0.000985 0.002899 0.002400 0.023575 -0.007460
# 6 -0.003294 0.003196 -0.003946 0.000107 -0.007460 0.027329
#
#
# Mechanical properties :
#
#
# Convention : Reuss Voigt Hill
#
# Bulk Modulus (GPa) = 46.05858 48.32732 47.19295
# Shear Modulus (GPa) = 39.44587 45.14074 42.29330
#
# Velocity S-wave (km/s) = 3.96122 4.23753 4.10171
# Velocity P-wave (km/s) = 6.26446 6.57012 6.41911
#
# Compressibility (1/GPa) = 0.02171148
#
# Stress axis : x y z
#
# Youngs Moduli (GPa) = 97.77889 93.98409 79.66455
#
# Poissons Ratio (x) = 0.21228 0.09777
# Poissons Ratio (y) = 0.22085 0.18866
# Poissons Ratio (z) = 0.12001 0.22257
#
# Static dielectric constant tensor:
#      x y z
#    x 2.036290 -0.066970 -0.066620 
#    y -0.066970 2.264950 0.052160 
#    z -0.066620 0.052160 2.011110 
# 
# From -- ./inp_files/476658.got.cif
#   From: 2010.05.17/outbox.cif.g08.bks.cpg/sg2_239_cif.got.tgz:476658.got - 2010.06.03 11:33:40.
