data_PCOD9034402
_publ_section_title
;
Structure prediction by ZEFSAII (Michael W. Deem and Ramdas Pophale) SiO2 
 PCOD9034402
Probable space group: P -1
;
_chemical_formula_sum "Si O2"
_cell_formula_units_Z 16
_cell_length_a 14.254441
_cell_length_b 13.224021
_cell_length_c 12.001788
_cell_angle_alpha 70.733268
_cell_angle_beta 45.588259
_cell_angle_gamma 33.653374
_cell_volume 689.617325
_symmetry_space_group_name_H-M "P -1"
_symmetry_group_IT_number 2
_symmetry_cell_setting 'triclinic'
loop_
_space_group_symop_operation_xyz
x,y,z
-x,-y,-z
loop_
_atom_site_type_symbol
_atom_site_label
_atom_site_fract_x
_atom_site_fract_y
_atom_site_fract_z
Si Si1 0.834076 0.294055 0.819415
Si Si2 0.172380 0.188971 0.407979
Si Si3 0.907878 0.407153 0.177300
Si Si4 0.786254 0.364554 0.480135
Si Si5 0.728481 0.664925 0.046723
Si Si6 0.483408 0.164115 0.091934
Si Si7 0.827356 0.235932 0.083156
Si Si8 0.052228 0.024365 0.206304
O O1 0.993901 0.067769 0.730121
O O2 0.980060 0.284676 0.634005
O O3 0.500000 0.500000 0.000000
O O4 0.893091 0.263776 0.913707
O O5 0.258707 0.251591 0.311678
O O6 0.996332 0.284586 0.408478
O O7 0.471668 0.904887 0.246928
O O8 0.686415 0.509505 0.405721
O O9 0.803505 0.498938 0.104716
O O10 0.985173 0.469827 0.133542
O O11 0.215452 0.123385 0.045805
O O12 0.517329 0.528030 0.718354
O O13 0.942202 0.149996 0.370376
O O14 0.624215 0.743395 0.978250
O O15 0.608005 0.188832 0.014918
O O16 0.900418 0.197276 0.166670
O O17 0.000000 0.000000 0.000000
#
# Coordination Sequence:
#
# PCOD9034402 Si02
#       8
#     2   2   2   2   2   2   2   2
#     4  11  24  44  61  89 128 176 220 252 325 400
#     4  11  20  37  67  91 129 173 207 267 324 391
#     4   9  18  29  56  92 129 163 203 255 326 379
#     4  11  19  39  65  96 128 164 220 270 327 373
#     4  10  17  32  56  92 133 162 201 259 331 380
#     4  10  19  41  60  96 135 161 208 275 332 375
#     4  10  23  42  61  83 132 180 211 255 322 396
#     4  10  23  41  65  95 125 168 212 281 322 371
#
# _framework density 23.201270999999998
#
# number of rings (size 3 to 8) (size 9 to 14) (size 15 to 20)
#    0.000    1.750    5.000    1.125    3.500    0.500 
#    4.500    1.250    0.000    0.000    0.000    0.000 
#    0.000    0.000    0.000    0.000    0.000    0.000 
#
# Total GULP energy -89243.579448 kJ/mol
# GULP energy per Si atom -5577.723715 kJ/mol
# Density = 2.314846 g / cm^3
# Si number density = 23.201271 Si / 1000 Ang^3
#
#
#
# Elastic Constant Matrix: (Units=GPa)
#
#
# Indices 1 2 3 4 5 6 
#
# 1 45.1746 5.1954 21.7036 -0.7669 -11.6249 -7.4463
# 2 5.1954 99.4907 37.9146 -20.9345 5.0789 -15.6207
# 3 21.7036 37.9146 135.6939 -25.2055 -5.4584 2.5096
# 4 -0.7669 -20.9345 -25.2055 41.5191 -1.8109 0.8148
# 5 -11.6249 5.0789 -5.4584 -1.8109 22.7541 -0.5872
# 6 -7.4463 -15.6207 2.5096 0.8148 -0.5872 32.7759
#
#
#
# Elastic Compliance Matrix: (Units=1/GPa)
#
#
# Indices 1 2 3 4 5 6 
#
# 1 0.029044 0.000371 -0.004640 -0.001641 0.013703 0.007417
# 2 0.000371 0.013392 -0.003198 0.004557 -0.003035 0.006544
# 3 -0.004640 -0.003198 0.009934 0.004443 0.000991 -0.003431
# 4 -0.001641 0.004557 0.004443 0.029102 0.001546 0.000763
# 5 0.013703 -0.003035 0.000991 0.001546 0.052051 0.002485
# 6 0.007417 0.006544 -0.003431 0.000763 0.002485 0.035602
#
#
# Mechanical properties :
#
#
# Convention : Reuss Voigt Hill
#
# Bulk Modulus (GPa) = 26.71207 45.55405 36.13306
# Shear Modulus (GPa) = 25.44047 33.77953 29.61000
#
# Velocity S-wave (km/s) = 3.31495 3.81981 3.57630
# Velocity P-wave (km/s) = 5.11762 6.25552 5.71496
#
# Compressibility (1/GPa) = 0.03743626
#
# Stress axis : x y z
#
# Youngs Moduli (GPa) = 34.43081 74.67314 100.66606
#
# Poissons Ratio (x) = -0.02772 0.46708
# Poissons Ratio (y) = -0.01278 0.32191
# Poissons Ratio (z) = 0.15976 0.23879
#
# Static dielectric constant tensor:
#      x y z
#    x 1.932950 0.019180 -0.016140 
#    y 0.019180 1.934520 0.004410 
#    z -0.016140 0.004410 1.880790 
# 
# From -- ./inp_files/240303.got.cif
#   From: 2010.05.17/outbox.cif.g08.bks.cpg/sg2_121_cif.got.tgz:240303.got - 2010.06.03 11:33:40.
