data_PCOD9034311
_publ_section_title
;
Structure prediction by ZEFSAII (Michael W. Deem and Ramdas Pophale) SiO2 
 PCOD9034311
Probable space group: P -1
;
_chemical_formula_sum "Si O2"
_cell_formula_units_Z 14
_cell_length_a 10.781327
_cell_length_b 8.537876
_cell_length_c 9.204948
_cell_angle_alpha 113.515187
_cell_angle_beta 65.437857
_cell_angle_gamma 77.633226
_cell_volume 629.014961
_symmetry_space_group_name_H-M "P -1"
_symmetry_group_IT_number 2
_symmetry_cell_setting 'triclinic'
loop_
_space_group_symop_operation_xyz
x,y,z
-x,-y,-z
loop_
_atom_site_type_symbol
_atom_site_label
_atom_site_fract_x
_atom_site_fract_y
_atom_site_fract_z
Si Si1 0.584188 0.906087 0.644897
Si Si2 0.602666 0.204931 0.537950
Si Si3 0.126122 0.013036 0.847481
Si Si4 0.395436 0.575351 0.933345
Si Si5 0.113773 0.321138 0.471306
Si Si6 0.319509 0.001900 0.018591
Si Si7 0.946190 0.373174 0.874310
O O1 0.488930 0.860621 0.554120
O O2 0.730535 0.704988 0.535510
O O3 0.631455 0.062075 0.609350
O O4 0.477442 0.991891 0.870040
O O5 0.500703 0.422163 0.708100
O O6 0.757090 0.169144 0.367663
O O7 0.035591 0.170144 0.831913
O O8 0.221736 0.062784 0.938627
O O9 0.000000 0.000000 0.000000
O O10 0.500000 0.500000 0.000000
O O11 0.358091 0.788118 0.976060
O O12 0.235805 0.560598 0.016370
O O13 0.000000 0.500000 0.500000
O O14 0.008471 0.335031 0.665536
O O15 0.202750 0.144538 0.249213
O O16 0.000000 0.500000 0.000000
#
# Coordination Sequence:
#
# PCOD9034311 Si02
#       7
#     2   2   2   2   2   2   2
#     4  10  22  44  73 100 140 189 249 291 354 438
#     4  10  23  44  74 100 138 198 241 292 358 437
#     4  11  23  48  71 103 141 188 245 305 352 425
#     4  12  28  45  69 108 152 190 233 301 375 432
#     4  12  26  43  72 109 143 189 243 304 365 430
#     4  11  26  45  69 104 149 188 238 307 366 434
#     4  12  27  49  76 103 144 195 251 297 356 438
#
# _framework density 22.257021999999999
#
# number of rings (size 3 to 8) (size 9 to 14) (size 15 to 20)
#    0.000    0.857    2.857    3.000    8.000    4.000 
#    2.571    0.000    0.000    0.000    0.000    0.000 
#    0.000    0.000    0.000    0.000    0.000    0.000 
#
# Total GULP energy -78059.969482 kJ/mol
# GULP energy per Si atom -5575.712106 kJ/mol
# Density = 2.220636 g / cm^3
# Si number density = 22.257022 Si / 1000 Ang^3
#
#
#
# Elastic Constant Matrix: (Units=GPa)
#
#
# Indices 1 2 3 4 5 6 
#
# 1 69.2769 45.8823 57.3945 -1.5434 -28.4114 -20.6716
# 2 45.8823 137.5262 87.1439 -11.1923 -10.2285 -28.9171
# 3 57.3945 87.1439 246.5168 -2.8577 -27.7929 1.1670
# 4 -1.5434 -11.1923 -2.8577 45.7496 -6.6745 3.2768
# 5 -28.4114 -10.2285 -27.7929 -6.6745 45.6727 -1.6983
# 6 -20.6716 -28.9171 1.1670 3.2768 -1.6983 39.4464
#
#
#
# Elastic Compliance Matrix: (Units=1/GPa)
#
#
# Indices 1 2 3 4 5 6 
#
# 1 0.031741 -0.003300 -0.004347 0.001419 0.017124 0.014963
# 2 -0.003300 0.012332 -0.003713 0.002013 -0.000988 0.007211
# 3 -0.004347 -0.003713 0.006418 -0.000264 0.000139 -0.005162
# 4 0.001419 0.002013 -0.000264 0.023010 0.004554 0.000512
# 5 0.017124 -0.000988 0.000139 0.004554 0.033422 0.009306
# 6 0.014963 0.007211 -0.005162 0.000512 0.009306 0.038989
#
#
# Mechanical properties :
#
#
# Convention : Reuss Voigt Hill
#
# Bulk Modulus (GPa) = 36.00914 92.68458 64.34686
# Shear Modulus (GPa) = 28.10728 43.70037 35.90383
#
# Velocity S-wave (km/s) = 3.55752 4.43588 4.02076
# Velocity P-wave (km/s) = 5.75226 8.24435 7.10837
#
# Compressibility (1/GPa) = 0.02777072
#
# Stress axis : x y z
#
# Youngs Moduli (GPa) = 31.50471 81.09236 155.80274
#
# Poissons Ratio (x) = 0.26758 0.67733
# Poissons Ratio (y) = 0.10396 0.57853
# Poissons Ratio (z) = 0.13696 0.30111
#
# Static dielectric constant tensor:
#      x y z
#    x 1.842450 0.030370 0.051500 
#    y 0.030370 1.797840 -0.026850 
#    z 0.051500 -0.026850 1.827480 
# 
# From -- ./inp_files/244872.got.cif
#   From: 2010.05.17/outbox.cif.g08.bks.cpg/sg2_123_cif.got.tgz:244872.got - 2010.06.03 11:33:40.
