data_PCOD9034533
_publ_section_title
;
Structure prediction by ZEFSAII (Michael W. Deem and Ramdas Pophale) SiO2 
 PCOD9034533
Probable space group: P -1
;
_chemical_formula_sum "Si O2"
_cell_formula_units_Z 14
_cell_length_a 20.044802
_cell_length_b 5.525727
_cell_length_c 5.248321
_cell_angle_alpha 93.361915
_cell_angle_beta 107.317274
_cell_angle_gamma 101.384280
_cell_volume 539.748659
_symmetry_space_group_name_H-M "P -1"
_symmetry_group_IT_number 2
_symmetry_cell_setting 'triclinic'
loop_
_space_group_symop_operation_xyz
x,y,z
-x,-y,-z
loop_
_atom_site_type_symbol
_atom_site_label
_atom_site_fract_x
_atom_site_fract_y
_atom_site_fract_z
Si Si1 0.455239 0.149564 0.289818
Si Si2 0.398686 0.499677 0.557931
Si Si3 0.171749 0.181651 0.149478
Si Si4 0.785186 0.283429 0.875485
Si Si5 0.349771 0.721189 0.993422
Si Si6 0.903999 0.198311 0.316987
Si Si7 0.951186 0.612701 0.757831
O O1 0.399854 0.234819 0.423785
O O2 0.516772 0.378872 0.277095
O O3 0.500000 0.000000 0.500000
O O4 0.408402 0.975217 0.016653
O O5 0.373571 0.636026 0.291710
O O6 0.355991 0.531487 0.765136
O O7 0.220688 0.456932 0.237085
O O8 0.214828 0.977197 0.277862
O O9 0.143400 0.074568 0.826580
O O10 0.097894 0.200107 0.203853
O O11 0.865840 0.350840 0.082235
O O12 0.728585 0.235244 0.039521
O O13 0.901310 0.360611 0.572065
O O14 0.988129 0.236663 0.356591
O O15 0.000000 0.500000 0.000000
#
# Coordination Sequence:
#
# PCOD9034533 Si02
#       7
#     2   2   2   2   2   2   2
#     4   9  21  42  67 104 134 175 226 287 338 406
#     4  10  23  41  70  98 137 175 230 283 343 403
#     4  10  22  45  61  94 131 172 221 279 338 408
#     4  10  24  45  62  95 136 175 227 276 342 415
#     4  11  24  43  66  98 135 184 227 279 345 415
#     4   9  23  39  62  97 127 165 222 279 338 402
#     4  11  19  41  68  93 125 170 221 280 343 398
#
# _framework density 25.937999999999999
#
# number of rings (size 3 to 8) (size 9 to 14) (size 15 to 20)
#    0.857    1.143    1.429    0.857    2.000    9.143 
#    5.143    0.000    0.000    0.000    0.000    0.000 
#    0.000    0.000    0.000    0.000    0.000    0.000 
#
# Total GULP energy -78080.951093 kJ/mol
# GULP energy per Si atom -5577.210792 kJ/mol
# Density = 2.587896 g / cm^3
# Si number density = 25.938000 Si / 1000 Ang^3
#
#
#
# Elastic Constant Matrix: (Units=GPa)
#
#
# Indices 1 2 3 4 5 6 
#
# 1 109.8784 19.6345 29.7601 14.5350 -17.0986 -21.0781
# 2 19.6345 134.7930 32.5225 32.4985 -11.2223 -17.5979
# 3 29.7601 32.5225 91.4380 16.3921 -9.3364 -14.4491
# 4 14.5350 32.4985 16.3921 38.3244 -8.0612 -15.3331
# 5 -17.0986 -11.2223 -9.3364 -8.0612 31.2172 16.3843
# 6 -21.0781 -17.5979 -14.4491 -15.3331 16.3843 20.9077
#
#
#
# Elastic Compliance Matrix: (Units=1/GPa)
#
#
# Indices 1 2 3 4 5 6 
#
# 1 0.011680 0.000064 -0.002260 0.000772 0.000438 0.010489
# 2 0.000064 0.009753 -0.001982 -0.006673 0.000289 0.001784
# 3 -0.002260 -0.001982 0.013314 -0.001355 -0.000942 0.004999
# 4 0.000772 -0.006673 -0.001355 0.043271 -0.008208 0.032392
# 5 0.000438 0.000289 -0.000942 -0.008208 0.056256 -0.050070
# 6 0.010489 0.001784 0.004999 0.032392 -0.050070 0.126352
#
#
# Mechanical properties :
#
#
# Convention : Reuss Voigt Hill
#
# Bulk Modulus (GPa) = 37.89341 55.54929 46.72135
# Shear Modulus (GPa) = 17.99984 35.03600 26.51792
#
# Velocity S-wave (km/s) = 2.63716 3.67926 3.20090
# Velocity P-wave (km/s) = 4.89017 6.28585 5.63142
#
# Compressibility (1/GPa) = 0.02638981
#
# Stress axis : x y z
#
# Youngs Moduli (GPa) = 85.61599 102.52740 75.11124
#
# Poissons Ratio (x) = -0.00655 0.16977
# Poissons Ratio (y) = -0.00547 0.14889
# Poissons Ratio (z) = 0.19351 0.20324
#
# Static dielectric constant tensor:
#      x y z
#    x 2.076950 0.046240 -0.073140 
#    y 0.046240 2.140470 -0.045930 
#    z -0.073140 -0.045930 2.052290 
# 
# From -- ./inp_files/114300.got.cif
#   From: 2010.05.17/outbox.cif.g08.bks.cpg/sg2_58_cif.got.tgz:114300.got - 2010.06.03 11:33:40.
