data_PCOD9034587
_publ_section_title
;
Structure prediction by ZEFSAII (Michael W. Deem and Ramdas Pophale) SiO2 
 PCOD9034587
Probable space group: P -1
;
_chemical_formula_sum "Si O2"
_cell_formula_units_Z 16
_cell_length_a 8.680339
_cell_length_b 18.201749
_cell_length_c 11.429508
_cell_angle_alpha 151.401781
_cell_angle_beta 125.739982
_cell_angle_gamma 60.216863
_cell_volume 700.998261
_symmetry_space_group_name_H-M "P -1"
_symmetry_group_IT_number 2
_symmetry_cell_setting 'triclinic'
loop_
_space_group_symop_operation_xyz
x,y,z
-x,-y,-z
loop_
_atom_site_type_symbol
_atom_site_label
_atom_site_fract_x
_atom_site_fract_y
_atom_site_fract_z
Si Si1 0.054294 0.434191 0.304361
Si Si2 0.021138 0.290025 0.517363
Si Si3 0.251267 0.831314 0.188751
Si Si4 0.726280 0.114568 0.994565
Si Si5 0.708886 0.322223 0.613410
Si Si6 0.358884 0.951339 0.637398
Si Si7 0.415059 0.388030 0.907903
Si Si8 0.417221 0.257174 0.191847
O O1 0.998212 0.559515 0.360854
O O2 0.272306 0.391820 0.323584
O O3 0.000000 0.500000 0.500000
O O4 0.930936 0.277179 0.015390
O O5 0.900549 0.311458 0.610839
O O6 0.239981 0.283866 0.636341
O O7 0.913892 0.153385 0.206620
O O8 0.236596 0.889717 0.132007
O O9 0.290429 0.959467 0.484618
O O10 0.426726 0.718448 0.119660
O O11 0.588566 0.972181 0.773292
O O12 0.579250 0.251373 0.153929
O O13 0.711257 0.210794 0.569729
O O14 0.538856 0.257116 0.363881
O O15 0.666167 0.494399 0.869981
O O16 0.301552 0.095452 0.891324
O O17 0.500000 0.500000 0.000000
#
# Coordination Sequence:
#
# PCOD9034587 Si02
#       8
#     2   2   2   2   2   2   2   2
#     4  12  23  40  65  99 130 162 217 274 326 382
#     4  11  24  41  66 100 127 168 220 268 324 387
#     4  12  23  42  69  93 138 171 213 275 318 388
#     4   9  23  43  67  94 132 171 220 264 319 390
#     4  11  22  42  69  92 136 169 219 268 319 390
#     4  10  22  45  65  92 135 175 219 259 326 380
#     4  12  24  41  65 100 131 173 210 270 337 372
#     4   9  24  39  68  94 129 173 214 264 327 379
#
# _framework density 22.824591999999999
#
# number of rings (size 3 to 8) (size 9 to 14) (size 15 to 20)
#    0.750    0.500    3.750    1.875    1.750    1.500 
#    0.000    1.875    0.000    0.000    0.000    0.000 
#    0.000    0.000    0.000    0.000    0.000    0.000 
#
# Total GULP energy -89432.602390 kJ/mol
# GULP energy per Si atom -5589.537649 kJ/mol
# Density = 2.277264 g / cm^3
# Si number density = 22.824592 Si / 1000 Ang^3
#
#
#
# Elastic Constant Matrix: (Units=GPa)
#
#
# Indices 1 2 3 4 5 6 
#
# 1 84.9757 25.6808 48.0215 -3.2496 4.1870 -0.3644
# 2 25.6808 27.0247 13.6431 2.7929 -10.2149 -1.1451
# 3 48.0215 13.6431 103.8917 -16.4511 -6.1512 -13.7548
# 4 -3.2496 2.7929 -16.4511 34.5820 -1.4797 -4.1375
# 5 4.1870 -10.2149 -6.1512 -1.4797 39.2249 4.3507
# 6 -0.3644 -1.1451 -13.7548 -4.1375 4.3507 38.5149
#
#
#
# Elastic Compliance Matrix: (Units=1/GPa)
#
#
# Indices 1 2 3 4 5 6 
#
# 1 0.024010 -0.021629 -0.009379 -0.001200 -0.009398 -0.002833
# 2 -0.021629 0.064526 0.001704 -0.005665 0.019217 -0.000457
# 3 -0.009379 0.001704 0.015925 0.007432 0.003552 0.006046
# 4 -0.001200 -0.005665 0.007432 0.033536 0.000414 0.006030
# 5 -0.009398 0.019217 0.003552 0.000414 0.032279 -0.001851
# 6 -0.002833 -0.000457 0.006046 0.006030 -0.001851 0.028940
#
#
# Mechanical properties :
#
#
# Convention : Reuss Voigt Hill
#
# Bulk Modulus (GPa) = 21.80912 43.39811 32.60361
# Shear Modulus (GPa) = 18.30771 31.03415 24.67093
#
# Velocity S-wave (km/s) = 2.83522 3.69138 3.29126
# Velocity P-wave (km/s) = 4.50486 6.10110 5.36271
#
# Compressibility (1/GPa) = 0.04585238
#
# Stress axis : x y z
#
# Youngs Moduli (GPa) = 41.64916 15.49756 62.79621
#
# Poissons Ratio (x) = 0.33520 0.58898
# Poissons Ratio (y) = 0.90084 -0.10702
# Poissons Ratio (z) = 0.39063 -0.02641
#
# Static dielectric constant tensor:
#      x y z
#    x 1.849660 -0.020830 -0.018180 
#    y -0.020830 1.827470 0.018060 
#    z -0.018180 0.018060 1.890800 
# 
# From -- ./inp_files/387748.got.cif
#   From: 2010.05.17/outbox.cif.g08.bks.cpg/sg2_194_cif.got.tgz:387748.got - 2010.06.03 11:33:40.
