data_PCOD9034221
_publ_section_title
;
Structure prediction by ZEFSAII (Michael W. Deem and Ramdas Pophale) SiO2 
 PCOD9034221
Probable space group: P -1
;
_chemical_formula_sum "Si O2"
_cell_formula_units_Z 15
_cell_length_a 9.050290
_cell_length_b 14.068592
_cell_length_c 9.524959
_cell_angle_alpha 122.382695
_cell_angle_beta 45.736628
_cell_angle_gamma 132.568402
_cell_volume 634.988218
_symmetry_space_group_name_H-M "P -1"
_symmetry_group_IT_number 2
_symmetry_cell_setting 'triclinic'
loop_
_space_group_symop_operation_xyz
x,y,z
-x,-y,-z
loop_
_atom_site_type_symbol
_atom_site_label
_atom_site_fract_x
_atom_site_fract_y
_atom_site_fract_z
Si Si1 0.781624 0.882439 0.466945
Si Si2 0.358741 0.856519 0.913008
Si Si3 0.007069 0.759006 0.829850
Si Si4 0.258405 0.781998 0.402980
Si Si5 0.972466 0.703498 0.266448
Si Si6 0.275305 0.523110 0.130280
Si Si7 0.232505 0.100189 0.841675
Si Si8 0.000000 0.500000 0.000000
O O1 0.546785 0.842899 0.681755
O O2 0.774411 0.915371 0.334647
O O3 0.823057 0.760203 0.343118
O O4 0.000000 0.000000 0.500000
O O5 0.155726 0.841515 0.930256
O O6 0.202881 0.741304 0.039018
O O7 0.500000 0.000000 0.000000
O O8 0.168424 0.811994 0.628462
O O9 0.941004 0.611243 0.771900
O O10 0.771726 0.770937 0.001902
O O11 0.077249 0.771446 0.396147
O O12 0.273506 0.649443 0.295425
O O13 0.522215 0.889309 0.266897
O O14 0.866800 0.552396 0.233714
O O15 0.196766 0.518088 0.015007
O O16 0.500000 0.500000 0.000000
O O17 0.000000 0.000000 0.000000
#
# Coordination Sequence:
#
# PCOD9034221 Si02
#       8
#     2   2   2   2   2   2   2   1
#     4  12  25  45  69 100 137 188 240 288 356 433
#     4  12  24  43  74  98 138 191 232 293 362 427
#     4  12  24  46  71  99 143 188 236 293 360 425
#     4  11  27  43  70 105 138 185 233 299 355 429
#     4  11  25  45  69 101 142 178 238 292 358 426
#     4  11  22  46  76 102 143 191 245 297 368 426
#     4  12  27  42  67 100 138 185 231 286 353 425
#     4  10  22  44  72 104 140 190 236 300 356 440
#
# _framework density 23.622484
#
# number of rings (size 3 to 8) (size 9 to 14) (size 15 to 20)
#    0.000    0.533    6.667    0.400    5.600    0.533 
#    0.000    0.667    0.000    0.000    0.000    0.000 
#    0.000    0.000    0.000    0.000    0.000    0.000 
#
# Total GULP energy -83500.876751 kJ/mol
# GULP energy per Si atom -5566.725117 kJ/mol
# Density = 2.356872 g / cm^3
# Si number density = 23.622484 Si / 1000 Ang^3
#
#
#
# Elastic Constant Matrix: (Units=GPa)
#
#
# Indices 1 2 3 4 5 6 
#
# 1 81.6455 -16.2289 9.9921 6.4244 -0.4903 -9.8453
# 2 -16.2289 32.7094 4.2267 6.4764 -4.7755 -10.5349
# 3 9.9921 4.2267 123.1859 -5.5851 -6.6316 -0.6636
# 4 6.4244 6.4764 -5.5851 32.8439 -0.4604 0.2956
# 5 -0.4903 -4.7755 -6.6316 -0.4604 32.5022 2.4386
# 6 -9.8453 -10.5349 -0.6636 0.2956 2.4386 28.5920
#
#
#
# Elastic Compliance Matrix: (Units=1/GPa)
#
#
# Indices 1 2 3 4 5 6 
#
# 1 0.017015 0.013597 -0.002030 -0.006439 0.000938 0.010808
# 2 0.013597 0.048027 -0.002951 -0.012762 0.004826 0.022030
# 3 -0.002030 -0.002951 0.008564 0.002471 0.001449 -0.001737
# 4 -0.006439 -0.012762 0.002471 0.034702 -0.000437 -0.007184
# 5 0.000938 0.004826 0.001449 -0.000437 0.031823 -0.000575
# 6 0.010808 0.022030 -0.001737 -0.007184 -0.000575 0.046897
#
#
# Mechanical properties :
#
#
# Convention : Reuss Voigt Hill
#
# Bulk Modulus (GPa) = 11.00853 25.94672 18.47762
# Shear Modulus (GPa) = 24.99077 34.75768 29.87422
#
# Velocity S-wave (km/s) = 3.25610 3.84002 3.56005
# Velocity P-wave (km/s) = 4.33665 5.53794 4.97370
#
# Compressibility (1/GPa) = 0.09083867
#
# Stress axis : x y z
#
# Youngs Moduli (GPa) = 58.77211 20.82179 116.76264
#
# Poissons Ratio (x) = -0.28312 0.23701
# Poissons Ratio (y) = -0.79914 0.34456
# Poissons Ratio (z) = 0.11930 0.06144
#
# Static dielectric constant tensor:
#      x y z
#    x 1.916810 0.028450 -0.010190 
#    y 0.028450 2.577190 0.115550 
#    z -0.010190 0.115550 1.870700 
# 
# From -- ./inp_files/180933.got.cif
#   From: 2010.05.17/outbox.cif.g08.bks.cpg/sg2_91_cif.got.tgz:180933.got - 2010.06.03 11:33:40.
