data_PCOD9034765
_publ_section_title
;
Structure prediction by ZEFSAII (Michael W. Deem and Ramdas Pophale) SiO2 
 PCOD9034765
Probable space group: P -1
;
_chemical_formula_sum "Si O2"
_cell_formula_units_Z 14
_cell_length_a 21.687758
_cell_length_b 6.813959
_cell_length_c 5.930225
_cell_angle_alpha 90.084642
_cell_angle_beta 111.460691
_cell_angle_gamma 52.097944
_cell_volume 613.096025
_symmetry_space_group_name_H-M "P -1"
_symmetry_group_IT_number 2
_symmetry_cell_setting 'triclinic'
loop_
_space_group_symop_operation_xyz
x,y,z
-x,-y,-z
loop_
_atom_site_type_symbol
_atom_site_label
_atom_site_fract_x
_atom_site_fract_y
_atom_site_fract_z
Si Si1 0.994328 0.618198 0.751976
Si Si2 0.654220 0.693379 0.341072
Si Si3 0.375510 0.929696 0.352755
Si Si4 0.750320 0.825079 0.195041
Si Si5 0.193254 0.860818 0.603921
Si Si6 0.460459 0.439429 0.757956
Si Si7 0.902772 0.265313 0.295744
O O1 0.000000 0.500000 0.500000
O O2 0.069252 0.641353 0.863361
O O3 0.898893 0.903774 0.627932
O O4 0.000000 0.500000 0.000000
O O5 0.676283 0.830868 0.205922
O O6 0.745089 0.395040 0.465677
O O7 0.581751 0.671729 0.189516
O O8 0.625186 0.860915 0.524771
O O9 0.390277 0.709857 0.528258
O O10 0.459935 0.764156 0.303391
O O11 0.281512 0.100802 0.104461
O O12 0.843168 0.534209 0.362756
O O13 0.757051 0.034859 0.280514
O O14 0.162030 0.796242 0.784604
O O15 0.500000 0.500000 0.000000
O O16 0.000000 0.000000 0.500000
#
# Coordination Sequence:
#
# PCOD9034765 Si02
#       7
#     2   2   2   2   2   2   2
#     4  11  23  46  74 104 147 196 247 305 367 437
#     4  11  24  43  66 101 137 178 233 286 363 422
#     4  11  25  42  67 100 134 181 232 292 357 426
#     4  11  23  44  69  98 144 178 235 293 353 427
#     4  10  22  45  68 100 143 188 236 297 363 433
#     4  11  25  46  69  95 137 181 233 289 360 431
#     4   9  21  42  67 102 138 187 237 291 362 427
#
# _framework density 22.834921000000001
#
# number of rings (size 3 to 8) (size 9 to 14) (size 15 to 20)
#    0.000    1.429    1.429    3.000    0.000    9.143 
#    7.714    3.571    0.000    0.000    0.000    0.000 
#    0.000    0.000    0.000    0.000    0.000    0.000 
#
# Total GULP energy -77974.666066 kJ/mol
# GULP energy per Si atom -5569.619005 kJ/mol
# Density = 2.278295 g / cm^3
# Si number density = 22.834921 Si / 1000 Ang^3
#
#
#
# Elastic Constant Matrix: (Units=GPa)
#
#
# Indices 1 2 3 4 5 6 
#
# 1 173.2196 59.6196 45.5477 -1.6140 -23.9859 35.0011
# 2 59.6196 167.3057 50.6984 2.7058 2.8294 3.7071
# 3 45.5477 50.6984 68.8142 -1.9531 -11.9637 0.7788
# 4 -1.6140 2.7058 -1.9531 19.4919 6.8686 -1.5270
# 5 -23.9859 2.8294 -11.9637 6.8686 27.5259 -9.4404
# 6 35.0011 3.7071 0.7788 -1.5270 -9.4404 43.4769
#
#
#
# Elastic Compliance Matrix: (Units=1/GPa)
#
#
# Indices 1 2 3 4 5 6 
#
# 1 0.009471 -0.002149 -0.003780 -0.001572 0.005052 -0.006332
# 2 -0.002149 0.008604 -0.005838 -0.000098 -0.005287 -0.000050
# 3 -0.003780 -0.005838 0.022837 0.000023 0.008968 0.005080
# 4 -0.001572 -0.000098 0.000023 0.056651 -0.015523 -0.000107
# 5 0.005052 -0.005287 0.008968 -0.015523 0.051391 0.006837
# 6 -0.006332 -0.000050 0.005080 -0.000107 0.006837 0.029492
#
#
# Mechanical properties :
#
#
# Convention : Reuss Voigt Hill
#
# Bulk Modulus (GPa) = 57.54404 80.11898 68.83151
# Shear Modulus (GPa) = 24.06459 34.99718 29.53088
#
# Velocity S-wave (km/s) = 3.24983 3.91911 3.60006
# Velocity P-wave (km/s) = 6.27189 7.45933 6.89123
#
# Compressibility (1/GPa) = 0.01737799
#
# Stress axis : x y z
#
# Youngs Moduli (GPa) = 105.58499 116.22294 43.78794
#
# Poissons Ratio (x) = 0.24979 0.16552
# Poissons Ratio (y) = 0.22693 0.25563
# Poissons Ratio (z) = 0.39912 0.67850
#
# Static dielectric constant tensor:
#      x y z
#    x 1.906980 0.005770 -0.052790 
#    y 0.005770 1.871210 -0.008930 
#    z -0.052790 -0.008930 1.933300 
# 
# From -- ./inp_files/114576.got.cif
#   From: 2010.05.17/outbox.cif.g08.bks.cpg/sg2_58_cif.got.tgz:114576.got - 2010.06.03 11:33:40.
