data_PCOD9034155
_publ_section_title
;
Structure prediction by ZEFSAII (Michael W. Deem and Ramdas Pophale) SiO2 
 PCOD9034155
Probable space group: P -1
;
_chemical_formula_sum "Si O2"
_cell_formula_units_Z 12
_cell_length_a 5.159633
_cell_length_b 10.531728
_cell_length_c 9.484652
_cell_angle_alpha 79.056564
_cell_angle_beta 104.730361
_cell_angle_gamma 111.732901
_cell_volume 460.391124
_symmetry_space_group_name_H-M "P -1"
_symmetry_group_IT_number 2
_symmetry_cell_setting 'triclinic'
loop_
_space_group_symop_operation_xyz
x,y,z
-x,-y,-z
loop_
_atom_site_type_symbol
_atom_site_label
_atom_site_fract_x
_atom_site_fract_y
_atom_site_fract_z
Si Si1 0.240280 0.030521 0.258523
Si Si2 0.228827 0.732231 0.342774
Si Si3 0.464790 0.271349 0.060855
Si Si4 0.872223 0.538952 0.119575
Si Si5 0.852870 0.164735 0.263258
Si Si6 0.272533 0.348425 0.483186
O O1 0.224201 0.133898 0.108925
O O2 0.568359 0.111849 0.332228
O O3 0.982364 0.042768 0.310497
O O4 0.218418 0.877382 0.257744
O O5 0.539825 0.746076 0.435436
O O6 0.138797 0.615817 0.235433
O O7 0.985348 0.676030 0.438419
O O8 0.641338 0.394313 0.167000
O O9 0.715559 0.203858 0.092377
O O10 0.310215 0.356907 0.932540
O O11 0.000000 0.500000 0.000000
O O12 0.109413 0.296134 0.325191
O O13 0.500000 0.500000 0.500000
#
# Coordination Sequence:
#
# PCOD9034155 Si02
#       6
#     2   2   2   2   2   2
#     4  10  23  44  69 107 138 184 227 287 343 425
#     4  12  28  44  71 109 139 179 243 284 348 411
#     4   9  23  42  70  99 134 188 228 280 349 408
#     4  11  24  45  72  99 139 188 233 291 344 417
#     4  10  22  44  71  97 145 183 227 275 358 408
#     4  12  27  45  72 105 145 183 230 294 339 421
#
# _framework density 26.064793000000002
#
# number of rings (size 3 to 8) (size 9 to 14) (size 15 to 20)
#    1.000    0.333    0.000    4.500    7.000    4.667 
#    0.000    1.667    0.000    0.000    0.000    0.000 
#    0.000    0.000    0.000    0.000    0.000    0.000 
#
# Total GULP energy -66870.059363 kJ/mol
# GULP energy per Si atom -5572.504947 kJ/mol
# Density = 2.600547 g / cm^3
# Si number density = 26.064793 Si / 1000 Ang^3
#
#
#
# Elastic Constant Matrix: (Units=GPa)
#
#
# Indices 1 2 3 4 5 6 
#
# 1 165.7261 8.9535 39.4344 -0.6062 31.3490 -9.1001
# 2 8.9535 117.8868 5.5636 -22.5499 -3.1710 5.7359
# 3 39.4344 5.5636 46.6238 -1.0153 24.8442 -1.5482
# 4 -0.6062 -22.5499 -1.0153 31.5683 1.1745 9.4466
# 5 31.3490 -3.1710 24.8442 1.1745 45.4586 -4.7405
# 6 -9.1001 5.7359 -1.5482 9.4466 -4.7405 41.4185
#
#
#
# Elastic Compliance Matrix: (Units=1/GPa)
#
#
# Indices 1 2 3 4 5 6 
#
# 1 0.007856 -0.000652 -0.005249 -0.000855 -0.002412 0.001539
# 2 -0.000652 0.010388 -0.001329 0.008326 0.001334 -0.003378
# 3 -0.005249 -0.001329 0.034208 0.001133 -0.015376 -0.001709
# 4 -0.000855 0.008326 0.001133 0.040945 -0.001636 -0.010824
# 5 -0.002412 0.001334 -0.015376 -0.001636 0.032492 0.002803
# 6 0.001539 -0.003378 -0.001709 -0.010824 0.002803 0.027675
#
#
# Mechanical properties :
#
#
# Convention : Reuss Voigt Hill
#
# Bulk Modulus (GPa) = 26.32266 48.68220 37.50243
# Shear Modulus (GPa) = 27.67195 42.10810 34.89002
#
# Velocity S-wave (km/s) = 3.26185 4.02371 3.66264
# Velocity P-wave (km/s) = 4.93022 6.34861 5.68384
#
# Compressibility (1/GPa) = 0.03799008
#
# Stress axis : x y z
#
# Youngs Moduli (GPa) = 127.29322 96.26591 29.23326
#
# Poissons Ratio (x) = 0.06278 0.15345
# Poissons Ratio (y) = 0.08302 0.03886
# Poissons Ratio (z) = 0.66817 0.12798
#
# Static dielectric constant tensor:
#      x y z
#    x 2.303480 -0.004400 -0.210870 
#    y -0.004400 2.026330 -0.069520 
#    z -0.210870 -0.069520 2.248350 
# 
# From -- ./inp_files/361957.got.cif
#   From: 2010.05.17/outbox.cif.g08.bks.cpg/sg2_181_cif.got.tgz:361957.got - 2010.06.03 11:33:40.
