data_PCOD9034579
_publ_section_title
;
Structure prediction by ZEFSAII (Michael W. Deem and Ramdas Pophale) SiO2 
 PCOD9034579
Probable space group: P -1
;
_chemical_formula_sum "Si O2"
_cell_formula_units_Z 16
_cell_length_a 11.602151
_cell_length_b 13.526404
_cell_length_c 11.636690
_cell_angle_alpha 98.481517
_cell_angle_beta 30.368164
_cell_angle_gamma 117.308183
_cell_volume 683.593071
_symmetry_space_group_name_H-M "P -1"
_symmetry_group_IT_number 2
_symmetry_cell_setting 'triclinic'
loop_
_space_group_symop_operation_xyz
x,y,z
-x,-y,-z
loop_
_atom_site_type_symbol
_atom_site_label
_atom_site_fract_x
_atom_site_fract_y
_atom_site_fract_z
Si Si1 0.510647 0.367868 0.666919
Si Si2 0.726682 0.275898 0.181973
Si Si3 0.840684 0.514403 0.782557
Si Si4 0.349653 0.528022 0.807552
Si Si5 0.804054 0.127598 0.910191
Si Si6 0.905719 0.085929 0.571594
Si Si7 0.172345 0.106216 0.765920
Si Si8 0.295502 0.303557 0.089132
O O1 0.556545 0.492071 0.598010
O O2 0.348891 0.250829 0.695342
O O3 0.832150 0.422617 0.444784
O O4 0.290699 0.299834 0.955656
O O5 0.600121 0.347864 0.264703
O O6 0.458080 0.139281 0.457989
O O7 0.825662 0.236984 0.982181
O O8 0.017987 0.390297 0.028141
O O9 0.826171 0.621229 0.762140
O O10 0.644674 0.459103 0.058374
O O11 0.647115 0.391859 0.840572
O O12 0.956699 0.164444 0.658703
O O13 0.937437 0.079651 0.869276
O O14 0.447854 0.008067 0.172079
O O15 0.095781 0.172240 0.311957
O O16 0.000000 0.000000 0.500000
O O17 0.000000 0.000000 0.000000
#
# Coordination Sequence:
#
# PCOD9034579 Si02
#       8
#     2   2   2   2   2   2   2   2
#     4  11  23  44  71 106 144 186 239 295 369 427
#     4  11  24  47  68 104 147 183 240 297 360 434
#     4  10  22  45  65 103 139 185 232 300 359 424
#     4  10  23  43  70 103 144 185 238 298 355 430
#     4  11  27  48  73 107 139 196 237 299 369 421
#     4  11  27  50  73 105 142 185 250 300 355 437
#     4  12  28  43  71 110 145 193 241 296 366 436
#     4  10  25  44  70  99 139 187 239 294 360 427
#
# _framework density 23.405737999999999
#
# number of rings (size 3 to 8) (size 9 to 14) (size 15 to 20)
#    0.000    1.250    2.500    1.125    8.750    3.000 
#    4.500    0.000    0.000    0.000    0.000    0.000 
#    0.000    0.000    0.000    0.000    0.000    0.000 
#
# Total GULP energy -89462.096875 kJ/mol
# GULP energy per Si atom -5591.381055 kJ/mol
# Density = 2.335247 g / cm^3
# Si number density = 23.405738 Si / 1000 Ang^3
#
#
#
# Elastic Constant Matrix: (Units=GPa)
#
#
# Indices 1 2 3 4 5 6 
#
# 1 123.9281 24.1543 36.0708 -6.8727 -5.5982 1.1837
# 2 24.1543 59.9575 21.6018 13.6118 17.7378 6.6595
# 3 36.0708 21.6018 93.0281 -7.7114 5.8732 -11.8288
# 4 -6.8727 13.6118 -7.7114 24.9006 0.8151 9.7321
# 5 -5.5982 17.7378 5.8732 0.8151 49.6865 -0.3665
# 6 1.1837 6.6595 -11.8288 9.7321 -0.3665 47.5640
#
#
#
# Elastic Compliance Matrix: (Units=1/GPa)
#
#
# Indices 1 2 3 4 5 6 
#
# 1 0.010321 -0.005177 -0.002731 0.005217 0.003239 -0.001254
# 2 -0.005177 0.027657 -0.005453 -0.017284 -0.009541 -0.001637
# 3 -0.002731 -0.005453 0.013926 0.005287 -0.000070 0.003212
# 4 0.005217 -0.017284 0.005287 0.055533 0.005165 -0.007718
# 5 0.003239 -0.009541 -0.000070 0.005165 0.023823 0.000364
# 6 -0.001254 -0.001637 0.003212 -0.007718 0.000364 0.023666
#
#
# Mechanical properties :
#
#
# Convention : Reuss Voigt Hill
#
# Bulk Modulus (GPa) = 39.71307 48.95194 44.33251
# Shear Modulus (GPa) = 26.30998 37.43599 31.87298
#
# Velocity S-wave (km/s) = 3.35637 4.00363 3.69421
# Velocity P-wave (km/s) = 5.65901 6.50631 6.09739
#
# Compressibility (1/GPa) = 0.02518063
#
# Stress axis : x y z
#
# Youngs Moduli (GPa) = 96.89196 36.15696 71.80904
#
# Poissons Ratio (x) = 0.18719 0.19612
# Poissons Ratio (y) = 0.50163 0.39160
# Poissons Ratio (z) = 0.26462 0.19718
#
# Static dielectric constant tensor:
#      x y z
#    x 1.835200 0.012400 0.008930 
#    y 0.012400 1.914700 0.037230 
#    z 0.008930 0.037230 1.935380 
# 
# From -- ./inp_files/428577.got.cif
#   From: 2010.05.17/outbox.cif.g08.bks.cpg/sg2_215_cif.got.tgz:428577.got - 2010.06.03 11:33:40.
