data_PCOD9034451
_publ_section_title
;
Structure prediction by ZEFSAII (Michael W. Deem and Ramdas Pophale) SiO2 
 PCOD9034451
Probable space group: P -1
;
_chemical_formula_sum "Si O2"
_cell_formula_units_Z 12
_cell_length_a 10.633300
_cell_length_b 9.729809
_cell_length_c 8.496709
_cell_angle_alpha 51.458084
_cell_angle_beta 123.434854
_cell_angle_gamma 92.419062
_cell_volume 509.082064
_symmetry_space_group_name_H-M "P -1"
_symmetry_group_IT_number 2
_symmetry_cell_setting 'triclinic'
loop_
_space_group_symop_operation_xyz
x,y,z
-x,-y,-z
loop_
_atom_site_type_symbol
_atom_site_label
_atom_site_fract_x
_atom_site_fract_y
_atom_site_fract_z
Si Si1 0.073229 0.444392 0.764804
Si Si2 0.141675 0.933185 0.783166
Si Si3 0.316339 0.604015 0.723506
Si Si4 0.482637 0.360658 0.716627
Si Si5 0.774691 0.760800 0.490414
Si Si6 0.149829 0.075135 0.252112
O O1 0.195929 0.546920 0.788101
O O2 0.000000 0.500000 0.500000
O O3 0.926447 0.540894 0.726812
O O4 0.162069 0.209384 0.025126
O O5 0.046246 0.883089 0.891696
O O6 0.180334 0.117576 0.697202
O O7 0.328308 0.761546 0.995465
O O8 0.000000 0.000000 0.500000
O O9 0.346159 0.491079 0.658949
O O10 0.250411 0.837042 0.484246
O O11 0.500000 0.500000 0.000000
O O12 0.500000 0.500000 0.500000
O O13 0.405479 0.229951 0.673774
O O14 0.787935 0.850622 0.602898
#
# Coordination Sequence:
#
# PCOD9034451 Si02
#       6
#     2   2   2   2   2   2
#     4  12  26  47  73 111 151 195 248 305 370 440
#     4  10  22  44  75 104 141 194 245 296 367 439
#     4  12  28  49  73 108 150 191 249 311 366 441
#     4  12  27  46  72 109 149 190 247 307 369 437
#     4  11  23  47  75 108 145 195 246 307 365 443
#     4  11  26  48  80 105 148 200 246 301 374 442
#
# _framework density 23.571836000000001
#
# number of rings (size 3 to 8) (size 9 to 14) (size 15 to 20)
#    0.000    0.667    3.333    4.000    4.667    2.667 
#    3.000    0.000    0.000    0.000    0.000    0.000 
#    0.000    0.000    0.000    0.000    0.000    0.000 
#
# Total GULP energy -67101.702272 kJ/mol
# GULP energy per Si atom -5591.808523 kJ/mol
# Density = 2.351819 g / cm^3
# Si number density = 23.571836 Si / 1000 Ang^3
#
#
#
# Elastic Constant Matrix: (Units=GPa)
#
#
# Indices 1 2 3 4 5 6 
#
# 1 89.4298 41.5959 64.9181 0.7187 12.4216 27.1349
# 2 41.5959 90.8882 57.6470 -6.7133 5.1278 34.9476
# 3 64.9181 57.6470 141.0041 -25.0577 0.7835 25.1484
# 4 0.7187 -6.7133 -25.0577 44.5751 5.2512 3.5524
# 5 12.4216 5.1278 0.7835 5.2512 49.2425 -5.5939
# 6 27.1349 34.9476 25.1484 3.5524 -5.5939 46.5606
#
#
#
# Elastic Compliance Matrix: (Units=1/GPa)
#
#
# Indices 1 2 3 4 5 6 
#
# 1 0.020885 -0.001622 -0.008474 -0.004190 -0.005278 -0.006691
# 2 -0.001622 0.019601 -0.004917 0.001494 -0.003030 -0.011589
# 3 -0.008474 -0.004917 0.014134 0.007083 0.001745 0.000664
# 4 -0.004190 0.001494 0.007083 0.027418 -0.002694 -0.004921
# 5 -0.005278 -0.003030 0.001745 -0.002694 0.023053 0.007383
# 6 -0.006691 -0.011589 0.000664 -0.004921 0.007383 0.034979
#
#
# Mechanical properties :
#
#
# Convention : Reuss Voigt Hill
#
# Bulk Modulus (GPa) = 40.66167 72.18265 56.42216
# Shear Modulus (GPa) = 28.04340 38.55305 33.29822
#
# Velocity S-wave (km/s) = 3.45294 4.04859 3.76257
# Velocity P-wave (km/s) = 5.76061 7.24870 6.54707
#
# Compressibility (1/GPa) = 0.02459318
#
# Stress axis : x y z
#
# Youngs Moduli (GPa) = 47.88167 51.01697 70.74992
#
# Poissons Ratio (x) = 0.08276 0.59953
# Poissons Ratio (y) = 0.07768 0.34791
# Poissons Ratio (z) = 0.40574 0.25087
#
# Static dielectric constant tensor:
#      x y z
#    x 1.928450 -0.057360 0.008080 
#    y -0.057360 1.952600 -0.015190 
#    z 0.008080 -0.015190 1.951060 
# 
# From -- ./inp_files/208651.got.cif
#   From: 2010.05.17/outbox.cif.g08.bks.cpg/sg2_105_cif.got.tgz:208651.got - 2010.06.03 11:33:40.
