data_PCOD9034509
_publ_section_title
;
Structure prediction by ZEFSAII (Michael W. Deem and Ramdas Pophale) SiO2 
 PCOD9034509
Probable space group: P -1
;
_chemical_formula_sum "Si O2"
_cell_formula_units_Z 13
_cell_length_a 9.515673
_cell_length_b 12.450078
_cell_length_c 11.684127
_cell_angle_alpha 59.523300
_cell_angle_beta 94.901251
_cell_angle_gamma 44.831955
_cell_volume 572.517837
_symmetry_space_group_name_H-M "P -1"
_symmetry_group_IT_number 2
_symmetry_cell_setting 'triclinic'
loop_
_space_group_symop_operation_xyz
x,y,z
-x,-y,-z
loop_
_atom_site_type_symbol
_atom_site_label
_atom_site_fract_x
_atom_site_fract_y
_atom_site_fract_z
Si Si1 0.613494 0.733179 0.364512
Si Si2 0.200404 0.147439 0.744243
Si Si3 0.245279 0.914317 0.066068
Si Si4 0.169325 0.592574 0.755466
Si Si5 0.628925 0.147709 0.296751
Si Si6 0.500000 0.500000 0.000000
Si Si7 0.259679 0.291100 0.352885
O O1 0.641861 0.841567 0.239983
O O2 0.322462 0.894028 0.211654
O O3 0.667226 0.721859 0.506778
O O4 0.884922 0.432321 0.518602
O O5 0.356579 0.941572 0.772124
O O6 0.164075 0.096483 0.884318
O O7 0.537074 0.633522 0.178684
O O8 0.000000 0.000000 0.000000
O O9 0.044780 0.546517 0.770237
O O10 0.274140 0.565807 0.897979
O O11 0.907438 0.878501 0.531826
O O12 0.660076 0.268927 0.212039
O O13 0.336271 0.340667 0.243276
O O14 0.500000 0.000000 0.500000
#
# Coordination Sequence:
#
# PCOD9034509 Si02
#       7
#     2   2   2   2   2   1   2
#     4  11  22  46  76 100 143 187 234 304 357 398
#     4  11  22  46  75 101 139 188 240 302 345 417
#     4  12  27  44  70 107 145 191 241 284 358 433
#     4  11  23  47  69 102 144 186 237 298 348 420
#     4  11  23  48  74 105 144 186 237 293 358 425
#     4  12  26  42  74 102 150 194 218 288 368 420
#     4  10  22  44  77 105 133 186 240 292 353 424
#
# _framework density 22.706714000000002
#
# number of rings (size 3 to 8) (size 9 to 14) (size 15 to 20)
#    0.000    0.923    6.154    1.846    0.000    4.923 
#    2.769    0.000    0.000    0.000    0.000    0.000 
#    0.000    0.000    0.000    0.000    0.000    0.000 
#
# Total GULP energy -72418.179859 kJ/mol
# GULP energy per Si atom -5570.629220 kJ/mol
# Density = 2.265503 g / cm^3
# Si number density = 22.706714 Si / 1000 Ang^3
#
#
#
# Elastic Constant Matrix: (Units=GPa)
#
#
# Indices 1 2 3 4 5 6 
#
# 1 169.7744 69.3271 81.3371 5.0604 10.9300 11.9788
# 2 69.3271 72.5263 28.5801 15.8284 7.5439 -11.8508
# 3 81.3371 28.5801 90.4694 15.7261 11.7763 10.7777
# 4 5.0604 15.8284 15.7261 34.5293 14.6672 9.0209
# 5 10.9300 7.5439 11.7763 14.6672 60.7159 -0.1169
# 6 11.9788 -11.8508 10.7777 9.0209 -0.1169 21.7223
#
#
#
# Elastic Compliance Matrix: (Units=1/GPa)
#
#
# Indices 1 2 3 4 5 6 
#
# 1 0.032020 -0.038358 -0.016561 0.034824 -0.006285 -0.044863
# 2 -0.038358 0.069337 0.011920 -0.055549 0.009544 0.076186
# 3 -0.016561 0.011920 0.023710 -0.017165 0.001069 0.011006
# 4 0.034824 -0.055549 -0.017165 0.083980 -0.016471 -0.075956
# 5 -0.006285 0.009544 0.001069 -0.016471 0.020216 0.015091
# 6 -0.044863 0.076186 0.011006 -0.075956 0.015091 0.138503
#
#
# Mechanical properties :
#
#
# Convention : Reuss Voigt Hill
#
# Bulk Modulus (GPa) = 25.59593 76.80653 51.20123
# Shear Modulus (GPa) = 10.71153 33.62854 22.17004
#
# Velocity S-wave (km/s) = 2.17430 3.85255 3.12807
# Velocity P-wave (km/s) = 4.19527 7.32724 5.97029
#
# Compressibility (1/GPa) = 0.03906871
#
# Stress axis : x y z
#
# Youngs Moduli (GPa) = 31.23069 14.42240 42.17591
#
# Poissons Ratio (x) = 0.55322 0.69846
# Poissons Ratio (y) = 1.19796 -0.50274
# Poissons Ratio (z) = 0.51720 -0.17191
#
# Static dielectric constant tensor:
#      x y z
#    x 1.859760 -0.003420 -0.000090 
#    y -0.003420 1.944000 0.000260 
#    z -0.000090 0.000260 1.849680 
# 
# From -- ./inp_files/389437.got.cif
#   From: 2010.05.17/outbox.cif.g08.bks.cpg/sg2_195_cif.got.tgz:389437.got - 2010.06.03 11:33:40.
