data_PCOD9034898
_publ_section_title
;
Structure prediction by ZEFSAII (Michael W. Deem and Ramdas Pophale) SiO2 
 PCOD9034898
Probable space group: P -1
;
_chemical_formula_sum "Si O2"
_cell_formula_units_Z 16
_cell_length_a 12.480188
_cell_length_b 8.280163
_cell_length_c 14.257588
_cell_angle_alpha 54.328199
_cell_angle_beta 143.917418
_cell_angle_gamma 110.953357
_cell_volume 684.735855
_symmetry_space_group_name_H-M "P -1"
_symmetry_group_IT_number 2
_symmetry_cell_setting 'triclinic'
loop_
_space_group_symop_operation_xyz
x,y,z
-x,-y,-z
loop_
_atom_site_type_symbol
_atom_site_label
_atom_site_fract_x
_atom_site_fract_y
_atom_site_fract_z
Si Si1 0.353609 0.858360 0.440090
Si Si2 0.581077 0.528710 0.844234
Si Si3 0.700781 0.349627 0.709828
Si Si4 0.499429 0.764483 0.903751
Si Si5 0.042627 0.946194 0.348096
Si Si6 0.012743 0.395016 0.241625
Si Si7 0.639358 0.136486 0.928094
Si Si8 0.167985 0.598501 0.703415
O O1 0.475926 0.648686 0.640914
O O2 0.284341 0.827337 0.297568
O O3 0.175827 0.926189 0.358867
O O4 0.500000 0.000000 0.500000
O O5 0.516092 0.677742 0.837321
O O6 0.543019 0.303718 0.879659
O O7 0.806634 0.482980 0.021305
O O8 0.500000 0.500000 0.500000
O O9 0.849999 0.482727 0.749118
O O10 0.706951 0.253533 0.849164
O O11 0.300667 0.726887 0.807566
O O12 0.510871 0.994637 0.845965
O O13 0.680018 0.614952 0.130453
O O14 0.092096 0.738039 0.514155
O O15 0.071744 0.150287 0.352139
O O16 0.826212 0.996390 0.151160
O O17 0.986768 0.434162 0.321718
#
# Coordination Sequence:
#
# PCOD9034898 Si02
#       8
#     2   2   2   2   2   2   2   2
#     4  12  25  41  69 101 139 185 229 286 349 415
#     4  10  22  45  69 102 140 181 227 285 347 411
#     4  12  26  45  71 100 139 181 228 292 351 415
#     4  10  22  45  73 102 141 182 235 286 343 413
#     4  11  25  43  70 105 137 183 236 287 347 413
#     4  10  25  45  71 102 140 181 232 287 349 414
#     4  11  26  45  71 106 137 184 237 284 354 411
#     4  10  22  45  72  99 142 188 227 291 345 407
#
# _framework density 23.366674
#
# number of rings (size 3 to 8) (size 9 to 14) (size 15 to 20)
#    0.000    1.250    2.500    1.875    7.000    2.000 
#    0.000   10.000    0.000    0.000    0.000    0.000 
#    0.000    0.000    0.000    0.000    0.000    0.000 
#
# Total GULP energy -89487.486728 kJ/mol
# GULP energy per Si atom -5592.967920 kJ/mol
# Density = 2.331349 g / cm^3
# Si number density = 23.366674 Si / 1000 Ang^3
#
#
#
# Elastic Constant Matrix: (Units=GPa)
#
#
# Indices 1 2 3 4 5 6 
#
# 1 90.7457 30.3227 1.8940 0.0711 -6.8355 -9.0118
# 2 30.3227 117.6712 -6.4071 3.3852 0.3732 4.1994
# 3 1.8940 -6.4071 68.1099 -4.7994 -12.3465 -12.3158
# 4 0.0711 3.3852 -4.7994 18.2235 -2.5069 -2.4260
# 5 -6.8355 0.3732 -12.3465 -2.5069 29.5834 2.9484
# 6 -9.0118 4.1994 -12.3158 -2.4260 2.9484 42.4419
#
#
#
# Elastic Compliance Matrix: (Units=1/GPa)
#
#
# Indices 1 2 3 4 5 6 
#
# 1 0.012675 -0.003400 0.000538 0.001547 0.003022 0.003063
# 2 -0.003400 0.009514 0.000430 -0.001954 -0.000733 -0.001599
# 3 0.000538 0.000430 0.017380 0.006173 0.007402 0.004954
# 4 0.001547 -0.001954 0.006173 0.058561 0.007408 0.005146
# 5 0.003022 -0.000733 0.007402 0.007408 0.038164 0.000634
# 6 0.003063 -0.001599 0.004954 0.005146 0.000634 0.026058
#
#
# Mechanical properties :
#
#
# Convention : Reuss Voigt Hill
#
# Bulk Modulus (GPa) = 28.81475 36.46064 32.63770
# Shear Modulus (GPa) = 27.96658 34.76424 31.36541
#
# Velocity S-wave (km/s) = 3.46332 3.86135 3.66773
# Velocity P-wave (km/s) = 5.32457 5.95966 5.65105
#
# Compressibility (1/GPa) = 0.03470445
#
# Stress axis : x y z
#
# Youngs Moduli (GPa) = 78.89308 105.11337 57.53690
#
# Poissons Ratio (x) = 0.35743 -0.03097
# Poissons Ratio (y) = 0.26827 -0.02473
# Poissons Ratio (z) = -0.04247 -0.04517
#
# Static dielectric constant tensor:
#      x y z
#    x 1.988280 -0.017610 -0.035040 
#    y -0.017610 1.911200 -0.009830 
#    z -0.035040 -0.009830 1.871570 
# 
# From -- ./inp_files/515115.got.cif
#   From: 2010.05.17/outbox.cif.g08.bks.cpg/sg2_258_cif.got.tgz:515115.got - 2010.06.03 11:33:40.
