data_PCOD9034142
_publ_section_title
;
Structure prediction by ZEFSAII (Michael W. Deem and Ramdas Pophale) SiO2 
 PCOD9034142
Probable space group: P -1
;
_chemical_formula_sum "Si O2"
_cell_formula_units_Z 16
_cell_length_a 8.975502
_cell_length_b 21.609789
_cell_length_c 21.411115
_cell_angle_alpha 19.506269
_cell_angle_beta 47.568870
_cell_angle_gamma 38.231228
_cell_volume 813.557344
_symmetry_space_group_name_H-M "P -1"
_symmetry_group_IT_number 2
_symmetry_cell_setting 'triclinic'
loop_
_space_group_symop_operation_xyz
x,y,z
-x,-y,-z
loop_
_atom_site_type_symbol
_atom_site_label
_atom_site_fract_x
_atom_site_fract_y
_atom_site_fract_z
Si Si1 0.919889 0.853007 0.356310
Si Si2 0.038548 0.198604 0.956121
Si Si3 0.753416 0.031529 0.014423
Si Si4 0.792247 0.705737 0.408016
Si Si5 0.665666 0.880196 0.722565
Si Si6 0.882263 0.498329 0.129726
Si Si7 0.218010 0.427886 0.769831
Si Si8 0.505956 0.362442 0.350326
O O1 0.919108 0.731079 0.408841
O O2 0.074991 0.661999 0.547415
O O3 0.622202 0.030043 0.289523
O O4 0.027616 0.994996 0.176867
O O5 0.750739 0.433168 0.806820
O O6 0.185541 0.254151 0.906943
O O7 0.164346 0.121532 0.925486
O O8 0.518681 0.296057 0.815579
O O9 0.667437 0.938091 0.181613
O O10 0.000000 0.000000 0.000000
O O11 0.594788 0.667522 0.527382
O O12 0.000000 0.500000 0.500000
O O13 0.851104 0.712764 0.774606
O O14 0.642808 0.114475 0.513376
O O15 0.777362 0.726492 0.900567
O O16 0.896048 0.528880 0.170057
O O17 0.686127 0.437210 0.235200
#
# Coordination Sequence:
#
# PCOD9034142 Si02
#       8
#     2   2   2   2   2   2   2   2
#     4  11  23  42  64  93 135 173 210 270 330 380
#     4  12  23  42  65  94 138 174 207 268 330 378
#     4  12  24  43  67  92 129 174 222 261 315 382
#     4  11  21  38  67  97 125 173 221 261 316 389
#     4  10  22  44  71  97 125 167 227 271 318 393
#     4  11  24  42  71  98 126 171 221 272 326 384
#     4  12  26  42  62  98 133 169 213 271 325 389
#     4  11  21  41  69  94 132 171 215 271 323 380
#
# _framework density 19.666715
#
# number of rings (size 3 to 8) (size 9 to 14) (size 15 to 20)
#    0.000    0.750    6.250    3.000    0.000    3.000 
#    0.000    0.625    0.000    0.000    0.000    0.000 
#    0.000    0.000    0.000    0.000    0.000    0.000 
#
# Total GULP energy -89486.056857 kJ/mol
# GULP energy per Si atom -5592.878554 kJ/mol
# Density = 1.962195 g / cm^3
# Si number density = 19.666715 Si / 1000 Ang^3
#
#
#
# Elastic Constant Matrix: (Units=GPa)
#
#
# Indices 1 2 3 4 5 6 
#
# 1 83.4322 57.2862 36.6969 2.1771 12.6999 14.2282
# 2 57.2862 114.7848 38.3532 -17.7652 15.6026 17.6571
# 3 36.6969 38.3532 107.4187 -3.1268 17.4430 14.4005
# 4 2.1771 -17.7652 -3.1268 33.8937 -7.4526 1.1610
# 5 12.6999 15.6026 17.4430 -7.4526 37.3713 1.1264
# 6 14.2282 17.6571 14.4005 1.1610 1.1264 31.6739
#
#
#
# Elastic Compliance Matrix: (Units=1/GPa)
#
#
# Indices 1 2 3 4 5 6 
#
# 1 0.021224 -0.009955 -0.003131 -0.007459 -0.003016 -0.002180
# 2 -0.009955 0.016336 -0.001462 0.009032 -0.000825 -0.004272
# 3 -0.003131 -0.001462 0.011929 -0.000205 -0.003842 -0.003058
# 4 -0.007459 0.009032 -0.000205 0.036161 0.006165 -0.003136
# 5 -0.003016 -0.000825 -0.003842 0.006165 0.031083 0.002230
# 6 -0.002180 -0.004272 -0.003058 -0.003136 0.002230 0.036358
#
#
# Mechanical properties :
#
#
# Convention : Reuss Voigt Hill
#
# Bulk Modulus (GPa) = 49.03941 63.36759 56.20350
# Shear Modulus (GPa) = 26.45693 32.14107 29.29900
#
# Velocity S-wave (km/s) = 3.67176 4.04702 3.86395
# Velocity P-wave (km/s) = 6.55478 7.35721 6.96756
#
# Compressibility (1/GPa) = 0.02039176
#
# Stress axis : x y z
#
# Youngs Moduli (GPa) = 47.11648 61.21450 83.82949
#
# Poissons Ratio (x) = 0.60940 0.26249
# Poissons Ratio (y) = 0.46905 0.12258
# Poissons Ratio (z) = 0.14753 0.08951
#
# Static dielectric constant tensor:
#      x y z
#    x 1.676260 -0.003220 -0.002460 
#    y -0.003220 1.681210 -0.010530 
#    z -0.002460 -0.010530 1.708760 
# 
# From -- ./inp_files/299686.got.cif
#   From: 2010.05.17/outbox.cif.g08.bks.cpg/sg2_150_cif.got.tgz:299686.got - 2010.06.03 11:33:40.
