data_PCOD9034433
_publ_section_title
;
Structure prediction by ZEFSAII (Michael W. Deem and Ramdas Pophale) SiO2 
 PCOD9034433
Probable space group: P -1
;
_chemical_formula_sum "Si O2"
_cell_formula_units_Z 14
_cell_length_a 13.653092
_cell_length_b 7.599010
_cell_length_c 6.876713
_cell_angle_alpha 83.375768
_cell_angle_beta 79.804765
_cell_angle_gamma 132.209981
_cell_volume 492.516279
_symmetry_space_group_name_H-M "P -1"
_symmetry_group_IT_number 2
_symmetry_cell_setting 'triclinic'
loop_
_space_group_symop_operation_xyz
x,y,z
-x,-y,-z
loop_
_atom_site_type_symbol
_atom_site_label
_atom_site_fract_x
_atom_site_fract_y
_atom_site_fract_z
Si Si1 0.559256 0.859549 0.441208
Si Si2 0.033763 0.175603 0.714302
Si Si3 0.982502 0.613311 0.671397
Si Si4 0.706940 0.744395 0.907239
Si Si5 0.700335 0.677504 0.460732
Si Si6 0.181265 0.658797 0.862476
Si Si7 0.481329 0.162882 0.099217
O O1 0.395438 0.619090 0.487134
O O2 0.580044 0.934609 0.650044
O O3 0.654184 0.118210 0.261441
O O4 0.623135 0.822288 0.968431
O O5 0.143830 0.156088 0.691407
O O6 0.104290 0.406191 0.804859
O O7 0.039181 0.242292 0.474710
O O8 0.872885 0.951839 0.864213
O O9 0.110815 0.736748 0.760473
O O10 0.000000 0.500000 0.500000
O O11 0.854699 0.408391 0.888986
O O12 0.703145 0.725772 0.678697
O O13 0.623243 0.746441 0.384478
O O14 0.622675 0.463114 0.040448
O O15 0.500000 0.000000 0.000000
#
# Coordination Sequence:
#
# PCOD9034433 Si02
#       7
#     2   2   2   2   2   2   2
#     4  10  23  49  73 110 155 203 274 326 392 493
#     4  11  23  46  75 114 159 201 259 331 406 472
#     4   9  20  44  69 111 154 198 259 326 393 472
#     4  10  23  48  72 114 158 202 267 328 395 481
#     4  10  23  47  73 105 158 210 259 334 403 470
#     4  10  22  44  74 114 149 204 261 329 391 476
#     4  10  23  48  76 112 154 214 262 324 404 477
#
# _framework density 28.425454999999999
#
# number of rings (size 3 to 8) (size 9 to 14) (size 15 to 20)
#    0.000    2.000    0.000    2.143    2.000    0.571 
#   43.714    2.857    0.000    0.000    0.000    0.000 
#    0.000    0.000    0.000    0.000    0.000    0.000 
#
# Total GULP energy -78469.513538 kJ/mol
# GULP energy per Si atom -5604.965253 kJ/mol
# Density = 2.836076 g / cm^3
# Si number density = 28.425455 Si / 1000 Ang^3
#
#
#
# Elastic Constant Matrix: (Units=GPa)
#
#
# Indices 1 2 3 4 5 6 
#
# 1 193.3324 82.4004 58.9842 -12.5359 -22.6719 -19.6777
# 2 82.4004 198.4827 81.6832 -23.5459 -21.8704 -7.6214
# 3 58.9842 81.6832 253.5725 8.5984 10.3139 2.7571
# 4 -12.5359 -23.5459 8.5984 43.2100 4.5820 -10.4607
# 5 -22.6719 -21.8704 10.3139 4.5820 34.1806 1.5206
# 6 -19.6777 -7.6214 2.7571 -10.4607 1.5206 54.2817
#
#
#
# Elastic Compliance Matrix: (Units=1/GPa)
#
#
# Indices 1 2 3 4 5 6 
#
# 1 0.007113 -0.001696 -0.001343 0.001649 0.003700 0.002623
# 2 -0.001696 0.007689 -0.002393 0.004064 0.003916 0.001260
# 3 -0.001343 -0.002393 0.005282 -0.002732 -0.003582 -0.001517
# 4 0.001649 0.004064 -0.002732 0.027946 0.000475 0.006679
# 5 0.003700 0.003916 -0.003582 0.000475 0.035181 0.001179
# 6 0.002623 0.001260 -0.001517 0.006679 0.001179 0.020881
#
#
# Mechanical properties :
#
#
# Convention : Reuss Voigt Hill
#
# Bulk Modulus (GPa) = 108.46996 121.28036 114.87516
# Shear Modulus (GPa) = 42.36190 54.48910 48.42550
#
# Velocity S-wave (km/s) = 3.86460 4.38301 4.13194
# Velocity P-wave (km/s) = 7.62600 8.26880 7.95389
#
# Compressibility (1/GPa) = 0.00921914
#
# Stress axis : x y z
#
# Youngs Moduli (GPa) = 140.58891 130.05190 189.32793
#
# Poissons Ratio (x) = 0.22058 0.25429
# Poissons Ratio (y) = 0.23846 0.45310
# Poissons Ratio (z) = 0.18883 0.31124
#
# Static dielectric constant tensor:
#      x y z
#    x 2.394830 -0.050750 0.052020 
#    y -0.050750 2.244360 -0.034260 
#    z 0.052020 -0.034260 2.143670 
# 
# From -- ./inp_files/118170.got.cif
#   From: 2010.05.17/outbox.cif.g08.bks.cpg/sg2_60_cif.got.tgz:118170.got - 2010.06.03 11:33:40.
