data_PCOD9034235
_publ_section_title
;
Structure prediction by ZEFSAII (Michael W. Deem and Ramdas Pophale) SiO2 
 PCOD9034235
Probable space group: P -1
;
_chemical_formula_sum "Si O2"
_cell_formula_units_Z 14
_cell_length_a 14.555016
_cell_length_b 4.910332
_cell_length_c 23.283555
_cell_angle_alpha 87.972981
_cell_angle_beta 19.844074
_cell_angle_gamma 84.541402
_cell_volume 555.072664
_symmetry_space_group_name_H-M "P -1"
_symmetry_group_IT_number 2
_symmetry_cell_setting 'triclinic'
loop_
_space_group_symop_operation_xyz
x,y,z
-x,-y,-z
loop_
_atom_site_type_symbol
_atom_site_label
_atom_site_fract_x
_atom_site_fract_y
_atom_site_fract_z
Si Si1 0.162843 0.731904 0.589728
Si Si2 0.220434 0.476843 0.026336
Si Si3 0.970903 0.004283 0.222252
Si Si4 0.500000 0.500000 0.500000
Si Si5 0.834183 0.521464 0.684737
Si Si6 0.163871 0.710197 0.930314
Si Si7 0.000000 0.000000 0.500000
Si Si8 0.324224 0.066288 0.390665
O O1 0.382823 0.546062 0.501743
O O2 0.976279 0.941757 0.742144
O O3 0.975859 0.572003 0.661374
O O4 0.317151 0.904076 0.453943
O O5 0.518293 0.501381 0.874775
O O6 0.173776 0.626919 0.991632
O O7 0.168935 0.165437 0.067076
O O8 0.990742 0.681767 0.198536
O O9 0.678133 0.192096 0.381298
O O10 0.884635 0.759683 0.610812
O O11 0.008367 0.228275 0.559997
O O12 0.473017 0.721679 0.729113
O O13 0.000000 0.500000 0.000000
O O14 0.000000 0.000000 0.000000
O O15 0.664324 0.118336 0.671094
#
# Coordination Sequence:
#
# PCOD9034235 Si02
#       8
#     2   2   2   1   2   2   1   2
#     4   9  24  45  74 109 135 203 240 314 362 457
#     4  12  27  47  72 113 149 194 244 319 380 440
#     4  10  26  47  76 103 152 191 249 310 371 455
#     4   8  22  50  72 100 146 198 250 292 372 442
#     4  11  25  41  76 105 148 195 248 307 384 443
#     4  12  30  47  73 109 153 200 251 311 377 443
#     4  10  22  44  72 106 144 194 250 308 366 460
#     4  11  25  45  77 105 152 192 261 304 380 455
#
# _framework density 25.221921999999999
#
# number of rings (size 3 to 8) (size 9 to 14) (size 15 to 20)
#    0.857    0.571    1.429    1.286   12.000    2.857 
#    0.000    0.000    0.000    0.000    0.000    0.000 
#    0.000    0.000    0.000    0.000    0.000    0.000 
#
# Total GULP energy -77980.091694 kJ/mol
# GULP energy per Si atom -5570.006550 kJ/mol
# Density = 2.516452 g / cm^3
# Si number density = 25.221922 Si / 1000 Ang^3
#
#
#
# Elastic Constant Matrix: (Units=GPa)
#
#
# Indices 1 2 3 4 5 6 
#
# 1 201.1849 45.3465 31.7253 -17.2491 -0.4887 -25.3559
# 2 45.3465 141.2911 33.0974 -23.3715 -4.8624 -2.3059
# 3 31.7253 33.0974 65.7310 -19.2824 -7.7156 -12.8305
# 4 -17.2491 -23.3715 -19.2824 52.9382 -1.1804 3.5486
# 5 -0.4887 -4.8624 -7.7156 -1.1804 32.1214 -1.6467
# 6 -25.3559 -2.3059 -12.8305 3.5486 -1.6467 36.1104
#
#
#
# Elastic Compliance Matrix: (Units=1/GPa)
#
#
# Indices 1 2 3 4 5 6 
#
# 1 0.006013 -0.001475 -0.001316 0.000583 -0.000242 0.003592
# 2 -0.001475 0.008688 -0.003296 0.002290 0.000490 -0.001854
# 3 -0.001316 -0.003296 0.020850 0.005422 0.004995 0.005969
# 4 0.000583 0.002290 0.005422 0.022093 0.002492 0.000424
# 5 -0.000242 0.000490 0.004995 0.002492 0.032641 0.002880
# 6 0.003592 -0.001854 0.005969 0.000424 0.002880 0.032307
#
#
# Mechanical properties :
#
#
# Convention : Reuss Voigt Hill
#
# Bulk Modulus (GPa) = 42.77457 69.83839 56.30648
# Shear Modulus (GPa) = 35.07363 44.10318 39.58840
#
# Velocity S-wave (km/s) = 3.73312 4.18617 3.96612
# Velocity P-wave (km/s) = 5.96470 7.14948 6.58379
#
# Compressibility (1/GPa) = 0.02337838
#
# Stress axis : x y z
#
# Youngs Moduli (GPa) = 166.31994 115.09685 47.96163
#
# Poissons Ratio (x) = 0.16975 0.06311
# Poissons Ratio (y) = 0.24529 0.15806
# Poissons Ratio (z) = 0.21884 0.37932
#
# Static dielectric constant tensor:
#      x y z
#    x 2.330580 0.159550 -0.403540 
#    y 0.159550 1.974940 0.127910 
#    z -0.403540 0.127910 2.968430 
# 
# From -- ./inp_files/611164.got.cif
#   From: 2010.05.17/outbox.cif.g08.bks.cpg/sg2_306_cif.got.tgz:611164.got - 2010.06.03 11:33:40.
