data_PCOD9034768
_publ_section_title
;
Structure prediction by ZEFSAII (Michael W. Deem and Ramdas Pophale) SiO2 
 PCOD9034768
Probable space group: P -1
;
_chemical_formula_sum "Si O2"
_cell_formula_units_Z 12
_cell_length_a 8.416383
_cell_length_b 16.309007
_cell_length_c 6.869873
_cell_angle_alpha 130.073319
_cell_angle_beta 128.292540
_cell_angle_gamma 51.579764
_cell_volume 526.045602
_symmetry_space_group_name_H-M "P -1"
_symmetry_group_IT_number 2
_symmetry_cell_setting 'triclinic'
loop_
_space_group_symop_operation_xyz
x,y,z
-x,-y,-z
loop_
_atom_site_type_symbol
_atom_site_label
_atom_site_fract_x
_atom_site_fract_y
_atom_site_fract_z
Si Si1 0.242814 0.165230 0.427437
Si Si2 0.781544 0.567450 0.820682
Si Si3 0.203508 0.199653 0.999132
Si Si4 0.599812 0.097477 0.898475
Si Si5 0.845441 0.242156 0.516567
Si Si6 0.497213 0.506859 0.238773
O O1 0.224935 0.203168 0.250167
O O2 0.464584 0.156178 0.692060
O O3 0.033308 0.242088 0.508575
O O4 0.252386 0.033571 0.235909
O O5 0.788363 0.682588 0.906201
O O6 0.724033 0.497959 0.494138
O O7 0.591639 0.581698 0.856937
O O8 0.000000 0.500000 0.000000
O O9 0.407435 0.099315 0.903459
O O10 0.981945 0.189881 0.736587
O O11 0.726356 0.166566 0.208830
O O12 0.673153 0.366883 0.633812
O O13 0.500000 0.500000 0.000000
#
# Coordination Sequence:
#
# PCOD9034768 Si02
#       6
#     2   2   2   2   2   2
#     4  10  24  42  72  99 138 177 216 276 338 394
#     4  11  24  48  66  97 134 173 230 277 328 404
#     4  11  23  42  68 102 134 177 221 273 334 398
#     4  10  22  45  68 101 138 174 223 272 331 402
#     4  11  23  44  65 102 135 173 226 274 330 402
#     4  11  26  46  68  96 131 181 227 277 336 390
#
# _framework density 22.811710999999999
#
# number of rings (size 3 to 8) (size 9 to 14) (size 15 to 20)
#    0.000    1.333    3.333    1.000    0.000    8.000 
#    0.000    0.000    0.000    0.000    0.000    0.000 
#    0.000    0.000    0.000    0.000    0.000    0.000 
#
# Total GULP energy -67122.544203 kJ/mol
# GULP energy per Si atom -5593.545350 kJ/mol
# Density = 2.275979 g / cm^3
# Si number density = 22.811711 Si / 1000 Ang^3
#
#
#
# Elastic Constant Matrix: (Units=GPa)
#
#
# Indices 1 2 3 4 5 6 
#
# 1 52.4071 42.3486 81.1490 -17.2171 -8.7946 -2.4025
# 2 42.3486 104.6659 81.3556 -5.8963 -8.2930 -6.6274
# 3 81.1490 81.3556 219.3469 -32.1012 -6.7541 19.9415
# 4 -17.2171 -5.8963 -32.1012 49.6174 5.0145 -6.3908
# 5 -8.7946 -8.2930 -6.7541 5.0145 53.0405 -3.4304
# 6 -2.4025 -6.6274 19.9415 -6.3908 -3.4304 30.2830
#
#
#
# Elastic Compliance Matrix: (Units=1/GPa)
#
#
# Indices 1 2 3 4 5 6 
#
# 1 0.060829 -0.006531 -0.020322 0.008994 0.006885 0.019457
# 2 -0.006531 0.015834 -0.004283 -0.002608 0.001442 0.005380
# 3 -0.020322 -0.004283 0.014814 0.000720 -0.003029 -0.012496
# 4 0.008994 -0.002608 0.000720 0.024113 -0.000803 0.004666
# 5 0.006885 0.001442 -0.003029 -0.000803 0.020233 0.004979
# 6 0.019457 0.005380 -0.012496 0.004666 0.004979 0.045520
#
#
# Mechanical properties :
#
#
# Convention : Reuss Voigt Hill
#
# Bulk Modulus (GPa) = 34.24225 87.34737 60.79481
# Shear Modulus (GPa) = 19.73549 38.02594 28.88071
#
# Velocity S-wave (km/s) = 2.94453 4.08726 3.56202
# Velocity P-wave (km/s) = 5.15788 7.78768 6.60499
#
# Compressibility (1/GPa) = 0.02920369
#
# Stress axis : x y z
#
# Youngs Moduli (GPa) = 16.43956 63.15563 67.50337
#
# Poissons Ratio (x) = 0.41249 1.37182
# Poissons Ratio (y) = 0.10737 0.28911
# Poissons Ratio (z) = 0.33409 0.27049
#
# Static dielectric constant tensor:
#      x y z
#    x 1.849060 -0.011620 0.038960 
#    y -0.011620 1.892460 -0.000460 
#    z 0.038960 -0.000460 1.875010 
# 
# From -- ./inp_files/49467.got.cif
#   From: 2010.05.17/outbox.cif.g08.bks.cpg/sg2_25_cif.got.tgz:49467.got - 2010.06.03 11:33:40.
