data_PCOD9034557
_publ_section_title
;
Structure prediction by ZEFSAII (Michael W. Deem and Ramdas Pophale) SiO2 
 PCOD9034557
Probable space group: P -1
;
_chemical_formula_sum "Si O2"
_cell_formula_units_Z 16
_cell_length_a 15.287478
_cell_length_b 11.829496
_cell_length_c 9.151754
_cell_angle_alpha 111.833078
_cell_angle_beta 51.213818
_cell_angle_gamma 135.124461
_cell_volume 902.406469
_symmetry_space_group_name_H-M "P -1"
_symmetry_group_IT_number 2
_symmetry_cell_setting 'triclinic'
loop_
_space_group_symop_operation_xyz
x,y,z
-x,-y,-z
loop_
_atom_site_type_symbol
_atom_site_label
_atom_site_fract_x
_atom_site_fract_y
_atom_site_fract_z
Si Si1 0.046129 0.436597 0.295833
Si Si2 0.619065 0.900705 0.832530
Si Si3 0.296270 0.777644 0.158660
Si Si4 0.699173 0.566700 0.939119
Si Si5 0.412816 0.257582 0.921687
Si Si6 0.480397 0.801109 0.506123
Si Si7 0.469548 0.603938 0.666684
Si Si8 0.714062 0.173880 0.478384
O O1 0.159087 0.599400 0.159920
O O2 0.147967 0.397252 0.223840
O O3 0.000000 0.500000 0.500000
O O4 0.889300 0.278888 0.322179
O O5 0.610275 0.773889 0.679447
O O6 0.720254 0.089698 0.783770
O O7 0.451079 0.836549 0.963856
O O8 0.644728 0.875861 0.959214
O O9 0.306649 0.769251 0.319538
O O10 0.568508 0.418523 0.902897
O O11 0.697370 0.707854 0.972006
O O12 0.641930 0.504711 0.135458
O O13 0.450009 0.222995 0.713109
O O14 0.421143 0.666895 0.625405
O O15 0.354879 0.798762 0.568727
O O16 0.613143 0.982211 0.511360
O O17 0.500000 0.500000 0.500000
#
# Coordination Sequence:
#
# PCOD9034557 Si02
#       8
#     2   2   2   2   2   2   2   2
#     4  10  19  36  56  79 110 148 184 222 281 329
#     4  10  19  32  56  85 108 140 184 229 271 317
#     4  10  17  32  57  81 110 141 182 227 272 327
#     4  10  20  35  57  84 107 143 189 226 268 336
#     4  10  18  33  57  83 107 138 186 231 269 318
#     4  11  20  35  54  85 111 138 190 231 278 320
#     4  11  20  33  56  83 115 143 174 233 277 322
#     4  10  21  33  55  80 112 146 180 232 275 329
#
# _framework density 17.730369
#
# number of rings (size 3 to 8) (size 9 to 14) (size 15 to 20)
#    0.000    1.750    6.250    0.750    0.000    0.000 
#    0.000    1.250    0.000    3.000    0.000    0.000 
#    0.000    0.000    0.000    0.000    0.000    0.000 
#
# Total GULP energy -89101.988612 kJ/mol
# GULP energy per Si atom -5568.874288 kJ/mol
# Density = 1.769001 g / cm^3
# Si number density = 17.730369 Si / 1000 Ang^3
#
#
#
# Elastic Constant Matrix: (Units=GPa)
#
#
# Indices 1 2 3 4 5 6 
#
# 1 95.0808 43.5208 27.9484 -5.9583 -13.3550 -15.3231
# 2 43.5208 72.6645 13.8499 -1.1298 -14.5656 -5.4283
# 3 27.9484 13.8499 52.0810 18.2726 -8.7744 2.0199
# 4 -5.9583 -1.1298 18.2726 25.8108 -0.7878 0.6779
# 5 -13.3550 -14.5656 -8.7744 -0.7878 34.9228 -4.3115
# 6 -15.3231 -5.4283 2.0199 0.6779 -4.3115 33.0663
#
#
#
# Elastic Compliance Matrix: (Units=1/GPa)
#
#
# Indices 1 2 3 4 5 6 
#
# 1 0.021459 -0.008716 -0.014220 0.014468 0.002486 0.009410
# 2 -0.008716 0.019809 0.000821 -0.001567 0.005082 -0.000142
# 3 -0.014220 0.000821 0.037812 -0.029726 0.002772 -0.007794
# 4 0.014468 -0.001567 -0.029726 0.062868 -0.000316 0.006933
# 5 0.002486 0.005082 0.002772 -0.000316 0.033153 0.006146
# 6 0.009410 -0.000142 -0.007794 0.006933 0.006146 0.035715
#
#
# Mechanical properties :
#
#
# Convention : Reuss Voigt Hill
#
# Bulk Modulus (GPa) = 28.69363 43.38496 36.03929
# Shear Modulus (GPa) = 18.75026 27.72711 23.23869
#
# Velocity S-wave (km/s) = 3.25549 3.95881 3.62425
# Velocity P-wave (km/s) = 5.50903 6.73933 6.15500
#
# Compressibility (1/GPa) = 0.03485094
#
# Stress axis : x y z
#
# Youngs Moduli (GPa) = 46.60054 50.48135 26.44644
#
# Poissons Ratio (x) = 0.43999 0.37607
# Poissons Ratio (y) = 0.40616 -0.02171
# Poissons Ratio (z) = 0.66266 -0.04144
#
# Static dielectric constant tensor:
#      x y z
#    x 1.614030 -0.012360 0.007470 
#    y -0.012360 1.659500 0.007380 
#    z 0.007470 0.007380 1.632730 
# 
# From -- ./inp_files/266672.got.cif
#   From: 2010.05.17/outbox.cif.g08.bks.cpg/sg2_134_cif.got.tgz:266672.got - 2010.06.03 11:33:40.
