data_PCOD9034906
_publ_section_title
;
Structure prediction by ZEFSAII (Michael W. Deem and Ramdas Pophale) SiO2 
 PCOD9034906
Probable space group: P -1
;
_chemical_formula_sum "Si O2"
_cell_formula_units_Z 11
_cell_length_a 16.244130
_cell_length_b 5.829730
_cell_length_c 9.676297
_cell_angle_alpha 81.967598
_cell_angle_beta 35.835166
_cell_angle_gamma 100.263657
_cell_volume 459.189135
_symmetry_space_group_name_H-M "P -1"
_symmetry_group_IT_number 2
_symmetry_cell_setting 'triclinic'
loop_
_space_group_symop_operation_xyz
x,y,z
-x,-y,-z
loop_
_atom_site_type_symbol
_atom_site_label
_atom_site_fract_x
_atom_site_fract_y
_atom_site_fract_z
Si Si1 0.703810 0.276182 0.840024
Si Si2 0.084719 0.240366 0.684802
Si Si3 0.500000 0.500000 0.500000
Si Si4 0.250246 0.575409 0.675609
Si Si5 0.641517 0.914919 0.707453
Si Si6 0.247380 0.889647 0.913964
O O1 0.845612 0.515825 0.540768
O O2 0.652713 0.010191 0.842175
O O3 0.544130 0.309233 0.053781
O O4 0.750927 0.238053 0.931129
O O5 0.100512 0.351638 0.809480
O O6 0.212376 0.138564 0.512516
O O7 0.900611 0.050019 0.905174
O O8 0.378129 0.480297 0.542026
O O9 0.587342 0.831203 0.351097
O O10 0.214851 0.668998 0.861063
O O11 0.327506 0.835858 0.451367
#
# Coordination Sequence:
#
# PCOD9034906 Si02
#       6
#     2   2   1   2   2   2
#     4  10  23  43  71 100 141 180 230 286 336 411
#     4  11  25  44  74 102 140 182 224 289 350 401
#     4  12  26  42  70  98 138 188 224 280 342 408
#     4  11  25  44  70 101 140 182 229 284 342 415
#     4  10  22  45  69 103 138 182 231 274 352 412
#     4  12  26  45  69 108 139 178 234 284 343 410
#
# _framework density 23.955272000000001
#
# number of rings (size 3 to 8) (size 9 to 14) (size 15 to 20)
#    0.000    1.091    1.818    3.273    2.545    8.000 
#    0.000    0.000    0.000    0.000    0.000    0.000 
#    0.000    0.000    0.000    0.000    0.000    0.000 
#
# Total GULP energy -61335.490823 kJ/mol
# GULP energy per Si atom -5575.953711 kJ/mol
# Density = 2.390075 g / cm^3
# Si number density = 23.955272 Si / 1000 Ang^3
#
#
#
# Elastic Constant Matrix: (Units=GPa)
#
#
# Indices 1 2 3 4 5 6 
#
# 1 168.0186 45.8706 49.5070 23.9486 24.8986 6.7737
# 2 45.8706 60.2020 31.5151 7.4762 10.2531 -0.5161
# 3 49.5070 31.5151 58.0023 12.3570 -3.7087 9.7910
# 4 23.9486 7.4762 12.3570 32.3741 1.3581 4.9135
# 5 24.8986 10.2531 -3.7087 1.3581 50.4055 -0.5828
# 6 6.7737 -0.5161 9.7910 4.9135 -0.5828 27.9946
#
#
#
# Elastic Compliance Matrix: (Units=1/GPa)
#
#
# Indices 1 2 3 4 5 6 
#
# 1 0.009862 -0.002898 -0.006338 -0.004072 -0.004634 0.000395
# 2 -0.002898 0.026654 -0.013378 0.000437 -0.004921 0.005692
# 3 -0.006338 -0.013378 0.032811 -0.003670 0.008257 -0.009373
# 4 -0.004072 0.000437 -0.003670 0.035780 0.000643 -0.003990
# 5 -0.004634 -0.004921 0.008257 0.000643 0.023702 -0.001477
# 6 0.000395 0.005692 -0.009373 -0.003990 -0.001477 0.039678
#
#
# Mechanical properties :
#
#
# Convention : Reuss Voigt Hill
#
# Bulk Modulus (GPa) = 41.49422 60.00092 50.74757
# Shear Modulus (GPa) = 22.54820 32.77686 27.66253
#
# Velocity S-wave (km/s) = 3.07133 3.70300 3.40186
# Velocity P-wave (km/s) = 5.47143 6.58668 6.05479
#
# Compressibility (1/GPa) = 0.02409974
#
# Stress axis : x y z
#
# Youngs Moduli (GPa) = 101.40355 37.51750 30.47745
#
# Poissons Ratio (x) = 0.10871 0.19317
# Poissons Ratio (y) = 0.29383 0.40772
# Poissons Ratio (z) = 0.64272 0.50190
#
# Static dielectric constant tensor:
#      x y z
#    x 1.855170 -0.013260 -0.034810 
#    y -0.013260 1.915490 0.142090 
#    z -0.034810 0.142090 1.627800 
# 
# From -- ./inp_files/17188.got.cif
#   From: 2010.05.17/outbox.cif.g08.bks.cpg/sg2_9_cif.got.tgz:17188.got - 2010.06.03 11:33:40.
