data_PCOD9034135
_publ_section_title
;
Structure prediction by ZEFSAII (Michael W. Deem and Ramdas Pophale) SiO2 
 PCOD9034135
Probable space group: P -1
;
_chemical_formula_sum "Si O2"
_cell_formula_units_Z 12
_cell_length_a 8.161302
_cell_length_b 15.853853
_cell_length_c 5.305355
_cell_angle_alpha 118.809251
_cell_angle_beta 68.313386
_cell_angle_gamma 131.290608
_cell_volume 450.553911
_symmetry_space_group_name_H-M "P -1"
_symmetry_group_IT_number 2
_symmetry_cell_setting 'triclinic'
loop_
_space_group_symop_operation_xyz
x,y,z
-x,-y,-z
loop_
_atom_site_type_symbol
_atom_site_label
_atom_site_fract_x
_atom_site_fract_y
_atom_site_fract_z
Si Si1 0.310643 0.751603 0.695432
Si Si2 0.232769 0.022829 0.341516
Si Si3 0.038184 0.124404 0.116082
Si Si4 0.616683 0.638339 0.939565
Si Si5 0.339750 0.547399 0.463566
Si Si6 0.792900 0.164379 0.627584
O O1 0.577922 0.847253 0.680291
O O2 0.235614 0.616766 0.565307
O O3 0.257738 0.782858 0.502503
O O4 0.229944 0.778162 0.031528
O O5 0.313172 0.976411 0.449312
O O6 0.000000 0.000000 0.500000
O O7 0.171089 0.927303 0.018576
O O8 0.252047 0.221802 0.983801
O O9 0.026358 0.192022 0.455993
O O10 0.000000 0.000000 0.000000
O O11 0.428983 0.576070 0.740703
O O12 0.764943 0.591451 0.728862
O O13 0.528517 0.605238 0.223949
#
# Coordination Sequence:
#
# PCOD9034135 Si02
#       6
#     2   2   2   2   2   2
#     4  12  26  44  67  97 140 175 222 271 343 401
#     4  12  25  42  68  98 134 181 226 275 331 393
#     4  12  25  41  69 102 138 175 230 278 335 393
#     4  10  23  43  70 102 129 172 234 281 321 392
#     4  10  22  44  71  96 132 179 225 279 331 390
#     4  12  27  43  63 101 140 181 211 276 345 399
#
# _framework density 26.633883999999998
#
# number of rings (size 3 to 8) (size 9 to 14) (size 15 to 20)
#    0.000    0.667    3.333    4.000    4.667    0.000 
#    0.000    1.667    0.000    0.000    0.000    0.000 
#    0.000    0.000    0.000    0.000    0.000    0.000 
#
# Total GULP energy -66970.617536 kJ/mol
# GULP energy per Si atom -5580.884795 kJ/mol
# Density = 2.657326 g / cm^3
# Si number density = 26.633884 Si / 1000 Ang^3
#
#
#
# Elastic Constant Matrix: (Units=GPa)
#
#
# Indices 1 2 3 4 5 6 
#
# 1 93.2141 36.1749 52.9203 0.2529 0.4480 -40.1477
# 2 36.1749 137.7882 50.6147 3.2728 -3.2966 -26.2450
# 3 52.9203 50.6147 173.9773 -13.0192 -13.5361 -20.8528
# 4 0.2529 3.2728 -13.0192 46.6003 -19.0450 -1.5841
# 5 0.4480 -3.2966 -13.5361 -19.0450 31.1526 7.9954
# 6 -40.1477 -26.2450 -20.8528 -1.5841 7.9954 60.5352
#
#
#
# Elastic Compliance Matrix: (Units=1/GPa)
#
#
# Indices 1 2 3 4 5 6 
#
# 1 0.018940 -0.001045 -0.005066 -0.004404 -0.008184 0.011329
# 2 -0.001045 0.008842 -0.002233 -0.001905 -0.001842 0.002565
# 3 -0.005066 -0.002233 0.008693 0.005659 0.007637 -0.002194
# 4 -0.004404 -0.001905 0.005659 0.032568 0.023262 -0.004018
# 5 -0.008184 -0.001842 0.007637 0.023262 0.052095 -0.009868
# 6 0.011329 0.002565 -0.002194 -0.004018 -0.009868 0.025587
#
#
# Mechanical properties :
#
#
# Convention : Reuss Voigt Hill
#
# Bulk Modulus (GPa) = 50.53623 76.04441 63.29032
# Shear Modulus (GPa) = 29.41022 45.34227 37.37625
#
# Velocity S-wave (km/s) = 3.32662 4.13053 3.75017
# Velocity P-wave (km/s) = 5.81126 7.16673 6.52429
#
# Compressibility (1/GPa) = 0.01978778
#
# Stress axis : x y z
#
# Youngs Moduli (GPa) = 52.79780 113.09953 115.03381
#
# Poissons Ratio (x) = 0.11820 0.58272
# Poissons Ratio (y) = 0.05518 0.25686
# Poissons Ratio (z) = 0.26745 0.25254
#
# Static dielectric constant tensor:
#      x y z
#    x 2.276780 -0.089660 0.074650 
#    y -0.089660 2.181660 -0.107740 
#    z 0.074650 -0.107740 2.230770 
# 
# From -- ./inp_files/30755.got.cif
#   From: 2010.05.17/outbox.cif.g08.bks.cpg/sg2_16_cif.got.tgz:30755.got - 2010.06.03 11:33:40.
