data_PCOD9034272
_publ_section_title
;
Structure prediction by ZEFSAII (Michael W. Deem and Ramdas Pophale) SiO2 
 PCOD9034272
Probable space group: P -1
;
_chemical_formula_sum "Si O2"
_cell_formula_units_Z 16
_cell_length_a 8.213460
_cell_length_b 11.307148
_cell_length_c 11.462550
_cell_angle_alpha 138.560016
_cell_angle_beta 124.998265
_cell_angle_gamma 68.606981
_cell_volume 572.955178
_symmetry_space_group_name_H-M "P -1"
_symmetry_group_IT_number 2
_symmetry_cell_setting 'triclinic'
loop_
_space_group_symop_operation_xyz
x,y,z
-x,-y,-z
loop_
_atom_site_type_symbol
_atom_site_label
_atom_site_fract_x
_atom_site_fract_y
_atom_site_fract_z
Si Si1 0.805569 0.061576 0.024397
Si Si2 0.179676 0.299335 0.019818
Si Si3 0.227833 0.687377 0.212866
Si Si4 0.272243 0.431269 0.396315
Si Si5 0.390917 0.045421 0.766517
Si Si6 0.652527 0.345635 0.016577
Si Si7 0.084168 0.801527 0.579088
Si Si8 0.344859 0.293873 0.583285
O O1 0.785317 0.255420 0.099069
O O2 0.823627 0.092491 0.191303
O O3 0.588348 0.959885 0.824698
O O4 0.000000 0.000000 0.000000
O O5 0.206060 0.511196 0.154461
O O6 0.187476 0.294089 0.158062
O O7 0.351100 0.198180 0.959062
O O8 0.974877 0.221365 0.812188
O O9 0.446523 0.791809 0.407043
O O10 0.232075 0.619093 0.029768
O O11 0.500000 0.500000 0.500000
O O12 0.143585 0.600243 0.463935
O O13 0.276009 0.354085 0.471554
O O14 0.198384 0.898383 0.586401
O O15 0.471567 0.184313 0.800787
O O16 0.595646 0.525069 0.183192
O O17 0.848664 0.803280 0.502815
#
# Coordination Sequence:
#
# PCOD9034272 Si02
#       8
#     2   2   2   2   2   2   2   2
#     4  10  23  42  70 104 137 186 234 285 348 426
#     4  11  24  44  77 102 140 189 241 287 345 429
#     4  11  23  44  71 103 133 192 247 280 339 431
#     4  12  23  44  70 110 144 177 236 304 354 407
#     4  10  24  46  67 108 138 190 232 289 350 431
#     4  10  22  44  72  95 139 186 243 276 340 428
#     4  12  26  42  68 106 151 175 226 305 368 401
#     4  12  24  44  68 109 141 183 234 300 353 406
#
# _framework density 27.925395999999999
#
# number of rings (size 3 to 8) (size 9 to 14) (size 15 to 20)
#    0.750    0.250    3.750    2.625    3.500    1.000 
#    0.000    1.250    0.000    0.000    0.000    0.000 
#    0.000    0.000    0.000    0.000    0.000    0.000 
#
# Total GULP energy -89651.113384 kJ/mol
# GULP energy per Si atom -5603.194586 kJ/mol
# Density = 2.786184 g / cm^3
# Si number density = 27.925396 Si / 1000 Ang^3
#
#
#
# Elastic Constant Matrix: (Units=GPa)
#
#
# Indices 1 2 3 4 5 6 
#
# 1 177.3594 53.9072 27.2612 -7.5569 36.0704 0.1415
# 2 53.9072 94.6090 29.6354 -5.6561 17.2684 0.0770
# 3 27.2612 29.6354 108.0213 -11.3820 10.8264 -3.9934
# 4 -7.5569 -5.6561 -11.3820 50.5038 -1.2929 3.6498
# 5 36.0704 17.2684 10.8264 -1.2929 57.8577 0.9871
# 6 0.1415 0.0770 -3.9934 3.6498 0.9871 57.0382
#
#
#
# Elastic Compliance Matrix: (Units=1/GPa)
#
#
# Indices 1 2 3 4 5 6 
#
# 1 0.007507 -0.003429 -0.000544 0.000528 -0.003543 -0.000025
# 2 -0.003429 0.013653 -0.002705 0.000384 -0.001419 -0.000199
# 3 -0.000544 -0.002705 0.010438 0.001903 -0.000775 0.000627
# 4 0.000528 0.000384 0.001903 0.020428 -0.000323 -0.001170
# 5 -0.003543 -0.001419 -0.000775 -0.000323 0.020060 -0.000370
# 6 -0.000025 -0.000199 0.000627 -0.001170 -0.000370 0.017658
#
#
# Mechanical properties :
#
#
# Convention : Reuss Voigt Hill
#
# Bulk Modulus (GPa) = 54.81697 66.84415 60.83056
# Shear Modulus (GPa) = 45.79582 51.02567 48.41075
#
# Velocity S-wave (km/s) = 4.05400 4.27923 4.16814
# Velocity P-wave (km/s) = 6.44870 6.95733 6.70783
#
# Compressibility (1/GPa) = 0.01824253
#
# Stress axis : x y z
#
# Youngs Moduli (GPa) = 133.20767 73.24401 95.80183
#
# Poissons Ratio (x) = 0.25114 0.05213
# Poissons Ratio (y) = 0.45674 0.25914
# Poissons Ratio (z) = 0.07248 0.19812
#
# Static dielectric constant tensor:
#      x y z
#    x 2.164960 -0.004610 0.111860 
#    y -0.004610 2.164560 0.034190 
#    z 0.111860 0.034190 2.192310 
# 
# From -- ./inp_files/393194.got.cif
#   From: 2010.05.17/outbox.cif.g08.bks.cpg/sg2_197_cif.got.tgz:393194.got - 2010.06.03 11:33:40.
