data_PCOD9034400
_publ_section_title
;
Structure prediction by ZEFSAII (Michael W. Deem and Ramdas Pophale) SiO2 
 PCOD9034400
Probable space group: P -1
;
_chemical_formula_sum "Si O2"
_cell_formula_units_Z 15
_cell_length_a 15.006666
_cell_length_b 14.785927
_cell_length_c 10.310387
_cell_angle_alpha 127.051468
_cell_angle_beta 54.081993
_cell_angle_gamma 161.125802
_cell_volume 589.436270
_symmetry_space_group_name_H-M "P -1"
_symmetry_group_IT_number 2
_symmetry_cell_setting 'triclinic'
loop_
_space_group_symop_operation_xyz
x,y,z
-x,-y,-z
loop_
_atom_site_type_symbol
_atom_site_label
_atom_site_fract_x
_atom_site_fract_y
_atom_site_fract_z
Si Si1 0.029871 0.964270 0.119941
Si Si2 0.738913 0.476031 0.823638
Si Si3 0.520301 0.912047 0.058554
Si Si4 0.000000 0.500000 0.500000
Si Si5 0.453144 0.541040 0.231367
Si Si6 0.333878 0.163916 0.285378
Si Si7 0.003415 0.458980 0.758128
Si Si8 0.153617 0.343254 0.574132
O O1 0.747919 0.767468 0.207430
O O2 0.941447 0.761187 0.958293
O O3 0.250018 0.249318 0.101176
O O4 0.187743 0.088380 0.226894
O O5 0.571460 0.258853 0.894915
O O6 0.542446 0.353724 0.784242
O O7 0.900967 0.532261 0.657646
O O8 0.246348 0.726448 0.103439
O O9 0.752266 0.218306 0.170176
O O10 0.629037 0.931861 0.872083
O O11 0.906993 0.362866 0.607332
O O12 0.290500 0.434073 0.402969
O O13 0.636286 0.491334 0.347214
O O14 0.140033 0.985229 0.421683
O O15 0.112184 0.439586 0.689781
#
# Coordination Sequence:
#
# PCOD9034400 Si02
#       8
#     2   2   2   1   2   2   2   2
#     4  12  27  47  76 103 148 196 248 295 364 420
#     4  11  24  48  76 113 146 187 240 304 368 437
#     4  11  25  44  73 104 147 193 241 289 370 431
#     4  10  22  44  74 104 152 178 226 296 364 446
#     4  12  27  48  74 111 146 193 243 307 356 436
#     4  12  26  47  70 104 145 196 247 303 347 440
#     4  11  24  44  68 111 141 198 229 296 368 433
#     4  12  26  46  72 105 151 186 249 298 361 423
#
# _framework density 25.448045
#
# number of rings (size 3 to 8) (size 9 to 14) (size 15 to 20)
#    0.000    0.533    1.333    7.200    0.000   11.733 
#    2.400    0.000    0.000    0.000    0.000    0.000 
#    0.000    0.000    0.000    0.000    0.000    0.000 
#
# Total GULP energy -83947.441785 kJ/mol
# GULP energy per Si atom -5596.496119 kJ/mol
# Density = 2.539012 g / cm^3
# Si number density = 25.448045 Si / 1000 Ang^3
#
#
#
# Elastic Constant Matrix: (Units=GPa)
#
#
# Indices 1 2 3 4 5 6 
#
# 1 143.5720 35.4935 51.4020 -8.2220 -24.3838 13.7454
# 2 35.4935 113.8925 26.7713 -9.4038 -23.8214 11.2025
# 3 51.4020 26.7713 138.9625 -27.2803 -25.4405 16.1732
# 4 -8.2220 -9.4038 -27.2803 28.1776 -5.1918 -8.6724
# 5 -24.3838 -23.8214 -25.4405 -5.1918 36.5950 -7.8216
# 6 13.7454 11.2025 16.1732 -8.6724 -7.8216 38.7795
#
#
#
# Elastic Compliance Matrix: (Units=1/GPa)
#
#
# Indices 1 2 3 4 5 6 
#
# 1 0.008766 -0.001427 -0.002231 0.000166 0.003151 -0.001092
# 2 -0.001427 0.011083 0.000886 0.005439 0.007583 -0.000320
# 3 -0.002231 0.000886 0.012153 0.013268 0.009496 0.000349
# 4 0.000166 0.005439 0.013268 0.057703 0.023293 0.010439
# 5 0.003151 0.007583 0.009496 0.023293 0.045802 0.007179
# 6 -0.001092 -0.000320 0.000349 0.010439 0.007179 0.029903
#
#
# Mechanical properties :
#
#
# Convention : Reuss Voigt Hill
#
# Bulk Modulus (GPa) = 37.79597 69.30672 53.55134
# Shear Modulus (GPa) = 27.81259 39.56109 33.68684
#
# Velocity S-wave (km/s) = 3.30952 3.94710 3.64228
# Velocity P-wave (km/s) = 5.43031 6.93300 6.22715
#
# Compressibility (1/GPa) = 0.02645785
#
# Stress axis : x y z
#
# Youngs Moduli (GPa) = 114.07805 90.22616 82.28192
#
# Poissons Ratio (x) = 0.12877 0.18357
# Poissons Ratio (y) = 0.16282 -0.07289
# Poissons Ratio (z) = 0.25450 -0.07993
#
# Static dielectric constant tensor:
#      x y z
#    x 2.010970 0.015030 0.037050 
#    y 0.015030 1.948070 0.009160 
#    z 0.037050 0.009160 1.995350 
# 
# From -- ./inp_files/454950.got.cif
#   From: 2010.05.17/outbox.cif.g08.bks.cpg/sg2_228_cif.got.tgz:454950.got - 2010.06.03 11:33:40.
