data_PCOD9034147
_publ_section_title
;
Structure prediction by ZEFSAII (Michael W. Deem and Ramdas Pophale) SiO2 
 PCOD9034147
Probable space group: P -1
;
_chemical_formula_sum "Si O2"
_cell_formula_units_Z 16
_cell_length_a 7.715527
_cell_length_b 13.874016
_cell_length_c 8.594977
_cell_angle_alpha 77.731720
_cell_angle_beta 51.970486
_cell_angle_gamma 86.833186
_cell_volume 704.739040
_symmetry_space_group_name_H-M "P -1"
_symmetry_group_IT_number 2
_symmetry_cell_setting 'triclinic'
loop_
_space_group_symop_operation_xyz
x,y,z
-x,-y,-z
loop_
_atom_site_type_symbol
_atom_site_label
_atom_site_fract_x
_atom_site_fract_y
_atom_site_fract_z
Si Si1 0.332918 0.262017 0.541970
Si Si2 0.769169 0.604268 0.715272
Si Si3 0.003107 0.794742 0.667938
Si Si4 0.303785 0.069486 0.115871
Si Si5 0.766737 0.222003 0.130659
Si Si6 0.961162 0.081631 0.865226
Si Si7 0.430742 0.760043 0.276460
Si Si8 0.281496 0.617085 0.123168
O O1 0.229249 0.348317 0.474398
O O2 0.530505 0.229001 0.336503
O O3 0.155881 0.167682 0.700627
O O4 0.451631 0.292323 0.628988
O O5 0.919369 0.681892 0.710299
O O6 0.824157 0.491877 0.737670
O O7 0.520785 0.605791 0.917845
O O8 0.807191 0.863502 0.716311
O O9 0.072695 0.800573 0.809205
O O10 0.228770 0.815044 0.439427
O O11 0.387677 0.158776 0.921600
O O12 0.099978 0.987325 0.222530
O O13 0.500000 0.000000 0.000000
O O14 0.839335 0.323027 0.962216
O O15 0.762921 0.138341 0.028625
O O16 0.000000 0.000000 0.000000
O O17 0.332380 0.685135 0.223670
#
# Coordination Sequence:
#
# PCOD9034147 Si02
#       8
#     2   2   2   2   2   2   2   2
#     4  10  24  43  66  98 140 173 217 282 323 393
#     4  10  23  43  69  99 136 177 222 275 337 396
#     4  11  24  43  65  98 136 171 224 275 329 401
#     4  12  26  43  65  97 134 176 221 278 332 390
#     4  10  23  44  67  96 138 173 222 278 327 395
#     4  12  23  42  69  95 128 180 223 266 337 395
#     4  11  23  44  67  97 136 172 225 277 327 400
#     4  10  22  44  71  97 133 181 220 276 339 391
#
# _framework density 22.703440000000001
#
# number of rings (size 3 to 8) (size 9 to 14) (size 15 to 20)
#    0.000    1.250    3.750    0.750    5.250    3.500 
#    0.000    0.000    0.000    0.000    0.000    0.000 
#    0.000    0.000    0.000    0.000    0.000    0.000 
#
# Total GULP energy -89295.290856 kJ/mol
# GULP energy per Si atom -5580.955679 kJ/mol
# Density = 2.265177 g / cm^3
# Si number density = 22.703440 Si / 1000 Ang^3
#
#
#
# Elastic Constant Matrix: (Units=GPa)
#
#
# Indices 1 2 3 4 5 6 
#
# 1 51.3017 32.5472 11.0298 1.1549 5.4040 3.0670
# 2 32.5472 109.3873 41.3398 -1.6735 12.4751 -8.9821
# 3 11.0298 41.3398 102.8448 -4.0813 -4.8758 -5.8312
# 4 1.1549 -1.6735 -4.0813 28.0908 0.8971 -2.4885
# 5 5.4040 12.4751 -4.8758 0.8971 35.1997 5.1728
# 6 3.0670 -8.9821 -5.8312 -2.4885 5.1728 34.5594
#
#
#
# Elastic Compliance Matrix: (Units=1/GPa)
#
#
# Indices 1 2 3 4 5 6 
#
# 1 0.024707 -0.007736 0.000129 -0.001824 -0.000361 -0.004259
# 2 -0.007736 0.014252 -0.004855 0.001020 -0.005212 0.004425
# 3 0.000129 -0.004855 0.011889 0.001359 0.003263 0.000342
# 4 -0.001824 0.001020 0.001359 0.036282 -0.001328 0.003468
# 5 -0.000361 -0.005212 0.003263 -0.001328 0.031621 -0.005601
# 6 -0.004259 0.004425 0.000342 0.003468 -0.005601 0.031609
#
#
# Mechanical properties :
#
#
# Convention : Reuss Voigt Hill
#
# Bulk Modulus (GPa) = 38.57531 48.15195 43.36363
# Shear Modulus (GPa) = 27.18507 31.47779 29.33143
#
# Velocity S-wave (km/s) = 3.46410 3.72758 3.59825
# Velocity P-wave (km/s) = 5.74698 6.30727 6.03363
#
# Compressibility (1/GPa) = 0.02592332
#
# Stress axis : x y z
#
# Youngs Moduli (GPa) = 40.47489 70.16655 84.11161
#
# Poissons Ratio (x) = 0.54284 -0.01086
# Poissons Ratio (y) = 0.31313 0.40834
# Poissons Ratio (z) = -0.00523 0.34064
#
# Static dielectric constant tensor:
#      x y z
#    x 1.905240 -0.048080 0.006020 
#    y -0.048080 1.802450 0.024630 
#    z 0.006020 0.024630 1.876890 
# 
# From -- ./inp_files/186446.got.cif
#   From: 2010.05.17/outbox.cif.g08.bks.cpg/sg2_94_cif.got.tgz:186446.got - 2010.06.03 11:33:40.
