data_PCOD9034542
_publ_section_title
;
Structure prediction by ZEFSAII (Michael W. Deem and Ramdas Pophale) SiO2 
 PCOD9034542
Probable space group: P -1
;
_chemical_formula_sum "Si O2"
_cell_formula_units_Z 16
_cell_length_a 9.345311
_cell_length_b 20.479096
_cell_length_c 5.781869
_cell_angle_alpha 114.077602
_cell_angle_beta 116.898306
_cell_angle_gamma 41.768330
_cell_volume 652.700609
_symmetry_space_group_name_H-M "P -1"
_symmetry_group_IT_number 2
_symmetry_cell_setting 'triclinic'
loop_
_space_group_symop_operation_xyz
x,y,z
-x,-y,-z
loop_
_atom_site_type_symbol
_atom_site_label
_atom_site_fract_x
_atom_site_fract_y
_atom_site_fract_z
Si Si1 0.466385 0.048919 0.290329
Si Si2 0.601324 0.741813 0.186914
Si Si3 0.241720 0.899120 0.449710
Si Si4 0.622945 0.577394 0.755944
Si Si5 0.891876 0.780578 0.450692
Si Si6 0.260983 0.625440 0.825446
Si Si7 0.756034 0.257485 0.622494
Si Si8 0.994709 0.422426 0.481955
O O1 0.612562 0.074574 0.401013
O O2 0.218610 0.150896 0.305207
O O3 0.500000 0.000000 0.500000
O O4 0.500000 0.000000 0.000000
O O5 0.342713 0.837240 0.188379
O O6 0.719292 0.775954 0.212530
O O7 0.759262 0.683876 0.447738
O O8 0.631940 0.655132 0.972960
O O9 0.285573 0.814373 0.508224
O O10 0.000000 0.000000 0.500000
O O11 0.508582 0.555669 0.812066
O O12 0.449636 0.641873 0.511755
O O13 0.857120 0.478346 0.697648
O O14 0.107542 0.677225 0.561117
O O15 0.999179 0.805177 0.395945
O O16 0.155173 0.585717 0.791024
O O17 0.235094 0.703626 0.073293
O O18 0.000000 0.500000 0.500000
#
# Coordination Sequence:
#
# PCOD9034542 Si02
#       8
#     2   2   2   2   2   2   2   2
#     4  11  26  46  69 106 142 184 244 303 361 431
#     4  10  22  45  62  99 140 174 230 293 351 423
#     4  11  24  43  73 104 137 182 235 293 355 426
#     4  11  23  42  68  96 140 179 228 289 355 424
#     4   9  23  41  68  93 135 190 225 285 363 414
#     4  10  23  43  65  92 144 176 229 289 347 431
#     4  11  23  43  68 102 137 184 234 284 361 421
#     4  11  24  41  67 100 129 186 234 282 356 422
#
# _framework density 24.513535000000001
#
# number of rings (size 3 to 8) (size 9 to 14) (size 15 to 20)
#    0.000    1.500    1.250    2.250    5.250    2.500 
#    2.250    1.875    0.000    0.000    0.000    0.000 
#    0.000    0.000    0.000    0.000    0.000    0.000 
#
# Total GULP energy -89142.925719 kJ/mol
# GULP energy per Si atom -5571.432857 kJ/mol
# Density = 2.445774 g / cm^3
# Si number density = 24.513535 Si / 1000 Ang^3
#
#
#
# Elastic Constant Matrix: (Units=GPa)
#
#
# Indices 1 2 3 4 5 6 
#
# 1 175.6170 37.9112 41.1168 16.2361 -4.6929 -3.0574
# 2 37.9112 84.1628 32.4061 20.1884 1.9869 -2.4460
# 3 41.1168 32.4061 100.6690 31.7748 10.0604 1.9156
# 4 16.2361 20.1884 31.7748 40.9647 -5.3424 -3.7080
# 5 -4.6929 1.9869 10.0604 -5.3424 27.3464 20.1999
# 6 -3.0574 -2.4460 1.9156 -3.7080 20.1999 50.3489
#
#
#
# Elastic Compliance Matrix: (Units=1/GPa)
#
#
# Indices 1 2 3 4 5 6 
#
# 1 0.006793 -0.002356 -0.002537 0.000756 0.002964 -0.000739
# 2 -0.002356 0.015062 -0.001996 -0.005181 -0.002822 0.001415
# 3 -0.002537 -0.001996 0.016336 -0.011819 -0.010406 0.002432
# 4 0.000756 -0.005181 -0.011819 0.037435 0.014142 -0.002673
# 5 0.002964 -0.002822 -0.010406 0.014142 0.060796 -0.022911
# 6 -0.000739 0.001415 0.002432 -0.002673 -0.022911 0.028788
#
#
# Mechanical properties :
#
#
# Convention : Reuss Voigt Hill
#
# Bulk Modulus (GPa) = 40.96025 64.81299 52.88662
# Shear Modulus (GPa) = 26.71990 40.33298 33.52644
#
# Velocity S-wave (km/s) = 3.30511 4.06067 3.70222
# Velocity P-wave (km/s) = 5.59558 6.96294 6.31637
#
# Compressibility (1/GPa) = 0.02441392
#
# Stress axis : x y z
#
# Youngs Moduli (GPa) = 147.20588 66.39224 61.21266
#
# Poissons Ratio (x) = 0.15642 0.15529
# Poissons Ratio (y) = 0.34681 0.12218
# Poissons Ratio (z) = 0.37345 0.13252
#
# Static dielectric constant tensor:
#      x y z
#    x 2.118050 0.056220 -0.029340 
#    y 0.056220 2.060470 -0.024870 
#    z -0.029340 -0.024870 1.993670 
# 
# From -- ./inp_files/53817.got.cif
#   From: 2010.05.17/outbox.cif.g08.bks.cpg/sg2_27_cif.got.tgz:53817.got - 2010.06.03 11:33:40.
