data_PCOD9034847
_publ_section_title
;
Structure prediction by ZEFSAII (Michael W. Deem and Ramdas Pophale) SiO2 
 PCOD9034847
Probable space group: P -1
;
_chemical_formula_sum "Si O2"
_cell_formula_units_Z 12
_cell_length_a 7.020456
_cell_length_b 7.683330
_cell_length_c 9.555746
_cell_angle_alpha 101.500514
_cell_angle_beta 68.967452
_cell_angle_gamma 83.399086
_cell_volume 461.536270
_symmetry_space_group_name_H-M "P -1"
_symmetry_group_IT_number 2
_symmetry_cell_setting 'triclinic'
loop_
_space_group_symop_operation_xyz
x,y,z
-x,-y,-z
loop_
_atom_site_type_symbol
_atom_site_label
_atom_site_fract_x
_atom_site_fract_y
_atom_site_fract_z
Si Si1 0.791225 0.075395 0.482273
Si Si2 0.044321 0.858062 0.837780
Si Si3 0.455885 0.107212 0.786571
Si Si4 0.834293 0.441878 0.640112
Si Si5 0.421221 0.218274 0.110986
Si Si6 0.125603 0.447626 0.816910
O O1 0.844129 0.054322 0.302524
O O2 0.611670 0.014445 0.608454
O O3 0.746923 0.288399 0.560326
O O4 0.000000 0.000000 0.500000
O O5 0.162942 0.647819 0.795485
O O6 0.811558 0.831053 0.847838
O O7 0.000000 0.000000 0.000000
O O8 0.300218 0.272562 0.779994
O O9 0.434773 0.927745 0.852313
O O10 0.516229 0.213684 0.928932
O O11 0.640159 0.591174 0.766867
O O12 0.000000 0.500000 0.500000
O O13 0.975602 0.385827 0.730775
O O14 0.000000 0.500000 0.000000
#
# Coordination Sequence:
#
# PCOD9034847 Si02
#       6
#     2   2   2   2   2   2
#     4  12  25  43  71 102 133 175 229 276 333 397
#     4  11  24  46  68  97 137 177 222 283 335 395
#     4  11  23  44  69 103 135 172 234 270 333 404
#     4  11  21  45  71  95 139 179 216 276 338 397
#     4  10  22  45  68  98 137 180 220 275 340 399
#     4  11  23  44  71  98 132 180 223 269 335 403
#
# _framework density 26.000119999999999
#
# number of rings (size 3 to 8) (size 9 to 14) (size 15 to 20)
#    0.000    1.000    8.333    0.000    2.333    1.333 
#    6.000    5.833    0.000    0.000    0.000    0.000 
#    0.000    0.000    0.000    0.000    0.000    0.000 
#
# Total GULP energy -67042.464185 kJ/mol
# GULP energy per Si atom -5586.872015 kJ/mol
# Density = 2.594094 g / cm^3
# Si number density = 26.000120 Si / 1000 Ang^3
#
#
#
# Elastic Constant Matrix: (Units=GPa)
#
#
# Indices 1 2 3 4 5 6 
#
# 1 80.3568 37.0808 35.3789 -14.7372 -5.6432 -30.0423
# 2 37.0808 160.8667 45.8416 4.7412 8.7745 -35.6463
# 3 35.3789 45.8416 215.7651 -12.2832 2.2872 -21.8520
# 4 -14.7372 4.7412 -12.2832 56.7915 4.6169 5.4297
# 5 -5.6432 8.7745 2.2872 4.6169 37.1860 2.6464
# 6 -30.0423 -35.6463 -21.8520 5.4297 2.6464 65.1874
#
#
#
# Elastic Compliance Matrix: (Units=1/GPa)
#
#
# Indices 1 2 3 4 5 6 
#
# 1 0.017231 -0.002523 -0.001538 0.003610 0.002455 0.005646
# 2 -0.002523 0.007940 -0.001034 -0.001654 -0.002205 0.003060
# 3 -0.001538 -0.001034 0.005200 0.000807 -0.000439 0.000419
# 4 0.003610 -0.001654 0.000807 0.019022 -0.001438 -0.000496
# 5 0.002455 -0.002205 -0.000439 -0.001438 0.028079 -0.001242
# 6 0.005646 0.003060 0.000419 -0.000496 -0.001242 0.019848
#
#
# Mechanical properties :
#
#
# Convention : Reuss Voigt Hill
#
# Bulk Modulus (GPa) = 49.55388 77.06568 63.30978
# Shear Modulus (GPa) = 43.76933 54.41213 49.09073
#
# Velocity S-wave (km/s) = 4.10741 4.57964 4.34994
# Velocity P-wave (km/s) = 6.44941 7.59401 7.04499
#
# Compressibility (1/GPa) = 0.02018006
#
# Stress axis : x y z
#
# Youngs Moduli (GPa) = 58.03508 125.95180 192.32004
#
# Poissons Ratio (x) = 0.31776 0.29581
# Poissons Ratio (y) = 0.14641 0.19888
# Poissons Ratio (z) = 0.08926 0.13025
#
# Static dielectric constant tensor:
#      x y z
#    x 2.214700 0.067690 -0.040530 
#    y 0.067690 2.169800 0.064270 
#    z -0.040530 0.064270 2.119520 
# 
# From -- ./inp_files/145907.got.cif
#   From: 2010.05.17/outbox.cif.g08.bks.cpg/sg2_73_cif.got.tgz:145907.got - 2010.06.03 11:33:40.
