data_PCOD9034152
_publ_section_title
;
Structure prediction by ZEFSAII (Michael W. Deem and Ramdas Pophale) SiO2 
 PCOD9034152
Probable space group: P -1
;
_chemical_formula_sum "Si O2"
_cell_formula_units_Z 16
_cell_length_a 8.421751
_cell_length_b 8.121547
_cell_length_c 23.425326
_cell_angle_alpha 127.611530
_cell_angle_beta 147.135227
_cell_angle_gamma 48.373958
_cell_volume 644.487748
_symmetry_space_group_name_H-M "P -1"
_symmetry_group_IT_number 2
_symmetry_cell_setting 'triclinic'
loop_
_space_group_symop_operation_xyz
x,y,z
-x,-y,-z
loop_
_atom_site_type_symbol
_atom_site_label
_atom_site_fract_x
_atom_site_fract_y
_atom_site_fract_z
Si Si1 0.387225 0.915751 0.158223
Si Si2 0.027242 0.073288 0.704216
Si Si3 0.199310 0.286271 0.650278
Si Si4 0.064191 0.720074 0.544350
Si Si5 0.302802 0.490885 0.994091
Si Si6 0.895313 0.144320 0.131058
Si Si7 0.745894 0.541822 0.654571
Si Si8 0.191457 0.719734 0.203381
O O1 0.603908 0.965972 0.186444
O O2 0.609111 0.870034 0.273025
O O3 0.308562 0.697945 0.076065
O O4 0.062234 0.110298 0.112259
O O5 0.884690 0.314899 0.683789
O O6 0.852557 0.118194 0.720968
O O7 0.999806 0.886991 0.613655
O O8 0.447481 0.400032 0.729878
O O9 0.150820 0.173250 0.553147
O O10 0.861409 0.446534 0.605211
O O11 0.409350 0.653943 0.606483
O O12 0.000000 0.500000 0.500000
O O13 0.982989 0.452990 0.877166
O O14 0.500000 0.500000 0.000000
O O15 0.530198 0.268897 0.047054
O O16 0.054736 0.299513 0.243074
O O17 0.014480 0.898748 0.140145
#
# Coordination Sequence:
#
# PCOD9034152 Si02
#       8
#     2   2   2   2   2   2   2   2
#     4  10  22  44  71  97 136 185 226 281 343 411
#     4  11  23  47  69  99 147 180 225 291 345 403
#     4  10  24  45  66 100 139 184 225 286 339 402
#     4  12  27  43  73 108 134 183 236 283 347 412
#     4  12  23  45  72 101 139 184 229 281 352 406
#     4  11  23  43  69 103 136 181 233 275 345 412
#     4  11  23  46  71  96 141 184 230 281 343 413
#     4  11  25  44  70 104 143 181 231 290 338 410
#
# _framework density 24.825915999999999
#
# number of rings (size 3 to 8) (size 9 to 14) (size 15 to 20)
#    0.000    1.000    5.000    1.500    1.750    6.500 
#    4.500    0.000    0.000    0.000    0.000    0.000 
#    0.000    0.000    0.000    0.000    0.000    0.000 
#
# Total GULP energy -89363.198086 kJ/mol
# GULP energy per Si atom -5585.199880 kJ/mol
# Density = 2.476941 g / cm^3
# Si number density = 24.825916 Si / 1000 Ang^3
#
#
#
# Elastic Constant Matrix: (Units=GPa)
#
#
# Indices 1 2 3 4 5 6 
#
# 1 125.5818 15.6689 37.3347 5.8239 10.9606 -11.7260
# 2 15.6689 72.5066 24.5738 21.9632 -3.2609 1.3906
# 3 37.3347 24.5738 71.2839 9.9429 10.9195 -1.0011
# 4 5.8239 21.9632 9.9429 27.9717 -2.7010 1.9220
# 5 10.9606 -3.2609 10.9195 -2.7010 44.6722 7.3386
# 6 -11.7260 1.3906 -1.0011 1.9220 7.3386 34.0080
#
#
#
# Elastic Compliance Matrix: (Units=1/GPa)
#
#
# Indices 1 2 3 4 5 6 
#
# 1 0.009950 -0.000644 -0.004572 -0.000395 -0.002015 0.003780
# 2 -0.000644 0.019772 -0.004957 -0.013360 0.002151 -0.000886
# 3 -0.004572 -0.004957 0.019087 -0.002349 -0.004081 0.000201
# 4 -0.000395 -0.013360 -0.002349 0.047661 0.003073 -0.003016
# 5 -0.002015 0.002151 -0.004081 0.003073 0.025294 -0.006535
# 6 0.003780 -0.000886 0.000201 -0.003016 -0.006535 0.032331
#
#
# Mechanical properties :
#
#
# Convention : Reuss Voigt Hill
#
# Bulk Modulus (GPa) = 35.13420 47.16969 41.15194
# Shear Modulus (GPa) = 27.18447 34.11672 30.65059
#
# Velocity S-wave (km/s) = 3.31267 3.71109 3.51753
# Velocity P-wave (km/s) = 5.36793 6.11591 5.75409
#
# Compressibility (1/GPa) = 0.02846230
#
# Stress axis : x y z
#
# Youngs Moduli (GPa) = 100.50536 50.57754 52.39050
#
# Poissons Ratio (x) = 0.03258 0.23954
# Poissons Ratio (y) = 0.06473 0.25970
# Poissons Ratio (z) = 0.45953 0.25071
#
# Static dielectric constant tensor:
#      x y z
#    x 2.097200 -0.006750 -0.033710 
#    y -0.006750 1.954970 -0.049400 
#    z -0.033710 -0.049400 2.032880 
# 
# From -- ./inp_files/606831.got.cif
#   From: 2010.05.17/outbox.cif.g08.bks.cpg/sg2_304_cif.got.tgz:606831.got - 2010.06.03 11:33:40.
