data_PCOD9034766
_publ_section_title
;
Structure prediction by ZEFSAII (Michael W. Deem and Ramdas Pophale) SiO2 
 PCOD9034766
Probable space group: P -1
;
_chemical_formula_sum "Si O2"
_cell_formula_units_Z 14
_cell_length_a 8.481328
_cell_length_b 9.207082
_cell_length_c 25.265324
_cell_angle_alpha 155.056882
_cell_angle_beta 137.294603
_cell_angle_gamma 48.344644
_cell_volume 564.289732
_symmetry_space_group_name_H-M "P -1"
_symmetry_group_IT_number 2
_symmetry_cell_setting 'triclinic'
loop_
_space_group_symop_operation_xyz
x,y,z
-x,-y,-z
loop_
_atom_site_type_symbol
_atom_site_label
_atom_site_fract_x
_atom_site_fract_y
_atom_site_fract_z
Si Si1 0.249742 0.323536 0.014502
Si Si2 0.543122 0.932790 0.673017
Si Si3 0.191723 0.709772 0.435183
Si Si4 0.368315 0.636535 0.344184
Si Si5 0.872428 0.782221 0.941900
Si Si6 0.726012 0.682035 0.093943
Si Si7 0.782534 0.247603 0.371250
O O1 0.254710 0.102563 0.997034
O O2 0.406154 0.667722 0.174085
O O3 0.311438 0.141760 0.913911
O O4 0.000000 0.500000 0.000000
O O5 0.441187 0.869712 0.568404
O O6 0.763222 0.679343 0.657192
O O7 0.325728 0.822138 0.620896
O O8 0.177977 0.655008 0.350544
O O9 0.000000 0.000000 0.500000
O O10 0.280081 0.495450 0.220000
O O11 0.560139 0.371429 0.324305
O O12 0.500000 0.000000 0.500000
O O13 0.098116 0.622235 0.970864
O O14 0.000000 0.000000 0.000000
O O15 0.843859 0.903977 0.242101
O O16 0.500000 0.500000 0.000000
O O17 0.000000 0.500000 0.500000
#
# Coordination Sequence:
#
# PCOD9034766 Si02
#       7
#     2   2   2   2   2   2   2
#     4  10  23  43  73  96 138 193 238 285 369 435
#     4  10  22  45  68 100 146 188 236 303 361 435
#     4  10  24  40  70 101 138 185 239 294 364 428
#     4  11  24  44  65  98 143 177 230 301 361 419
#     4  11  25  44  69 100 139 185 239 304 361 417
#     4  11  22  43  73 100 139 189 240 282 357 446
#     4  11  24  42  71 103 139 188 237 290 362 435
#
# _framework density 24.809949
#
# number of rings (size 3 to 8) (size 9 to 14) (size 15 to 20)
#    0.000    1.429    1.429    2.571   10.000    5.714 
#    0.000    2.857    0.000    0.000    0.000    0.000 
#    0.000    0.000    0.000    0.000    0.000    0.000 
#
# Total GULP energy -78028.113620 kJ/mol
# GULP energy per Si atom -5573.436687 kJ/mol
# Density = 2.475348 g / cm^3
# Si number density = 24.809949 Si / 1000 Ang^3
#
#
#
# Elastic Constant Matrix: (Units=GPa)
#
#
# Indices 1 2 3 4 5 6 
#
# 1 139.0484 40.8104 37.3622 -10.4032 -17.6300 31.5786
# 2 40.8104 87.3447 -18.6317 -12.1849 -6.1146 7.5910
# 3 37.3622 -18.6317 90.9671 -8.5613 8.6114 30.7034
# 4 -10.4032 -12.1849 -8.5613 37.9794 6.3809 -7.0882
# 5 -17.6300 -6.1146 8.6114 6.3809 41.8211 -6.1335
# 6 31.5786 7.5910 30.7034 -7.0882 -6.1335 51.1194
#
#
#
# Elastic Compliance Matrix: (Units=1/GPa)
#
#
# Indices 1 2 3 4 5 6 
#
# 1 0.011744 -0.006412 -0.005988 -0.001481 0.005136 -0.002296
# 2 -0.006412 0.016919 0.007886 0.005429 -0.003108 -0.002908
# 3 -0.005988 0.007886 0.019376 0.004767 -0.007459 -0.009344
# 4 -0.001481 0.005429 0.004767 0.029760 -0.005244 0.000743
# 5 0.005136 -0.003108 -0.007459 -0.005244 0.028614 0.004475
# 6 -0.002296 -0.002908 -0.009344 0.000743 0.004475 0.027664
#
#
# Mechanical properties :
#
#
# Convention : Reuss Voigt Hill
#
# Bulk Modulus (GPa) = 25.63384 48.49356 37.06370
# Shear Modulus (GPa) = 32.02868 43.37192 37.70030
#
# Velocity S-wave (km/s) = 3.59689 4.18564 3.90239
# Velocity P-wave (km/s) = 5.25402 6.55347 5.93939
#
# Compressibility (1/GPa) = 0.03901093
#
# Stress axis : x y z
#
# Youngs Moduli (GPa) = 85.14786 59.10341 51.61089
#
# Poissons Ratio (x) = 0.37898 0.30903
# Poissons Ratio (y) = 0.54599 -0.40699
# Poissons Ratio (z) = 0.50984 -0.46607
#
# Static dielectric constant tensor:
#      x y z
#    x 2.037430 0.204660 0.015380 
#    y 0.204660 1.945970 -0.025960 
#    z 0.015380 -0.025960 1.968610 
# 
# From -- ./inp_files/606966.got.cif
#   From: 2010.05.17/outbox.cif.g08.bks.cpg/sg2_304_cif.got.tgz:606966.got - 2010.06.03 11:33:40.
