data_PCOD9034053
_publ_section_title
;
Structure prediction by ZEFSAII (Michael W. Deem and Ramdas Pophale) SiO2 
 PCOD9034053
Probable space group: P -1
;
_chemical_formula_sum "Si O2"
_cell_formula_units_Z 14
_cell_length_a 11.851420
_cell_length_b 9.136994
_cell_length_c 7.749557
_cell_angle_alpha 70.579701
_cell_angle_beta 64.711212
_cell_angle_gamma 47.528378
_cell_volume 558.440968
_symmetry_space_group_name_H-M "P -1"
_symmetry_group_IT_number 2
_symmetry_cell_setting 'triclinic'
loop_
_space_group_symop_operation_xyz
x,y,z
-x,-y,-z
loop_
_atom_site_type_symbol
_atom_site_label
_atom_site_fract_x
_atom_site_fract_y
_atom_site_fract_z
Si Si1 0.069436 0.701691 0.716733
Si Si2 0.744908 0.746822 0.349178
Si Si3 0.431043 0.130399 0.222174
Si Si4 0.665665 0.271666 0.330798
Si Si5 0.241481 0.994545 0.330498
Si Si6 0.887174 0.934266 0.081443
Si Si7 0.459432 0.649374 0.116189
O O1 0.162563 0.471496 0.706456
O O2 0.195090 0.736604 0.667280
O O3 0.947292 0.842934 0.588735
O O4 0.950195 0.798429 0.921676
O O5 0.663782 0.762139 0.578445
O O6 0.868914 0.794995 0.270320
O O7 0.601201 0.924060 0.251590
O O8 0.453391 0.261941 0.035007
O O9 0.319460 0.099334 0.201413
O O10 0.653013 0.139766 0.521435
O O11 0.528521 0.499839 0.292025
O O12 0.722190 0.148269 0.162638
O O13 0.283930 0.837875 0.215044
O O14 0.000000 0.000000 0.000000
O O15 0.500000 0.500000 0.000000
#
# Coordination Sequence:
#
# PCOD9034053 Si02
#       7
#     2   2   2   2   2   2   2
#     4  11  25  42  72 103 142 183 238 286 357 416
#     4  11  23  46  72 105 140 187 235 292 356 412
#     4  11  26  45  73 102 146 182 238 293 346 426
#     4  11  24  47  69 103 143 184 232 292 355 416
#     4  12  25  46  71 104 142 184 237 291 352 421
#     4  10  22  44  71 101 140 183 229 292 349 414
#     4  12  27  44  73 106 138 186 238 290 354 418
#
# _framework density 25.069792
#
# number of rings (size 3 to 8) (size 9 to 14) (size 15 to 20)
#    0.000    0.857    1.429    5.143    4.000    4.000 
#    7.714    0.000    0.000    0.000    0.000    0.000 
#    0.000    0.000    0.000    0.000    0.000    0.000 
#
# Total GULP energy -78135.116970 kJ/mol
# GULP energy per Si atom -5581.079784 kJ/mol
# Density = 2.501273 g / cm^3
# Si number density = 25.069792 Si / 1000 Ang^3
#
#
#
# Elastic Constant Matrix: (Units=GPa)
#
#
# Indices 1 2 3 4 5 6 
#
# 1 87.8824 47.4439 -6.6654 2.0906 2.0901 11.0164
# 2 47.4439 203.8048 47.9484 24.5934 -2.6559 15.7287
# 3 -6.6654 47.9484 88.3839 14.6023 4.4946 10.9684
# 4 2.0906 24.5934 14.6023 45.8598 13.2205 0.9422
# 5 2.0901 -2.6559 4.4946 13.2205 34.8903 0.8026
# 6 11.0164 15.7287 10.9684 0.9422 0.8026 30.9230
#
#
#
# Elastic Compliance Matrix: (Units=1/GPa)
#
#
# Indices 1 2 3 4 5 6 
#
# 1 0.014422 -0.004045 0.003767 0.000955 -0.001918 -0.004396
# 2 -0.004045 0.007207 -0.003703 -0.003204 0.002502 -0.000878
# 3 0.003767 -0.003703 0.014630 -0.002348 -0.001398 -0.004540
# 4 0.000955 -0.003204 -0.002348 0.027174 -0.010331 0.001562
# 5 -0.001918 0.002502 -0.001398 -0.010331 0.033076 -0.000637
# 6 -0.004396 -0.000878 -0.004540 0.001562 -0.000637 0.035930
#
#
# Mechanical properties :
#
#
# Convention : Reuss Voigt Hill
#
# Bulk Modulus (GPa) = 35.33996 61.94721 48.64358
# Shear Modulus (GPa) = 33.37041 41.75758 37.56400
#
# Velocity S-wave (km/s) = 3.65238 4.08567 3.87509
# Velocity P-wave (km/s) = 5.64923 6.85715 6.28229
#
# Compressibility (1/GPa) = 0.02829658
#
# Stress axis : x y z
#
# Youngs Moduli (GPa) = 69.33840 138.76216 68.35352
#
# Poissons Ratio (x) = 0.56124 -0.25749
# Poissons Ratio (y) = 0.28045 0.25314
# Poissons Ratio (z) = -0.26120 0.51390
#
# Static dielectric constant tensor:
#      x y z
#    x 2.021710 -0.014860 0.087900 
#    y -0.014860 1.988270 -0.069850 
#    z 0.087900 -0.069850 2.145170 
# 
# From -- ./inp_files/238289.got.cif
#   From: 2010.05.17/outbox.cif.g08.bks.cpg/sg2_120_cif.got.tgz:238289.got - 2010.06.03 11:33:40.
