data_PCOD9034140
_publ_section_title
;
Structure prediction by ZEFSAII (Michael W. Deem and Ramdas Pophale) SiO2 
 PCOD9034140
Probable space group: P -1
;
_chemical_formula_sum "Si O2"
_cell_formula_units_Z 16
_cell_length_a 20.592717
_cell_length_b 5.437767
_cell_length_c 12.287491
_cell_angle_alpha 126.712679
_cell_angle_beta 139.877497
_cell_angle_gamma 60.262653
_cell_volume 708.786373
_symmetry_space_group_name_H-M "P -1"
_symmetry_group_IT_number 2
_symmetry_cell_setting 'triclinic'
loop_
_space_group_symop_operation_xyz
x,y,z
-x,-y,-z
loop_
_atom_site_type_symbol
_atom_site_label
_atom_site_fract_x
_atom_site_fract_y
_atom_site_fract_z
Si Si1 0.049990 0.039878 0.224966
Si Si2 0.540241 0.664936 0.831508
Si Si3 0.619776 0.764568 0.518627
Si Si4 0.411000 0.277897 0.851833
Si Si5 0.898470 0.417149 0.995310
Si Si6 0.038231 0.921802 0.407188
Si Si7 0.660384 0.478041 0.726876
Si Si8 0.224364 0.465582 0.511608
O O1 0.041273 0.149747 0.368360
O O2 0.143044 0.212590 0.342660
O O3 0.081064 0.693144 0.132117
O O4 0.944870 0.138582 0.057286
O O5 0.483989 0.352223 0.691276
O O6 0.611371 0.638651 0.812467
O O7 0.452366 0.938163 0.777764
O O8 0.599799 0.733408 0.035160
O O9 0.619943 0.661158 0.616870
O O10 0.712194 0.566989 0.526311
O O11 0.633446 0.120830 0.605349
O O12 0.308881 0.396809 0.693427
O O13 0.500000 0.500000 0.000000
O O14 0.963134 0.688793 0.193685
O O15 0.780830 0.484089 0.881074
O O16 0.153322 0.774040 0.519855
O O17 0.000000 0.000000 0.500000
#
# Coordination Sequence:
#
# PCOD9034140 Si02
#       8
#     2   2   2   2   2   2   2   2
#     4  10  22  44  71  96 140 178 241 288 358 430
#     4  11  27  45  69 105 145 190 244 304 357 437
#     4  12  25  46  72 109 143 194 240 299 369 430
#     4  11  25  45  69  99 143 194 246 288 358 435
#     4  10  23  42  68 107 132 188 233 298 356 431
#     4  11  26  42  69 104 144 184 236 301 362 435
#     4  12  27  43  77 107 149 186 241 309 368 423
#     4  11  24  43  74  95 137 191 237 295 359 437
#
# _framework density 22.573799000000001
#
# number of rings (size 3 to 8) (size 9 to 14) (size 15 to 20)
#    0.000    1.000    2.500    2.625    5.250    5.000 
#    0.000    0.000    0.000    0.000    0.000    0.000 
#    0.000    0.000    0.000    0.000    0.000    0.000 
#
# Total GULP energy -89440.819256 kJ/mol
# GULP energy per Si atom -5590.051203 kJ/mol
# Density = 2.252242 g / cm^3
# Si number density = 22.573799 Si / 1000 Ang^3
#
#
#
# Elastic Constant Matrix: (Units=GPa)
#
#
# Indices 1 2 3 4 5 6 
#
# 1 141.4177 9.1174 23.2777 1.3414 -39.5050 -9.7289
# 2 9.1174 51.7646 18.9629 -13.6966 -5.0709 2.5329
# 3 23.2777 18.9629 80.5331 -18.9261 -3.9473 -5.8981
# 4 1.3414 -13.6966 -18.9261 31.1141 3.0587 5.2860
# 5 -39.5050 -5.0709 -3.9473 3.0587 49.7266 3.6656
# 6 -9.7289 2.5329 -5.8981 5.2860 3.6656 32.1314
#
#
#
# Elastic Compliance Matrix: (Units=1/GPa)
#
#
# Indices 1 2 3 4 5 6 
#
# 1 0.009960 -0.001042 -0.002996 -0.003853 0.007635 0.002311
# 2 -0.001042 0.023424 -0.003382 0.008937 0.001065 -0.004375
# 3 -0.002996 -0.003382 0.016038 0.008401 -0.002054 0.001156
# 4 -0.003853 0.008937 0.008401 0.042890 -0.003607 -0.006973
# 5 0.007635 0.001065 -0.002054 -0.003607 0.026385 -0.000566
# 6 0.002311 -0.004375 0.001156 -0.006973 -0.000566 0.033591
#
#
# Mechanical properties :
#
#
# Convention : Reuss Voigt Hill
#
# Bulk Modulus (GPa) = 28.91620 41.82570 35.37095
# Shear Modulus (GPa) = 27.98707 37.41823 32.70265
#
# Velocity S-wave (km/s) = 3.52490 4.07578 3.81031
# Velocity P-wave (km/s) = 5.42255 6.38106 5.92123
#
# Compressibility (1/GPa) = 0.03458269
#
# Stress axis : x y z
#
# Youngs Moduli (GPa) = 100.40215 42.69147 62.35204
#
# Poissons Ratio (x) = 0.04446 0.18679
# Poissons Ratio (y) = 0.10457 0.21089
# Poissons Ratio (z) = 0.30078 0.14440
#
# Static dielectric constant tensor:
#      x y z
#    x 1.855050 0.072590 -0.031670 
#    y 0.072590 1.946880 0.021000 
#    z -0.031670 0.021000 1.824130 
# 
# From -- ./inp_files/369316.got.cif
#   From: 2010.05.17/outbox.cif.g08.bks.cpg/sg2_185_cif.got.tgz:369316.got - 2010.06.03 11:33:40.
