data_PCOD9034782
_publ_section_title
;
Structure prediction by ZEFSAII (Michael W. Deem and Ramdas Pophale) SiO2 
 PCOD9034782
Probable space group: P -1
;
_chemical_formula_sum "Si O2"
_cell_formula_units_Z 16
_cell_length_a 9.799871
_cell_length_b 8.880557
_cell_length_c 13.952490
_cell_angle_alpha 61.459494
_cell_angle_beta 143.816974
_cell_angle_gamma 112.652046
_cell_volume 629.746130
_symmetry_space_group_name_H-M "P -1"
_symmetry_group_IT_number 2
_symmetry_cell_setting 'triclinic'
loop_
_space_group_symop_operation_xyz
x,y,z
-x,-y,-z
loop_
_atom_site_type_symbol
_atom_site_label
_atom_site_fract_x
_atom_site_fract_y
_atom_site_fract_z
Si Si1 0.601651 0.564951 0.730196
Si Si2 0.396528 0.819073 0.065579
Si Si3 0.856047 0.720455 0.268815
Si Si4 0.747603 0.323213 0.348180
Si Si5 0.015131 0.294937 0.865833
Si Si6 0.498038 0.269945 0.569204
Si Si7 0.987540 0.666988 0.786944
Si Si8 0.571927 0.938829 0.805785
O O1 0.590170 0.372979 0.820942
O O2 0.456759 0.672141 0.690859
O O3 0.472873 0.605112 0.544422
O O4 0.852577 0.632620 0.821783
O O5 0.625782 0.825604 0.128790
O O6 0.399200 0.944549 0.119057
O O7 0.171051 0.810956 0.872994
O O8 0.791528 0.518383 0.284079
O O9 0.978150 0.757363 0.226297
O O10 0.024292 0.738461 0.449334
O O11 0.635605 0.194290 0.248927
O O12 0.751564 0.301737 0.750227
O O13 0.104788 0.488077 0.876752
O O14 0.189480 0.159142 0.050790
O O15 0.219442 0.296958 0.417668
O O16 0.505831 0.063402 0.642167
#
# Coordination Sequence:
#
# PCOD9034782 Si02
#       8
#     2   2   2   2   2   2   2   2
#     4   9  20  42  72  94 134 174 227 261 332 402
#     4  11  24  43  65 101 135 181 216 280 326 398
#     4  10  23  44  74  89 132 180 234 261 324 407
#     4  10  22  45  68 103 126 177 223 281 324 397
#     4  12  23  45  70 102 129 177 227 277 323 398
#     4  10  24  42  70 102 134 174 214 279 337 396
#     4  10  23  41  71  95 135 175 228 260 331 403
#     4  12  28  40  65 102 145 165 220 283 344 375
#
# _framework density 25.407064999999999
#
# number of rings (size 3 to 8) (size 9 to 14) (size 15 to 20)
#    0.750    0.750    1.250    3.375    1.750    6.500 
#    0.000    0.000    0.000    0.000    0.000    0.000 
#    0.000    0.000    0.000    0.000    0.000    0.000 
#
# Total GULP energy -89293.833780 kJ/mol
# GULP energy per Si atom -5580.864611 kJ/mol
# Density = 2.534924 g / cm^3
# Si number density = 25.407065 Si / 1000 Ang^3
#
#
#
# Elastic Constant Matrix: (Units=GPa)
#
#
# Indices 1 2 3 4 5 6 
#
# 1 87.0226 -3.1410 23.0817 6.9913 7.6800 -6.4598
# 2 -3.1410 111.4514 68.3425 24.1569 9.3350 -7.6907
# 3 23.0817 68.3425 139.8890 3.9532 24.1704 -6.2110
# 4 6.9913 24.1569 3.9532 51.4342 1.9975 -4.2230
# 5 7.6800 9.3350 24.1704 1.9975 27.9078 -5.7459
# 6 -6.4598 -7.6907 -6.2110 -4.2230 -5.7459 30.0427
#
#
#
# Elastic Compliance Matrix: (Units=1/GPa)
#
#
# Indices 1 2 3 4 5 6 
#
# 1 0.013007 0.003314 -0.003398 -0.002830 -0.001060 0.002342
# 2 0.003314 0.015633 -0.008220 -0.007040 0.001977 0.002404
# 3 -0.003398 -0.008220 0.012961 0.003540 -0.008040 -0.001195
# 4 -0.002830 -0.007040 0.003540 0.023020 -0.001311 0.001306
# 5 -0.001060 0.001977 -0.008040 -0.001311 0.043927 0.006833
# 6 0.002342 0.002404 -0.001195 0.001306 0.006833 0.035648
#
#
# Mechanical properties :
#
#
# Convention : Reuss Voigt Hill
#
# Bulk Modulus (GPa) = 40.01172 57.21440 48.61306
# Shear Modulus (GPa) = 29.56223 38.54893 34.05558
#
# Velocity S-wave (km/s) = 3.41478 3.89942 3.66512
# Velocity P-wave (km/s) = 5.59732 6.54537 6.08983
#
# Compressibility (1/GPa) = 0.02499268
#
# Stress axis : x y z
#
# Youngs Moduli (GPa) = 76.88196 63.96822 77.15317
#
# Poissons Ratio (x) = -0.21200 0.26218
# Poissons Ratio (y) = -0.25479 0.63421
# Poissons Ratio (z) = 0.26125 0.52583
#
# Static dielectric constant tensor:
#      x y z
#    x 1.987040 0.001170 -0.040710 
#    y 0.001170 2.114150 0.024090 
#    z -0.040710 0.024090 2.022420 
# 
# From -- ./inp_files/565839.got.cif
#   From: 2010.05.17/outbox.cif.g08.bks.cpg/sg2_283_cif.got.tgz:565839.got - 2010.06.03 11:33:40.
