data_PCOD9034938
_publ_section_title
;
Structure prediction by ZEFSAII (Michael W. Deem and Ramdas Pophale) SiO2 
 PCOD9034938
Probable space group: P -1
;
_chemical_formula_sum "Si O2"
_cell_formula_units_Z 14
_cell_length_a 13.114023
_cell_length_b 17.788227
_cell_length_c 6.074350
_cell_angle_alpha 82.661294
_cell_angle_beta 82.253538
_cell_angle_gamma 24.158110
_cell_volume 574.582333
_symmetry_space_group_name_H-M "P -1"
_symmetry_group_IT_number 2
_symmetry_cell_setting 'triclinic'
loop_
_space_group_symop_operation_xyz
x,y,z
-x,-y,-z
loop_
_atom_site_type_symbol
_atom_site_label
_atom_site_fract_x
_atom_site_fract_y
_atom_site_fract_z
Si Si1 0.916976 0.414161 0.681867
Si Si2 0.383489 0.176428 0.885647
Si Si3 0.897219 0.956073 0.126938
Si Si4 0.728584 0.403372 0.023361
Si Si5 0.463525 0.802164 0.504172
Si Si6 0.701929 0.849623 0.687347
Si Si7 0.656646 0.239935 0.775584
O O1 0.807315 0.410240 0.810090
O O2 0.698929 0.620426 0.646497
O O3 0.139230 0.299974 0.806973
O O4 0.035996 0.322707 0.441168
O O5 0.434153 0.218553 0.723312
O O6 0.632522 0.960557 0.841177
O O7 0.338761 0.200754 0.149070
O O8 0.029270 0.813767 0.960220
O O9 0.120839 0.849463 0.226797
O O10 0.738226 0.023893 0.342162
O O11 0.722818 0.134234 0.987399
O O12 0.500000 0.500000 0.000000
O O13 0.604151 0.541006 0.192149
O O14 0.348930 0.802254 0.433629
O O15 0.500000 0.000000 0.500000
#
# Coordination Sequence:
#
# PCOD9034938 Si02
#       7
#     2   2   2   2   2   2   2
#     4  11  23  40  65  96 140 176 226 282 334 415
#     4  10  23  41  65  97 132 182 223 277 344 406
#     4  10  22  45  69  93 138 182 229 285 347 398
#     4  10  22  45  69  93 133 182 224 286 345 395
#     4  12  24  40  68 103 139 180 229 280 343 408
#     4   9  21  42  64  91 133 170 234 279 329 405
#     4  10  23  43  66 100 135 178 234 287 333 411
#
# _framework density 24.365524000000001
#
# number of rings (size 3 to 8) (size 9 to 14) (size 15 to 20)
#    0.000    1.714    1.429    1.714    2.000    6.286 
#    2.571    1.429    0.000    0.000    0.000    0.000 
#    0.000    0.000    0.000    0.000    0.000    0.000 
#
# Total GULP energy -78228.302408 kJ/mol
# GULP energy per Si atom -5587.735886 kJ/mol
# Density = 2.431007 g / cm^3
# Si number density = 24.365524 Si / 1000 Ang^3
#
#
#
# Elastic Constant Matrix: (Units=GPa)
#
#
# Indices 1 2 3 4 5 6 
#
# 1 110.2677 46.5200 35.1949 -2.2150 -6.6954 -16.7762
# 2 46.5200 126.0047 43.2536 18.7177 6.5992 0.6472
# 3 35.1949 43.2536 63.4502 8.3261 -13.7783 -28.6414
# 4 -2.2150 18.7177 8.3261 38.6332 -4.4721 -3.0304
# 5 -6.6954 6.5992 -13.7783 -4.4721 44.2348 2.5126
# 6 -16.7762 0.6472 -28.6414 -3.0304 2.5126 33.3030
#
#
#
# Elastic Compliance Matrix: (Units=1/GPa)
#
#
# Indices 1 2 3 4 5 6 
#
# 1 0.012655 -0.005191 -0.000768 0.004170 0.002531 0.006004
# 2 -0.005191 0.018231 -0.019442 -0.007550 -0.009207 -0.019682
# 3 -0.000768 -0.019442 0.052700 0.003467 0.017031 0.044345
# 4 0.004170 -0.007550 0.003467 0.030261 0.005467 0.007571
# 5 0.002531 -0.009207 0.017031 0.005467 0.029404 0.014380
# 6 0.006004 -0.019682 0.044345 0.007571 0.014380 0.071176
#
#
# Mechanical properties :
#
#
# Convention : Reuss Voigt Hill
#
# Bulk Modulus (GPa) = 30.50238 61.07330 45.78784
# Shear Modulus (GPa) = 18.10563 34.88446 26.49505
#
# Velocity S-wave (km/s) = 2.72891 3.78790 3.30115
# Velocity P-wave (km/s) = 4.74079 6.65213 5.77607
#
# Compressibility (1/GPa) = 0.03278432
#
# Stress axis : x y z
#
# Youngs Moduli (GPa) = 79.02007 54.85065 18.97529
#
# Poissons Ratio (x) = 0.28475 0.01458
# Poissons Ratio (y) = 0.41022 0.36891
# Poissons Ratio (z) = 0.06071 1.06638
#
# Static dielectric constant tensor:
#      x y z
#    x 1.986600 0.033870 0.026880 
#    y 0.033870 1.923830 0.028810 
#    z 0.026880 0.028810 1.964560 
# 
# From -- ./inp_files/100561.got.cif
#   From: 2010.05.17/outbox.cif.g08.bks.cpg/sg2_51_cif.got.tgz:100561.got - 2010.06.03 11:33:40.
