data_PCOD9034532
_publ_section_title
;
Structure prediction by ZEFSAII (Michael W. Deem and Ramdas Pophale) SiO2 
 PCOD9034532
Probable space group: P -1
;
_chemical_formula_sum "Si O2"
_cell_formula_units_Z 16
_cell_length_a 7.930258
_cell_length_b 9.384717
_cell_length_c 16.656211
_cell_angle_alpha 29.246145
_cell_angle_beta 82.659262
_cell_angle_gamma 82.254689
_cell_volume 599.968655
_symmetry_space_group_name_H-M "P -1"
_symmetry_group_IT_number 2
_symmetry_cell_setting 'triclinic'
loop_
_space_group_symop_operation_xyz
x,y,z
-x,-y,-z
loop_
_atom_site_type_symbol
_atom_site_label
_atom_site_fract_x
_atom_site_fract_y
_atom_site_fract_z
Si Si1 0.588265 0.392704 0.629129
Si Si2 0.238398 0.602881 0.908398
Si Si3 0.227040 0.042482 0.280829
Si Si4 0.277821 0.087938 0.423886
Si Si5 0.693214 0.848007 0.120237
Si Si6 0.522652 0.417550 0.867762
Si Si7 0.078751 0.582078 0.758320
Si Si8 0.109836 0.233136 0.583064
O O1 0.500000 0.500000 0.500000
O O2 0.435498 0.306700 0.736789
O O3 0.729625 0.615321 0.540059
O O4 0.699785 0.110677 0.728499
O O5 0.428126 0.543631 0.890042
O O6 0.119091 0.516639 0.881771
O O7 0.193577 0.943255 0.764724
O O8 0.216468 0.380003 0.091392
O O9 0.333955 0.973612 0.388051
O O10 0.045911 0.913638 0.379239
O O11 0.420636 0.314785 0.321908
O O12 0.105920 0.286428 0.318535
O O13 0.216448 0.830161 0.609136
O O14 0.609769 0.784141 0.069950
O O15 0.873680 0.680373 0.178180
O O16 0.682087 0.184636 0.980709
O O17 0.000000 0.500000 0.500000
#
# Coordination Sequence:
#
# PCOD9034532 Si02
#       8
#     2   2   2   2   2   2   2   2
#     4  11  24  41  66 100 131 168 212 278 321 379
#     4  11  22  43  66  96 127 177 214 265 327 390
#     4  11  23  44  67  96 135 167 216 270 326 392
#     4  11  24  42  65 101 126 170 220 273 322 381
#     4  10  22  45  61  94 131 171 214 262 325 389
#     4  10  24  40  69  93 127 172 218 267 321 387
#     4  10  24  41  67  90 135 169 214 269 321 390
#     4  10  24  41  64  96 130 177 212 261 334 393
#
# _framework density 26.668061000000002
#
# number of rings (size 3 to 8) (size 9 to 14) (size 15 to 20)
#    0.000    1.500    2.500    1.125    5.250    3.000 
#    0.000    0.000    0.000    0.000    0.000    0.000 
#    0.000    0.000    0.000    0.000    0.000    0.000 
#
# Total GULP energy -89377.754178 kJ/mol
# GULP energy per Si atom -5586.109636 kJ/mol
# Density = 2.660736 g / cm^3
# Si number density = 26.668061 Si / 1000 Ang^3
#
#
#
# Elastic Constant Matrix: (Units=GPa)
#
#
# Indices 1 2 3 4 5 6 
#
# 1 74.9953 23.1556 1.8117 -10.0557 -8.4813 -10.2334
# 2 23.1556 96.3633 34.3680 -9.9514 4.4751 -28.9893
# 3 1.8117 34.3680 120.1225 -15.1884 -8.3160 -2.5931
# 4 -10.0557 -9.9514 -15.1884 57.3465 -6.4742 10.8549
# 5 -8.4813 4.4751 -8.3160 -6.4742 36.8504 -4.4909
# 6 -10.2334 -28.9893 -2.5931 10.8549 -4.4909 35.4633
#
#
#
# Elastic Compliance Matrix: (Units=1/GPa)
#
#
# Indices 1 2 3 4 5 6 
#
# 1 0.015622 -0.003913 0.001620 0.002835 0.005081 0.001203
# 2 -0.003913 0.016727 -0.004875 -0.001734 -0.002830 0.012360
# 3 0.001620 -0.004875 0.010262 0.003169 0.003435 -0.003302
# 4 0.002835 -0.001734 0.003169 0.020097 0.004382 -0.005964
# 5 0.005081 -0.002830 0.003435 0.004382 0.030429 0.001916
# 6 0.001203 0.012360 -0.003302 -0.005964 0.001916 0.040476
#
#
# Mechanical properties :
#
#
# Convention : Reuss Voigt Hill
#
# Bulk Modulus (GPa) = 35.36561 45.57240 40.46900
# Shear Modulus (GPa) = 31.77141 41.40842 36.58992
#
# Velocity S-wave (km/s) = 3.45536 3.94475 3.70814
# Velocity P-wave (km/s) = 5.40459 6.15418 5.79152
#
# Compressibility (1/GPa) = 0.02827606
#
# Stress axis : x y z
#
# Youngs Moduli (GPa) = 64.01146 59.78327 97.44284
#
# Poissons Ratio (x) = 0.23392 -0.15787
# Poissons Ratio (y) = 0.25047 0.47504
# Poissons Ratio (z) = -0.10371 0.29145
#
# Static dielectric constant tensor:
#      x y z
#    x 2.189060 -0.024970 0.071520 
#    y -0.024970 2.215590 -0.129740 
#    z 0.071520 -0.129740 2.107400 
# 
# From -- ./inp_files/331743.got.cif
#   From: 2010.05.17/outbox.cif.g08.bks.cpg/sg2_166_cif.got.tgz:331743.got - 2010.06.03 11:33:40.
