data_PCOD9034264
_publ_section_title
;
Structure prediction by ZEFSAII (Michael W. Deem and Ramdas Pophale) SiO2 
 PCOD9034264
Probable space group: P -1
;
_chemical_formula_sum "Si O2"
_cell_formula_units_Z 12
_cell_length_a 10.236636
_cell_length_b 15.342775
_cell_length_c 25.416999
_cell_angle_alpha 18.803328
_cell_angle_beta 154.250666
_cell_angle_gamma 152.247659
_cell_volume 543.874488
_symmetry_space_group_name_H-M "P -1"
_symmetry_group_IT_number 2
_symmetry_cell_setting 'triclinic'
loop_
_space_group_symop_operation_xyz
x,y,z
-x,-y,-z
loop_
_atom_site_type_symbol
_atom_site_label
_atom_site_fract_x
_atom_site_fract_y
_atom_site_fract_z
Si Si1 0.372496 0.303736 0.336515
Si Si2 0.856689 0.550185 0.201627
Si Si3 0.147347 0.998884 0.137315
Si Si4 0.857030 0.965992 0.409706
Si Si5 0.788626 0.870060 0.189038
Si Si6 0.698956 0.792902 0.750523
O O1 0.631665 0.542741 0.321296
O O2 0.309868 0.364379 0.218307
O O3 0.504873 0.029120 0.540077
O O4 0.054625 0.213209 0.304482
O O5 0.496720 0.406818 0.162640
O O6 0.068974 0.328043 0.412207
O O7 0.889892 0.707766 0.067856
O O8 0.954973 0.771554 0.157381
O O9 0.501567 0.975910 0.275971
O O10 0.016962 0.934137 0.185374
O O11 0.000000 0.000000 0.500000
O O12 0.969539 0.031181 0.211894
O O13 0.500000 0.000000 0.000000
#
# Coordination Sequence:
#
# PCOD9034264 Si02
#       6
#     2   2   2   2   2   2
#     4  10  23  46  66 101 131 174 227 274 338 398
#     4  10  23  44  70 102 132 182 225 274 343 394
#     4  11  24  45  69  98 141 174 226 285 327 407
#     4  11  25  43  71  99 135 180 223 277 339 404
#     4  12  27  42  68 102 133 178 225 276 339 403
#     4  10  22  44  72  92 137 176 221 283 331 397
#
# _framework density 22.063914
#
# number of rings (size 3 to 8) (size 9 to 14) (size 15 to 20)
#    0.000    1.333    1.667    3.000    4.667    4.667 
#    0.000    0.000    0.000    0.000    0.000    0.000 
#    0.000    0.000    0.000    0.000    0.000    0.000 
#
# Total GULP energy -67083.852997 kJ/mol
# GULP energy per Si atom -5590.321083 kJ/mol
# Density = 2.201370 g / cm^3
# Si number density = 22.063914 Si / 1000 Ang^3
#
#
#
# Elastic Constant Matrix: (Units=GPa)
#
#
# Indices 1 2 3 4 5 6 
#
# 1 52.0546 24.9736 14.7439 -7.1827 5.7887 20.5439
# 2 24.9736 106.6396 34.5601 -17.3234 19.2525 5.4653
# 3 14.7439 34.5601 45.4134 6.7235 -4.9040 23.7696
# 4 -7.1827 -17.3234 6.7235 24.3826 15.6075 -6.9596
# 5 5.7887 19.2525 -4.9040 15.6075 13.1139 5.5412
# 6 20.5439 5.4653 23.7696 -6.9596 5.5412 39.2796
#
#
#
# Elastic Compliance Matrix: (Units=1/GPa)
#
#
# Indices 1 2 3 4 5 6 
#
# 1 0.027214 -0.004617 0.000412 0.003419 -0.003783 -0.012701
# 2 -0.004617 0.003678 0.005817 -0.013120 0.017114 -0.006356
# 3 0.000412 0.005817 0.010184 0.021992 -0.031579 0.001164
# 4 0.003419 -0.013120 0.021992 -0.000133 0.033765 -0.018058
# 5 -0.003783 0.017114 -0.031579 0.033765 -0.010237 0.026133
# 6 -0.012701 -0.006356 0.001164 -0.018058 0.026133 0.025395
#
#
# Mechanical properties :
#
#
# Convention : Reuss Voigt Hill
#
# Bulk Modulus (GPa) = 22.57379 39.18476 30.87927
# Shear Modulus (GPa) = 73.91565 24.01055 48.96310
#
# Velocity S-wave (km/s) = 5.79426 3.30241 4.71589
# Velocity P-wave (km/s) = 7.41740 5.68677 6.60898
#
# Compressibility (1/GPa) = 0.04429917
#
# Stress axis : x y z
#
# Youngs Moduli (GPa) = 36.74566 271.87372 98.19040
#
# Poissons Ratio (x) = 1.25533 -0.04041
# Poissons Ratio (y) = 0.16967 -0.57119
# Poissons Ratio (z) = -0.01512 -1.58152
#
# Static dielectric constant tensor:
#      x y z
#    x 1.837770 0.007110 -0.006530 
#    y 0.007110 1.898330 -0.095010 
#    z -0.006530 -0.095010 1.879660 
# 
# From -- ./inp_files/172659.got.cif
#   From: 2010.05.17/outbox.cif.g08.bks.cpg/sg2_87_cif.got.tgz:172659.got - 2010.06.03 11:33:40.
