data_PCOD9034701
_publ_section_title
;
Structure prediction by ZEFSAII (Michael W. Deem and Ramdas Pophale) SiO2 
 PCOD9034701
Probable space group: P -1
;
_chemical_formula_sum "Si O2"
_cell_formula_units_Z 14
_cell_length_a 8.485210
_cell_length_b 8.390082
_cell_length_c 10.406440
_cell_angle_alpha 70.783892
_cell_angle_beta 103.040762
_cell_angle_gamma 122.733036
_cell_volume 587.420060
_symmetry_space_group_name_H-M "P -1"
_symmetry_group_IT_number 2
_symmetry_cell_setting 'triclinic'
loop_
_space_group_symop_operation_xyz
x,y,z
-x,-y,-z
loop_
_atom_site_type_symbol
_atom_site_label
_atom_site_fract_x
_atom_site_fract_y
_atom_site_fract_z
Si Si1 0.064918 0.316725 0.896668
Si Si2 0.034131 0.971773 0.822047
Si Si3 0.450652 0.690266 0.805643
Si Si4 0.557293 0.958062 0.383344
Si Si5 0.554547 0.832427 0.059683
Si Si6 0.745925 0.398139 0.740200
Si Si7 0.254273 0.225241 0.390078
O O1 0.276161 0.475896 0.855280
O O2 0.934773 0.407836 0.817739
O O3 0.988979 0.121428 0.848429
O O4 0.040618 0.230671 0.058530
O O5 0.933552 0.923318 0.680593
O O6 0.258307 0.081795 0.845249
O O7 0.578651 0.707433 0.703746
O O8 0.370121 0.837494 0.729988
O O9 0.574001 0.772701 0.935485
O O10 0.374474 0.790587 0.321768
O O11 0.692848 0.873491 0.460349
O O12 0.500000 0.000000 0.500000
O O13 0.383912 0.648801 0.145765
O O14 0.500000 0.000000 0.000000
O O15 0.764204 0.588743 0.625996
#
# Coordination Sequence:
#
# PCOD9034701 Si02
#       7
#     2   2   2   2   2   2   2
#     4  11  23  39  67  95 131 167 212 264 319 384
#     4  11  23  42  62  96 131 170 208 260 327 377
#     4  11  23  44  66  96 130 174 209 261 327 374
#     4  10  22  45  67  88 130 174 214 262 315 376
#     4  12  23  40  69  95 130 163 210 268 319 376
#     4  12  24  42  68  99 127 167 218 265 317 376
#     4  11  25  42  67  94 131 171 216 261 313 383
#
# _framework density 23.833027999999999
#
# number of rings (size 3 to 8) (size 9 to 14) (size 15 to 20)
#    0.000    0.857    2.857    5.571    2.000    2.857 
#    0.000   10.714    0.000    0.000    0.000    0.000 
#    0.000    0.000    0.000    0.000    0.000    0.000 
#
# Total GULP energy -78431.708993 kJ/mol
# GULP energy per Si atom -5602.264928 kJ/mol
# Density = 2.377878 g / cm^3
# Si number density = 23.833028 Si / 1000 Ang^3
#
#
#
# Elastic Constant Matrix: (Units=GPa)
#
#
# Indices 1 2 3 4 5 6 
#
# 1 101.6668 24.4450 31.2326 -13.0705 25.0710 17.3650
# 2 24.4450 113.8508 35.6396 -12.5180 12.3155 6.0037
# 3 31.2326 35.6396 105.6243 -10.2017 30.0062 0.0168
# 4 -13.0705 -12.5180 -10.2017 36.7947 -16.7041 13.9633
# 5 25.0710 12.3155 30.0062 -16.7041 49.1824 -1.9732
# 6 17.3650 6.0037 0.0168 13.9633 -1.9732 45.5436
#
#
#
# Elastic Compliance Matrix: (Units=1/GPa)
#
#
# Indices 1 2 3 4 5 6 
#
# 1 0.013393 -0.000956 -0.002045 0.004495 -0.004076 -0.006534
# 2 -0.000956 0.010364 -0.003135 0.003504 0.000913 -0.002035
# 3 -0.002045 -0.003135 0.012815 -0.001751 -0.006528 0.001442
# 4 0.004495 0.003504 -0.001751 0.039650 0.010809 -0.013863
# 5 -0.004076 0.000913 -0.006528 0.010809 0.029812 -0.000586
# 6 -0.006534 -0.002035 0.001442 -0.013863 -0.000586 0.028941
#
#
# Mechanical properties :
#
#
# Convention : Reuss Voigt Hill
#
# Bulk Modulus (GPa) = 41.15047 55.97513 48.56280
# Shear Modulus (GPa) = 32.18621 41.62578 36.90599
#
# Velocity S-wave (km/s) = 3.67888 4.18372 3.93940
# Velocity P-wave (km/s) = 5.94552 6.84656 6.41189
#
# Compressibility (1/GPa) = 0.02430106
#
# Stress axis : x y z
#
# Youngs Moduli (GPa) = 74.66513 96.48914 78.03305
#
# Poissons Ratio (x) = 0.09223 0.15955
# Poissons Ratio (y) = 0.07137 0.24463
# Poissons Ratio (z) = 0.15266 0.30249
#
# Static dielectric constant tensor:
#      x y z
#    x 1.940170 -0.028200 -0.015320 
#    y -0.028200 1.865790 -0.027720 
#    z -0.015320 -0.027720 1.916180 
# 
# From -- ./inp_files/242497.got.cif
#   From: 2010.05.17/outbox.cif.g08.bks.cpg/sg2_122_cif.got.tgz:242497.got - 2010.06.03 11:33:40.
