data_PCOD9034282
_publ_section_title
;
Structure prediction by ZEFSAII (Michael W. Deem and Ramdas Pophale) SiO2 
 PCOD9034282
Probable space group: P -1
;
_chemical_formula_sum "Si O2"
_cell_formula_units_Z 14
_cell_length_a 8.135778
_cell_length_b 8.580015
_cell_length_c 14.593538
_cell_angle_alpha 109.320071
_cell_angle_beta 141.427343
_cell_angle_gamma 58.801416
_cell_volume 538.032942
_symmetry_space_group_name_H-M "P -1"
_symmetry_group_IT_number 2
_symmetry_cell_setting 'triclinic'
loop_
_space_group_symop_operation_xyz
x,y,z
-x,-y,-z
loop_
_atom_site_type_symbol
_atom_site_label
_atom_site_fract_x
_atom_site_fract_y
_atom_site_fract_z
Si Si1 0.480422 0.943666 0.226884
Si Si2 0.679126 0.054908 0.513074
Si Si3 0.977143 0.224526 0.961402
Si Si4 0.117027 0.655070 0.261086
Si Si5 0.656726 0.563208 0.002851
Si Si6 0.214501 0.674282 0.669669
Si Si7 0.078750 0.563321 0.412496
O O1 0.520977 0.067313 0.349497
O O2 0.247623 0.866082 0.140497
O O3 0.794938 0.763882 0.324551
O O4 0.310775 0.071512 0.091633
O O5 0.000413 0.886506 0.607621
O O6 0.500000 0.000000 0.500000
O O7 0.748808 0.214007 0.615283
O O8 0.920268 0.375427 0.044719
O O9 0.872921 0.331849 0.841622
O O10 0.198575 0.508255 0.351880
O O11 0.767217 0.703999 0.118336
O O12 0.461490 0.643459 0.844285
O O13 0.500000 0.500000 0.000000
O O14 0.028297 0.577878 0.617771
O O15 0.294613 0.586141 0.585945
#
# Coordination Sequence:
#
# PCOD9034282 Si02
#       7
#     2   2   2   2   2   2   2
#     4  10  22  44  72  96 146 185 224 285 349 413
#     4  11  25  44  69 102 142 181 231 288 348 405
#     4  11  24  43  69 106 140 181 231 289 346 411
#     4  12  26  44  72 107 138 182 239 285 345 414
#     4  12  25  46  71 101 142 183 230 286 352 412
#     4  10  23  44  74  96 144 186 229 282 349 415
#     4  10  22  45  71 104 134 188 234 279 347 411
#
# _framework density 26.020710999999999
#
# number of rings (size 3 to 8) (size 9 to 14) (size 15 to 20)
#    0.000    1.143    4.286    0.429    2.000    6.857 
#    0.000    5.000    0.000    0.000    0.000    0.000 
#    0.000    0.000    0.000    0.000    0.000    0.000 
#
# Total GULP energy -78237.207409 kJ/mol
# GULP energy per Si atom -5588.371958 kJ/mol
# Density = 2.596149 g / cm^3
# Si number density = 26.020711 Si / 1000 Ang^3
#
#
#
# Elastic Constant Matrix: (Units=GPa)
#
#
# Indices 1 2 3 4 5 6 
#
# 1 83.6409 22.0383 28.3601 -2.9983 -31.1408 21.7980
# 2 22.0383 73.7340 37.2638 5.3512 2.4461 -3.5089
# 3 28.3601 37.2638 217.5798 -7.0774 -10.7573 -0.1168
# 4 -2.9983 5.3512 -7.0774 58.1877 0.4186 11.7213
# 5 -31.1408 2.4461 -10.7573 0.4186 52.2616 2.1417
# 6 21.7980 -3.5089 -0.1168 11.7213 2.1417 40.3586
#
#
#
# Elastic Compliance Matrix: (Units=1/GPa)
#
#
# Indices 1 2 3 4 5 6 
#
# 1 0.024860 -0.008704 -0.000814 0.005199 0.015689 -0.016529
# 2 -0.008704 0.018292 -0.002461 -0.003951 -0.006837 0.007794
# 3 -0.000814 -0.002461 0.005184 0.000817 0.000692 -0.000033
# 4 0.005199 -0.003951 0.000817 0.019717 0.003665 -0.009070
# 5 0.015689 -0.006837 0.000692 0.003665 0.029395 -0.011690
# 6 -0.016529 0.007794 -0.000033 -0.009070 -0.011690 0.037637
#
#
# Mechanical properties :
#
#
# Convention : Reuss Voigt Hill
#
# Bulk Modulus (GPa) = 41.01674 61.14212 51.07943
# Shear Modulus (GPa) = 29.90988 49.31442 39.61215
#
# Velocity S-wave (km/s) = 3.39405 4.35811 3.90594
# Velocity P-wave (km/s) = 5.58183 6.99090 6.32572
#
# Compressibility (1/GPa) = 0.02438029
#
# Stress axis : x y z
#
# Youngs Moduli (GPa) = 40.22455 54.66975 192.89096
#
# Poissons Ratio (x) = 0.47582 0.15699
# Poissons Ratio (y) = 0.35010 0.47463
# Poissons Ratio (z) = 0.03274 0.13452
#
# Static dielectric constant tensor:
#      x y z
#    x 2.143950 -0.044400 0.016220 
#    y -0.044400 2.076330 -0.028760 
#    z 0.016220 -0.028760 2.024500 
# 
# From -- ./inp_files/493256.got.cif
#   From: 2010.05.17/outbox.cif.g08.bks.cpg/sg2_247_cif.got.tgz:493256.got - 2010.06.03 11:33:40.
