data_PCOD9034780
_publ_section_title
;
Structure prediction by ZEFSAII (Michael W. Deem and Ramdas Pophale) SiO2 
 PCOD9034780
Probable space group: P -1
;
_chemical_formula_sum "Si O2"
_cell_formula_units_Z 14
_cell_length_a 5.004441
_cell_length_b 19.983871
_cell_length_c 14.629745
_cell_angle_alpha 25.650013
_cell_angle_beta 85.623767
_cell_angle_gamma 70.648089
_cell_volume 501.176683
_symmetry_space_group_name_H-M "P -1"
_symmetry_group_IT_number 2
_symmetry_cell_setting 'triclinic'
loop_
_space_group_symop_operation_xyz
x,y,z
-x,-y,-z
loop_
_atom_site_type_symbol
_atom_site_label
_atom_site_fract_x
_atom_site_fract_y
_atom_site_fract_z
Si Si1 0.445644 0.863472 0.977047
Si Si2 0.459763 0.589453 0.653875
Si Si3 0.790235 0.555804 0.042043
Si Si4 0.880398 0.313398 0.716164
Si Si5 0.806296 0.808914 0.859253
Si Si6 0.678353 0.821505 0.287028
Si Si7 0.463240 0.757288 0.642938
O O1 0.813766 0.715574 0.199574
O O2 0.168445 0.842401 0.049586
O O3 0.526084 0.837524 0.900691
O O4 0.325829 0.076152 0.747965
O O5 0.488815 0.727350 0.417711
O O6 0.399859 0.694706 0.625668
O O7 0.226480 0.524028 0.761090
O O8 0.822058 0.378495 0.889869
O O9 0.778788 0.739757 0.845971
O O10 0.465711 0.655419 0.861668
O O11 0.128259 0.365758 0.223388
O O12 0.500000 0.500000 0.500000
O O13 0.970387 0.311643 0.610234
O O14 0.745804 0.013544 0.618378
O O15 0.500000 0.000000 0.000000
#
# Coordination Sequence:
#
# PCOD9034780 Si02
#       7
#     2   2   2   2   2   2   2
#     4  11  24  44  68 102 141 193 239 296 367 435
#     4  11  23  43  68 101 138 183 243 293 359 432
#     4  10  24  42  72 103 139 187 234 299 364 439
#     4  11  24  44  70 102 143 183 247 306 362 429
#     4  11  24  42  67 104 144 180 241 294 366 434
#     4  10  23  46  68  99 141 190 242 295 362 433
#     4  10  22  45  68 102 143 183 235 297 366 437
#
# _framework density 27.934263000000001
#
# number of rings (size 3 to 8) (size 9 to 14) (size 15 to 20)
#    0.000    1.429    1.429    2.571    2.000    5.143 
#   10.286    0.000    0.000    0.000    0.000    0.000 
#    0.000    0.000    0.000    0.000    0.000    0.000 
#
# Total GULP energy -78251.615078 kJ/mol
# GULP energy per Si atom -5589.401077 kJ/mol
# Density = 2.787068 g / cm^3
# Si number density = 27.934263 Si / 1000 Ang^3
#
#
#
# Elastic Constant Matrix: (Units=GPa)
#
#
# Indices 1 2 3 4 5 6 
#
# 1 91.1378 15.9817 22.2379 -0.3138 -16.4541 -12.9750
# 2 15.9817 142.7133 38.9535 -30.2289 -3.3511 -10.3171
# 3 22.2379 38.9535 172.5068 -19.2928 -7.4637 -5.1081
# 4 -0.3138 -30.2289 -19.2928 59.9113 -3.7730 -9.6916
# 5 -16.4541 -3.3511 -7.4637 -3.7730 36.3798 -4.2622
# 6 -12.9750 -10.3171 -5.1081 -9.6916 -4.2622 34.9725
#
#
#
# Elastic Compliance Matrix: (Units=1/GPa)
#
#
# Indices 1 2 3 4 5 6 
#
# 1 0.013296 -0.000462 -0.001070 0.000817 0.006499 0.005659
# 2 -0.000462 0.008668 -0.001216 0.004649 0.001250 0.003649
# 3 -0.001070 -0.001216 0.006459 0.001647 0.000990 0.000765
# 4 0.000817 0.004649 0.001647 0.021187 0.004307 0.008311
# 5 0.006499 0.001250 0.000990 0.004307 0.032133 0.008034
# 6 0.005659 0.003649 0.000765 0.008311 0.008034 0.035164
#
#
# Mechanical properties :
#
#
# Convention : Reuss Voigt Hill
#
# Bulk Modulus (GPa) = 43.61416 62.30044 52.95730
# Shear Modulus (GPa) = 38.44780 48.19837 43.32308
#
# Velocity S-wave (km/s) = 3.71397 4.15833 3.94241
# Velocity P-wave (km/s) = 5.83425 6.73843 6.30258
#
# Compressibility (1/GPa) = 0.02292833
#
# Stress axis : x y z
#
# Youngs Moduli (GPa) = 75.20894 115.36047 154.82389
#
# Poissons Ratio (x) = 0.05334 0.16559
# Poissons Ratio (y) = 0.03477 0.18823
# Poissons Ratio (z) = 0.08044 0.14026
#
# Static dielectric constant tensor:
#      x y z
#    x 2.426780 -0.068480 0.066020 
#    y -0.068480 2.490010 0.075050 
#    z 0.066020 0.075050 2.255120 
# 
# From -- ./inp_files/141084.got.cif
#   From: 2010.05.17/outbox.cif.g08.bks.cpg/sg2_71_cif.got.tgz:141084.got - 2010.06.03 11:33:40.
