data_PCOD9034805
_publ_section_title
;
Structure prediction by ZEFSAII (Michael W. Deem and Ramdas Pophale) SiO2 
 PCOD9034805
Probable space group: P -1
;
_chemical_formula_sum "Si O2"
_cell_formula_units_Z 16
_cell_length_a 14.832436
_cell_length_b 22.546433
_cell_length_c 5.777225
_cell_angle_alpha 80.947064
_cell_angle_beta 100.572613
_cell_angle_gamma 159.736595
_cell_volume 657.146373
_symmetry_space_group_name_H-M "P -1"
_symmetry_group_IT_number 2
_symmetry_cell_setting 'triclinic'
loop_
_space_group_symop_operation_xyz
x,y,z
-x,-y,-z
loop_
_atom_site_type_symbol
_atom_site_label
_atom_site_fract_x
_atom_site_fract_y
_atom_site_fract_z
Si Si1 0.861300 0.373373 0.209094
Si Si2 0.872569 0.541657 0.360327
Si Si3 0.986129 0.940288 0.331670
Si Si4 0.531704 0.771610 0.924950
Si Si5 0.557405 0.435346 0.609950
Si Si6 0.359802 0.854598 0.105912
Si Si7 0.278160 0.355939 0.175034
Si Si8 0.250666 0.013937 0.737467
O O1 0.600449 0.249213 0.234277
O O2 0.039979 0.463334 0.450501
O O3 0.777374 0.261762 0.105470
O O4 0.000000 0.500000 0.000000
O O5 0.685466 0.409899 0.137867
O O6 0.715208 0.485976 0.497751
O O7 0.137931 0.731474 0.266562
O O8 0.681465 0.742355 0.254591
O O9 0.103528 0.950768 0.487790
O O10 0.000000 0.000000 0.500000
O O11 0.194794 0.080866 0.144628
O O12 0.590495 0.832821 0.170278
O O13 0.408091 0.388842 0.393865
O O14 0.744390 0.592103 0.752985
O O15 0.562150 0.927783 0.245805
O O16 0.500000 0.000000 0.000000
O O17 0.990141 0.154356 0.104120
O O18 0.500000 0.500000 0.000000
#
# Coordination Sequence:
#
# PCOD9034805 Si02
#       8
#     2   2   2   2   2   2   2   2
#     4  11  25  44  72 102 136 186 234 282 358 423
#     4  12  25  43  72 101 143 178 230 297 347 414
#     4  11  22  42  64 100 137 173 226 287 349 410
#     4  11  23  41  69  97 132 179 221 283 354 406
#     4  10  24  41  65 102 128 180 227 275 345 415
#     4  11  27  46  67 105 142 183 241 284 352 423
#     4  10  22  45  68  87 136 181 227 272 341 409
#     4  10  25  43  66  97 135 177 227 291 340 415
#
# _framework density 24.347695999999999
#
# number of rings (size 3 to 8) (size 9 to 14) (size 15 to 20)
#    0.000    1.250    2.500    1.875    7.000    1.000 
#    6.750    0.000    0.000    0.000    0.000    0.000 
#    0.000    0.000    0.000    0.000    0.000    0.000 
#
# Total GULP energy -89533.588768 kJ/mol
# GULP energy per Si atom -5595.849298 kJ/mol
# Density = 2.429228 g / cm^3
# Si number density = 24.347696 Si / 1000 Ang^3
#
#
#
# Elastic Constant Matrix: (Units=GPa)
#
#
# Indices 1 2 3 4 5 6 
#
# 1 131.5760 57.4512 20.4817 -7.5797 -6.9800 14.2502
# 2 57.4512 155.6130 50.4543 -24.2024 5.3902 12.4299
# 3 20.4817 50.4543 49.7071 -7.1893 18.0590 1.8530
# 4 -7.5797 -24.2024 -7.1893 49.8155 4.9281 -1.8047
# 5 -6.9800 5.3902 18.0590 4.9281 32.4421 -3.9969
# 6 14.2502 12.4299 1.8530 -1.8047 -3.9969 50.1353
#
#
#
# Elastic Compliance Matrix: (Units=1/GPa)
#
#
# Indices 1 2 3 4 5 6 
#
# 1 0.009567 -0.002836 -0.002496 -0.000720 0.003826 -0.001645
# 2 -0.002836 0.011608 -0.011203 0.003243 0.003045 -0.001298
# 3 -0.002496 -0.011203 0.040673 0.002197 -0.021609 0.000340
# 4 -0.000720 0.003243 0.002197 0.022376 -0.005353 -0.000302
# 5 0.003826 0.003045 -0.021609 -0.005353 0.044265 0.002293
# 6 -0.001645 -0.001298 0.000340 -0.000302 0.002293 0.020895
#
#
# Mechanical properties :
#
#
# Convention : Reuss Voigt Hill
#
# Bulk Modulus (GPa) = 34.74848 65.96339 50.35593
# Shear Modulus (GPa) = 26.03535 40.37919 33.20727
#
# Velocity S-wave (km/s) = 3.27359 4.07681 3.69708
# Velocity P-wave (km/s) = 5.34708 7.02222 6.24111
#
# Compressibility (1/GPa) = 0.02877824
#
# Stress axis : x y z
#
# Youngs Moduli (GPa) = 104.53112 86.14721 24.58608
#
# Poissons Ratio (x) = 0.24429 0.06138
# Poissons Ratio (y) = 0.29642 0.27543
# Poissons Ratio (z) = 0.26095 0.96509
#
# Static dielectric constant tensor:
#      x y z
#    x 1.936620 -0.012990 0.019440 
#    y -0.012990 1.948630 -0.035420 
#    z 0.019440 -0.035420 1.997020 
# 
# From -- ./inp_files/101099.got.cif
#   From: 2010.05.17/outbox.cif.g08.bks.cpg/sg2_51_cif.got.tgz:101099.got - 2010.06.03 11:33:40.
