data_PCOD9034681
_publ_section_title
;
Structure prediction by ZEFSAII (Michael W. Deem and Ramdas Pophale) SiO2 
 PCOD9034681
Probable space group: P -1
;
_chemical_formula_sum "Si O2"
_cell_formula_units_Z 9
_cell_length_a 7.887264
_cell_length_b 9.152741
_cell_length_c 5.716393
_cell_angle_alpha 60.068456
_cell_angle_beta 66.079246
_cell_angle_gamma 63.253816
_cell_volume 310.514101
_symmetry_space_group_name_H-M "P -1"
_symmetry_group_IT_number 2
_symmetry_cell_setting 'triclinic'
loop_
_space_group_symop_operation_xyz
x,y,z
-x,-y,-z
loop_
_atom_site_type_symbol
_atom_site_label
_atom_site_fract_x
_atom_site_fract_y
_atom_site_fract_z
Si Si1 0.126573 0.874444 0.329228
Si Si2 0.772369 0.380568 0.154689
Si Si3 0.500000 0.000000 0.000000
Si Si4 0.898838 0.693015 0.290797
Si Si5 0.553469 0.754940 0.742427
O O1 0.233961 0.675255 0.531328
O O2 0.980383 0.835870 0.256115
O O3 0.000000 0.000000 0.500000
O O4 0.299804 0.949364 0.109191
O O5 0.657852 0.262099 0.181357
O O6 0.662368 0.578011 0.974558
O O7 0.000246 0.330138 0.998895
O O8 0.577805 0.909742 0.766547
O O9 0.670225 0.741014 0.438026
O O10 0.000000 0.500000 0.500000
#
# Coordination Sequence:
#
# PCOD9034681 Si02
#       5
#     2   2   1   2   2
#     4  12  26  45  65 101 135 176 218 272 331 388
#     4  10  24  45  70  94 134 177 221 267 327 395
#     4  12  24  44  66 102 140 164 226 270 330 394
#     4  10  22  45  68  98 131 170 226 269 325 394
#     4  10  22  45  67 101 131 173 220 271 330 390
#
# _framework density 28.984193999999999
#
# number of rings (size 3 to 8) (size 9 to 14) (size 15 to 20)
#    0.000    1.333    4.444    0.000    0.000    8.000 
#    0.000    0.000    0.000    0.000    0.000    0.000 
#    0.000    0.000    0.000    0.000    0.000    0.000 
#
# Total GULP energy -50285.342940 kJ/mol
# GULP energy per Si atom -5587.260327 kJ/mol
# Density = 2.891822 g / cm^3
# Si number density = 28.984194 Si / 1000 Ang^3
#
#
#
# Elastic Constant Matrix: (Units=GPa)
#
#
# Indices 1 2 3 4 5 6 
#
# 1 161.3869 48.4133 40.1259 1.9075 -29.8338 20.7639
# 2 48.4133 120.5211 14.6807 -6.9024 -6.2047 22.5083
# 3 40.1259 14.6807 109.6593 -10.9946 -41.4694 -13.3813
# 4 1.9075 -6.9024 -10.9946 51.2298 -13.1266 12.0829
# 5 -29.8338 -6.2047 -41.4694 -13.1266 53.8402 4.9744
# 6 20.7639 22.5083 -13.3813 12.0829 4.9744 66.6664
#
#
#
# Elastic Compliance Matrix: (Units=1/GPa)
#
#
# Indices 1 2 3 4 5 6 
#
# 1 0.008278 -0.002475 -0.001695 0.000412 0.003319 -0.002405
# 2 -0.002475 0.010074 -0.000548 0.002116 0.000173 -0.003137
# 3 -0.001695 -0.000548 0.015124 0.005863 0.011910 0.001797
# 4 0.000412 0.002116 0.005863 0.025227 0.011610 -0.005105
# 5 0.003319 0.000173 0.011910 0.011610 0.032737 -0.003249
# 6 -0.002405 -0.003137 0.001797 -0.005105 -0.003249 0.018337
#
#
# Mechanical properties :
#
#
# Convention : Reuss Voigt Hill
#
# Bulk Modulus (GPa) = 41.59737 66.44524 54.02130
# Shear Modulus (GPa) = 39.30015 53.57044 46.43529
#
# Velocity S-wave (km/s) = 3.68627 4.30381 4.00695
# Velocity P-wave (km/s) = 5.70097 6.90445 6.33137
#
# Compressibility (1/GPa) = 0.02403998
#
# Stress axis : x y z
#
# Youngs Moduli (GPa) = 120.79647 99.26229 66.12171
#
# Poissons Ratio (x) = 0.24570 0.11205
# Poissons Ratio (y) = 0.29901 0.03625
# Poissons Ratio (z) = 0.20471 0.05442
#
# Static dielectric constant tensor:
#      x y z
#    x 2.241450 -0.202700 0.190840 
#    y -0.202700 4.027770 0.703950 
#    z 0.190840 0.703950 2.805330 
# 
# From -- ./inp_files/15138.got.cif
#   From: 2010.05.17/outbox.cif.g08.bks.cpg/sg2_8_cif.got.tgz:15138.got - 2010.06.03 11:33:40.
