data_PCOD9034979
_publ_section_title
;
Structure prediction by ZEFSAII (Michael W. Deem and Ramdas Pophale) SiO2 
 PCOD9034979
Probable space group: P -1
;
_chemical_formula_sum "Si O2"
_cell_formula_units_Z 14
_cell_length_a 11.977306
_cell_length_b 9.009336
_cell_length_c 12.191906
_cell_angle_alpha 116.728815
_cell_angle_beta 145.680087
_cell_angle_gamma 55.569729
_cell_volume 611.389507
_symmetry_space_group_name_H-M "P -1"
_symmetry_group_IT_number 2
_symmetry_cell_setting 'triclinic'
loop_
_space_group_symop_operation_xyz
x,y,z
-x,-y,-z
loop_
_atom_site_type_symbol
_atom_site_label
_atom_site_fract_x
_atom_site_fract_y
_atom_site_fract_z
Si Si1 0.876992 0.889518 0.621280
Si Si2 0.535247 0.171051 0.542011
Si Si3 0.720635 0.146862 0.214481
Si Si4 0.211969 0.456602 0.232044
Si Si5 0.038662 0.520675 0.761201
Si Si6 0.301293 0.159732 0.752251
Si Si7 0.444063 0.507430 0.229401
O O1 0.696929 0.895327 0.389359
O O2 0.083512 0.865322 0.707444
O O3 0.929997 0.717045 0.685130
O O4 0.780799 0.081763 0.668062
O O5 0.364378 0.260893 0.336505
O O6 0.509101 0.313361 0.665202
O O7 0.500000 0.000000 0.500000
O O8 0.630052 0.328401 0.274812
O O9 0.767930 0.975363 0.274650
O O10 0.525967 0.150251 0.979340
O O11 0.373240 0.498312 0.295176
O O12 0.105894 0.539348 0.290410
O O13 0.000000 0.500000 0.000000
O O14 0.133317 0.363901 0.697552
O O15 0.239791 0.527237 0.995882
#
# Coordination Sequence:
#
# PCOD9034979 Si02
#       7
#     2   2   2   2   2   2   2
#     4  12  25  42  69 103 145 184 232 290 364 413
#     4  12  26  44  69 107 141 182 239 292 355 418
#     4  10  24  46  71 104 135 187 239 290 357 416
#     4  10  22  45  69  98 139 184 233 284 350 415
#     4  10  23  43  67 106 134 189 228 293 357 413
#     4  10  23  43  71 102 140 181 241 291 344 434
#     4  10  24  45  71  98 142 183 240 290 347 428
#
# _framework density 22.89866
#
# number of rings (size 3 to 8) (size 9 to 14) (size 15 to 20)
#    0.000    1.429    1.429    2.143    4.000    6.286 
#    5.143    0.000    0.000    0.000    0.000    0.000 
#    0.000    0.000    0.000    0.000    0.000    0.000 
#
# Total GULP energy -78179.292649 kJ/mol
# GULP energy per Si atom -5584.235189 kJ/mol
# Density = 2.284654 g / cm^3
# Si number density = 22.898660 Si / 1000 Ang^3
#
#
#
# Elastic Constant Matrix: (Units=GPa)
#
#
# Indices 1 2 3 4 5 6 
#
# 1 92.0048 19.4532 20.6411 2.2553 17.5395 -2.4414
# 2 19.4532 133.4042 30.8482 0.9645 8.2661 -13.0046
# 3 20.6411 30.8482 67.9078 3.2018 2.4565 -2.9207
# 4 2.2553 0.9645 3.2018 38.4856 1.7157 -2.1798
# 5 17.5395 8.2661 2.4565 1.7157 28.3802 -5.0753
# 6 -2.4414 -13.0046 -2.9207 -2.1798 -5.0753 37.4357
#
#
#
# Elastic Compliance Matrix: (Units=1/GPa)
#
#
# Indices 1 2 3 4 5 6 
#
# 1 0.013269 -0.000724 -0.003445 -0.000166 -0.007811 -0.000723
# 2 -0.000724 0.008769 -0.003620 0.000329 -0.001357 0.002552
# 3 -0.003445 -0.003620 0.017414 -0.001232 0.001759 0.000043
# 4 -0.000166 0.000329 -0.001232 0.026220 -0.001227 0.001368
# 5 -0.007811 -0.001357 0.001759 -0.001227 0.041216 0.004673
# 6 -0.000723 0.002552 0.000043 0.001368 0.004673 0.028268
#
#
# Mechanical properties :
#
#
# Convention : Reuss Voigt Hill
#
# Bulk Modulus (GPa) = 41.88690 48.35574 45.12132
# Shear Modulus (GPa) = 31.50759 35.68525 33.59642
#
# Velocity S-wave (km/s) = 3.71341 3.95194 3.83453
# Velocity P-wave (km/s) = 6.05953 6.47973 6.27315
#
# Compressibility (1/GPa) = 0.02387381
#
# Stress axis : x y z
#
# Youngs Moduli (GPa) = 75.36482 114.03623 57.42523
#
# Poissons Ratio (x) = 0.08251 0.19784
# Poissons Ratio (y) = 0.05453 0.20789
# Poissons Ratio (z) = 0.25965 0.41284
#
# Static dielectric constant tensor:
#      x y z
#    x 1.910010 -0.013400 0.062090 
#    y -0.013400 1.830440 -0.009070 
#    z 0.062090 -0.009070 1.862520 
# 
# From -- ./inp_files/256741.got.cif
#   From: 2010.05.17/outbox.cif.g08.bks.cpg/sg2_129_cif.got.tgz:256741.got - 2010.06.03 11:33:40.
