data_PCOD9034382
_publ_section_title
;
Structure prediction by ZEFSAII (Michael W. Deem and Ramdas Pophale) SiO2 
 PCOD9034382
Probable space group: P -1
;
_chemical_formula_sum "Si O2"
_cell_formula_units_Z 15
_cell_length_a 16.112863
_cell_length_b 12.171965
_cell_length_c 5.652183
_cell_angle_alpha 115.692297
_cell_angle_beta 68.097529
_cell_angle_gamma 138.714681
_cell_volume 657.025335
_symmetry_space_group_name_H-M "P -1"
_symmetry_group_IT_number 2
_symmetry_cell_setting 'triclinic'
loop_
_space_group_symop_operation_xyz
x,y,z
-x,-y,-z
loop_
_atom_site_type_symbol
_atom_site_label
_atom_site_fract_x
_atom_site_fract_y
_atom_site_fract_z
Si Si1 0.128348 0.103421 0.317104
Si Si2 0.898060 0.519865 0.943451
Si Si3 0.374025 0.451172 0.644863
Si Si4 0.792335 0.637876 0.880909
Si Si5 0.246750 0.823242 0.420872
Si Si6 0.823457 0.136267 0.961901
Si Si7 0.673362 0.347940 0.348752
Si Si8 0.500000 0.000000 0.500000
O O1 0.252938 0.277738 0.477265
O O2 0.121099 0.178382 0.160014
O O3 0.152719 0.984516 0.147807
O O4 0.000000 0.000000 0.500000
O O5 0.865696 0.623971 0.975856
O O6 0.867550 0.383238 0.664394
O O7 0.790221 0.395688 0.139019
O O8 0.041100 0.665973 0.008511
O O9 0.500000 0.500000 0.500000
O O10 0.388762 0.607552 0.707351
O O11 0.327629 0.408574 0.923809
O O12 0.739218 0.490482 0.615058
O O13 0.239008 0.898445 0.262094
O O14 0.376565 0.874667 0.337150
O O15 0.243967 0.886651 0.741754
O O16 0.572686 0.160654 0.386488
#
# Coordination Sequence:
#
# PCOD9034382 Si02
#       8
#     2   2   2   2   2   2   2   1
#     4  11  26  46  72 110 150 197 251 314 382 453
#     4  11  24  48  73 105 151 193 250 305 385 452
#     4  10  24  42  69 103 148 190 250 316 377 450
#     4  10  22  44  74 102 143 203 245 300 390 450
#     4  12  29  48  74 113 149 204 244 325 371 455
#     4  12  29  46  78 114 152 193 260 311 379 451
#     4  10  23  43  70 107 136 199 245 301 379 454
#     4  12  26  48  76 100 154 192 256 298 382 448
#
# _framework density 22.830171
#
# number of rings (size 3 to 8) (size 9 to 14) (size 15 to 20)
#    0.000    1.067    1.333    4.000    7.467    6.400 
#    0.000    0.000    0.000    0.000    0.000    0.000 
#    0.000    0.000    0.000    0.000    0.000    0.000 
#
# Total GULP energy -83609.297343 kJ/mol
# GULP energy per Si atom -5573.953156 kJ/mol
# Density = 2.277821 g / cm^3
# Si number density = 22.830171 Si / 1000 Ang^3
#
#
#
# Elastic Constant Matrix: (Units=GPa)
#
#
# Indices 1 2 3 4 5 6 
#
# 1 79.4280 26.2928 22.6996 -10.5804 4.5964 -7.1945
# 2 26.2928 136.1473 21.2561 -17.3871 11.4856 -23.4933
# 3 22.6996 21.2561 95.4424 -11.9506 -2.2918 -10.9615
# 4 -10.5804 -17.3871 -11.9506 36.2485 -5.3687 8.2819
# 5 4.5964 11.4856 -2.2918 -5.3687 30.2126 6.5489
# 6 -7.1945 -23.4933 -10.9615 8.2819 6.5489 43.1269
#
#
#
# Elastic Compliance Matrix: (Units=1/GPa)
#
#
# Indices 1 2 3 4 5 6 
#
# 1 0.014395 -0.001884 -0.002721 0.002077 -0.001420 0.000500
# 2 -0.001884 0.009249 -0.000925 0.001911 -0.003985 0.004727
# 3 -0.002721 -0.000925 0.011853 0.002658 0.001864 0.001261
# 4 0.002077 0.001911 0.002658 0.032002 0.005926 -0.004982
# 5 -0.001420 -0.003985 0.001864 0.005926 0.037939 -0.008833
# 6 0.000500 0.004727 0.001261 -0.004982 -0.008833 0.028465
#
#
# Mechanical properties :
#
#
# Convention : Reuss Voigt Hill
#
# Bulk Modulus (GPa) = 40.92044 50.16829 45.54437
# Shear Modulus (GPa) = 32.65646 37.96888 35.31267
#
# Velocity S-wave (km/s) = 3.78618 4.08254 3.93715
# Velocity P-wave (km/s) = 6.08903 6.65170 6.37657
#
# Compressibility (1/GPa) = 0.02443766
#
# Stress axis : x y z
#
# Youngs Moduli (GPa) = 69.46713 108.11721 84.36626
#
# Poissons Ratio (x) = 0.20369 0.22954
# Poissons Ratio (y) = 0.13087 0.07806
# Poissons Ratio (z) = 0.18900 0.10004
#
# Static dielectric constant tensor:
#      x y z
#    x 1.865510 -0.008770 0.016770 
#    y -0.008770 1.791860 -0.012940 
#    z 0.016770 -0.012940 1.939060 
# 
# From -- ./inp_files/95269.got.cif
#   From: 2010.05.17/outbox.cif.g08.bks.cpg/sg2_48_cif.got.tgz:95269.got - 2010.06.03 11:33:40.
