data_PCOD9034889
_publ_section_title
;
Structure prediction by ZEFSAII (Michael W. Deem and Ramdas Pophale) SiO2 
 PCOD9034889
Probable space group: P -1
;
_chemical_formula_sum "Si O2"
_cell_formula_units_Z 16
_cell_length_a 18.126872
_cell_length_b 5.605289
_cell_length_c 8.028575
_cell_angle_alpha 104.715470
_cell_angle_beta 48.431799
_cell_angle_gamma 104.561129
_cell_volume 586.417486
_symmetry_space_group_name_H-M "P -1"
_symmetry_group_IT_number 2
_symmetry_cell_setting 'triclinic'
loop_
_space_group_symop_operation_xyz
x,y,z
-x,-y,-z
loop_
_atom_site_type_symbol
_atom_site_label
_atom_site_fract_x
_atom_site_fract_y
_atom_site_fract_z
Si Si1 0.247060 0.002973 0.377943
Si Si2 0.570417 0.085817 0.751312
Si Si3 0.922945 0.146597 0.038498
Si Si4 0.250147 0.741365 0.870691
Si Si5 0.892691 0.655670 0.364628
Si Si6 0.374146 0.190381 0.935724
Si Si7 0.881479 0.441740 0.677811
Si Si8 0.610646 0.609526 0.394346
O O1 0.320458 0.827097 0.323581
O O2 0.178042 0.181713 0.605605
O O3 0.164859 0.828524 0.366853
O O4 0.322298 0.192323 0.191268
O O5 0.598172 0.861005 0.554563
O O6 0.492947 0.230468 0.790830
O O7 0.500000 0.000000 0.000000
O O8 0.995392 0.212963 0.783906
O O9 0.813917 0.083498 0.110789
O O10 0.903373 0.389228 0.219138
O O11 0.000000 0.000000 0.000000
O O12 0.320725 0.565238 0.643652
O O13 0.330571 0.912961 0.891381
O O14 0.168991 0.562189 0.066965
O O15 0.853270 0.625347 0.606472
O O16 0.346568 0.353049 0.851630
O O17 0.000000 0.500000 0.500000
O O18 0.500000 0.500000 0.500000
#
# Coordination Sequence:
#
# PCOD9034889 Si02
#       8
#     2   2   2   2   2   2   2   2
#     4  10  23  44  69 103 142 189 234 300 370 428
#     4  10  22  45  69 101 148 186 231 295 360 431
#     4  11  25  44  67  98 141 188 240 296 360 432
#     4  11  24  45  73 105 141 187 240 297 361 428
#     4  11  23  44  65 100 138 182 242 294 361 430
#     4  10  23  44  70 104 144 186 237 293 359 431
#     4  11  23  45  71 101 138 190 247 302 356 431
#     4  12  24  43  74 107 141 189 245 296 356 432
#
# _framework density 27.284317999999999
#
# number of rings (size 3 to 8) (size 9 to 14) (size 15 to 20)
#    0.000    1.250    2.500    2.625    0.000    4.500 
#    9.000    1.250    0.000    0.000    0.000    0.000 
#    0.000    0.000    0.000    0.000    0.000    0.000 
#
# Total GULP energy -89312.680332 kJ/mol
# GULP energy per Si atom -5582.042521 kJ/mol
# Density = 2.722222 g / cm^3
# Si number density = 27.284318 Si / 1000 Ang^3
#
#
#
# Elastic Constant Matrix: (Units=GPa)
#
#
# Indices 1 2 3 4 5 6 
#
# 1 163.4870 39.6039 56.0984 14.6459 -51.3744 -20.1536
# 2 39.6039 52.4547 25.7302 -1.1361 -23.5899 -25.3348
# 3 56.0984 25.7302 120.2510 -20.4079 -38.2917 -20.0311
# 4 14.6459 -1.1361 -20.4079 47.8849 -15.3659 -7.8555
# 5 -51.3744 -23.5899 -38.2917 -15.3659 55.4221 0.0934
# 6 -20.1536 -25.3348 -20.0311 -7.8555 0.0934 54.2549
#
#
#
# Elastic Compliance Matrix: (Units=1/GPa)
#
#
# Indices 1 2 3 4 5 6 
#
# 1 0.009727 -0.003482 -0.002362 -0.002242 0.005280 0.000782
# 2 -0.003482 0.039322 0.006560 0.015511 0.022306 0.021698
# 3 -0.002362 0.006560 0.018268 0.016186 0.017693 0.011244
# 4 -0.002242 0.015511 0.016186 0.040449 0.026891 0.018197
# 5 0.005280 0.022306 0.017693 0.026891 0.052074 0.022714
# 6 0.000782 0.021698 0.011244 0.018197 0.022714 0.035601
#
#
# Mechanical properties :
#
#
# Convention : Reuss Voigt Hill
#
# Bulk Modulus (GPa) = 14.54536 64.33974 39.44255
# Shear Modulus (GPa) = 23.04953 45.82972 34.43963
#
# Velocity S-wave (km/s) = 2.90968 4.10287 3.55667
# Velocity P-wave (km/s) = 4.07810 6.78802 5.59947
#
# Compressibility (1/GPa) = 0.06875045
#
# Stress axis : x y z
#
# Youngs Moduli (GPa) = 102.80773 25.43091 54.74112
#
# Poissons Ratio (x) = 0.08855 0.12927
# Poissons Ratio (y) = 0.35798 -0.35912
# Poissons Ratio (z) = 0.24278 -0.16684
#
# Static dielectric constant tensor:
#      x y z
#    x 2.198290 -0.066650 0.097610 
#    y -0.066650 2.188590 -0.073560 
#    z 0.097610 -0.073560 2.127360 
# 
# From -- ./inp_files/323817.got.cif
#   From: 2010.05.17/outbox.cif.g08.bks.cpg/sg2_162_cif.got.tgz:323817.got - 2010.06.03 11:33:40.
