data_PCOD9034502
_publ_section_title
;
Structure prediction by ZEFSAII (Michael W. Deem and Ramdas Pophale) SiO2 
 PCOD9034502
Probable space group: P -1
;
_chemical_formula_sum "Si O2"
_cell_formula_units_Z 15
_cell_length_a 19.285128
_cell_length_b 9.403927
_cell_length_c 24.805795
_cell_angle_alpha 28.213933
_cell_angle_beta 19.675944
_cell_angle_gamma 37.502386
_cell_volume 697.115120
_symmetry_space_group_name_H-M "P -1"
_symmetry_group_IT_number 2
_symmetry_cell_setting 'triclinic'
loop_
_space_group_symop_operation_xyz
x,y,z
-x,-y,-z
loop_
_atom_site_type_symbol
_atom_site_label
_atom_site_fract_x
_atom_site_fract_y
_atom_site_fract_z
Si Si1 0.762532 0.051664 0.150652
Si Si2 0.000000 0.500000 0.000000
Si Si3 0.154505 0.093286 0.305974
Si Si4 0.896703 0.787690 0.493485
Si Si5 0.494766 0.850386 0.199032
Si Si6 0.877281 0.665895 0.921794
Si Si7 0.501026 0.717551 0.553526
Si Si8 0.577630 0.227279 0.122946
O O1 0.658333 0.015609 0.179507
O O2 0.616988 0.838639 0.372831
O O3 0.778527 0.410870 0.035196
O O4 0.000000 0.000000 0.000000
O O5 0.743895 0.447181 0.218234
O O6 0.048373 0.520569 0.022182
O O7 0.348699 0.945455 0.228989
O O8 0.245207 0.457636 0.114754
O O9 0.000000 0.000000 0.500000
O O10 0.028339 0.953499 0.392572
O O11 0.647545 0.706394 0.716083
O O12 0.000000 0.500000 0.500000
O O13 0.941714 0.053392 0.326193
O O14 0.392408 0.523332 0.411803
O O15 0.545020 0.082926 0.135135
O O16 0.703770 0.821068 0.024390
O O17 0.500000 0.000000 0.500000
#
# Coordination Sequence:
#
# PCOD9034502 Si02
#       8
#     2   1   2   2   2   2   2   2
#     4  12  28  46  76 106 155 196 241 309 375 435
#     4  10  22  44  76  98 142 184 252 288 360 438
#     4  12  27  49  75 105 151 188 246 306 366 440
#     4  12  28  48  79 110 145 194 244 306 372 437
#     4  11  26  45  78 105 143 198 246 294 370 442
#     4  11  25  48  71 111 141 194 243 299 367 436
#     4  11  24  47  73 107 146 192 245 302 366 440
#     4  12  28  50  73 110 146 193 247 306 370 441
#
# _framework density 21.517250000000001
#
# number of rings (size 3 to 8) (size 9 to 14) (size 15 to 20)
#    0.000    0.533    5.333    2.000   11.200    2.667 
#    0.000    0.000    0.000    0.000    0.000    0.000 
#    0.000    0.000    0.000    0.000    0.000    0.000 
#
# Total GULP energy -83595.358638 kJ/mol
# GULP energy per Si atom -5573.023909 kJ/mol
# Density = 2.146828 g / cm^3
# Si number density = 21.517250 Si / 1000 Ang^3
#
#
#
# Elastic Constant Matrix: (Units=GPa)
#
#
# Indices 1 2 3 4 5 6 
#
# 1 84.3582 11.0262 30.1270 8.0297 -2.8792 -5.9516
# 2 11.0262 65.1263 26.6711 10.6715 1.6273 15.6055
# 3 30.1270 26.6711 96.3895 10.6679 26.8201 8.1801
# 4 8.0297 10.6715 10.6679 42.5446 -7.9444 0.9784
# 5 -2.8792 1.6273 26.8201 -7.9444 37.8204 3.7711
# 6 -5.9516 15.6055 8.1801 0.9784 3.7711 28.0435
#
#
#
# Elastic Compliance Matrix: (Units=1/GPa)
#
#
# Indices 1 2 3 4 5 6 
#
# 1 0.014699 -0.001317 -0.006000 -0.000136 0.004909 0.004947
# 2 -0.001317 0.020496 -0.004852 -0.002891 0.002904 -0.010560
# 3 -0.006000 -0.004852 0.018154 -0.004763 -0.013940 -0.001828
# 4 -0.000136 -0.002891 -0.004763 0.027133 0.009112 0.000797
# 5 0.004909 0.002904 -0.013940 0.009112 0.038691 -0.002029
# 6 0.004947 -0.010560 -0.001828 0.000797 -0.002029 0.043363
#
#
# Mechanical properties :
#
#
# Convention : Reuss Voigt Hill
#
# Bulk Modulus (GPa) = 34.47044 42.39142 38.43093
# Shear Modulus (GPa) = 25.43956 33.55167 29.49561
#
# Velocity S-wave (km/s) = 3.44217 3.95307 3.70643
# Velocity P-wave (km/s) = 5.64382 6.37021 6.01799
#
# Compressibility (1/GPa) = 0.02901036
#
# Stress axis : x y z
#
# Youngs Moduli (GPa) = 68.03248 48.79000 55.08566
#
# Poissons Ratio (x) = 0.06426 0.33054
# Poissons Ratio (y) = 0.08960 0.26725
# Poissons Ratio (z) = 0.40822 0.23671
#
# Static dielectric constant tensor:
#      x y z
#    x 1.938840 0.000700 0.025870 
#    y 0.000700 1.840150 0.006390 
#    z 0.025870 0.006390 1.780030 
# 
# From -- ./inp_files/328093.got.cif
#   From: 2010.05.17/outbox.cif.g08.bks.cpg/sg2_165_cif.got.tgz:328093.got - 2010.06.03 11:33:40.
