data_PCOD9034575
_publ_section_title
;
Structure prediction by ZEFSAII (Michael W. Deem and Ramdas Pophale) SiO2 
 PCOD9034575
Probable space group: P -1
;
_chemical_formula_sum "Si O2"
_cell_formula_units_Z 13
_cell_length_a 9.529298
_cell_length_b 13.498939
_cell_length_c 7.917158
_cell_angle_alpha 49.416749
_cell_angle_beta 131.629496
_cell_angle_gamma 103.753626
_cell_volume 543.159497
_symmetry_space_group_name_H-M "P -1"
_symmetry_group_IT_number 2
_symmetry_cell_setting 'triclinic'
loop_
_space_group_symop_operation_xyz
x,y,z
-x,-y,-z
loop_
_atom_site_type_symbol
_atom_site_label
_atom_site_fract_x
_atom_site_fract_y
_atom_site_fract_z
Si Si1 0.638596 0.310020 0.277277
Si Si2 0.978764 0.857168 0.705047
Si Si3 0.390406 0.738906 0.295559
Si Si4 0.799876 0.539725 0.190002
Si Si5 0.500000 0.000000 0.000000
Si Si6 0.653133 0.028218 0.461112
Si Si7 0.179058 0.360051 0.260410
O O1 0.636349 0.302075 0.488309
O O2 0.771018 0.403398 0.236353
O O3 0.706687 0.159737 0.419047
O O4 0.406211 0.387195 0.955699
O O5 0.852372 0.787589 0.562073
O O6 0.196166 0.745654 0.028655
O O7 0.000000 0.000000 0.500000
O O8 0.858671 0.901290 0.735233
O O9 0.605243 0.644630 0.499120
O O10 0.407897 0.891506 0.144283
O O11 0.000000 0.500000 0.500000
O O12 0.805903 0.639179 0.931285
O O13 0.442652 0.947105 0.828792
O O14 0.500000 0.000000 0.500000
O O15 0.000000 0.500000 0.000000
#
# Coordination Sequence:
#
# PCOD9034575 Si02
#       7
#     2   2   2   2   1   2   2
#     4  10  23  42  70  98 140 189 242 298 363 441
#     4  12  25  44  72 104 145 190 241 303 366 444
#     4  11  22  45  66 100 144 185 238 301 361 438
#     4  10  22  45  65 100 140 183 243 300 359 440
#     4  12  22  44  72 100 158 188 236 318 360 432
#     4  12  24  45  72 107 146 194 245 299 369 436
#     4  11  25  43  68  99 141 185 240 303 363 431
#
# _framework density 23.93404
#
# number of rings (size 3 to 8) (size 9 to 14) (size 15 to 20)
#    0.000    0.923    4.615    1.846    2.154    2.462 
#    2.769    0.000    0.000    0.000    0.000    0.000 
#    0.000    0.000    0.000    0.000    0.000    0.000 
#
# Total GULP energy -72468.422903 kJ/mol
# GULP energy per Si atom -5574.494069 kJ/mol
# Density = 2.387956 g / cm^3
# Si number density = 23.934040 Si / 1000 Ang^3
#
#
#
# Elastic Constant Matrix: (Units=GPa)
#
#
# Indices 1 2 3 4 5 6 
#
# 1 94.1553 31.9647 34.1157 -6.9686 4.1405 13.5806
# 2 31.9647 97.4666 11.2767 -23.0468 14.9181 16.8231
# 3 34.1157 11.2767 88.6537 17.0944 23.3083 4.2024
# 4 -6.9686 -23.0468 17.0944 47.5667 8.9752 -2.3976
# 5 4.1405 14.9181 23.3083 8.9752 56.8291 -5.2255
# 6 13.5806 16.8231 4.2024 -2.3976 -5.2255 31.5869
#
#
#
# Elastic Compliance Matrix: (Units=1/GPa)
#
#
# Indices 1 2 3 4 5 6 
#
# 1 0.014372 -0.003190 -0.005789 0.002188 0.001516 -0.003293
# 2 -0.003190 0.015230 -0.000438 0.007746 -0.005453 -0.006996
# 3 -0.005789 -0.000438 0.016104 -0.005903 -0.005203 -0.000729
# 4 0.002188 0.007746 -0.005903 0.027911 -0.004446 -0.002898
# 5 0.001516 -0.005453 -0.005203 -0.004446 0.022333 0.006301
# 6 -0.003293 -0.006996 -0.000729 -0.002898 0.006301 0.037720
#
#
# Mechanical properties :
#
#
# Convention : Reuss Voigt Hill
#
# Bulk Modulus (GPa) = 37.21381 48.33220 42.77301
# Shear Modulus (GPa) = 30.96715 40.72445 35.84580
#
# Velocity S-wave (km/s) = 3.60092 4.12943 3.87420
# Velocity P-wave (km/s) = 5.73333 6.55546 6.15813
#
# Compressibility (1/GPa) = 0.02687175
#
# Stress axis : x y z
#
# Youngs Moduli (GPa) = 69.58211 65.65846 62.09587
#
# Poissons Ratio (x) = 0.20943 0.35949
# Poissons Ratio (y) = 0.22194 0.02721
# Poissons Ratio (z) = 0.40283 0.02877
#
# Static dielectric constant tensor:
#      x y z
#    x 1.971670 0.006500 0.070040 
#    y 0.006500 1.897380 -0.099280 
#    z 0.070040 -0.099280 2.080950 
# 
# From -- ./inp_files/195422.got.cif
#   From: 2010.05.17/outbox.cif.g08.bks.cpg/sg2_98_cif.got.tgz:195422.got - 2010.06.03 11:33:40.
