data_PCOD9034348
_publ_section_title
;
Structure prediction by ZEFSAII (Michael W. Deem and Ramdas Pophale) SiO2 
 PCOD9034348
Probable space group: P -1
;
_chemical_formula_sum "Si O2"
_cell_formula_units_Z 13
_cell_length_a 9.119879
_cell_length_b 9.902502
_cell_length_c 10.198616
_cell_angle_alpha 62.590366
_cell_angle_beta 117.976884
_cell_angle_gamma 136.062791
_cell_volume 552.992680
_symmetry_space_group_name_H-M "P -1"
_symmetry_group_IT_number 2
_symmetry_cell_setting 'triclinic'
loop_
_space_group_symop_operation_xyz
x,y,z
-x,-y,-z
loop_
_atom_site_type_symbol
_atom_site_label
_atom_site_fract_x
_atom_site_fract_y
_atom_site_fract_z
Si Si1 0.859239 0.638262 0.577740
Si Si2 0.490052 0.583963 0.823066
Si Si3 0.451137 0.321823 0.710770
Si Si4 0.000000 0.500000 0.000000
Si Si5 0.018482 0.426655 0.725428
Si Si6 0.593651 0.987178 0.681086
Si Si7 0.736574 0.103358 0.189577
O O1 0.647134 0.427296 0.642498
O O2 0.754522 0.714042 0.422265
O O3 0.981735 0.574181 0.585197
O O4 0.031054 0.795852 0.687533
O O5 0.551548 0.494446 0.782147
O O6 0.617027 0.817496 0.761262
O O7 0.241489 0.486578 0.744420
O O8 0.500000 0.500000 0.000000
O O9 0.366750 0.110372 0.815088
O O10 0.963776 0.529635 0.129350
O O11 0.800316 0.262725 0.036886
O O12 0.820030 0.199902 0.713065
O O13 0.424369 0.927954 0.752572
O O14 0.500000 0.000000 0.500000
#
# Coordination Sequence:
#
# PCOD9034348 Si02
#       7
#     2   2   2   1   2   2   2
#     4  10  22  44  73 107 139 189 244 299 366 436
#     4  12  30  47  69 111 153 190 245 307 371 438
#     4  11  25  43  73 107 148 185 244 309 361 433
#     4  10  24  46  76 100 138 200 258 282 354 454
#     4  11  25  48  76 101 148 203 241 299 373 442
#     4  12  27  47  79 111 147 196 250 299 381 448
#     4  11  24  45  75 105 142 196 243 299 362 442
#
# _framework density 23.508448000000001
#
# number of rings (size 3 to 8) (size 9 to 14) (size 15 to 20)
#    0.000    0.923    4.615    1.385   10.769    3.692 
#    0.000    0.000    0.000    0.000    0.000    0.000 
#    0.000    0.000    0.000    0.000    0.000    0.000 
#
# Total GULP energy -72513.483398 kJ/mol
# GULP energy per Si atom -5577.960261 kJ/mol
# Density = 2.345494 g / cm^3
# Si number density = 23.508448 Si / 1000 Ang^3
#
#
#
# Elastic Constant Matrix: (Units=GPa)
#
#
# Indices 1 2 3 4 5 6 
#
# 1 56.3895 13.8557 7.9218 -16.1661 0.9225 -7.8555
# 2 13.8557 171.5425 24.9032 -29.6421 23.0218 -19.1200
# 3 7.9218 24.9032 54.5656 -7.3816 15.4802 3.3271
# 4 -16.1661 -29.6421 -7.3816 49.6841 4.9057 1.2343
# 5 0.9225 23.0218 15.4802 4.9057 32.4548 -0.4266
# 6 -7.8555 -19.1200 3.3271 1.2343 -0.4266 35.4141
#
#
#
# Elastic Compliance Matrix: (Units=1/GPa)
#
#
# Indices 1 2 3 4 5 6 
#
# 1 0.020510 0.000443 -0.002395 0.006531 -0.000679 0.004778
# 2 0.000443 0.008221 -0.001748 0.005246 -0.005745 0.004449
# 3 -0.002395 -0.001748 0.022929 0.002675 -0.010084 -0.003844
# 4 0.006531 0.005246 0.002675 0.026610 -0.009166 0.002992
# 5 -0.000679 -0.005745 -0.010084 -0.009166 0.041082 -0.001490
# 6 0.004778 0.004449 -0.003844 0.002992 -0.001490 0.031938
#
#
# Mechanical properties :
#
#
# Convention : Reuss Voigt Hill
#
# Bulk Modulus (GPa) = 22.59366 41.76211 32.17789
# Shear Modulus (GPa) = 28.82785 39.23171 34.02978
#
# Velocity S-wave (km/s) = 3.50562 4.08957 3.80880
# Velocity P-wave (km/s) = 5.10074 6.33267 5.74980
#
# Compressibility (1/GPa) = 0.04426021
#
# Stress axis : x y z
#
# Youngs Moduli (GPa) = 48.75596 121.64404 43.61267
#
# Poissons Ratio (x) = -0.05392 0.10446
# Poissons Ratio (y) = -0.02161 0.07624
# Poissons Ratio (z) = 0.11678 0.21264
#
# Static dielectric constant tensor:
#      x y z
#    x 1.895730 -0.043430 -0.016770 
#    y -0.043430 1.860560 0.037110 
#    z -0.016770 0.037110 2.015980 
# 
# From -- ./inp_files/375725.got.cif
#   From: 2010.05.17/outbox.cif.g08.bks.cpg/sg2_188_cif.got.tgz:375725.got - 2010.06.03 11:33:40.
