data_PCOD9034488
_publ_section_title
;
Structure prediction by ZEFSAII (Michael W. Deem and Ramdas Pophale) SiO2 
 PCOD9034488
Probable space group: P -1
;
_chemical_formula_sum "Si O2"
_cell_formula_units_Z 13
_cell_length_a 9.683782
_cell_length_b 9.347601
_cell_length_c 14.338042
_cell_angle_alpha 103.451895
_cell_angle_beta 138.099676
_cell_angle_gamma 109.031065
_cell_volume 539.270840
_symmetry_space_group_name_H-M "P -1"
_symmetry_group_IT_number 2
_symmetry_cell_setting 'triclinic'
loop_
_space_group_symop_operation_xyz
x,y,z
-x,-y,-z
loop_
_atom_site_type_symbol
_atom_site_label
_atom_site_fract_x
_atom_site_fract_y
_atom_site_fract_z
Si Si1 0.260663 0.825892 0.049043
Si Si2 0.664975 0.806935 0.358437
Si Si3 0.709853 0.472905 0.582483
Si Si4 0.796330 0.308405 0.288260
Si Si5 0.714873 0.973016 0.610526
Si Si6 0.399124 0.349790 0.090961
Si Si7 0.000000 0.000000 0.000000
O O1 0.427909 0.802958 0.198516
O O2 0.539357 0.046877 0.154717
O O3 0.085971 0.867818 0.015725
O O4 0.972758 0.588703 0.812189
O O5 0.694293 0.859694 0.491076
O O6 0.544300 0.578722 0.237263
O O7 0.000000 0.000000 0.500000
O O8 0.500000 0.500000 0.500000
O O9 0.434807 0.197446 0.401601
O O10 0.929170 0.614482 0.624835
O O11 0.633654 0.358953 0.160585
O O12 0.000000 0.500000 0.500000
O O13 0.500000 0.000000 0.500000
O O14 0.086981 0.211368 0.850851
O O15 0.280349 0.188309 0.093687
#
# Coordination Sequence:
#
# PCOD9034488 Si02
#       7
#     2   2   2   2   2   2   1
#     4  11  25  47  76 105 155 190 250 306 377 437
#     4  12  29  48  78 111 150 201 252 300 372 455
#     4  12  28  46  76 111 144 191 256 310 372 445
#     4  11  27  46  76 107 148 195 249 309 376 441
#     4  12  29  48  75 111 149 196 247 306 374 447
#     4  11  26  49  78 107 156 195 248 307 380 434
#     4  10  22  44  76 108 140 194 236 308 370 430
#
# _framework density 24.106625999999999
#
# number of rings (size 3 to 8) (size 9 to 14) (size 15 to 20)
#    0.000    0.615    0.000    6.000   19.385    2.462 
#    0.000    0.000    0.000    0.000    0.000    0.000 
#    0.000    0.000    0.000    0.000    0.000    0.000 
#
# Total GULP energy -72595.613973 kJ/mol
# GULP energy per Si atom -5584.277998 kJ/mol
# Density = 2.405176 g / cm^3
# Si number density = 24.106626 Si / 1000 Ang^3
#
#
#
# Elastic Constant Matrix: (Units=GPa)
#
#
# Indices 1 2 3 4 5 6 
#
# 1 110.6267 4.9891 17.3931 7.0829 21.5838 -3.5855
# 2 4.9891 82.0936 -1.5953 12.3410 4.4328 -22.0799
# 3 17.3931 -1.5953 120.5711 15.1672 0.6429 -4.3699
# 4 7.0829 12.3410 15.1672 41.4249 -11.8399 8.5476
# 5 21.5838 4.4328 0.6429 -11.8399 40.6470 -3.7076
# 6 -3.5855 -22.0799 -4.3699 8.5476 -3.7076 35.0184
#
#
#
# Elastic Compliance Matrix: (Units=1/GPa)
#
#
# Indices 1 2 3 4 5 6 
#
# 1 0.010798 0.000768 -0.000940 -0.004038 -0.006821 0.001736
# 2 0.000768 0.017459 0.001871 -0.009912 -0.004014 0.013315
# 3 -0.000940 0.001871 0.009168 -0.004692 -0.000918 0.003276
# 4 -0.004038 -0.009912 -0.004692 0.036108 0.012473 -0.014742
# 5 -0.006821 -0.004014 -0.000918 0.012473 0.032036 -0.002997
# 6 0.001736 0.013315 0.003276 -0.014742 -0.002997 0.040819
#
#
# Mechanical properties :
#
#
# Convention : Reuss Voigt Hill
#
# Bulk Modulus (GPa) = 24.49623 39.42946 31.96285
# Shear Modulus (GPa) = 31.92869 42.91836 37.42353
#
# Velocity S-wave (km/s) = 3.64329 4.22400 3.94435
# Velocity P-wave (km/s) = 5.28031 6.33888 5.83366
#
# Compressibility (1/GPa) = 0.04082261
#
# Stress axis : x y z
#
# Youngs Moduli (GPa) = 92.60802 57.27720 109.07454
#
# Poissons Ratio (x) = -0.04398 0.10256
# Poissons Ratio (y) = -0.07110 -0.20409
# Poissons Ratio (z) = 0.08707 -0.10717
#
# Static dielectric constant tensor:
#      x y z
#    x 1.936450 0.010300 -0.007330 
#    y 0.010300 1.867880 -0.008970 
#    z -0.007330 -0.008970 1.953440 
# 
# From -- ./inp_files/190571.got.cif
#   From: 2010.05.17/outbox.cif.g08.bks.cpg/sg2_96_cif.got.tgz:190571.got - 2010.06.03 11:33:40.
