data_PCOD9034740
_publ_section_title
;
Structure prediction by ZEFSAII (Michael W. Deem and Ramdas Pophale) SiO2 
 PCOD9034740
Probable space group: P -1
;
_chemical_formula_sum "Si O2"
_cell_formula_units_Z 16
_cell_length_a 8.672363
_cell_length_b 19.842813
_cell_length_c 5.481015
_cell_angle_alpha 79.552384
_cell_angle_beta 103.544035
_cell_angle_gamma 133.591912
_cell_volume 663.865633
_symmetry_space_group_name_H-M "P -1"
_symmetry_group_IT_number 2
_symmetry_cell_setting 'triclinic'
loop_
_space_group_symop_operation_xyz
x,y,z
-x,-y,-z
loop_
_atom_site_type_symbol
_atom_site_label
_atom_site_fract_x
_atom_site_fract_y
_atom_site_fract_z
Si Si1 0.656399 0.510616 0.791200
Si Si2 0.292208 0.339269 0.000084
Si Si3 0.019907 0.937199 0.702497
Si Si4 0.896131 0.186911 0.243753
Si Si5 0.224703 0.746627 0.469684
Si Si6 0.895945 0.541974 0.358175
Si Si7 0.575834 0.777183 0.901622
Si Si8 0.520601 0.887868 0.108644
O O1 0.662015 0.592566 0.811580
O O2 0.767006 0.522724 0.572308
O O3 0.408349 0.412649 0.774290
O O4 0.770863 0.507584 0.074042
O O5 0.403810 0.297915 0.049490
O O6 0.043080 0.247438 0.021911
O O7 0.039759 0.870527 0.613772
O O8 0.804433 0.870131 0.823023
O O9 0.246642 0.010295 0.878162
O O10 0.000000 0.000000 0.500000
O O11 0.929336 0.252913 0.419023
O O12 0.645865 0.123262 0.124414
O O13 0.373646 0.740563 0.689745
O O14 0.393326 0.847827 0.340872
O O15 0.079301 0.653977 0.315912
O O16 0.000000 0.500000 0.500000
O O17 0.544503 0.813523 0.107767
#
# Coordination Sequence:
#
# PCOD9034740 Si02
#       8
#     2   2   2   2   2   2   2   2
#     4  11  25  46  69 104 141 187 237 288 350 423
#     4  10  22  45  67  97 137 182 224 290 346 419
#     4  11  22  45  65  99 132 175 224 284 352 418
#     4  10  23  45  66  95 136 175 229 285 345 417
#     4  11  23  42  67  98 133 179 230 285 342 423
#     4  12  26  44  72 104 143 185 236 293 349 417
#     4  10  23  43  67  95 136 173 230 282 348 414
#     4  11  23  42  67  97 128 180 227 282 348 415
#
# _framework density 24.101262999999999
#
# number of rings (size 3 to 8) (size 9 to 14) (size 15 to 20)
#    0.000    1.250    2.500    2.625    3.500    2.500 
#   13.500    0.000    0.000    0.000    0.000    0.000 
#    0.000    0.000    0.000    0.000    0.000    0.000 
#
# Total GULP energy -89350.224108 kJ/mol
# GULP energy per Si atom -5584.389007 kJ/mol
# Density = 2.404641 g / cm^3
# Si number density = 24.101263 Si / 1000 Ang^3
#
#
#
# Elastic Constant Matrix: (Units=GPa)
#
#
# Indices 1 2 3 4 5 6 
#
# 1 153.4026 52.2565 43.0686 -6.0362 -7.5761 -18.8888
# 2 52.2565 106.9242 11.2828 -9.8164 7.9798 13.2660
# 3 43.0686 11.2828 73.4871 2.9060 -1.6133 -2.9959
# 4 -6.0362 -9.8164 2.9060 23.2242 7.4391 8.9855
# 5 -7.5761 7.9798 -1.6133 7.4391 33.2513 -6.8912
# 6 -18.8888 13.2660 -2.9959 8.9855 -6.8912 47.2710
#
#
#
# Elastic Compliance Matrix: (Units=1/GPa)
#
#
# Indices 1 2 3 4 5 6 
#
# 1 0.011452 -0.007012 -0.004971 -0.004672 0.006776 0.008105
# 2 -0.007012 0.016079 0.000450 0.012659 -0.010596 -0.011237
# 3 -0.004971 0.000450 0.016557 -0.003041 0.000147 -0.000464
# 4 -0.004672 0.012659 -0.003041 0.062906 -0.022649 -0.020871
# 5 0.006776 -0.010596 0.000147 -0.022649 0.042593 0.016205
# 6 0.008105 -0.011237 -0.000464 -0.020871 0.016205 0.033847
#
#
# Mechanical properties :
#
#
# Convention : Reuss Voigt Hill
#
# Bulk Modulus (GPa) = 47.57280 60.78107 54.17693
# Shear Modulus (GPa) = 23.41824 35.89634 29.65729
#
# Velocity S-wave (km/s) = 3.12053 3.86346 3.51169
# Velocity P-wave (km/s) = 5.72409 6.72127 6.24262
#
# Compressibility (1/GPa) = 0.02102042
#
# Stress axis : x y z
#
# Youngs Moduli (GPa) = 87.32070 62.19198 60.39819
#
# Poissons Ratio (x) = 0.43612 0.30025
# Poissons Ratio (y) = 0.61233 -0.02717
# Poissons Ratio (z) = 0.43408 -0.02797
#
# Static dielectric constant tensor:
#      x y z
#    x 1.927500 0.017350 0.036960 
#    y 0.017350 1.936380 0.039170 
#    z 0.036960 0.039170 1.992470 
# 
# From -- ./inp_files/38011.got.cif
#   From: 2010.05.17/outbox.cif.g08.bks.cpg/sg2_20_cif.got.tgz:38011.got - 2010.06.03 11:33:40.
