data_PCOD9034828
_publ_section_title
;
Structure prediction by ZEFSAII (Michael W. Deem and Ramdas Pophale) SiO2 
 PCOD9034828
Probable space group: P -1
;
_chemical_formula_sum "Si O2"
_cell_formula_units_Z 14
_cell_length_a 15.109183
_cell_length_b 8.741249
_cell_length_c 11.158009
_cell_angle_alpha 64.197358
_cell_angle_beta 153.065018
_cell_angle_gamma 125.722184
_cell_volume 527.188587
_symmetry_space_group_name_H-M "P -1"
_symmetry_group_IT_number 2
_symmetry_cell_setting 'triclinic'
loop_
_space_group_symop_operation_xyz
x,y,z
-x,-y,-z
loop_
_atom_site_type_symbol
_atom_site_label
_atom_site_fract_x
_atom_site_fract_y
_atom_site_fract_z
Si Si1 0.363549 0.163087 0.204854
Si Si2 0.747842 0.689274 0.218711
Si Si3 0.775188 0.843740 0.713492
Si Si4 0.504032 0.196089 0.971845
Si Si5 0.114072 0.601338 0.799052
Si Si6 0.746866 0.204992 0.499279
Si Si7 0.050814 0.712629 0.945138
O O1 0.374413 0.253611 0.317576
O O2 0.609588 0.235018 0.428918
O O3 0.244316 0.217227 0.933774
O O4 0.244954 0.927323 0.147805
O O5 0.954299 0.649516 0.503201
O O6 0.500000 0.500000 0.000000
O O7 0.726094 0.817381 0.257637
O O8 0.836479 0.729111 0.729392
O O9 0.701234 0.987151 0.513275
O O10 0.000000 0.000000 0.000000
O O11 0.654198 0.248634 0.253407
O O12 0.649062 0.339978 0.993638
O O13 0.500000 0.000000 0.000000
O O14 0.996460 0.372071 0.759483
O O15 0.110559 0.707913 0.879887
O O16 0.000000 0.500000 0.000000
#
# Coordination Sequence:
#
# PCOD9034828 Si02
#       7
#     2   2   2   2   2   2   2
#     4  10  22  45  68  96 141 174 226 287 332 411
#     4  11  24  43  70 108 136 179 229 274 351 407
#     4  10  23  41  69  94 130 182 226 275 338 406
#     4  11  26  42  66 103 141 180 225 283 340 411
#     4  12  24  44  73  99 145 178 225 288 338 412
#     4  11  23  44  67 103 130 181 227 276 351 401
#     4  11  26  46  65 101 135 180 231 283 338 403
#
# _framework density 26.555962000000001
#
# number of rings (size 3 to 8) (size 9 to 14) (size 15 to 20)
#    0.000    1.143    2.857    4.286    6.000    2.286 
#    0.000    1.429    0.000    0.000    0.000    0.000 
#    0.000    0.000    0.000    0.000    0.000    0.000 
#
# Total GULP energy -78297.581252 kJ/mol
# GULP energy per Si atom -5592.684375 kJ/mol
# Density = 2.649552 g / cm^3
# Si number density = 26.555962 Si / 1000 Ang^3
#
#
#
# Elastic Constant Matrix: (Units=GPa)
#
#
# Indices 1 2 3 4 5 6 
#
# 1 202.3736 46.6855 21.1101 -16.7961 27.8927 1.4631
# 2 46.6855 82.7764 18.0437 -12.3363 9.7613 0.1859
# 3 21.1101 18.0437 44.7656 -11.9226 4.5366 2.7360
# 4 -16.7961 -12.3363 -11.9226 41.0500 2.3954 14.0900
# 5 27.8927 9.7613 4.5366 2.3954 45.8440 -6.4312
# 6 1.4631 0.1859 2.7360 14.0900 -6.4312 38.4032
#
#
#
# Elastic Compliance Matrix: (Units=1/GPa)
#
#
# Indices 1 2 3 4 5 6 
#
# 1 0.006328 -0.002614 -0.000854 0.002316 -0.003556 -0.001613
# 2 -0.002614 0.014983 -0.003873 0.002719 -0.001491 -0.000944
# 3 -0.000854 -0.003873 0.027111 0.008350 -0.002528 -0.005367
# 4 0.002316 0.002719 0.008350 0.033809 -0.006573 -0.014201
# 5 -0.003556 -0.001491 -0.002528 -0.006573 0.025879 0.007068
# 6 -0.001613 -0.000944 -0.005367 -0.014201 0.007068 0.032882
#
#
# Mechanical properties :
#
#
# Convention : Reuss Voigt Hill
#
# Bulk Modulus (GPa) = 29.64080 55.73270 42.68675
# Shear Modulus (GPa) = 29.95434 41.33120 35.64277
#
# Velocity S-wave (km/s) = 3.36217 3.94938 3.66755
# Velocity P-wave (km/s) = 5.12427 6.46755 5.83470
#
# Compressibility (1/GPa) = 0.03373728
#
# Stress axis : x y z
#
# Youngs Moduli (GPa) = 158.03799 66.74381 36.88565
#
# Poissons Ratio (x) = 0.17449 0.03151
# Poissons Ratio (y) = 0.41317 0.14287
# Poissons Ratio (z) = 0.13500 0.25852
#
# Static dielectric constant tensor:
#      x y z
#    x 2.218480 -0.017970 -0.002700 
#    y -0.017970 2.190900 0.031390 
#    z -0.002700 0.031390 2.155130 
# 
# From -- ./inp_files/241372.got.cif
#   From: 2010.05.17/outbox.cif.g08.bks.cpg/sg2_121_cif.got.tgz:241372.got - 2010.06.03 11:33:40.
