data_PCOD9034328
_publ_section_title
;
Structure prediction by ZEFSAII (Michael W. Deem and Ramdas Pophale) SiO2 
 PCOD9034328
Probable space group: P -1
;
_chemical_formula_sum "Si O2"
_cell_formula_units_Z 12
_cell_length_a 9.657991
_cell_length_b 10.607260
_cell_length_c 13.633930
_cell_angle_alpha 42.203232
_cell_angle_beta 57.228171
_cell_angle_gamma 30.414060
_cell_volume 455.039194
_symmetry_space_group_name_H-M "P -1"
_symmetry_group_IT_number 2
_symmetry_cell_setting 'triclinic'
loop_
_space_group_symop_operation_xyz
x,y,z
-x,-y,-z
loop_
_atom_site_type_symbol
_atom_site_label
_atom_site_fract_x
_atom_site_fract_y
_atom_site_fract_z
Si Si1 0.676109 0.250051 0.484292
Si Si2 0.683533 0.494004 0.878678
Si Si3 0.810470 0.322641 0.704068
Si Si4 0.616132 0.839048 0.363026
Si Si5 0.054347 0.736904 0.898147
Si Si6 0.444449 0.046121 0.108133
O O1 0.500000 0.500000 0.500000
O O2 0.491138 0.487023 0.324841
O O3 0.659772 0.040313 0.601772
O O4 0.000000 0.000000 0.500000
O O5 0.033375 0.979757 0.761648
O O6 0.500000 0.500000 0.000000
O O7 0.954105 0.282163 0.968888
O O8 0.477735 0.868847 0.735202
O O9 0.814543 0.523724 0.536274
O O10 0.804444 0.339431 0.813295
O O11 0.673458 0.786364 0.254212
O O12 0.821247 0.855453 0.849705
O O13 0.336956 0.355660 0.992331
O O14 0.500000 0.000000 0.000000
#
# Coordination Sequence:
#
# PCOD9034328 Si02
#       6
#     2   2   2   2   2   2
#     4  10  23  47  75 112 151 194 254 316 391 451
#     4  11  24  45  72 100 148 203 255 303 383 458
#     4  10  23  44  71 101 152 189 252 317 373 449
#     4   9  23  46  68 108 144 193 255 304 387 444
#     4  10  23  43  66 106 141 188 249 298 384 442
#     4  10  22  44  73 102 148 190 244 309 385 455
#
# _framework density 26.371354
#
# number of rings (size 3 to 8) (size 9 to 14) (size 15 to 20)
#    1.000    1.000    0.000    2.000    4.667    2.667 
#   18.000    1.667    0.000    0.000    0.000    0.000 
#    0.000    0.000    0.000    0.000    0.000    0.000 
#
# Total GULP energy -66943.024586 kJ/mol
# GULP energy per Si atom -5578.585382 kJ/mol
# Density = 2.631133 g / cm^3
# Si number density = 26.371354 Si / 1000 Ang^3
#
#
#
# Elastic Constant Matrix: (Units=GPa)
#
#
# Indices 1 2 3 4 5 6 
#
# 1 155.1451 52.2788 61.5915 1.3738 -33.5443 20.8370
# 2 52.2788 77.6238 31.1119 7.2711 -7.3370 15.0648
# 3 61.5915 31.1119 136.5278 15.8571 -22.3981 27.8167
# 4 1.3738 7.2711 15.8571 34.8574 8.0530 7.0140
# 5 -33.5443 -7.3370 -22.3981 8.0530 76.7373 6.3605
# 6 20.8370 15.0648 27.8167 7.0140 6.3605 59.3096
#
#
#
# Elastic Compliance Matrix: (Units=1/GPa)
#
#
# Indices 1 2 3 4 5 6 
#
# 1 0.010185 -0.005325 -0.002757 0.001539 0.003096 -0.001447
# 2 -0.005325 0.017388 -0.001014 -0.002482 -0.000558 -0.001717
# 3 -0.002757 -0.001014 0.010397 -0.004293 0.002465 -0.003407
# 4 0.001539 -0.002482 -0.004293 0.032303 -0.004102 -0.001277
# 5 0.003096 -0.000558 0.002465 -0.004102 0.015756 -0.003307
# 6 -0.001447 -0.001717 -0.003407 -0.001277 -0.003307 0.019908
#
#
# Mechanical properties :
#
#
# Convention : Reuss Voigt Hill
#
# Bulk Modulus (GPa) = 50.56214 73.25123 61.90669
# Shear Modulus (GPa) = 38.24950 49.13516 43.69233
#
# Velocity S-wave (km/s) = 3.81257 4.32117 4.07481
# Velocity P-wave (km/s) = 6.21254 7.26180 6.75757
#
# Compressibility (1/GPa) = 0.01977765
#
# Stress axis : x y z
#
# Youngs Moduli (GPa) = 98.18707 57.51048 96.18587
#
# Poissons Ratio (x) = 0.30624 0.26520
# Poissons Ratio (y) = 0.52284 0.09750
# Poissons Ratio (z) = 0.27072 0.05830
#
# Static dielectric constant tensor:
#      x y z
#    x 2.183680 -0.043470 0.039320 
#    y -0.043470 2.190570 0.070290 
#    z 0.039320 0.070290 2.215080 
# 
# From -- ./inp_files/557917.got.cif
#   From: 2010.05.17/outbox.cif.g08.bks.cpg/sg2_279_cif.got.tgz:557917.got - 2010.06.03 11:33:40.
