data_PCOD9034604
_publ_section_title
;
Structure prediction by ZEFSAII (Michael W. Deem and Ramdas Pophale) SiO2 
 PCOD9034604
Probable space group: P -1
;
_chemical_formula_sum "Si O2"
_cell_formula_units_Z 14
_cell_length_a 22.209276
_cell_length_b 5.787130
_cell_length_c 20.214244
_cell_angle_alpha 112.624040
_cell_angle_beta 12.346735
_cell_angle_gamma 112.513426
_cell_volume 512.460772
_symmetry_space_group_name_H-M "P -1"
_symmetry_group_IT_number 2
_symmetry_cell_setting 'triclinic'
loop_
_space_group_symop_operation_xyz
x,y,z
-x,-y,-z
loop_
_atom_site_type_symbol
_atom_site_label
_atom_site_fract_x
_atom_site_fract_y
_atom_site_fract_z
Si Si1 0.189311 0.938771 0.528670
Si Si2 0.944582 0.720369 0.161536
Si Si3 0.520671 0.889680 0.538601
Si Si4 0.056302 0.434180 0.671671
Si Si5 0.651884 0.724813 0.941375
Si Si6 0.482024 0.599214 0.343025
Si Si7 0.740676 0.206506 0.748828
O O1 0.040843 0.659288 0.659410
O O2 0.126438 0.086837 0.680737
O O3 0.114464 0.139371 0.573287
O O4 0.520974 0.887973 0.157396
O O5 0.752533 0.479945 0.360168
O O6 0.821533 0.821974 0.236297
O O7 0.273492 0.683194 0.795116
O O8 0.434005 0.115684 0.704466
O O9 0.500000 0.000000 0.500000
O O10 0.321942 0.538988 0.440497
O O11 0.764383 0.447944 0.026054
O O12 0.724529 0.436008 0.843366
O O13 0.930055 0.843537 0.620333
O O14 0.381002 0.700318 0.180472
O O15 0.500000 0.000000 0.000000
#
# Coordination Sequence:
#
# PCOD9034604 Si02
#       7
#     2   2   2   2   2   2   2
#     4  11  24  46  69 109 133 184 226 290 345 410
#     4  11  24  42  65  94 139 170 224 287 341 402
#     4  12  24  42  67  95 131 179 230 276 342 413
#     4  11  25  41  72  96 145 173 226 281 351 405
#     4  10  24  40  68  99 132 173 233 271 337 404
#     4  11  23  44  65  96 131 183 215 286 343 407
#     4  10  22  45  65  95 136 180 220 280 329 402
#
# _framework density 27.319165999999999
#
# number of rings (size 3 to 8) (size 9 to 14) (size 15 to 20)
#    0.000    1.143    2.857    2.571    2.000    5.714 
#    0.000    0.000    0.000    0.000    0.000    0.000 
#    0.000    0.000    0.000    0.000    0.000    0.000 
#
# Total GULP energy -78287.999515 kJ/mol
# GULP energy per Si atom -5591.999965 kJ/mol
# Density = 2.725699 g / cm^3
# Si number density = 27.319166 Si / 1000 Ang^3
#
#
#
# Elastic Constant Matrix: (Units=GPa)
#
#
# Indices 1 2 3 4 5 6 
#
# 1 62.7726 17.0333 16.8641 3.8567 -9.7179 16.9474
# 2 17.0333 139.1933 39.5714 -11.8252 11.6072 1.3210
# 3 16.8641 39.5714 183.2470 -9.8526 -5.8579 9.0120
# 4 3.8567 -11.8252 -9.8526 46.6214 -7.1394 4.7848
# 5 -9.7179 11.6072 -5.8579 -7.1394 37.4903 -1.0994
# 6 16.9474 1.3210 9.0120 4.7848 -1.0994 34.8906
#
#
#
# Elastic Compliance Matrix: (Units=1/GPa)
#
#
# Indices 1 2 3 4 5 6 
#
# 1 0.020269 -0.002725 -0.000679 -0.000702 0.005585 -0.009295
# 2 -0.002725 0.008362 -0.001641 0.001385 -0.003255 0.001138
# 3 -0.000679 -0.001641 0.006054 0.001280 0.001484 -0.001301
# 4 -0.000702 0.001385 0.001280 0.023040 0.003887 -0.003079
# 5 0.005585 -0.003255 0.001484 0.003887 0.030026 -0.002560
# 6 -0.009295 0.001138 -0.001301 -0.003079 -0.002560 0.033810
#
#
# Mechanical properties :
#
#
# Convention : Reuss Voigt Hill
#
# Bulk Modulus (GPa) = 40.65494 59.12783 49.89139
# Shear Modulus (GPa) = 35.75262 44.58339 40.16801
#
# Velocity S-wave (km/s) = 3.62152 4.04412 3.83864
# Velocity P-wave (km/s) = 5.69219 6.59521 6.16027
#
# Compressibility (1/GPa) = 0.02459726
#
# Stress axis : x y z
#
# Youngs Moduli (GPa) = 49.33537 119.58444 165.17681
#
# Poissons Ratio (x) = 0.32581 0.11218
# Poissons Ratio (y) = 0.13442 0.27100
# Poissons Ratio (z) = 0.03351 0.19619
#
# Static dielectric constant tensor:
#      x y z
#    x 2.211540 -0.063720 0.039920 
#    y -0.063720 2.187670 0.018280 
#    z 0.039920 0.018280 2.057120 
# 
# From -- ./inp_files/13106.got.cif
#   From: 2010.05.17/outbox.cif.g08.bks.cpg/sg2_7_cif.got.tgz:13106.got - 2010.06.03 11:33:40.
