data_PCOD9034418
_publ_section_title
;
Structure prediction by ZEFSAII (Michael W. Deem and Ramdas Pophale) SiO2 
 PCOD9034418
Probable space group: P -1
;
_chemical_formula_sum "Si O2"
_cell_formula_units_Z 16
_cell_length_a 14.466702
_cell_length_b 19.642701
_cell_length_c 9.303791
_cell_angle_alpha 143.830352
_cell_angle_beta 134.751831
_cell_angle_gamma 25.052390
_cell_volume 656.762010
_symmetry_space_group_name_H-M "P -1"
_symmetry_group_IT_number 2
_symmetry_cell_setting 'triclinic'
loop_
_space_group_symop_operation_xyz
x,y,z
-x,-y,-z
loop_
_atom_site_type_symbol
_atom_site_label
_atom_site_fract_x
_atom_site_fract_y
_atom_site_fract_z
Si Si1 0.277473 0.322681 0.166153
Si Si2 0.028879 0.956721 0.127066
Si Si3 0.610424 0.163528 0.757078
Si Si4 0.378222 0.489098 0.255467
Si Si5 0.243377 0.028061 0.970292
Si Si6 0.749042 0.716112 0.602797
Si Si7 0.052141 0.289590 0.668274
Si Si8 0.058593 0.836928 0.357431
O O1 0.312977 0.247666 0.235646
O O2 0.078030 0.557467 0.345282
O O3 0.196961 0.280690 0.896697
O O4 0.516068 0.200505 0.171206
O O5 0.538339 0.271486 0.012263
O O6 0.930040 0.129953 0.409097
O O7 0.284859 0.805470 0.166810
O O8 0.926097 0.915932 0.013455
O O9 0.789677 0.931417 0.569628
O O10 0.403337 0.258466 0.612764
O O11 0.000000 0.000000 0.000000
O O12 0.500000 0.500000 0.500000
O O13 0.159254 0.590147 0.258262
O O14 0.290692 0.608922 0.214087
O O15 0.279284 0.134272 0.230192
O O16 0.126883 0.110304 0.824923
O O17 0.000000 0.500000 0.500000
O O18 0.000000 0.000000 0.500000
#
# Coordination Sequence:
#
# PCOD9034418 Si02
#       8
#     2   2   2   2   2   2   2   2
#     4  11  25  47  78 114 157 207 260 334 400 470
#     4  11  25  45  72 116 157 201 264 327 393 468
#     4  12  26  48  80 113 160 205 260 337 390 476
#     4  12  27  49  78 110 159 213 257 328 407 477
#     4  11  24  47  83 109 154 219 259 325 409 477
#     4  12  26  50  78 116 154 203 268 329 397 480
#     4  11  26  47  75 119 155 200 271 319 401 476
#     4  10  22  44  74 108 148 203 267 314 387 480
#
# _framework density 24.361944999999999
#
# number of rings (size 3 to 8) (size 9 to 14) (size 15 to 20)
#    0.000    0.750    2.500    4.125    5.250    1.000 
#    0.000    6.875    0.000    0.000    0.000    0.000 
#    0.000    0.000    0.000    0.000    0.000    0.000 
#
# Total GULP energy -89352.488060 kJ/mol
# GULP energy per Si atom -5584.530504 kJ/mol
# Density = 2.430650 g / cm^3
# Si number density = 24.361945 Si / 1000 Ang^3
#
#
#
# Elastic Constant Matrix: (Units=GPa)
#
#
# Indices 1 2 3 4 5 6 
#
# 1 116.4801 41.4461 51.2317 -6.9244 14.9705 -9.7649
# 2 41.4461 173.4934 66.1702 -6.5299 0.2159 -20.7848
# 3 51.2317 66.1702 126.3813 -20.7693 2.6440 -11.8275
# 4 -6.9244 -6.5299 -20.7693 52.8625 -8.8566 3.3970
# 5 14.9705 0.2159 2.6440 -8.8566 33.6816 -5.9560
# 6 -9.7649 -20.7848 -11.8275 3.3970 -5.9560 37.5908
#
#
#
# Elastic Compliance Matrix: (Units=1/GPa)
#
#
# Indices 1 2 3 4 5 6 
#
# 1 0.011382 -0.001169 -0.004045 -0.001097 -0.004960 0.000351
# 2 -0.001169 0.007679 -0.003367 -0.000536 0.001144 0.003112
# 3 -0.004045 -0.003367 0.012019 0.004074 0.002095 0.000833
# 4 -0.001097 -0.000536 0.004074 0.021285 0.005712 -0.000318
# 5 -0.004960 0.001144 0.002095 0.005712 0.034089 0.004888
# 6 0.000351 0.003112 0.000833 -0.000318 0.004888 0.029479
#
#
# Mechanical properties :
#
#
# Convention : Reuss Voigt Hill
#
# Bulk Modulus (GPa) = 71.85856 81.56120 76.70988
# Shear Modulus (GPa) = 36.30127 41.99410 39.14769
#
# Velocity S-wave (km/s) = 3.86434 4.15632 4.01299
# Velocity P-wave (km/s) = 7.03357 7.52230 7.28204
#
# Compressibility (1/GPa) = 0.01391623
#
# Stress axis : x y z
#
# Youngs Moduli (GPa) = 87.85582 130.22998 83.20138
#
# Poissons Ratio (x) = 0.15228 0.33659
# Poissons Ratio (y) = 0.10273 0.28015
# Poissons Ratio (z) = 0.35542 0.43850
#
# Static dielectric constant tensor:
#      x y z
#    x 2.148450 0.043520 -0.011150 
#    y 0.043520 2.067330 0.043870 
#    z -0.011150 0.043870 1.984750 
# 
# From -- ./inp_files/467494.got.cif
#   From: 2010.05.17/outbox.cif.g08.bks.cpg/sg2_234_cif.got.tgz:467494.got - 2010.06.03 11:33:40.
