data_PCOD9034786
_publ_section_title
;
Structure prediction by ZEFSAII (Michael W. Deem and Ramdas Pophale) SiO2 
 PCOD9034786
Probable space group: P -1
;
_chemical_formula_sum "Si O2"
_cell_formula_units_Z 16
_cell_length_a 9.754771
_cell_length_b 11.387296
_cell_length_c 18.110590
_cell_angle_alpha 51.758919
_cell_angle_beta 38.105402
_cell_angle_gamma 81.582237
_cell_volume 693.591267
_symmetry_space_group_name_H-M "P -1"
_symmetry_group_IT_number 2
_symmetry_cell_setting 'triclinic'
loop_
_space_group_symop_operation_xyz
x,y,z
-x,-y,-z
loop_
_atom_site_type_symbol
_atom_site_label
_atom_site_fract_x
_atom_site_fract_y
_atom_site_fract_z
Si Si1 0.615876 0.529669 0.520992
Si Si2 0.507118 0.351044 0.101013
Si Si3 0.591828 0.991544 0.380896
Si Si4 0.296414 0.710344 0.334307
Si Si5 0.432482 0.693263 0.746936
Si Si6 0.146562 0.521334 0.781485
Si Si7 0.872639 0.032114 0.684688
Si Si8 0.851425 0.968575 0.879341
O O1 0.500000 0.500000 0.500000
O O2 0.658266 0.378158 0.581882
O O3 0.324062 0.451440 0.722764
O O4 0.921374 0.777808 0.308516
O O5 0.545834 0.398455 0.153729
O O6 0.217334 0.118502 0.285367
O O7 0.500000 0.500000 0.000000
O O8 0.805757 0.385534 0.946955
O O9 0.558698 0.130297 0.297671
O O10 0.927927 0.074261 0.195836
O O11 0.500000 0.000000 0.500000
O O12 0.349136 0.744061 0.567124
O O13 0.219561 0.841766 0.339360
O O14 0.000000 0.500000 0.500000
O O15 0.590173 0.846720 0.100497
O O16 0.176108 0.562667 0.841153
O O17 0.757132 0.811693 0.521111
O O18 0.715574 0.910847 0.876210
#
# Coordination Sequence:
#
# PCOD9034786 Si02
#       8
#     2   2   2   2   2   2   2   2
#     4  11  26  46  73 106 145 189 252 304 359 438
#     4  12  29  41  68 111 150 185 241 312 373 432
#     4   9  18  40  74  99 132 181 244 295 351 428
#     4  12  27  47  76 106 146 201 247 301 374 439
#     4  11  22  46  72  98 142 193 248 290 370 447
#     4  10  22  45  68 103 139 188 241 298 363 438
#     4  12  25  47  71 107 149 193 244 306 375 440
#     4  11  24  46  75 107 147 194 243 304 369 444
#
# _framework density 23.068339999999999
#
# number of rings (size 3 to 8) (size 9 to 14) (size 15 to 20)
#    0.000    1.000    5.000    1.875    5.250    5.500 
#    0.000    0.000    0.000    0.000    0.000    0.000 
#    0.000    0.000    0.000    0.000    0.000    0.000 
#
# Total GULP energy -89427.353983 kJ/mol
# GULP energy per Si atom -5589.209624 kJ/mol
# Density = 2.301584 g / cm^3
# Si number density = 23.068340 Si / 1000 Ang^3
#
#
#
# Elastic Constant Matrix: (Units=GPa)
#
#
# Indices 1 2 3 4 5 6 
#
# 1 145.0535 32.6594 24.4983 -9.8852 20.8376 -17.1215
# 2 32.6594 87.2221 13.6815 3.1639 11.0738 -28.7306
# 3 24.4983 13.6815 73.7532 3.5713 2.2616 -13.2059
# 4 -9.8852 3.1639 3.5713 14.6880 -3.9456 -4.9601
# 5 20.8376 11.0738 2.2616 -3.9456 34.3817 -4.0492
# 6 -17.1215 -28.7306 -13.2059 -4.9601 -4.0492 47.8265
#
#
#
# Elastic Compliance Matrix: (Units=1/GPa)
#
#
# Indices 1 2 3 4 5 6 
#
# 1 0.008979 -0.002239 -0.002500 0.006695 -0.003604 0.001569
# 2 -0.002239 0.015427 -0.000494 -0.002888 -0.002995 0.007777
# 3 -0.002500 -0.000494 0.015135 -0.004249 0.000496 0.002589
# 4 0.006695 -0.002888 -0.004249 0.078975 0.007191 0.008288
# 5 -0.003604 -0.002995 0.000496 0.007191 0.033097 0.000596
# 6 0.001569 0.007777 0.002589 0.008288 0.000596 0.027767
#
#
# Mechanical properties :
#
#
# Convention : Reuss Voigt Hill
#
# Bulk Modulus (GPa) = 34.39300 49.74527 42.06914
# Shear Modulus (GPa) = 25.05794 35.05854 30.05824
#
# Velocity S-wave (km/s) = 3.29940 3.90265 3.61364
# Velocity P-wave (km/s) = 5.42737 6.47446 5.97390
#
# Compressibility (1/GPa) = 0.02907568
#
# Stress axis : x y z
#
# Youngs Moduli (GPa) = 111.36594 64.81986 66.07254
#
# Poissons Ratio (x) = 0.14511 0.16519
# Poissons Ratio (y) = 0.24932 0.03264
# Poissons Ratio (z) = 0.27844 0.03203
#
# Static dielectric constant tensor:
#      x y z
#    x 1.854560 0.045530 0.093360 
#    y 0.045530 0.647270 -1.908660 
#    z 0.093360 -1.908660 -1.099810 
# 
# From -- ./inp_files/559748.got.cif
#   From: 2010.05.17/outbox.cif.g08.bks.cpg/sg2_280_cif.got.tgz:559748.got - 2010.06.03 11:33:40.
