data_PCOD9034298
_publ_section_title
;
Structure prediction by ZEFSAII (Michael W. Deem and Ramdas Pophale) SiO2 
 PCOD9034298
Probable space group: P -1
;
_chemical_formula_sum "Si O2"
_cell_formula_units_Z 13
_cell_length_a 5.205934
_cell_length_b 14.664100
_cell_length_c 7.029545
_cell_angle_alpha 100.448553
_cell_angle_beta 105.604978
_cell_angle_gamma 106.401735
_cell_volume 476.208151
_symmetry_space_group_name_H-M "P -1"
_symmetry_group_IT_number 2
_symmetry_cell_setting 'triclinic'
loop_
_space_group_symop_operation_xyz
x,y,z
-x,-y,-z
loop_
_atom_site_type_symbol
_atom_site_label
_atom_site_fract_x
_atom_site_fract_y
_atom_site_fract_z
Si Si1 0.755194 0.474510 0.646735
Si Si2 0.201965 0.222461 0.235515
Si Si3 0.942591 0.313307 0.764854
Si Si4 0.213163 0.668539 0.820957
Si Si5 0.776532 0.109719 0.796437
Si Si6 0.272431 0.080031 0.499972
Si Si7 0.500000 0.500000 0.000000
O O1 0.500000 0.500000 0.500000
O O2 0.775833 0.365181 0.613429
O O3 0.084298 0.550793 0.708899
O O4 0.696991 0.497892 0.859123
O O5 0.474541 0.280048 0.181760
O O6 0.274652 0.171272 0.411677
O O7 0.024862 0.290567 0.291594
O O8 0.976707 0.138870 0.027391
O O9 0.911989 0.197319 0.697808
O O10 0.817930 0.316050 0.954476
O O11 0.267963 0.386585 0.853647
O O12 0.465332 0.117683 0.739491
O O13 0.673576 0.994509 0.675538
O O14 0.000000 0.000000 0.500000
#
# Coordination Sequence:
#
# PCOD9034298 Si02
#       7
#     2   2   2   2   2   2   1
#     4  11  26  42  70 107 148 199 250 309 374 449
#     4  11  26  48  77 106 149 195 247 307 381 451
#     4  10  24  43  74  98 146 193 247 301 369 447
#     4  10  25  45  74 108 148 197 247 304 375 449
#     4  10  26  46  72 105 141 200 239 307 378 441
#     4  11  27  47  75 108 147 184 255 313 372 455
#     4  10  22  44  72  98 144 186 248 298 368 442
#
# _framework density 27.298987
#
# number of rings (size 3 to 8) (size 9 to 14) (size 15 to 20)
#    0.000    1.538    0.000    2.308   23.692    2.462 
#    0.000    0.000    0.000    0.000    0.000    0.000 
#    0.000    0.000    0.000    0.000    0.000    0.000 
#
# Total GULP energy -72428.848264 kJ/mol
# GULP energy per Si atom -5571.449866 kJ/mol
# Density = 2.723685 g / cm^3
# Si number density = 27.298987 Si / 1000 Ang^3
#
#
#
# Elastic Constant Matrix: (Units=GPa)
#
#
# Indices 1 2 3 4 5 6 
#
# 1 117.3231 37.0439 17.1076 -5.6001 10.6221 20.9845
# 2 37.0439 126.5730 0.3780 6.8817 13.1213 -3.7593
# 3 17.1076 0.3780 73.1142 6.5949 4.4856 12.9515
# 4 -5.6001 6.8817 6.5949 56.2438 3.0717 15.1980
# 5 10.6221 13.1213 4.4856 3.0717 26.2483 13.0751
# 6 20.9845 -3.7593 12.9515 15.1980 13.0751 65.1584
#
#
#
# Elastic Compliance Matrix: (Units=1/GPa)
#
#
# Indices 1 2 3 4 5 6 
#
# 1 0.010738 -0.003314 -0.002035 0.002765 -0.000808 -0.003728
# 2 -0.003314 0.009565 0.000690 -0.002113 -0.004772 0.002932
# 3 -0.002035 0.000690 0.014642 -0.001499 -0.001021 -0.001661
# 4 0.002765 -0.002113 -0.001499 0.019939 0.000592 -0.005484
# 5 -0.000808 -0.004772 -0.001021 0.000592 0.045432 -0.009067
# 6 -0.003728 0.002932 -0.001661 -0.005484 -0.009067 0.020146
#
#
# Mechanical properties :
#
#
# Convention : Reuss Voigt Hill
#
# Bulk Modulus (GPa) = 39.02114 47.34103 43.18108
# Shear Modulus (GPa) = 36.14752 47.02881 41.58816
#
# Velocity S-wave (km/s) = 3.64281 4.15508 3.90735
# Velocity P-wave (km/s) = 5.65849 6.35602 6.01737
#
# Compressibility (1/GPa) = 0.02562714
#
# Stress axis : x y z
#
# Youngs Moduli (GPa) = 93.12329 104.54707 68.29742
#
# Poissons Ratio (x) = 0.34647 0.13898
# Poissons Ratio (y) = 0.30861 -0.04712
# Poissons Ratio (z) = 0.18950 -0.07212
#
# Static dielectric constant tensor:
#      x y z
#    x 2.153760 -0.158160 0.300250 
#    y -0.158160 2.315250 -0.169700 
#    z 0.300250 -0.169700 1.901930 
# 
# From -- ./inp_files/135418.got.cif
#   From: 2010.05.17/outbox.cif.g08.bks.cpg/sg2_68_cif.got.tgz:135418.got - 2010.06.03 11:33:40.
