data_PCOD9034198
_publ_section_title
;
Structure prediction by ZEFSAII (Michael W. Deem and Ramdas Pophale) SiO2 
 PCOD9034198
Probable space group: P -1
;
_chemical_formula_sum "Si O2"
_cell_formula_units_Z 15
_cell_length_a 8.259977
_cell_length_b 7.531158
_cell_length_c 13.565541
_cell_angle_alpha 64.668480
_cell_angle_beta 50.589983
_cell_angle_gamma 87.171038
_cell_volume 558.656332
_symmetry_space_group_name_H-M "P -1"
_symmetry_group_IT_number 2
_symmetry_cell_setting 'triclinic'
loop_
_space_group_symop_operation_xyz
x,y,z
-x,-y,-z
loop_
_atom_site_type_symbol
_atom_site_label
_atom_site_fract_x
_atom_site_fract_y
_atom_site_fract_z
Si Si1 0.775858 0.659356 0.657167
Si Si2 0.724836 0.071004 0.958642
Si Si3 0.589343 0.706071 0.221622
Si Si4 0.417119 0.973687 0.372858
Si Si5 0.924405 0.781266 0.377878
Si Si6 0.751014 0.489103 0.913901
Si Si7 0.500000 0.500000 0.500000
Si Si8 0.184801 0.797610 0.693904
O O1 0.563595 0.471267 0.747744
O O2 0.716466 0.871258 0.641202
O O3 0.960873 0.705616 0.490189
O O4 0.847073 0.586947 0.747857
O O5 0.720719 0.249439 0.993615
O O6 0.896926 0.182229 0.782777
O O7 0.500000 0.000000 0.000000
O O8 0.759292 0.874330 0.046154
O O9 0.662219 0.606181 0.312244
O O10 0.465753 0.850757 0.290440
O O11 0.632191 0.125468 0.309693
O O12 0.318927 0.794236 0.538680
O O13 0.696183 0.619749 0.469754
O O14 0.889043 0.002642 0.349314
O O15 0.964832 0.624036 0.859762
O O16 0.500000 0.500000 0.000000
#
# Coordination Sequence:
#
# PCOD9034198 Si02
#       8
#     2   2   2   2   2   2   1   2
#     4  10  24  44  74 104 141 194 241 297 351 431
#     4  12  26  44  67 103 144 186 233 293 361 419
#     4  11  23  44  75 103 140 186 235 301 353 426
#     4  10  22  45  71 106 138 183 239 299 356 418
#     4  10  23  43  70 102 140 179 235 296 351 425
#     4  12  26  45  69 101 147 194 238 292 360 434
#     4  10  22  44  72 102 136 176 238 290 350 424
#     4  10  23  42  70 101 144 181 236 298 354 426
#
# _framework density 26.850138000000001
#
# number of rings (size 3 to 8) (size 9 to 14) (size 15 to 20)
#    0.000    1.333    2.667    1.600    5.600    4.267 
#    0.000    2.667    0.000    0.000    0.000    0.000 
#    0.000    0.000    0.000    0.000    0.000    0.000 
#
# Total GULP energy -83723.934322 kJ/mol
# GULP energy per Si atom -5581.595621 kJ/mol
# Density = 2.678903 g / cm^3
# Si number density = 26.850138 Si / 1000 Ang^3
#
#
#
# Elastic Constant Matrix: (Units=GPa)
#
#
# Indices 1 2 3 4 5 6 
#
# 1 60.6459 6.0036 35.0182 -17.3232 -8.5893 6.6833
# 2 6.0036 80.9769 31.6865 -23.1630 11.8036 5.6381
# 3 35.0182 31.6865 129.7189 -17.9357 -22.3086 -7.3887
# 4 -17.3232 -23.1630 -17.9357 45.1238 3.9780 -0.6754
# 5 -8.5893 11.8036 -22.3086 3.9780 50.0396 -20.9346
# 6 6.6833 5.6381 -7.3887 -0.6754 -20.9346 36.1517
#
#
#
# Elastic Compliance Matrix: (Units=1/GPa)
#
#
# Indices 1 2 3 4 5 6 
#
# 1 0.023393 0.005465 -0.007952 0.008978 -0.005686 -0.009927
# 2 0.005465 0.021673 -0.008691 0.010876 -0.015056 -0.014682
# 3 -0.007952 -0.008691 0.014593 -0.002657 0.012948 0.013256
# 4 0.008978 0.010876 -0.002657 0.030719 -0.007974 -0.007943
# 5 -0.005686 -0.015056 0.012948 -0.007974 0.041483 0.029918
# 6 -0.009927 -0.014682 0.013256 -0.007943 0.029918 0.051672
#
#
# Mechanical properties :
#
#
# Convention : Reuss Voigt Hill
#
# Bulk Modulus (GPa) = 26.80717 46.30649 36.55683
# Shear Modulus (GPa) = 22.90185 39.50523 31.20354
#
# Velocity S-wave (km/s) = 2.92370 3.83994 3.41271
# Velocity P-wave (km/s) = 4.62634 6.07815 5.40125
#
# Compressibility (1/GPa) = 0.03730346
#
# Stress axis : x y z
#
# Youngs Moduli (GPa) = 42.74785 46.14072 68.52517
#
# Poissons Ratio (x) = -0.25217 0.54491
# Poissons Ratio (y) = -0.23363 0.59556
# Poissons Ratio (z) = 0.33993 0.40102
#
# Static dielectric constant tensor:
#      x y z
#    x 2.083800 -0.003530 -0.078090 
#    y -0.003530 2.091480 0.054910 
#    z -0.078090 0.054910 2.261090 
# 
# From -- ./inp_files/492248.got.cif
#   From: 2010.05.17/outbox.cif.g08.bks.cpg/sg2_247_cif.got.tgz:492248.got - 2010.06.03 11:33:40.
