data_PCOD9034005
_publ_section_title
;
Structure prediction by ZEFSAII (Michael W. Deem and Ramdas Pophale) SiO2 
 PCOD9034005
Probable space group: P -1
;
_chemical_formula_sum "Si O2"
_cell_formula_units_Z 12
_cell_length_a 4.988145
_cell_length_b 11.650387
_cell_length_c 14.364056
_cell_angle_alpha 137.220922
_cell_angle_beta 86.877438
_cell_angle_gamma 107.261133
_cell_volume 523.960692
_symmetry_space_group_name_H-M "P -1"
_symmetry_group_IT_number 2
_symmetry_cell_setting 'triclinic'
loop_
_space_group_symop_operation_xyz
x,y,z
-x,-y,-z
loop_
_atom_site_type_symbol
_atom_site_label
_atom_site_fract_x
_atom_site_fract_y
_atom_site_fract_z
Si Si1 0.614573 0.021613 0.257590
Si Si2 0.301164 0.600007 0.604661
Si Si3 0.421567 0.564377 0.170014
Si Si4 0.150114 0.572810 0.806506
Si Si5 0.257200 0.025765 0.581461
Si Si6 0.997872 0.795812 0.082053
O O1 0.595440 0.188018 0.298734
O O2 0.779072 0.091159 0.394048
O O3 0.276435 0.886992 0.196564
O O4 0.805929 0.917504 0.147001
O O5 0.500000 0.500000 0.500000
O O6 0.253868 0.582203 0.705385
O O7 0.000000 0.500000 0.500000
O O8 0.629940 0.479767 0.165170
O O9 0.617710 0.767209 0.258622
O O10 0.178121 0.569718 0.252466
O O11 0.216894 0.411889 0.011722
O O12 0.128281 0.757781 0.958846
O O13 0.500000 0.000000 0.500000
O O14 0.000000 0.000000 0.500000
#
# Coordination Sequence:
#
# PCOD9034005 Si02
#       6
#     2   2   2   2   2   2
#     4  12  26  45  68 107 132 180 236 286 338 400
#     4  12  28  44  70 100 142 186 226 284 335 418
#     4  10  22  44  70  99 135 184 223 276 351 398
#     4  10  22  44  70  99 135 184 223 276 351 398
#     4  12  28  44  70 100 142 186 226 284 335 418
#     4  10  22  45  70 103 138 172 232 284 342 412
#
# _framework density 22.902483
#
# number of rings (size 3 to 8) (size 9 to 14) (size 15 to 20)
#    1.000    0.000    1.667    4.000    7.000    2.667 
#    0.000    0.000    0.000    0.000    0.000    0.000 
#    0.000    0.000    0.000    0.000    0.000    0.000 
#
# Total GULP energy -67040.413909 kJ/mol
# GULP energy per Si atom -5586.701159 kJ/mol
# Density = 2.285036 g / cm^3
# Si number density = 22.902483 Si / 1000 Ang^3
#
#
#
# Elastic Constant Matrix: (Units=GPa)
#
#
# Indices 1 2 3 4 5 6 
#
# 1 181.1378 22.8818 35.0830 10.2498 -9.5988 -19.7732
# 2 22.8818 65.6685 22.8249 -0.0813 -1.3452 -9.4611
# 3 35.0830 22.8249 95.0822 2.5320 -11.2692 -3.8488
# 4 10.2498 -0.0813 2.5320 28.7358 18.1826 -2.3648
# 5 -9.5988 -1.3452 -11.2692 18.1826 37.2565 -0.3870
# 6 -19.7732 -9.4611 -3.8488 -2.3648 -0.3870 25.6362
#
#
#
# Elastic Compliance Matrix: (Units=1/GPa)
#
#
# Indices 1 2 3 4 5 6 
#
# 1 0.006839 -0.001153 -0.001583 -0.003999 0.003238 0.004292
# 2 -0.001153 0.017712 -0.003919 0.002515 -0.002016 0.005260
# 3 -0.001583 -0.003919 0.012724 -0.003956 0.005219 -0.001043
# 4 -0.003999 0.002515 -0.003956 0.055089 -0.029002 0.001894
# 5 0.003238 -0.002016 0.005219 -0.029002 0.043340 0.000516
# 6 0.004292 0.005260 -0.001043 0.001894 0.000516 0.044285
#
#
# Mechanical properties :
#
#
# Convention : Reuss Voigt Hill
#
# Bulk Modulus (GPa) = 41.72869 55.94088 48.83478
# Shear Modulus (GPa) = 24.84013 35.73227 30.28620
#
# Velocity S-wave (km/s) = 3.29691 3.95421 3.64042
# Velocity P-wave (km/s) = 5.72298 6.73249 6.24816
#
# Compressibility (1/GPa) = 0.02396433
#
# Stress axis : x y z
#
# Youngs Moduli (GPa) = 146.21482 56.45957 78.59322
#
# Poissons Ratio (x) = 0.06511 0.12439
# Poissons Ratio (y) = 0.16862 0.30803
# Poissons Ratio (z) = 0.23141 0.22128
#
# Static dielectric constant tensor:
#      x y z
#    x 1.832840 0.051610 0.012540 
#    y 0.051610 1.943320 0.018480 
#    z 0.012540 0.018480 1.903000 
# 
# From -- ./inp_files/425869.got.cif
#   From: 2010.05.17/outbox.cif.g08.bks.cpg/sg2_213_cif.got.tgz:425869.got - 2010.06.03 11:33:40.
