data_PCOD9034099
_publ_section_title
;
Structure prediction by ZEFSAII (Michael W. Deem and Ramdas Pophale) SiO2 
 PCOD9034099
Probable space group: P -1
;
_chemical_formula_sum "Si O2"
_cell_formula_units_Z 11
_cell_length_a 12.486040
_cell_length_b 9.892994
_cell_length_c 8.585038
_cell_angle_alpha 134.904086
_cell_angle_beta 113.699978
_cell_angle_gamma 38.300808
_cell_volume 436.721434
_symmetry_space_group_name_H-M "P -1"
_symmetry_group_IT_number 2
_symmetry_cell_setting 'triclinic'
loop_
_space_group_symop_operation_xyz
x,y,z
-x,-y,-z
loop_
_atom_site_type_symbol
_atom_site_label
_atom_site_fract_x
_atom_site_fract_y
_atom_site_fract_z
Si Si1 0.024818 0.428729 0.278478
Si Si2 0.079255 0.687334 0.282134
Si Si3 0.342568 0.298829 0.856049
Si Si4 0.747262 0.081178 0.198796
Si Si5 0.500000 0.500000 0.000000
Si Si6 0.520086 0.690820 0.493282
O O1 0.834081 0.568570 0.227586
O O2 0.000000 0.500000 0.500000
O O3 0.059813 0.582330 0.335099
O O4 0.210225 0.066999 0.063458
O O5 0.285255 0.654463 0.635391
O O6 0.930525 0.789794 0.157453
O O7 0.273843 0.423541 0.094700
O O8 0.398252 0.427571 0.919532
O O9 0.499827 0.938943 0.649602
O O10 0.594119 0.200418 0.324949
O O11 0.000000 0.000000 0.500000
O O12 0.552048 0.346643 0.723858
#
# Coordination Sequence:
#
# PCOD9034099 Si02
#       6
#     2   2   2   2   1   2
#     4  11  24  45  80 111 144 192 255 309 370 437
#     4  11  22  45  76 105 147 196 249 306 373 443
#     4  11  24  48  74 103 156 194 247 305 370 444
#     4  10  22  44  71 106 145 189 245 301 377 441
#     4  12  28  44  72 110 150 202 244 302 374 432
#     4  11  23  45  71 106 152 191 242 307 372 445
#
# _framework density 25.18768
#
# number of rings (size 3 to 8) (size 9 to 14) (size 15 to 20)
#    0.000    1.091    3.636    2.727    2.545    1.455 
#    3.273    6.364    0.000    3.273    0.000    0.000 
#    0.000    0.000    0.000    0.000    0.000    0.000 
#
# Total GULP energy -61284.012620 kJ/mol
# GULP energy per Si atom -5571.273875 kJ/mol
# Density = 2.513035 g / cm^3
# Si number density = 25.187680 Si / 1000 Ang^3
#
#
#
# Elastic Constant Matrix: (Units=GPa)
#
#
# Indices 1 2 3 4 5 6 
#
# 1 208.1527 44.7940 102.5856 11.7574 12.7761 23.5355
# 2 44.7940 77.1183 51.1564 26.0926 4.5670 5.6299
# 3 102.5856 51.1564 177.7210 28.8303 -9.4250 11.6082
# 4 11.7574 26.0926 28.8303 47.3884 7.0301 10.2968
# 5 12.7761 4.5670 -9.4250 7.0301 59.5597 6.5346
# 6 23.5355 5.6299 11.6082 10.2968 6.5346 15.0716
#
#
#
# Elastic Compliance Matrix: (Units=1/GPa)
#
#
# Indices 1 2 3 4 5 6 
#
# 1 0.008702 -0.002892 -0.004290 0.004849 -0.001599 -0.011824
# 2 -0.002892 0.019297 -0.002813 -0.009435 -0.000882 0.006303
# 3 -0.004290 -0.002813 0.009607 -0.004071 0.002933 0.001860
# 4 0.004849 -0.009435 -0.004071 0.032761 -0.002386 -0.022261
# 5 -0.001599 -0.000882 0.002933 -0.002386 0.018589 -0.005862
# 6 -0.011824 0.006303 0.001860 -0.022261 -0.005862 0.098778
#
#
# Mechanical properties :
#
#
# Convention : Reuss Voigt Hill
#
# Bulk Modulus (GPa) = 56.76448 95.56265 76.16356
# Shear Modulus (GPa) = 23.40853 42.03434 32.72144
#
# Velocity S-wave (km/s) = 3.05186 4.08958 3.60822
# Velocity P-wave (km/s) = 5.91641 7.76674 6.90384
#
# Compressibility (1/GPa) = 0.01761665
#
# Stress axis : x y z
#
# Youngs Moduli (GPa) = 114.91971 51.82039 104.08928
#
# Poissons Ratio (x) = 0.14985 0.44651
# Poissons Ratio (y) = 0.33232 0.29285
# Poissons Ratio (z) = 0.49297 0.14579
#
# Static dielectric constant tensor:
#      x y z
#    x 1.933930 -0.015540 -0.048300 
#    y -0.015540 2.079020 -0.155340 
#    z -0.048300 -0.155340 2.213370 
# 
# From -- ./inp_files/164070.got.cif
#   From: 2010.05.17/outbox.cif.g08.bks.cpg/sg2_83_cif.got.tgz:164070.got - 2010.06.03 11:33:40.
