data_PCOD9034219
_publ_section_title
;
Structure prediction by ZEFSAII (Michael W. Deem and Ramdas Pophale) SiO2 
 PCOD9034219
Probable space group: P -1
;
_chemical_formula_sum "Si O2"
_cell_formula_units_Z 13
_cell_length_a 15.698097
_cell_length_b 9.308253
_cell_length_c 7.172804
_cell_angle_alpha 53.552043
_cell_angle_beta 127.295927
_cell_angle_gamma 140.448103
_cell_volume 514.007560
_symmetry_space_group_name_H-M "P -1"
_symmetry_group_IT_number 2
_symmetry_cell_setting 'triclinic'
loop_
_space_group_symop_operation_xyz
x,y,z
-x,-y,-z
loop_
_atom_site_type_symbol
_atom_site_label
_atom_site_fract_x
_atom_site_fract_y
_atom_site_fract_z
Si Si1 0.954386 0.242347 0.377638
Si Si2 0.752283 0.958616 0.648913
Si Si3 0.500000 0.500000 0.500000
Si Si4 0.811780 0.654007 0.116564
Si Si5 0.662365 0.137600 0.660687
Si Si6 0.502701 0.325260 0.016018
Si Si7 0.122781 0.447740 0.106048
O O1 0.071292 0.309826 0.630226
O O2 0.007516 0.231934 0.253695
O O3 0.819770 0.033827 0.474725
O O4 0.935224 0.432108 0.157760
O O5 0.594443 0.725348 0.593476
O O6 0.750710 0.148116 0.599783
O O7 0.820455 0.878638 0.932428
O O8 0.493157 0.342052 0.771881
O O9 0.662715 0.431020 0.173590
O O10 0.823846 0.609691 0.950775
O O11 0.749943 0.367532 0.726441
O O12 0.500000 0.000000 0.500000
O O13 0.630826 0.933332 0.907715
O O14 0.500000 0.500000 0.000000
#
# Coordination Sequence:
#
# PCOD9034219 Si02
#       7
#     2   2   1   2   2   2   2
#     4  11  26  50  72 105 151 190 241 301 355 437
#     4  11  26  46  77 104 145 190 244 297 360 429
#     4  10  22  44  72 104 136 182 236 296 348 416
#     4  11  25  47  76 105 144 193 243 295 356 435
#     4  12  27  46  74 110 147 192 237 302 369 427
#     4  11  23  46  74 104 144 186 240 299 355 425
#     4  11  28  46  74 109 144 194 239 295 370 422
#
# _framework density 25.291457000000001
#
# number of rings (size 3 to 8) (size 9 to 14) (size 15 to 20)
#    0.000    0.923    3.077    2.769   12.923    3.692 
#    2.769    0.000    0.000    0.000    0.000    0.000 
#    0.000    0.000    0.000    0.000    0.000    0.000 
#
# Total GULP energy -72427.300121 kJ/mol
# GULP energy per Si atom -5571.330779 kJ/mol
# Density = 2.523389 g / cm^3
# Si number density = 25.291457 Si / 1000 Ang^3
#
#
#
# Elastic Constant Matrix: (Units=GPa)
#
#
# Indices 1 2 3 4 5 6 
#
# 1 119.4485 24.5127 13.4635 20.0600 -3.4159 -8.9009
# 2 24.5127 52.4637 18.4776 21.6420 11.3751 -9.1820
# 3 13.4635 18.4776 114.3179 28.8002 15.3750 -8.9436
# 4 20.0600 21.6420 28.8002 46.6979 3.6289 -4.6016
# 5 -3.4159 11.3751 15.3750 3.6289 26.4092 1.5794
# 6 -8.9009 -9.1820 -8.9436 -4.6016 1.5794 27.2028
#
#
#
# Elastic Compliance Matrix: (Units=1/GPa)
#
#
# Indices 1 2 3 4 5 6 
#
# 1 0.009812 -0.004079 -0.000290 -0.002300 0.003442 0.001150
# 2 -0.004079 0.029068 0.000683 -0.010417 -0.012473 0.007664
# 3 -0.000290 0.000683 0.011375 -0.006410 -0.006262 0.003155
# 4 -0.002300 -0.010417 -0.006410 0.030752 0.003779 -0.001393
# 5 0.003442 -0.012473 -0.006262 0.003779 0.047243 -0.007246
# 6 0.001150 0.007664 0.003155 -0.001393 -0.007246 0.040946
#
#
# Mechanical properties :
#
#
# Convention : Reuss Voigt Hill
#
# Bulk Modulus (GPa) = 23.31809 44.34863 33.83336
# Shear Modulus (GPa) = 26.19692 35.38038 30.78865
#
# Velocity S-wave (km/s) = 3.22188 3.74425 3.49284
# Velocity P-wave (km/s) = 4.80421 6.02210 5.44730
#
# Compressibility (1/GPa) = 0.04288515
#
# Stress axis : x y z
#
# Youngs Moduli (GPa) = 101.91782 34.40160 87.91076
#
# Poissons Ratio (x) = 0.14031 0.02548
# Poissons Ratio (y) = 0.41568 -0.06007
# Poissons Ratio (z) = 0.02954 -0.02351
#
# Static dielectric constant tensor:
#      x y z
#    x 2.048620 -0.003440 0.069950 
#    y -0.003440 2.129010 -0.116970 
#    z 0.069950 -0.116970 2.105200 
# 
# From -- ./inp_files/89739.got.cif
#   From: 2010.05.17/outbox.cif.g08.bks.cpg/sg2_45_cif.got.tgz:89739.got - 2010.06.03 11:33:40.
