data_PCOD9034960
_publ_section_title
;
Structure prediction by ZEFSAII (Michael W. Deem and Ramdas Pophale) SiO2 
 PCOD9034960
Probable space group: P -1
;
_chemical_formula_sum "Si O2"
_cell_formula_units_Z 16
_cell_length_a 13.689252
_cell_length_b 20.401829
_cell_length_c 8.393004
_cell_angle_alpha 97.118556
_cell_angle_beta 91.627738
_cell_angle_gamma 160.552968
_cell_volume 695.528838
_symmetry_space_group_name_H-M "P -1"
_symmetry_group_IT_number 2
_symmetry_cell_setting 'triclinic'
loop_
_space_group_symop_operation_xyz
x,y,z
-x,-y,-z
loop_
_atom_site_type_symbol
_atom_site_label
_atom_site_fract_x
_atom_site_fract_y
_atom_site_fract_z
Si Si1 0.506879 0.710502 0.701836
Si Si2 0.228897 0.390942 0.582518
Si Si3 0.379965 0.734242 0.141165
Si Si4 0.795713 0.021965 0.934098
Si Si5 0.666313 0.555212 0.746107
Si Si6 0.381031 0.232108 0.634091
Si Si7 0.351118 0.959161 0.302595
Si Si8 0.175711 0.717079 0.312781
O O1 0.493537 0.621616 0.691107
O O2 0.790687 0.944351 0.839220
O O3 0.465017 0.692114 0.504779
O O4 0.203338 0.537922 0.745626
O O5 0.375482 0.414107 0.631169
O O6 0.134639 0.331485 0.374009
O O7 0.938746 0.212753 0.638353
O O8 0.521799 0.757864 0.224892
O O9 0.384637 0.788194 0.303395
O O10 0.605172 0.898015 0.053880
O O11 0.000000 0.500000 0.000000
O O12 0.625676 0.965926 0.794690
O O13 0.141240 0.278454 0.065464
O O14 0.531902 0.398686 0.747111
O O15 0.000000 0.000000 0.500000
O O16 0.246913 0.817224 0.208457
O O17 0.685885 0.168409 0.477661
#
# Coordination Sequence:
#
# PCOD9034960 Si02
#       8
#     2   2   2   2   2   2   2   2
#     4  10  23  44  70 103 137 183 237 286 350 425
#     4   9  21  45  69  93 137 183 234 279 354 425
#     4  12  27  45  70 104 146 184 230 294 355 412
#     4  12  26  40  67 106 140 178 232 301 347 405
#     4  10  24  43  70 100 136 185 235 291 345 422
#     4  11  28  49  75 101 142 195 237 280 354 435
#     4  10  23  40  69 101 132 180 237 289 351 414
#     4  10  22  45  69  96 138 186 231 288 350 431
#
# _framework density 23.004078
#
# number of rings (size 3 to 8) (size 9 to 14) (size 15 to 20)
#    0.000    1.500    1.250    1.500   12.250    3.500 
#    0.000    0.000    0.000    0.000    0.000    0.000 
#    0.000    0.000    0.000    0.000    0.000    0.000 
#
# Total GULP energy -89268.514123 kJ/mol
# GULP energy per Si atom -5579.282133 kJ/mol
# Density = 2.295172 g / cm^3
# Si number density = 23.004078 Si / 1000 Ang^3
#
#
#
# Elastic Constant Matrix: (Units=GPa)
#
#
# Indices 1 2 3 4 5 6 
#
# 1 118.6302 46.4601 31.7672 -14.6237 7.6219 -31.6834
# 2 46.4601 75.5203 26.6423 -5.3435 2.3238 -26.7061
# 3 31.7672 26.6423 62.2002 8.1956 -2.3609 -24.0939
# 4 -14.6237 -5.3435 8.1956 39.1071 -17.2395 -1.3202
# 5 7.6219 2.3238 -2.3609 -17.2395 36.4780 2.5306
# 6 -31.6834 -26.7061 -24.0939 -1.3202 2.5306 32.9388
#
#
#
# Elastic Compliance Matrix: (Units=1/GPa)
#
#
# Indices 1 2 3 4 5 6 
#
# 1 0.013606 -0.004216 -0.002761 0.004929 -0.000973 0.007922
# 2 -0.004216 0.020844 -0.002848 0.002052 -0.000416 0.010875
# 3 -0.002761 -0.002848 0.024523 -0.006930 -0.001820 0.012835
# 4 0.004929 0.002052 -0.006930 0.035927 0.015259 0.001603
# 5 -0.000973 -0.000416 -0.001820 0.015259 0.035062 -0.004687
# 6 0.007922 0.010875 0.012835 0.001603 -0.004687 0.056609
#
#
# Mechanical properties :
#
#
# Convention : Reuss Voigt Hill
#
# Bulk Modulus (GPa) = 25.43119 51.78777 38.60948
# Shear Modulus (GPa) = 22.79674 31.80350 27.30012
#
# Velocity S-wave (km/s) = 3.15141 3.72225 3.44866
# Velocity P-wave (km/s) = 4.93162 6.40585 5.71646
#
# Compressibility (1/GPa) = 0.03932179
#
# Stress axis : x y z
#
# Youngs Moduli (GPa) = 73.49739 47.97567 40.77817
#
# Poissons Ratio (x) = 0.20229 0.11257
# Poissons Ratio (y) = 0.30990 0.11615
# Poissons Ratio (z) = 0.20290 0.13665
#
# Static dielectric constant tensor:
#      x y z
#    x 1.968820 -0.046090 -0.046190 
#    y -0.046090 1.896030 0.050500 
#    z -0.046190 0.050500 1.952470 
# 
# From -- ./inp_files/319003.got.cif
#   From: 2010.05.17/outbox.cif.g08.bks.cpg/sg2_160_cif.got.tgz:319003.got - 2010.06.03 11:33:40.
