data_PCOD9034151
_publ_section_title
;
Structure prediction by ZEFSAII (Michael W. Deem and Ramdas Pophale) SiO2 
 PCOD9034151
Probable space group: P -1
;
_chemical_formula_sum "Si O2"
_cell_formula_units_Z 14
_cell_length_a 13.032321
_cell_length_b 6.636308
_cell_length_c 13.023914
_cell_angle_alpha 93.961972
_cell_angle_beta 33.031610
_cell_angle_gamma 84.217248
_cell_volume 585.872381
_symmetry_space_group_name_H-M "P -1"
_symmetry_group_IT_number 2
_symmetry_cell_setting 'triclinic'
loop_
_space_group_symop_operation_xyz
x,y,z
-x,-y,-z
loop_
_atom_site_type_symbol
_atom_site_label
_atom_site_fract_x
_atom_site_fract_y
_atom_site_fract_z
Si Si1 0.400168 0.333324 0.532113
Si Si2 0.752819 0.076418 0.550551
Si Si3 0.373826 0.097104 0.753741
Si Si4 0.146617 0.789876 0.140212
Si Si5 0.540486 0.843484 0.864645
Si Si6 0.029309 0.458957 0.095763
Si Si7 0.818149 0.409091 0.669065
O O1 0.500000 0.500000 0.500000
O O2 0.354482 0.193030 0.658418
O O3 0.188704 0.467436 0.668937
O O4 0.546783 0.156367 0.332725
O O5 0.550700 0.167569 0.661093
O O6 0.808894 0.239051 0.584952
O O7 0.698989 0.902177 0.661509
O O8 0.936130 0.966554 0.320855
O O9 0.165329 0.218776 0.984034
O O10 0.144447 0.611033 0.053740
O O11 0.163034 0.690713 0.237614
O O12 0.335741 0.873163 0.979560
O O13 0.625816 0.606808 0.824353
O O14 0.500000 0.000000 0.000000
O O15 0.000000 0.500000 0.000000
O O16 0.000000 0.500000 0.500000
#
# Coordination Sequence:
#
# PCOD9034151 Si02
#       7
#     2   2   2   2   2   2   2
#     4  10  22  44  71  97 136 181 233 288 352 416
#     4  12  25  46  69 104 143 181 238 292 354 432
#     4  10  23  43  68  98 138 179 227 295 349 411
#     4  12  24  46  72 100 143 186 235 299 354 421
#     4  12  26  44  70 101 141 188 237 290 353 425
#     4  10  23  44  69  98 137 180 233 290 348 421
#     4  12  25  44  70 100 141 186 231 289 358 422
#
# _framework density 23.895989
#
# number of rings (size 3 to 8) (size 9 to 14) (size 15 to 20)
#    0.000    0.857    4.286    2.571    2.000    5.143 
#    2.571    0.000    0.000    0.000    0.000    0.000 
#    0.000    0.000    0.000    0.000    0.000    0.000 
#
# Total GULP energy -78384.132382 kJ/mol
# GULP energy per Si atom -5598.866599 kJ/mol
# Density = 2.384160 g / cm^3
# Si number density = 23.895989 Si / 1000 Ang^3
#
#
#
# Elastic Constant Matrix: (Units=GPa)
#
#
# Indices 1 2 3 4 5 6 
#
# 1 106.4871 33.2124 43.3161 22.6968 -8.2973 24.3637
# 2 33.2124 101.2167 73.2005 23.9689 -10.4756 29.1766
# 3 43.3161 73.2005 139.4646 31.0257 -27.6793 6.7758
# 4 22.6968 23.9689 31.0257 48.7047 -1.5975 -2.8834
# 5 -8.2973 -10.4756 -27.6793 -1.5975 51.3988 3.7692
# 6 24.3637 29.1766 6.7758 -2.8834 3.7692 56.5974
#
#
#
# Elastic Compliance Matrix: (Units=1/GPa)
#
#
# Indices 1 2 3 4 5 6 
#
# 1 0.012742 0.000801 -0.002818 -0.004852 0.000982 -0.005873
# 2 0.000801 0.020516 -0.009444 -0.005054 -0.000196 -0.010035
# 3 -0.002818 -0.009444 0.014445 -0.002847 0.005027 0.003872
# 4 -0.004852 -0.005054 -0.002847 0.027389 -0.002981 0.006629
# 5 0.000982 -0.000196 0.005027 -0.002981 0.022377 -0.002566
# 6 -0.005873 -0.010035 0.003872 0.006629 -0.002566 0.025415
#
#
# Mechanical properties :
#
#
# Convention : Reuss Voigt Hill
#
# Bulk Modulus (GPa) = 40.35412 71.84738 56.10075
# Shear Modulus (GPa) = 32.45351 44.50281 38.47816
#
# Velocity S-wave (km/s) = 3.68926 4.32018 4.01713
# Velocity P-wave (km/s) = 5.92213 7.41736 6.71152
#
# Compressibility (1/GPa) = 0.02478061
#
# Stress axis : x y z
#
# Youngs Moduli (GPa) = 78.48156 48.74189 69.22687
#
# Poissons Ratio (x) = -0.03902 0.19508
# Poissons Ratio (y) = -0.06283 0.65378
# Poissons Ratio (z) = 0.22116 0.46032
#
# Static dielectric constant tensor:
#      x y z
#    x 1.914210 -0.041050 -0.013560 
#    y -0.041050 1.893830 -0.014390 
#    z -0.013560 -0.014390 1.986130 
# 
# From -- ./inp_files/98473.got.cif
#   From: 2010.05.17/outbox.cif.g08.bks.cpg/sg2_50_cif.got.tgz:98473.got - 2010.06.03 11:33:40.
