data_PCOD9034723
_publ_section_title
;
Structure prediction by ZEFSAII (Michael W. Deem and Ramdas Pophale) SiO2 
 PCOD9034723
Probable space group: P -1
;
_chemical_formula_sum "Si O2"
_cell_formula_units_Z 16
_cell_length_a 8.482952
_cell_length_b 9.277129
_cell_length_c 16.516928
_cell_angle_alpha 142.720592
_cell_angle_beta 116.861205
_cell_angle_gamma 80.290080
_cell_volume 657.095506
_symmetry_space_group_name_H-M "P -1"
_symmetry_group_IT_number 2
_symmetry_cell_setting 'triclinic'
loop_
_space_group_symop_operation_xyz
x,y,z
-x,-y,-z
loop_
_atom_site_type_symbol
_atom_site_label
_atom_site_fract_x
_atom_site_fract_y
_atom_site_fract_z
Si Si1 0.003942 0.891370 0.170920
Si Si2 0.467610 0.074094 0.117172
Si Si3 0.686178 0.023295 0.413776
Si Si4 0.292043 0.630554 0.138435
Si Si5 0.869590 0.414358 0.173698
Si Si6 0.282903 0.505661 0.268938
Si Si7 0.017200 0.979549 0.391642
Si Si8 0.116161 0.671361 0.676835
O O1 0.075821 0.008493 0.326757
O O2 0.150293 0.755402 0.121033
O O3 0.975041 0.121956 0.221401
O O4 0.801006 0.667689 0.035017
O O5 0.386941 0.303538 0.202695
O O6 0.678134 0.178270 0.246501
O O7 0.500000 0.000000 0.000000
O O8 0.313567 0.817057 0.000741
O O9 0.641448 0.264029 0.545770
O O10 0.793599 0.940472 0.475591
O O11 0.504098 0.797917 0.240677
O O12 0.857584 0.099871 0.424729
O O13 0.290950 0.627518 0.235665
O O14 0.908647 0.682321 0.257639
O O15 0.852269 0.442742 0.280021
O O16 0.062399 0.366205 0.176405
O O17 0.000000 0.500000 0.500000
#
# Coordination Sequence:
#
# PCOD9034723 Si02
#       8
#     2   2   2   2   2   2   2   2
#     4  11  25  44  62  99 135 169 215 269 337 382
#     4  10  23  42  67  94 126 179 220 259 321 396
#     4  10  23  38  68  99 128 173 218 275 319 388
#     4  11  23  41  68  98 131 172 217 275 327 381
#     4  10  22  45  67  96 128 175 219 271 315 390
#     4  11  22  41  71 100 126 170 232 267 318 387
#     4  10  23  43  70  97 131 165 228 268 325 383
#     4  11  27  42  66  94 137 174 210 269 333 390
#
# _framework density 24.34958
#
# number of rings (size 3 to 8) (size 9 to 14) (size 15 to 20)
#    0.000    1.500    2.500    2.250   12.250    0.500 
#    0.000    0.625    0.000    0.000    0.000    0.000 
#    0.000    0.000    0.000    0.000    0.000    0.000 
#
# Total GULP energy -89404.349450 kJ/mol
# GULP energy per Si atom -5587.771841 kJ/mol
# Density = 2.429416 g / cm^3
# Si number density = 24.349580 Si / 1000 Ang^3
#
#
#
# Elastic Constant Matrix: (Units=GPa)
#
#
# Indices 1 2 3 4 5 6 
#
# 1 78.2233 8.0526 34.6823 5.6343 6.6781 -18.6966
# 2 8.0526 79.3461 22.1583 18.2032 -3.0994 -8.5130
# 3 34.6823 22.1583 107.6892 2.1651 31.6120 -31.3326
# 4 5.6343 18.2032 2.1651 34.8978 -6.4926 -10.4918
# 5 6.6781 -3.0994 31.6120 -6.4926 59.3122 5.6543
# 6 -18.6966 -8.5130 -31.3326 -10.4918 5.6543 24.0909
#
#
#
# Elastic Compliance Matrix: (Units=1/GPa)
#
#
# Indices 1 2 3 4 5 6 
#
# 1 0.016310 -0.000384 -0.000873 0.000873 -0.002473 0.012348
# 2 -0.000384 0.015967 -0.006680 -0.009634 0.004196 -0.008524
# 3 -0.000873 -0.006680 0.029044 0.011634 -0.018669 0.044185
# 4 0.000873 -0.009634 0.011634 0.041350 -0.005294 0.031655
# 5 -0.002473 0.004196 -0.018669 -0.005294 0.029975 -0.034058
# 6 0.012348 -0.008524 0.044185 0.031655 -0.034058 0.127327
#
#
# Mechanical properties :
#
#
# Convention : Reuss Voigt Hill
#
# Bulk Modulus (GPa) = 22.00330 43.89388 32.94859
# Shear Modulus (GPa) = 17.18247 37.01785 27.10016
#
# Velocity S-wave (km/s) = 2.65930 3.90329 3.33973
# Velocity P-wave (km/s) = 4.29945 6.19515 5.33222
#
# Compressibility (1/GPa) = 0.04544772
#
# Stress axis : x y z
#
# Youngs Moduli (GPa) = 61.31235 62.62910 34.43091
#
# Poissons Ratio (x) = 0.02403 0.03006
# Poissons Ratio (y) = 0.02352 0.22999
# Poissons Ratio (z) = 0.05352 0.41836
#
# Static dielectric constant tensor:
#      x y z
#    x 1.954140 0.002340 -0.051430 
#    y 0.002340 1.964330 0.016250 
#    z -0.051430 0.016250 2.004690 
# 
# From -- ./inp_files/557707.got.cif
#   From: 2010.05.17/outbox.cif.g08.bks.cpg/sg2_279_cif.got.tgz:557707.got - 2010.06.03 11:33:40.
