data_PCOD9034474
_publ_section_title
;
Structure prediction by ZEFSAII (Michael W. Deem and Ramdas Pophale) SiO2 
 PCOD9034474
Probable space group: P -1
;
_chemical_formula_sum "Si O2"
_cell_formula_units_Z 15
_cell_length_a 7.906970
_cell_length_b 19.305038
_cell_length_c 8.800096
_cell_angle_alpha 129.468062
_cell_angle_beta 145.926833
_cell_angle_gamma 48.750759
_cell_volume 552.902526
_symmetry_space_group_name_H-M "P -1"
_symmetry_group_IT_number 2
_symmetry_cell_setting 'triclinic'
loop_
_space_group_symop_operation_xyz
x,y,z
-x,-y,-z
loop_
_atom_site_type_symbol
_atom_site_label
_atom_site_fract_x
_atom_site_fract_y
_atom_site_fract_z
Si Si1 0.305244 0.367666 0.933079
Si Si2 0.479715 0.907674 0.162794
Si Si3 0.265084 0.104841 0.128637
Si Si4 0.818840 0.339903 0.746823
Si Si5 0.578945 0.190486 0.708621
Si Si6 0.874092 0.475422 0.212336
Si Si7 0.776592 0.148922 0.388611
Si Si8 0.500000 0.500000 0.500000
O O1 0.521028 0.295213 0.874792
O O2 0.065412 0.455756 0.782265
O O3 0.097227 0.314038 0.792535
O O4 0.465943 0.413380 0.242922
O O5 0.435138 0.878001 0.257660
O O6 0.848017 0.896822 0.394818
O O7 0.288124 0.013255 0.117087
O O8 0.349819 0.841358 0.863972
O O9 0.301898 0.184839 0.383114
O O10 0.572565 0.089050 0.230377
O O11 0.936167 0.143619 0.849782
O O12 0.695637 0.251550 0.547353
O O13 0.571043 0.429189 0.607338
O O14 0.947949 0.374294 0.044331
O O15 0.000000 0.500000 0.500000
O O16 0.500000 0.500000 0.000000
#
# Coordination Sequence:
#
# PCOD9034474 Si02
#       8
#     2   2   2   2   2   2   2   1
#     4  11  26  47  74 104 146 200 254 297 366 452
#     4  12  24  49  78 106 146 198 252 297 367 453
#     4  12  27  47  73 112 153 191 239 315 379 429
#     4  11  26  47  74 107 145 198 254 300 366 452
#     4  12  26  47  73 110 148 196 244 307 368 441
#     4  11  28  47  72 106 147 189 236 313 372 429
#     4  12  26  47  76 110 146 194 250 305 364 445
#     4  10  22  44  76 102 136 194 252 306 352 432
#
# _framework density 27.129556999999998
#
# number of rings (size 3 to 8) (size 9 to 14) (size 15 to 20)
#    0.000    0.533    1.333    6.400   11.200    0.000 
#    0.000    0.000    0.000    0.000    0.000    0.000 
#    0.000    0.000    0.000    0.000    0.000    0.000 
#
# Total GULP energy -83966.882168 kJ/mol
# GULP energy per Si atom -5597.792145 kJ/mol
# Density = 2.706781 g / cm^3
# Si number density = 27.129557 Si / 1000 Ang^3
#
#
#
# Elastic Constant Matrix: (Units=GPa)
#
#
# Indices 1 2 3 4 5 6 
#
# 1 78.4140 8.4091 18.2436 7.9193 -4.4050 10.6091
# 2 8.4091 102.2433 33.6029 9.9110 14.1736 9.0692
# 3 18.2436 33.6029 167.5265 8.8662 -21.7491 -1.9591
# 4 7.9193 9.9110 8.8662 44.3462 -2.0827 8.8120
# 5 -4.4050 14.1736 -21.7491 -2.0827 47.8412 -2.2203
# 6 10.6091 9.0692 -1.9591 8.8120 -2.2203 44.3714
#
#
#
# Elastic Compliance Matrix: (Units=1/GPa)
#
#
# Indices 1 2 3 4 5 6 
#
# 1 0.013673 -0.000376 -0.001293 -0.001491 0.000582 -0.002924
# 2 -0.000376 0.011858 -0.002929 -0.001765 -0.005066 -0.002366
# 3 -0.001293 -0.002929 0.007285 -0.000691 0.004104 0.001572
# 4 -0.001491 -0.001765 -0.000691 0.024202 0.000936 -0.004073
# 5 0.000582 -0.005066 0.004104 0.000936 0.024461 0.002116
# 6 -0.002924 -0.002366 0.001572 -0.004073 0.002116 0.024704
#
#
# Mechanical properties :
#
#
# Convention : Reuss Voigt Hill
#
# Bulk Modulus (GPa) = 42.34073 52.07720 47.20897
# Shear Modulus (GPa) = 40.56679 46.50696 43.53688
#
# Velocity S-wave (km/s) = 3.87110 4.14485 4.01031
# Velocity P-wave (km/s) = 5.96836 6.49182 6.23559
#
# Compressibility (1/GPa) = 0.02361792
#
# Stress axis : x y z
#
# Youngs Moduli (GPa) = 73.13717 84.33458 137.26239
#
# Poissons Ratio (x) = 0.03173 0.17752
# Poissons Ratio (y) = 0.02752 0.40209
# Poissons Ratio (z) = 0.09459 0.24705
#
# Static dielectric constant tensor:
#      x y z
#    x 2.169390 -0.078130 0.012530 
#    y -0.078130 2.173220 -0.073770 
#    z 0.012530 -0.073770 2.043310 
# 
# From -- ./inp_files/224154.got.cif
#   From: 2010.05.17/outbox.cif.g08.bks.cpg/sg2_113_cif.got.tgz:224154.got - 2010.06.03 11:33:40.
