data_PCOD9034744
_publ_section_title
;
Structure prediction by ZEFSAII (Michael W. Deem and Ramdas Pophale) SiO2 
 PCOD9034744
Probable space group: P -1
;
_chemical_formula_sum "Si O2"
_cell_formula_units_Z 12
_cell_length_a 10.504280
_cell_length_b 5.517657
_cell_length_c 11.057314
_cell_angle_alpha 104.575270
_cell_angle_beta 112.092035
_cell_angle_gamma 115.733519
_cell_volume 464.142356
_symmetry_space_group_name_H-M "P -1"
_symmetry_group_IT_number 2
_symmetry_cell_setting 'triclinic'
loop_
_space_group_symop_operation_xyz
x,y,z
-x,-y,-z
loop_
_atom_site_type_symbol
_atom_site_label
_atom_site_fract_x
_atom_site_fract_y
_atom_site_fract_z
Si Si1 0.239909 0.719424 0.152588
Si Si2 0.391571 0.149474 0.460472
Si Si3 0.111847 0.359832 0.628535
Si Si4 0.301547 0.263725 0.877677
Si Si5 0.358089 0.936151 0.668019
Si Si6 0.956676 0.306581 0.155545
O O1 0.133672 0.424768 0.167253
O O2 0.255049 0.968171 0.282933
O O3 0.439449 0.882917 0.221087
O O4 0.146210 0.664315 0.986373
O O5 0.500000 0.500000 0.500000
O O6 0.500000 0.000000 0.500000
O O7 0.329952 0.097000 0.568458
O O8 0.244639 0.409285 0.782340
O O9 0.226483 0.564765 0.578269
O O10 0.017773 0.478903 0.691525
O O11 0.000000 0.000000 0.500000
O O12 0.294545 0.995053 0.773063
O O13 0.159790 0.061072 0.902412
O O14 0.500000 0.500000 0.000000
#
# Coordination Sequence:
#
# PCOD9034744 Si02
#       6
#     2   2   2   2   2   2
#     4  10  22  45  67  97 144 178 237 294 369 426
#     4  10  24  41  69 104 142 188 236 298 366 434
#     4  11  26  44  71 100 139 185 239 300 361 432
#     4  11  24  42  72  95 135 183 240 288 360 433
#     4  10  24  43  70  99 136 183 239 295 356 436
#     4  10  24  44  65 101 137 182 232 302 359 436
#
# _framework density 25.854139
#
# number of rings (size 3 to 8) (size 9 to 14) (size 15 to 20)
#    0.000    1.667    0.000    2.000   11.667    4.000 
#    3.000    2.500    0.000    0.000    0.000    0.000 
#    0.000    0.000    0.000    0.000    0.000    0.000 
#
# Total GULP energy -66846.772819 kJ/mol
# GULP energy per Si atom -5570.564402 kJ/mol
# Density = 2.579529 g / cm^3
# Si number density = 25.854139 Si / 1000 Ang^3
#
#
#
# Elastic Constant Matrix: (Units=GPa)
#
#
# Indices 1 2 3 4 5 6 
#
# 1 75.7092 48.0148 26.6361 3.0479 12.6540 20.8739
# 2 48.0148 229.5700 51.8403 4.4126 14.6569 31.5611
# 3 26.6361 51.8403 114.7955 -4.7030 10.7093 7.2425
# 4 3.0479 4.4126 -4.7030 27.3425 -6.0555 4.9630
# 5 12.6540 14.6569 10.7093 -6.0555 35.6604 -5.0122
# 6 20.8739 31.5611 7.2425 4.9630 -5.0122 42.1121
#
#
#
# Elastic Compliance Matrix: (Units=1/GPa)
#
#
# Indices 1 2 3 4 5 6 
#
# 1 0.018607 -0.001763 -0.002489 -0.002235 -0.006634 -0.008000
# 2 -0.001763 0.005708 -0.001837 -0.000851 -0.001763 -0.003198
# 3 -0.002489 -0.001837 0.010267 0.002023 -0.001033 0.000484
# 4 -0.002235 -0.000851 0.002023 0.039266 0.006864 -0.002413
# 5 -0.006634 -0.001763 -0.001033 0.006864 0.033720 0.007992
# 6 -0.008000 -0.003198 0.000484 -0.002413 0.007992 0.031260
#
#
# Mechanical properties :
#
#
# Convention : Reuss Voigt Hill
#
# Bulk Modulus (GPa) = 44.63703 74.78411 59.71057
# Shear Modulus (GPa) = 31.55079 40.59523 36.07301
#
# Velocity S-wave (km/s) = 3.49712 3.96683 3.73936
# Velocity P-wave (km/s) = 5.79732 7.06889 6.46444
#
# Compressibility (1/GPa) = 0.02240292
#
# Stress axis : x y z
#
# Youngs Moduli (GPa) = 53.74376 175.18916 97.39781
#
# Poissons Ratio (x) = 0.30891 0.24243
# Poissons Ratio (y) = 0.09476 0.17895
# Poissons Ratio (z) = 0.13377 0.32187
#
# Static dielectric constant tensor:
#      x y z
#    x 3.865230 1.102640 -0.918720 
#    y 1.102640 2.860700 -0.438820 
#    z -0.918720 -0.438820 2.480000 
# 
# From -- ./inp_files/21752.got.cif
#   From: 2010.05.17/outbox.cif.g08.bks.cpg/sg2_11_cif.got.tgz:21752.got - 2010.06.03 11:33:40.
