data_PCOD9034284
_publ_section_title
;
Structure prediction by ZEFSAII (Michael W. Deem and Ramdas Pophale) SiO2 
 PCOD9034284
Probable space group: P -1
;
_chemical_formula_sum "Si O2"
_cell_formula_units_Z 10
_cell_length_a 17.067664
_cell_length_b 9.638968
_cell_length_c 13.956045
_cell_angle_alpha 31.001122
_cell_angle_beta 155.140425
_cell_angle_gamma 156.868625
_cell_volume 375.558525
_symmetry_space_group_name_H-M "P -1"
_symmetry_group_IT_number 2
_symmetry_cell_setting 'triclinic'
loop_
_space_group_symop_operation_xyz
x,y,z
-x,-y,-z
loop_
_atom_site_type_symbol
_atom_site_label
_atom_site_fract_x
_atom_site_fract_y
_atom_site_fract_z
Si Si1 0.774504 0.748081 0.266932
Si Si2 0.561335 0.767662 0.494757
Si Si3 0.270226 0.566114 0.005533
Si Si4 0.750915 0.467032 0.208415
Si Si5 0.852553 0.481789 0.688791
O O1 0.824807 0.717513 0.231795
O O2 0.747277 0.473485 0.473458
O O3 0.528548 0.692707 0.029882
O O4 0.004440 0.130144 0.336126
O O5 0.500000 0.500000 0.500000
O O6 0.353164 0.762614 0.315053
O O7 0.745116 0.156487 0.423250
O O8 0.634419 0.633988 0.739228
O O9 0.142775 0.428916 0.841771
O O10 0.063316 0.463969 0.912052
O O11 0.500000 0.000000 0.000000
#
# Coordination Sequence:
#
# PCOD9034284 Si02
#       5
#     2   2   2   2   2
#     4  10  22  44  72  97 136 183 220 276 344 397
#     4  12  25  43  71 103 134 179 229 278 334 403
#     4  12  22  46  69  99 138 180 221 281 338 401
#     4  11  24  44  72  99 138 177 224 282 339 392
#     4  11  23  45  74  97 134 184 227 270 343 406
#
# _framework density 26.627008
#
# number of rings (size 3 to 8) (size 9 to 14) (size 15 to 20)
#    0.000    0.800    6.000    1.200    0.000    4.800 
#    0.000    1.000    0.000    0.000    0.000    0.000 
#    0.000    0.000    0.000    0.000    0.000    0.000 
#
# Total GULP energy -56063.652350 kJ/mol
# GULP energy per Si atom -5606.365235 kJ/mol
# Density = 2.656640 g / cm^3
# Si number density = 26.627008 Si / 1000 Ang^3
#
#
#
# Elastic Constant Matrix: (Units=GPa)
#
#
# Indices 1 2 3 4 5 6 
#
# 1 195.1632 37.5632 22.8152 11.4256 -1.9282 -4.5258
# 2 37.5632 62.2322 10.5369 -1.3889 -5.2011 -8.9001
# 3 22.8152 10.5369 97.1209 -1.4796 -3.4513 -0.4940
# 4 11.4256 -1.3889 -1.4796 30.0086 -8.6755 -2.3470
# 5 -1.9282 -5.2011 -3.4513 -8.6755 57.2720 18.7142
# 6 -4.5258 -8.9001 -0.4940 -2.3470 18.7142 47.2201
#
#
#
# Elastic Compliance Matrix: (Units=1/GPa)
#
#
# Indices 1 2 3 4 5 6 
#
# 1 0.006100 -0.003606 -0.001104 -0.002718 -0.000599 -0.000004
# 2 -0.003606 0.019003 -0.001123 0.002712 0.000976 0.002972
# 3 -0.001104 -0.001123 0.010722 0.001100 0.000830 -0.000480
# 4 -0.002718 0.002712 0.001100 0.036191 0.005778 -0.000229
# 5 -0.000599 0.000976 0.000830 0.005778 0.021041 -0.007916
# 6 -0.000004 0.002972 -0.000480 -0.000229 -0.007916 0.024858
#
#
# Mechanical properties :
#
#
# Convention : Reuss Voigt Hill
#
# Bulk Modulus (GPa) = 41.39690 55.14965 48.27327
# Shear Modulus (GPa) = 36.32783 45.80688 41.06735
#
# Velocity S-wave (km/s) = 3.69768 4.15217 3.93150
# Velocity P-wave (km/s) = 5.81474 6.61394 6.22717
#
# Compressibility (1/GPa) = 0.02415640
#
# Stress axis : x y z
#
# Youngs Moduli (GPa) = 163.92808 52.62316 93.26964
#
# Poissons Ratio (x) = 0.18978 0.10301
# Poissons Ratio (y) = 0.59119 0.10478
# Poissons Ratio (z) = 0.18106 0.05911
#
# Static dielectric constant tensor:
#      x y z
#    x 2.078570 0.044490 0.021320 
#    y 0.044490 2.109980 0.046120 
#    z 0.021320 0.046120 2.062060 
# 
# From -- ./inp_files/144247.got.cif
#   From: 2010.05.17/outbox.cif.g08.bks.cpg/sg2_73_cif.got.tgz:144247.got - 2010.06.03 11:33:40.
