data_PCOD9034547
_publ_section_title
;
Structure prediction by ZEFSAII (Michael W. Deem and Ramdas Pophale) SiO2 
 PCOD9034547
Probable space group: P -1
;
_chemical_formula_sum "Si O2"
_cell_formula_units_Z 16
_cell_length_a 11.007431
_cell_length_b 13.981591
_cell_length_c 14.071201
_cell_angle_alpha 24.285359
_cell_angle_beta 123.025965
_cell_angle_gamma 112.909907
_cell_volume 709.532672
_symmetry_space_group_name_H-M "P -1"
_symmetry_group_IT_number 2
_symmetry_cell_setting 'triclinic'
loop_
_space_group_symop_operation_xyz
x,y,z
-x,-y,-z
loop_
_atom_site_type_symbol
_atom_site_label
_atom_site_fract_x
_atom_site_fract_y
_atom_site_fract_z
Si Si1 0.994150 0.169319 0.021822
Si Si2 0.774071 0.625246 0.182765
Si Si3 0.038463 0.468952 0.932745
Si Si4 0.815456 0.261718 0.374603
Si Si5 0.420720 0.275582 0.675442
Si Si6 0.775333 0.360456 0.602931
Si Si7 0.520481 0.120290 0.663788
Si Si8 0.363367 0.069653 0.452765
O O1 0.942189 0.354292 0.922772
O O2 0.091120 0.925537 0.335912
O O3 0.104793 0.264125 0.914851
O O4 0.867349 0.157713 0.901871
O O5 0.726608 0.490139 0.195439
O O6 0.844888 0.440400 0.466285
O O7 0.630258 0.839754 0.967261
O O8 0.210853 0.282693 0.166360
O O9 0.058927 0.702782 0.676730
O O10 0.000000 0.500000 0.000000
O O11 0.699076 0.161161 0.358255
O O12 0.500000 0.500000 0.500000
O O13 0.279356 0.401774 0.568085
O O14 0.403780 0.209517 0.619403
O O15 0.500000 0.000000 0.000000
O O16 0.636091 0.278612 0.576994
O O17 0.428143 0.149397 0.502299
O O18 0.500000 0.000000 0.500000
#
# Coordination Sequence:
#
# PCOD9034547 Si02
#       8
#     2   2   2   2   2   2   2   2
#     4  10  23  40  64  98 129 174 221 278 339 416
#     4  11  21  39  65  95 135 170 223 274 344 415
#     4  10  24  45  68  95 130 176 235 283 343 416
#     4  10  23  44  66  97 136 176 226 289 345 408
#     4  10  22  45  63  93 135 179 228 279 344 417
#     4  11  23  40  66  95 139 174 220 280 344 413
#     4  11  24  39  64  98 130 176 224 279 345 417
#     4  11  23  42  67  99 136 173 231 284 350 414
#
# _framework density 22.550052999999998
#
# number of rings (size 3 to 8) (size 9 to 14) (size 15 to 20)
#    0.000    1.500    1.250    4.125    1.750    9.000 
#    0.000    0.000    0.000    0.000    0.000    0.000 
#    0.000    0.000    0.000    0.000    0.000    0.000 
#
# Total GULP energy -89211.121167 kJ/mol
# GULP energy per Si atom -5575.695073 kJ/mol
# Density = 2.249873 g / cm^3
# Si number density = 22.550053 Si / 1000 Ang^3
#
#
#
# Elastic Constant Matrix: (Units=GPa)
#
#
# Indices 1 2 3 4 5 6 
#
# 1 61.0242 40.0234 22.6755 6.1688 -17.0965 -29.2252
# 2 40.0234 147.9799 36.2953 21.4832 -11.8289 -28.9250
# 3 22.6755 36.2953 64.5616 6.8974 -10.7549 -13.4867
# 4 6.1688 21.4832 6.8974 38.0178 -7.8485 -4.7337
# 5 -17.0965 -11.8289 -10.7549 -7.8485 33.2993 6.8779
# 6 -29.2252 -28.9250 -13.4867 -4.7337 6.8779 41.8443
#
#
#
# Elastic Compliance Matrix: (Units=1/GPa)
#
#
# Indices 1 2 3 4 5 6 
#
# 1 0.030634 -0.003643 -0.003821 0.001923 0.010314 0.016169
# 2 -0.003643 0.009595 -0.003279 -0.004113 -0.001056 0.002740
# 3 -0.003821 -0.003279 0.019357 -0.000346 0.002880 0.000791
# 4 0.001923 -0.004113 -0.000346 0.029765 0.006281 0.000724
# 5 0.010314 -0.001056 0.002880 0.006281 0.036940 0.002040
# 6 0.016169 0.002740 0.000791 0.000724 0.002040 0.037086
#
#
# Mechanical properties :
#
#
# Convention : Reuss Voigt Hill
#
# Bulk Modulus (GPa) = 26.24670 52.39489 39.32080
# Shear Modulus (GPa) = 25.30824 34.27037 29.78930
#
# Velocity S-wave (km/s) = 3.35373 3.90262 3.63854
# Velocity P-wave (km/s) = 5.16345 6.60247 5.92680
#
# Compressibility (1/GPa) = 0.03810002
#
# Stress axis : x y z
#
# Youngs Moduli (GPa) = 32.64302 104.21585 51.66204
#
# Poissons Ratio (x) = 0.37962 0.19743
# Poissons Ratio (y) = 0.11891 0.16941
# Poissons Ratio (z) = 0.12474 0.34174
#
# Static dielectric constant tensor:
#      x y z
#    x 1.860380 0.047700 -0.010890 
#    y 0.047700 1.837580 -0.042400 
#    z -0.010890 -0.042400 1.946340 
# 
# From -- ./inp_files/427294.got.cif
#   From: 2010.05.17/outbox.cif.g08.bks.cpg/sg2_214_cif.got.tgz:427294.got - 2010.06.03 11:33:40.
