data_PCOD9034640
_publ_section_title
;
Structure prediction by ZEFSAII (Michael W. Deem and Ramdas Pophale) SiO2 
 PCOD9034640
Probable space group: P -1
;
_chemical_formula_sum "Si O2"
_cell_formula_units_Z 10
_cell_length_a 5.545843
_cell_length_b 4.893231
_cell_length_c 18.817919
_cell_angle_alpha 54.130971
_cell_angle_beta 115.267518
_cell_angle_gamma 99.199721
_cell_volume 371.380863
_symmetry_space_group_name_H-M "P -1"
_symmetry_group_IT_number 2
_symmetry_cell_setting 'triclinic'
loop_
_space_group_symop_operation_xyz
x,y,z
-x,-y,-z
loop_
_atom_site_type_symbol
_atom_site_label
_atom_site_fract_x
_atom_site_fract_y
_atom_site_fract_z
Si Si1 0.748003 0.087889 0.613853
Si Si2 0.770968 0.403429 0.932053
Si Si3 0.043063 0.392876 0.714503
Si Si4 0.251946 0.710015 0.567637
Si Si5 0.801466 0.671121 0.107159
O O1 0.783440 0.257555 0.668040
O O2 0.737560 0.351232 0.506329
O O3 0.984686 0.778164 0.677336
O O4 0.494485 0.894031 0.598710
O O5 0.458836 0.534698 0.891033
O O6 0.903374 0.487652 0.860551
O O7 0.000000 0.500000 0.000000
O O8 0.750313 0.999871 0.999550
O O9 0.218320 0.407100 0.663375
O O10 0.160968 0.200193 0.827589
O O11 0.000000 0.000000 0.500000
#
# Coordination Sequence:
#
# PCOD9034640 Si02
#       5
#     2   2   2   2   2
#     4  10  23  41  62  90 131 168 214 266 325 383
#     4  10  22  45  66  92 130 172 210 273 334 395
#     4  11  24  39  63  96 125 168 216 270 319 389
#     4   9  21  41  62  91 126 172 213 263 325 382
#     4  10  24  40  65  99 126 168 222 266 330 397
#
# _framework density 26.926535999999999
#
# number of rings (size 3 to 8) (size 9 to 14) (size 15 to 20)
#    0.000    2.000    0.000    1.200    5.600   10.400 
#    0.000    0.000    0.000    0.000    0.000    0.000 
#    0.000    0.000    0.000    0.000    0.000    0.000 
#
# Total GULP energy -55870.075576 kJ/mol
# GULP energy per Si atom -5587.007558 kJ/mol
# Density = 2.686525 g / cm^3
# Si number density = 26.926536 Si / 1000 Ang^3
#
#
#
# Elastic Constant Matrix: (Units=GPa)
#
#
# Indices 1 2 3 4 5 6 
#
# 1 186.2243 37.7809 50.5802 14.8294 -5.5052 25.1796
# 2 37.7809 121.3735 31.4060 26.6057 2.7783 -3.2141
# 3 50.5802 31.4060 121.1530 35.4818 -25.1743 4.4083
# 4 14.8294 26.6057 35.4818 46.9483 3.0936 2.4140
# 5 -5.5052 2.7783 -25.1743 3.0936 34.0602 11.2919
# 6 25.1796 -3.2141 4.4083 2.4140 11.2919 37.7068
#
#
#
# Elastic Compliance Matrix: (Units=1/GPa)
#
#
# Indices 1 2 3 4 5 6 
#
# 1 0.007017 -0.001936 -0.002187 0.000707 0.001277 -0.005023
# 2 -0.001936 0.010267 -0.001375 -0.004153 -0.002941 0.003475
# 3 -0.002187 -0.001375 0.015791 -0.011169 0.013738 -0.003902
# 4 0.000707 -0.004153 -0.011169 0.032527 -0.011352 0.001797
# 5 0.001277 -0.002941 0.013738 -0.011352 0.046239 -0.015830
# 6 -0.005023 0.003475 -0.003902 0.001797 -0.015830 0.035252
#
#
# Mechanical properties :
#
#
# Convention : Reuss Voigt Hill
#
# Bulk Modulus (GPa) = 45.28912 74.25389 59.77151
# Shear Modulus (GPa) = 30.22092 44.34196 37.28144
#
# Velocity S-wave (km/s) = 3.35378 4.06245 3.72501
# Velocity P-wave (km/s) = 5.64386 7.04564 6.38334
#
# Compressibility (1/GPa) = 0.02208036
#
# Stress axis : x y z
#
# Youngs Moduli (GPa) = 142.50875 97.39985 63.32677
#
# Poissons Ratio (x) = 0.18854 0.13849
# Poissons Ratio (y) = 0.27585 0.08706
# Poissons Ratio (z) = 0.31166 0.13390
#
# Static dielectric constant tensor:
#      x y z
#    x 2.323210 -0.069210 0.028810 
#    y -0.069210 2.109080 -0.026180 
#    z 0.028810 -0.026180 2.142200 
# 
# From -- ./inp_files/5120.got.cif
#   From: 2010.05.17/outbox.cif.g08.bks.cpg/sg2_3_cif.got.tgz:5120.got - 2010.06.03 11:33:40.
