data_PCOD9034253
_publ_section_title
;
Structure prediction by ZEFSAII (Michael W. Deem and Ramdas Pophale) SiO2 
 PCOD9034253
Probable space group: P -1
;
_chemical_formula_sum "Si O2"
_cell_formula_units_Z 16
_cell_length_a 24.215651
_cell_length_b 16.655688
_cell_length_c 5.551190
_cell_angle_alpha 122.476023
_cell_angle_beta 56.729789
_cell_angle_gamma 157.558489
_cell_volume 711.463353
_symmetry_space_group_name_H-M "P -1"
_symmetry_group_IT_number 2
_symmetry_cell_setting 'triclinic'
loop_
_space_group_symop_operation_xyz
x,y,z
-x,-y,-z
loop_
_atom_site_type_symbol
_atom_site_label
_atom_site_fract_x
_atom_site_fract_y
_atom_site_fract_z
Si Si1 0.340380 0.249551 0.446248
Si Si2 0.451756 0.203306 0.269959
Si Si3 0.888442 0.081986 0.909306
Si Si4 0.128203 0.112477 0.017452
Si Si5 0.976056 0.590171 0.572645
Si Si6 0.806688 0.269957 0.854468
Si Si7 0.836813 0.515155 0.411845
Si Si8 0.367273 0.573181 0.307294
O O1 0.500000 0.500000 0.500000
O O2 0.348121 0.162626 0.438215
O O3 0.227490 0.180731 0.705590
O O4 0.274506 0.138235 0.164309
O O5 0.544074 0.324967 0.491967
O O6 0.350583 0.980034 0.157499
O O7 0.542899 0.324087 0.993930
O O8 0.013731 0.250434 0.677888
O O9 0.912130 0.212182 0.199941
O O10 0.921748 0.031363 0.904749
O O11 0.235178 0.327379 0.226933
O O12 0.000000 0.000000 0.000000
O O13 0.865253 0.374867 0.618651
O O14 0.875067 0.545635 0.646104
O O15 0.074356 0.659705 0.255927
O O16 0.810001 0.373984 0.151701
O O17 0.705036 0.415557 0.513601
#
# Coordination Sequence:
#
# PCOD9034253 Si02
#       8
#     2   2   2   2   2   2   2   2
#     4  12  26  46  73 106 148 197 247 305 376 448
#     4  12  29  49  74 110 148 203 245 309 369 453
#     4  11  24  42  76 105 144 189 249 309 376 435
#     4  12  27  46  76 109 148 199 249 310 373 444
#     4  10  22  44  72 111 138 187 250 313 374 443
#     4  10  24  42  76 102 147 188 249 306 377 441
#     4  11  25  46  71 104 146 191 253 311 372 441
#     4  12  30  48  74 106 155 196 253 301 378 447
#
# _framework density 22.488859999999999
#
# number of rings (size 3 to 8) (size 9 to 14) (size 15 to 20)
#    0.000    0.750    1.250    4.875   10.500    4.000 
#    0.000    0.000    0.000    0.000    0.000    0.000 
#    0.000    0.000    0.000    0.000    0.000    0.000 
#
# Total GULP energy -89446.596589 kJ/mol
# GULP energy per Si atom -5590.412287 kJ/mol
# Density = 2.243767 g / cm^3
# Si number density = 22.488860 Si / 1000 Ang^3
#
#
#
# Elastic Constant Matrix: (Units=GPa)
#
#
# Indices 1 2 3 4 5 6 
#
# 1 152.3944 65.3727 46.9012 17.7510 -7.9902 8.4986
# 2 65.3727 129.6376 34.3719 24.7669 2.4001 -16.6028
# 3 46.9012 34.3719 75.0830 15.4913 -10.1464 14.5530
# 4 17.7510 24.7669 15.4913 42.1756 -0.9840 -2.4717
# 5 -7.9902 2.4001 -10.1464 -0.9840 39.8583 -3.5543
# 6 8.4986 -16.6028 14.5530 -2.4717 -3.5543 49.8762
#
#
#
# Elastic Compliance Matrix: (Units=1/GPa)
#
#
# Indices 1 2 3 4 5 6 
#
# 1 0.009620 -0.004100 -0.003522 -0.000434 0.001097 -0.001920
# 2 -0.004100 0.012203 -0.003568 -0.003858 -0.002073 0.005463
# 3 -0.003522 -0.003568 0.019699 -0.003934 0.003868 -0.006255
# 4 -0.000434 -0.003858 -0.003934 0.027679 -0.000056 0.001305
# 5 0.001097 -0.002073 0.003868 -0.000056 0.026406 -0.000127
# 6 -0.001920 0.005463 -0.006255 0.001305 -0.000127 0.024076
#
#
# Mechanical properties :
#
#
# Convention : Reuss Voigt Hill
#
# Bulk Modulus (GPa) = 52.24540 72.26741 62.25640
# Shear Modulus (GPa) = 33.68302 40.41328 37.04815
#
# Velocity S-wave (km/s) = 3.87429 4.24374 4.06322
# Velocity P-wave (km/s) = 6.57994 7.49780 7.05382
#
# Compressibility (1/GPa) = 0.01914044
#
# Stress axis : x y z
#
# Youngs Moduli (GPa) = 103.94955 81.95014 50.76449
#
# Poissons Ratio (x) = 0.33604 0.17880
# Poissons Ratio (y) = 0.42624 0.18112
# Poissons Ratio (z) = 0.36613 0.29238
#
# Static dielectric constant tensor:
#      x y z
#    x 1.885470 -0.004550 0.033510 
#    y -0.004550 1.811220 -0.003820 
#    z 0.033510 -0.003820 1.923670 
# 
# From -- ./inp_files/124882.got.cif
#   From: 2010.05.17/outbox.cif.g08.bks.cpg/sg2_63_cif.got.tgz:124882.got - 2010.06.03 11:33:40.
