data_PCOD9034971
_publ_section_title
;
Structure prediction by ZEFSAII (Michael W. Deem and Ramdas Pophale) SiO2 
 PCOD9034971
Probable space group: P -1
;
_chemical_formula_sum "Si O2"
_cell_formula_units_Z 15
_cell_length_a 6.922193
_cell_length_b 15.716808
_cell_length_c 17.242674
_cell_angle_alpha 24.404964
_cell_angle_beta 127.388272
_cell_angle_gamma 124.257316
_cell_volume 615.560795
_symmetry_space_group_name_H-M "P -1"
_symmetry_group_IT_number 2
_symmetry_cell_setting 'triclinic'
loop_
_space_group_symop_operation_xyz
x,y,z
-x,-y,-z
loop_
_atom_site_type_symbol
_atom_site_label
_atom_site_fract_x
_atom_site_fract_y
_atom_site_fract_z
Si Si1 0.226591 0.205644 0.946965
Si Si2 0.976495 0.759977 0.435176
Si Si3 0.052073 0.204877 0.071080
Si Si4 0.458478 0.812243 0.708249
Si Si5 0.978635 0.604265 0.822403
Si Si6 0.527982 0.406483 0.251575
Si Si7 0.164549 0.746910 0.316996
Si Si8 0.500000 0.500000 0.500000
O O1 0.433708 0.369998 0.885815
O O2 0.076742 0.261767 0.787930
O O3 0.039656 0.212524 0.968744
O O4 0.294800 0.970230 0.148237
O O5 0.207525 0.691267 0.597253
O O6 0.086518 0.747832 0.385487
O O7 0.742358 0.614162 0.503162
O O8 0.914605 0.997355 0.238379
O O9 0.333091 0.164603 0.195765
O O10 0.982399 0.414884 0.920029
O O11 0.193114 0.768062 0.716789
O O12 0.518363 0.612774 0.835341
O O13 0.500000 0.000000 0.500000
O O14 0.708103 0.696738 0.679624
O O15 0.000000 0.500000 0.000000
O O16 0.335455 0.572648 0.473684
#
# Coordination Sequence:
#
# PCOD9034971 Si02
#       8
#     2   2   2   2   2   2   2   1
#     4  10  22  45  69  97 140 190 232 303 361 420
#     4  11  26  46  69 103 142 190 235 305 358 437
#     4  11  23  47  71 101 147 189 238 296 367 429
#     4  12  25  48  72 108 155 189 240 306 361 437
#     4  12  26  44  76 109 145 198 244 298 357 435
#     4  12  24  44  70 105 147 190 241 298 366 434
#     4  10  24  45  68  98 138 182 245 301 353 432
#     4  12  24  44  72 100 138 184 238 298 372 416
#
# _framework density 24.368022
#
# number of rings (size 3 to 8) (size 9 to 14) (size 15 to 20)
#    0.000    0.800    5.333    1.600    1.867    2.667 
#    0.000    2.000    0.000    0.000    0.000    0.000 
#    0.000    0.000    0.000    0.000    0.000    0.000 
#
# Total GULP energy -83613.800919 kJ/mol
# GULP energy per Si atom -5574.253395 kJ/mol
# Density = 2.431256 g / cm^3
# Si number density = 24.368022 Si / 1000 Ang^3
#
#
#
# Elastic Constant Matrix: (Units=GPa)
#
#
# Indices 1 2 3 4 5 6 
#
# 1 110.4911 23.2128 23.0673 -4.1871 -8.9983 31.0026
# 2 23.2128 114.0373 16.1532 -14.4784 -11.6399 6.0358
# 3 23.0673 16.1532 57.1562 -13.7773 -18.2558 8.8304
# 4 -4.1871 -14.4784 -13.7773 36.8793 -3.6685 -9.4819
# 5 -8.9983 -11.6399 -18.2558 -3.6685 20.2373 -6.1831
# 6 31.0026 6.0358 8.8304 -9.4819 -6.1831 58.7525
#
#
#
# Elastic Compliance Matrix: (Units=1/GPa)
#
#
# Indices 1 2 3 4 5 6 
#
# 1 0.011885 -0.002085 -0.004913 -0.003156 -0.002789 -0.006122
# 2 -0.002085 0.010418 0.001557 0.005623 0.007959 0.001541
# 3 -0.004913 0.001557 0.032783 0.016434 0.032351 0.003562
# 4 -0.003156 0.005623 0.016434 0.039716 0.026235 0.007788
# 5 -0.002789 0.007959 0.032351 0.026235 0.089579 0.009453
# 6 -0.006122 0.001541 0.003562 0.007788 0.009453 0.021809
#
#
# Mechanical properties :
#
#
# Convention : Reuss Voigt Hill
#
# Bulk Modulus (GPa) = 22.62281 45.17235 33.89758
# Shear Modulus (GPa) = 21.56966 37.79056 29.68011
#
# Velocity S-wave (km/s) = 2.97840 3.94233 3.49376
# Velocity P-wave (km/s) = 4.59693 6.26900 5.49691
#
# Compressibility (1/GPa) = 0.04420318
#
# Stress axis : x y z
#
# Youngs Moduli (GPa) = 84.13831 95.99135 30.50353
#
# Poissons Ratio (x) = 0.20011 0.14987
# Poissons Ratio (y) = 0.17540 -0.04748
# Poissons Ratio (z) = 0.41339 -0.14942
#
# Static dielectric constant tensor:
#      x y z
#    x 1.828120 -0.010660 -0.053010 
#    y -0.010660 1.897140 -0.056050 
#    z -0.053010 -0.056050 2.052920 
# 
# From -- ./inp_files/549937.got.cif
#   From: 2010.05.17/outbox.cif.g08.bks.cpg/sg2_275_cif.got.tgz:549937.got - 2010.06.03 11:33:40.
