data_PCOD9034139
_publ_section_title
;
Structure prediction by ZEFSAII (Michael W. Deem and Ramdas Pophale) SiO2 
 PCOD9034139
Probable space group: P -1
;
_chemical_formula_sum "Si O2"
_cell_formula_units_Z 16
_cell_length_a 18.350962
_cell_length_b 7.831963
_cell_length_c 5.910595
_cell_angle_alpha 110.841236
_cell_angle_beta 67.016140
_cell_angle_gamma 124.511874
_cell_volume 634.205117
_symmetry_space_group_name_H-M "P -1"
_symmetry_group_IT_number 2
_symmetry_cell_setting 'triclinic'
loop_
_space_group_symop_operation_xyz
x,y,z
-x,-y,-z
loop_
_atom_site_type_symbol
_atom_site_label
_atom_site_fract_x
_atom_site_fract_y
_atom_site_fract_z
Si Si1 0.856940 0.514043 0.265052
Si Si2 0.288296 0.562624 0.254326
Si Si3 0.617520 0.837187 0.045788
Si Si4 0.560748 0.474796 0.652868
Si Si5 0.012758 0.821001 0.521558
Si Si6 0.167098 0.898539 0.087818
Si Si7 0.126445 0.190235 0.999702
Si Si8 0.420288 0.827598 0.857397
O O1 0.766004 0.393344 0.467639
O O2 0.945253 0.611697 0.365415
O O3 0.852842 0.700669 0.219280
O O4 0.856563 0.339715 0.025238
O O5 0.371902 0.549423 0.260538
O O6 0.208709 0.351415 0.138626
O O7 0.331980 0.724722 0.075554
O O8 0.592323 0.720974 0.773136
O O9 0.725350 0.944866 0.981408
O O10 0.545476 0.652400 0.208162
O O11 0.593659 0.019332 0.220255
O O12 0.571080 0.357595 0.364494
O O13 0.116987 0.891936 0.381197
O O14 0.964936 0.807282 0.810214
O O15 0.000000 0.000000 0.500000
O O16 0.124592 0.975877 0.974633
O O17 0.500000 0.000000 0.000000
#
# Coordination Sequence:
#
# PCOD9034139 Si02
#       8
#     2   2   2   2   2   2   2   2
#     4  11  24  43  72 100 137 182 236 290 353 421
#     4  11  22  46  64  99 135 179 235 287 346 424
#     4  11  24  45  70 105 139 187 244 285 353 434
#     4  11  24  45  69  96 148 186 228 296 350 423
#     4   9  22  43  68  99 143 180 229 286 352 429
#     4  11  22  42  70 105 139 174 241 292 341 428
#     4  10  22  44  71  96 137 186 223 286 363 412
#     4  12  26  44  71 100 140 192 232 292 363 409
#
# _framework density 25.228432999999999
#
# number of rings (size 3 to 8) (size 9 to 14) (size 15 to 20)
#    0.000    1.250    2.500    3.000    1.750    3.000 
#    4.500    7.500    0.000    0.000    0.000    0.000 
#    0.000    0.000    0.000    0.000    0.000    0.000 
#
# Total GULP energy -89356.651179 kJ/mol
# GULP energy per Si atom -5584.790699 kJ/mol
# Density = 2.517101 g / cm^3
# Si number density = 25.228433 Si / 1000 Ang^3
#
#
#
# Elastic Constant Matrix: (Units=GPa)
#
#
# Indices 1 2 3 4 5 6 
#
# 1 107.4830 31.8902 27.4174 5.5359 -5.1034 34.5926
# 2 31.8902 90.7666 41.5732 6.7933 -12.1377 9.8858
# 3 27.4174 41.5732 120.6614 10.3055 -23.7030 12.2483
# 4 5.5359 6.7933 10.3055 44.0912 9.6663 -10.9719
# 5 -5.1034 -12.1377 -23.7030 9.6663 43.7806 -4.9417
# 6 34.5926 9.8858 12.2483 -10.9719 -4.9417 45.5597
#
#
#
# Elastic Compliance Matrix: (Units=1/GPa)
#
#
# Indices 1 2 3 4 5 6 
#
# 1 0.014066 -0.003174 -0.000689 -0.003785 0.000013 -0.010716
# 2 -0.003174 0.014146 -0.003705 -0.001263 0.001851 0.000233
# 3 -0.000689 -0.003705 0.011350 -0.003732 0.005635 -0.002012
# 4 -0.003785 -0.001263 -0.003732 0.028493 -0.007957 0.010150
# 5 0.000013 0.001851 0.005635 -0.007957 0.028073 -0.000797
# 6 -0.010716 0.000233 -0.002012 0.010150 -0.000797 0.032934
#
#
# Mechanical properties :
#
#
# Convention : Reuss Voigt Hill
#
# Bulk Modulus (GPa) = 40.93908 57.85251 49.39579
# Shear Modulus (GPa) = 32.82128 41.22165 37.02146
#
# Velocity S-wave (km/s) = 3.61080 4.04658 3.83489
# Velocity P-wave (km/s) = 5.80055 6.69435 6.26342
#
# Compressibility (1/GPa) = 0.02442654
#
# Stress axis : x y z
#
# Youngs Moduli (GPa) = 71.09436 70.69103 88.10199
#
# Poissons Ratio (x) = 0.22439 0.06069
# Poissons Ratio (y) = 0.22567 0.32640
# Poissons Ratio (z) = 0.04897 0.26190
#
# Static dielectric constant tensor:
#      x y z
#    x 2.042410 -0.008910 0.016870 
#    y -0.008910 2.024970 0.019120 
#    z 0.016870 0.019120 2.024480 
# 
# From -- ./inp_files/117317.got.cif
#   From: 2010.05.17/outbox.cif.g08.bks.cpg/sg2_59_cif.got.tgz:117317.got - 2010.06.03 11:33:40.
