data_PCOD9034378
_publ_section_title
;
Structure prediction by ZEFSAII (Michael W. Deem and Ramdas Pophale) SiO2 
 PCOD9034378
Probable space group: P -1
;
_chemical_formula_sum "Si O2"
_cell_formula_units_Z 16
_cell_length_a 19.612078
_cell_length_b 8.540984
_cell_length_c 5.266649
_cell_angle_alpha 115.179052
_cell_angle_beta 103.761523
_cell_angle_gamma 56.244672
_cell_volume 663.780831
_symmetry_space_group_name_H-M "P -1"
_symmetry_group_IT_number 2
_symmetry_cell_setting 'triclinic'
loop_
_space_group_symop_operation_xyz
x,y,z
-x,-y,-z
loop_
_atom_site_type_symbol
_atom_site_label
_atom_site_fract_x
_atom_site_fract_y
_atom_site_fract_z
Si Si1 0.824242 0.743849 0.798945
Si Si2 0.064336 0.108977 0.884526
Si Si3 0.375288 0.401322 0.063777
Si Si4 0.779799 0.591303 0.154477
Si Si5 0.477864 0.857423 0.239786
Si Si6 0.673820 0.162142 0.911300
Si Si7 0.895375 0.150180 0.747128
Si Si8 0.422894 0.521765 0.599247
O O1 0.819052 0.621572 0.467589
O O2 0.765217 0.981764 0.842966
O O3 0.909857 0.725445 0.936167
O O4 0.789558 0.705055 0.000221
O O5 0.969940 0.189978 0.786704
O O6 0.114421 0.951451 0.588539
O O7 0.078660 0.001677 0.096938
O O8 0.315037 0.340474 0.847388
O O9 0.470225 0.212685 0.021730
O O10 0.348537 0.631590 0.111546
O O11 0.366061 0.442403 0.383320
O O12 0.822106 0.360563 0.933759
O O13 0.385381 0.923527 0.255761
O O14 0.529874 0.629916 0.237480
O O15 0.500000 0.000000 0.500000
O O16 0.640126 0.249683 0.222599
O O17 0.500000 0.500000 0.500000
#
# Coordination Sequence:
#
# PCOD9034378 Si02
#       8
#     2   2   2   2   2   2   2   2
#     4  12  28  44  65 102 139 174 217 274 338 384
#     4  10  22  44  74 102 133 176 224 263 318 398
#     4  11  24  41  63  86 124 171 225 269 325 399
#     4  12  28  43  65 101 139 174 217 275 336 386
#     4  11  23  39  59  89 124 160 214 282 338 386
#     4  11  24  40  63  88 125 170 224 272 324 400
#     4  10  22  44  74 103 132 177 223 263 319 396
#     4  11  21  40  63  88 111 170 226 271 329 395
#
# _framework density 24.104343
#
# number of rings (size 3 to 8) (size 9 to 14) (size 15 to 20)
#    0.000    1.000    2.500    3.750    8.750    2.500 
#    0.000    0.000    0.000    0.000    0.000    0.000 
#    0.000    0.000    0.000    0.000    0.000    0.000 
#
# Total GULP energy -89151.660801 kJ/mol
# GULP energy per Si atom -5571.978800 kJ/mol
# Density = 2.404948 g / cm^3
# Si number density = 24.104343 Si / 1000 Ang^3
#
#
#
# Elastic Constant Matrix: (Units=GPa)
#
#
# Indices 1 2 3 4 5 6 
#
# 1 87.0376 -0.6399 35.8518 2.1878 31.5842 7.2060
# 2 -0.6399 21.3951 -7.5019 1.1968 -4.9467 9.7872
# 3 35.8518 -7.5019 149.0894 4.3887 21.9372 11.6669
# 4 2.1878 1.1968 4.3887 25.9086 -1.6880 -3.5668
# 5 31.5842 -4.9467 21.9372 -1.6880 43.4941 2.9091
# 6 7.2060 9.7872 11.6669 -3.5668 2.9091 29.9167
#
#
#
# Elastic Compliance Matrix: (Units=1/GPa)
#
#
# Indices 1 2 3 4 5 6 
#
# 1 0.016630 -0.002046 -0.002287 -0.001865 -0.011122 -0.001585
# 2 -0.002046 0.060538 0.004377 -0.005972 0.007433 -0.022454
# 3 -0.002287 0.004377 0.008117 -0.002065 -0.001740 -0.004124
# 4 -0.001865 -0.005972 -0.002065 0.040633 0.002773 0.007783
# 5 -0.011122 0.007433 -0.001740 0.002773 0.033030 -0.001955
# 6 -0.001585 -0.022454 -0.004124 0.007783 -0.001955 0.043880
#
#
# Mechanical properties :
#
#
# Convention : Reuss Voigt Hill
#
# Bulk Modulus (GPa) = 11.71320 34.77134 23.24227
# Shear Modulus (GPa) = 21.62664 35.18468 28.40566
#
# Velocity S-wave (km/s) = 2.99860 3.82472 3.43657
# Velocity P-wave (km/s) = 4.10593 5.82764 5.04083
#
# Compressibility (1/GPa) = 0.08537377
#
# Stress axis : x y z
#
# Youngs Moduli (GPa) = 60.13116 16.51867 123.19772
#
# Poissons Ratio (x) = 0.03380 0.28170
# Poissons Ratio (y) = 0.12305 -0.53928
# Poissons Ratio (z) = 0.13749 -0.07231
#
# Static dielectric constant tensor:
#      x y z
#    x 1.967320 0.092980 0.094590 
#    y 0.092980 1.930580 -0.039850 
#    z 0.094590 -0.039850 2.076330 
# 
# From -- ./inp_files/107798.got.cif
#   From: 2010.05.17/outbox.cif.g08.bks.cpg/sg2_54_cif.got.tgz:107798.got - 2010.06.03 11:33:40.
