data_PCOD9034062
_publ_section_title
;
Structure prediction by ZEFSAII (Michael W. Deem and Ramdas Pophale) SiO2 
 PCOD9034062
Probable space group: P -1
;
_chemical_formula_sum "Si O2"
_cell_formula_units_Z 16
_cell_length_a 9.311831
_cell_length_b 6.763936
_cell_length_c 25.110437
_cell_angle_alpha 107.482328
_cell_angle_beta 34.993923
_cell_angle_gamma 127.075327
_cell_volume 655.787415
_symmetry_space_group_name_H-M "P -1"
_symmetry_group_IT_number 2
_symmetry_cell_setting 'triclinic'
loop_
_space_group_symop_operation_xyz
x,y,z
-x,-y,-z
loop_
_atom_site_type_symbol
_atom_site_label
_atom_site_fract_x
_atom_site_fract_y
_atom_site_fract_z
Si Si1 0.175954 0.951594 0.613182
Si Si2 0.031890 0.284629 0.880489
Si Si3 0.897979 0.218129 0.737847
Si Si4 0.863928 0.709321 0.586422
Si Si5 0.334979 0.709118 0.729593
Si Si6 0.546282 0.907655 0.350792
Si Si7 0.589566 0.806050 0.893203
Si Si8 0.343999 0.246291 0.885225
O O1 0.903043 0.711168 0.638081
O O2 0.500000 0.000000 0.500000
O O3 0.183908 0.918447 0.671017
O O4 0.139659 0.180867 0.632254
O O5 0.200613 0.550595 0.813258
O O6 0.243146 0.289623 0.862582
O O7 0.864048 0.028861 0.870324
O O8 0.738114 0.246929 0.995669
O O9 0.620330 0.212740 0.794238
O O10 0.126939 0.483655 0.727700
O O11 0.691414 0.952794 0.817101
O O12 0.716240 0.846869 0.626139
O O13 0.580905 0.394321 0.631662
O O14 0.213424 0.848509 0.465361
O O15 0.338688 0.946560 0.728841
O O16 0.506300 0.519597 0.892663
O O17 0.000000 0.000000 0.000000
#
# Coordination Sequence:
#
# PCOD9034062 Si02
#       8
#     2   2   2   2   2   2   2   2
#     4  10  23  47  72 101 140 184 239 306 355 427
#     4  10  24  48  70 107 146 187 246 295 350 437
#     4  11  25  46  71 105 147 190 241 298 369 422
#     4  10  22  44  71 102 137 185 235 296 360 428
#     4  11  24  43  70 106 141 188 236 296 357 427
#     4  10  22  46  71  99 146 179 234 300 363 421
#     4  10  24  49  71 100 151 184 238 304 351 429
#     4  12  26  46  74 106 142 199 237 298 368 421
#
# _framework density 24.398150000000001
#
# number of rings (size 3 to 8) (size 9 to 14) (size 15 to 20)
#    0.000    1.500    2.500    0.750    3.500    0.500 
#    9.000    1.250    0.000    0.000    0.000    0.000 
#    0.000    0.000    0.000    0.000    0.000    0.000 
#
# Total GULP energy -89415.639799 kJ/mol
# GULP energy per Si atom -5588.477487 kJ/mol
# Density = 2.434262 g / cm^3
# Si number density = 24.398150 Si / 1000 Ang^3
#
#
#
# Elastic Constant Matrix: (Units=GPa)
#
#
# Indices 1 2 3 4 5 6 
#
# 1 163.5986 29.0489 70.6770 5.7598 -9.4364 -28.9114
# 2 29.0489 70.5925 43.0037 9.2238 0.0460 -17.4719
# 3 70.6770 43.0037 83.7078 6.6259 -23.4689 -19.1490
# 4 5.7598 9.2238 6.6259 36.1820 -16.4011 -8.9205
# 5 -9.4364 0.0460 -23.4689 -16.4011 41.4734 10.7633
# 6 -28.9114 -17.4719 -19.1490 -8.9205 10.7633 41.2520
#
#
#
# Elastic Compliance Matrix: (Units=1/GPa)
#
#
# Indices 1 2 3 4 5 6 
#
# 1 0.011268 0.004502 -0.012309 -0.002435 -0.006751 0.005325
# 2 0.004502 0.027662 -0.020002 -0.009491 -0.016085 0.007731
# 3 -0.012309 -0.020002 0.037539 0.009853 0.023301 -0.003622
# 4 -0.002435 -0.009491 0.009853 0.037984 0.019544 0.001962
# 5 -0.006751 -0.016085 0.023301 0.019544 0.045694 -0.008424
# 6 0.005325 0.007731 -0.003622 0.001962 -0.008424 0.032189
#
#
# Mechanical properties :
#
#
# Convention : Reuss Voigt Hill
#
# Bulk Modulus (GPa) = 47.95776 67.03981 57.49878
# Shear Modulus (GPa) = 19.61522 35.45942 27.53732
#
# Velocity S-wave (km/s) = 2.83850 3.81644 3.36320
# Velocity P-wave (km/s) = 5.51741 6.85254 6.22090
#
# Compressibility (1/GPa) = 0.02085168
#
# Stress axis : x y z
#
# Youngs Moduli (GPa) = 88.74608 36.15057 26.63895
#
# Poissons Ratio (x) = -0.16275 0.32789
# Poissons Ratio (y) = -0.39954 0.53283
# Poissons Ratio (z) = 1.09235 0.72309
#
# Static dielectric constant tensor:
#      x y z
#    x 1.901640 0.019140 0.000300 
#    y 0.019140 1.956110 0.086780 
#    z 0.000300 0.086780 2.041300 
# 
# From -- ./inp_files/616354.got.cif
#   From: 2010.05.17/outbox.cif.g08.bks.cpg/sg2_309_cif.got.tgz:616354.got - 2010.06.03 11:33:40.
