data_PCOD9034354
_publ_section_title
;
Structure prediction by ZEFSAII (Michael W. Deem and Ramdas Pophale) SiO2 
 PCOD9034354
Probable space group: P -1
;
_chemical_formula_sum "Si O2"
_cell_formula_units_Z 14
_cell_length_a 16.244501
_cell_length_b 14.969311
_cell_length_c 8.541747
_cell_angle_alpha 142.022795
_cell_angle_beta 42.427935
_cell_angle_gamma 153.706844
_cell_volume 562.391485
_symmetry_space_group_name_H-M "P -1"
_symmetry_group_IT_number 2
_symmetry_cell_setting 'triclinic'
loop_
_space_group_symop_operation_xyz
x,y,z
-x,-y,-z
loop_
_atom_site_type_symbol
_atom_site_label
_atom_site_fract_x
_atom_site_fract_y
_atom_site_fract_z
Si Si1 0.500000 0.500000 0.500000
Si Si2 0.712955 0.851150 0.107544
Si Si3 0.075446 0.442122 0.200999
Si Si4 0.303545 0.389109 0.942815
Si Si5 0.096274 0.735769 0.133826
Si Si6 0.500000 0.000000 0.000000
Si Si7 0.605673 0.063858 0.602786
Si Si8 0.878207 0.815433 0.552016
O O1 0.383184 0.387437 0.672841
O O2 0.681521 0.581660 0.437521
O O3 0.767840 0.797122 0.097391
O O4 0.735514 0.040887 0.364744
O O5 0.487625 0.630546 0.093347
O O6 0.812977 0.878217 0.852073
O O7 0.263923 0.680597 0.188611
O O8 0.000000 0.500000 0.500000
O O9 0.150931 0.371890 0.091741
O O10 0.935402 0.282194 0.034488
O O11 0.989742 0.779562 0.411807
O O12 0.309013 0.924371 0.148959
O O13 0.000000 0.500000 0.000000
O O14 0.475215 0.928118 0.748584
O O15 0.500000 0.000000 0.500000
O O16 0.000000 0.000000 0.500000
#
# Coordination Sequence:
#
# PCOD9034354 Si02
#       8
#     1   2   2   2   2   1   2   2
#     4  10  22  48  74 102 152 192 250 308 384 456
#     4  10  25  44  73 116 155 196 259 316 393 465
#     4  12  26  46  74 107 154 202 259 320 387 471
#     4  10  22  44  73 108 150 205 244 321 386 460
#     4  12  28  51  75 116 150 204 263 322 393 467
#     4  12  30  50  82 112 162 200 266 330 390 466
#     4  12  26  49  78 117 158 208 260 323 394 467
#     4  11  27  46  77 109 148 200 254 314 390 463
#
# _framework density 24.893692000000001
#
# number of rings (size 3 to 8) (size 9 to 14) (size 15 to 20)
#    0.000    0.857    4.286    0.857    6.000    5.714 
#    0.000    2.143    0.000    0.000    0.000    0.000 
#    0.000    0.000    0.000    0.000    0.000    0.000 
#
# Total GULP energy -77948.779994 kJ/mol
# GULP energy per Si atom -5567.770000 kJ/mol
# Density = 2.483703 g / cm^3
# Si number density = 24.893692 Si / 1000 Ang^3
#
#
#
# Elastic Constant Matrix: (Units=GPa)
#
#
# Indices 1 2 3 4 5 6 
#
# 1 194.3093 42.5250 62.6977 -10.5170 -26.7056 12.5767
# 2 42.5250 54.4069 32.6996 -2.4945 -25.6437 18.9418
# 3 62.6977 32.6996 127.5864 -25.4818 -17.1050 -15.9469
# 4 -10.5170 -2.4945 -25.4818 41.0102 0.6515 -2.3162
# 5 -26.7056 -25.6437 -17.1050 0.6515 63.4594 -10.7525
# 6 12.5767 18.9418 -15.9469 -2.3162 -10.7525 59.3046
#
#
#
# Elastic Compliance Matrix: (Units=1/GPa)
#
#
# Indices 1 2 3 4 5 6 
#
# 1 0.006825 -0.003032 -0.002636 -0.000144 0.000759 -0.001056
# 2 -0.003032 0.033010 -0.008151 -0.004573 0.008083 -0.010805
# 3 -0.002636 -0.008151 0.013738 0.007766 0.000447 0.007241
# 4 -0.000144 -0.004573 0.007766 0.029157 0.000707 0.004846
# 5 0.000759 0.008083 0.000447 0.000707 0.019620 0.000963
# 6 -0.001056 -0.010805 0.007241 0.004846 0.000963 0.022848
#
#
# Mechanical properties :
#
#
# Convention : Reuss Voigt Hill
#
# Bulk Modulus (GPa) = 38.55466 72.46080 55.50773
# Shear Modulus (GPa) = 30.96325 48.64684 39.80505
#
# Velocity S-wave (km/s) = 3.53061 4.42541 4.00309
# Velocity P-wave (km/s) = 5.66936 7.43530 6.61155
#
# Compressibility (1/GPa) = 0.02593720
#
# Stress axis : x y z
#
# Youngs Moduli (GPa) = 146.51186 30.29373 72.78935
#
# Poissons Ratio (x) = 0.09184 0.19187
# Poissons Ratio (y) = 0.44417 0.59329
# Poissons Ratio (z) = 0.38620 0.24692
#
# Static dielectric constant tensor:
#      x y z
#    x 1.960480 -0.045700 0.055140 
#    y -0.045700 2.119410 0.052330 
#    z 0.055140 0.052330 1.937210 
# 
# From -- ./inp_files/262876.got.cif
#   From: 2010.05.17/outbox.cif.g08.bks.cpg/sg2_132_cif.got.tgz:262876.got - 2010.06.03 11:33:40.
