data_PCOD9034470
_publ_section_title
;
Structure prediction by ZEFSAII (Michael W. Deem and Ramdas Pophale) SiO2 
 PCOD9034470
Probable space group: P -1
;
_chemical_formula_sum "Si O2"
_cell_formula_units_Z 12
_cell_length_a 7.094146
_cell_length_b 8.899960
_cell_length_c 8.930270
_cell_angle_alpha 67.959292
_cell_angle_beta 67.267036
_cell_angle_gamma 96.194996
_cell_volume 460.450470
_symmetry_space_group_name_H-M "P -1"
_symmetry_group_IT_number 2
_symmetry_cell_setting 'triclinic'
loop_
_space_group_symop_operation_xyz
x,y,z
-x,-y,-z
loop_
_atom_site_type_symbol
_atom_site_label
_atom_site_fract_x
_atom_site_fract_y
_atom_site_fract_z
Si Si1 0.302244 0.349110 0.734348
Si Si2 0.668892 0.410770 0.909964
Si Si3 0.068142 0.704869 0.910557
Si Si4 0.268839 0.353061 0.424343
Si Si5 0.432493 0.868577 0.204855
Si Si6 0.730236 0.024169 0.493500
O O1 0.183244 0.373924 0.608612
O O2 0.476012 0.529838 0.664434
O O3 0.394842 0.191755 0.727420
O O4 0.130550 0.274459 0.942884
O O5 0.824892 0.573908 0.717445
O O6 0.629577 0.299931 0.813241
O O7 0.500000 0.500000 0.000000
O O8 0.721767 0.281549 0.059053
O O9 0.118950 0.830284 0.710808
O O10 0.000000 0.500000 0.000000
O O11 0.236173 0.159353 0.464259
O O12 0.279696 0.918795 0.351991
O O13 0.500000 0.000000 0.000000
O O14 0.500000 0.000000 0.500000
#
# Coordination Sequence:
#
# PCOD9034470 Si02
#       6
#     2   2   2   2   2   2
#     4  10  23  44  73 100 141 185 237 289 348 415
#     4  11  24  44  71 100 140 184 236 287 351 419
#     4  12  27  44  72 106 144 181 237 296 353 408
#     4  10  22  44  75  96 138 193 236 277 357 418
#     4  11  23  43  74 104 137 188 241 282 353 424
#     4  12  23  44  73 102 138 190 232 280 355 423
#
# _framework density 26.061433999999998
#
# number of rings (size 3 to 8) (size 9 to 14) (size 15 to 20)
#    0.000    1.000    1.667    6.000    4.667    1.333 
#    0.000    1.667    0.000    0.000    0.000    0.000 
#    0.000    0.000    0.000    0.000    0.000    0.000 
#
# Total GULP energy -66839.567286 kJ/mol
# GULP energy per Si atom -5569.963941 kJ/mol
# Density = 2.600212 g / cm^3
# Si number density = 26.061434 Si / 1000 Ang^3
#
#
#
# Elastic Constant Matrix: (Units=GPa)
#
#
# Indices 1 2 3 4 5 6 
#
# 1 42.3214 31.5922 21.0953 -1.2770 -0.2647 -14.6299
# 2 31.5922 170.9897 92.6660 5.9511 3.1209 -18.2512
# 3 21.0953 92.6660 231.3232 -7.3578 9.2002 -8.7321
# 4 -1.2770 5.9511 -7.3578 52.1410 -11.2500 16.3071
# 5 -0.2647 3.1209 9.2002 -11.2500 38.6867 -4.2283
# 6 -14.6299 -18.2512 -8.7321 16.3071 -4.2283 31.1213
#
#
#
# Elastic Compliance Matrix: (Units=1/GPa)
#
#
# Indices 1 2 3 4 5 6 
#
# 1 0.031761 -0.003703 -0.001029 -0.003108 0.001419 0.014292
# 2 -0.003703 0.008733 -0.003086 -0.002843 -0.000391 0.003951
# 3 -0.001029 -0.003086 0.005674 0.001433 -0.000862 -0.001570
# 4 -0.003108 -0.002843 0.001433 0.025667 0.005647 -0.015408
# 5 0.001419 -0.000391 -0.000862 0.005647 0.027849 0.001021
# 6 0.014292 0.003951 -0.001570 -0.015408 0.001021 0.048940
#
#
# Mechanical properties :
#
#
# Convention : Reuss Voigt Hill
#
# Bulk Modulus (GPa) = 32.75287 81.70460 57.22874
# Shear Modulus (GPa) = 28.66364 44.34185 36.50274
#
# Velocity S-wave (km/s) = 3.31999 4.12932 3.74658
# Velocity P-wave (km/s) = 5.22411 7.35893 6.38143
#
# Compressibility (1/GPa) = 0.03053168
#
# Stress axis : x y z
#
# Youngs Moduli (GPa) = 31.48491 114.50901 176.24926
#
# Poissons Ratio (x) = 0.42401 0.18135
# Poissons Ratio (y) = 0.11658 0.54397
# Poissons Ratio (z) = 0.03240 0.35342
#
# Static dielectric constant tensor:
#      x y z
#    x 1.207980 0.136910 0.013680 
#    y 0.136910 2.247600 0.006250 
#    z 0.013680 0.006250 2.117520 
# 
# From -- ./inp_files/146202.got.cif
#   From: 2010.05.17/outbox.cif.g08.bks.cpg/sg2_74_cif.got.tgz:146202.got - 2010.06.03 11:33:40.
