data_PCOD9034292
_publ_section_title
;
Structure prediction by ZEFSAII (Michael W. Deem and Ramdas Pophale) SiO2 
 PCOD9034292
Probable space group: P -1
;
_chemical_formula_sum "Si O2"
_cell_formula_units_Z 15
_cell_length_a 9.070488
_cell_length_b 23.137736
_cell_length_c 5.360098
_cell_angle_alpha 110.731631
_cell_angle_beta 133.580138
_cell_angle_gamma 49.198860
_cell_volume 607.251549
_symmetry_space_group_name_H-M "P -1"
_symmetry_group_IT_number 2
_symmetry_cell_setting 'triclinic'
loop_
_space_group_symop_operation_xyz
x,y,z
-x,-y,-z
loop_
_atom_site_type_symbol
_atom_site_label
_atom_site_fract_x
_atom_site_fract_y
_atom_site_fract_z
Si Si1 0.733842 0.446113 0.375509
Si Si2 0.747006 0.813363 0.373355
Si Si3 0.766808 0.090449 0.800266
Si Si4 0.483786 0.401455 0.402672
Si Si5 0.710773 0.682413 0.237500
Si Si6 0.734373 0.262673 0.826555
Si Si7 0.000000 0.000000 0.500000
Si Si8 0.018633 0.128036 0.556459
O O1 0.663611 0.404426 0.421895
O O2 0.729157 0.510624 0.626422
O O3 0.997824 0.384860 0.452013
O O4 0.500000 0.500000 0.000000
O O5 0.500731 0.877897 0.345826
O O6 0.709877 0.747196 0.186038
O O7 0.780901 0.856049 0.258713
O O8 0.014677 0.770099 0.767039
O O9 0.769938 0.081306 0.495267
O O10 0.873711 0.129610 0.138317
O O11 0.000000 0.000000 0.000000
O O12 0.643872 0.344273 0.730495
O O13 0.370828 0.361225 0.085443
O O14 0.508977 0.720750 0.286283
O O15 0.825316 0.199713 0.620127
O O16 0.135158 0.043635 0.675601
#
# Coordination Sequence:
#
# PCOD9034292 Si02
#       8
#     2   2   2   2   2   2   1   2
#     4  11  25  47  72 103 142 184 233 288 348 412
#     4  12  25  44  70 100 140 184 233 288 347 417
#     4  10  24  46  70 100 136 176 225 284 349 416
#     4  11  25  45  70 103 141 185 235 286 348 414
#     4  12  25  44  69 101 141 185 234 288 346 413
#     4  12  26  44  69 101 139 184 235 288 346 412
#     4  10  22  44  72  98 132 174 222 282 346 412
#     4  11  24  46  69 100 138 178 228 284 348 417
#
# _framework density 24.701459
#
# number of rings (size 3 to 8) (size 9 to 14) (size 15 to 20)
#    0.000    0.800    0.000    7.600    0.000   11.733 
#    0.000    8.667    0.000    0.000    0.000    0.000 
#    0.000    0.000    0.000    0.000    0.000    0.000 
#
# Total GULP energy -83647.839859 kJ/mol
# GULP energy per Si atom -5576.522657 kJ/mol
# Density = 2.464524 g / cm^3
# Si number density = 24.701459 Si / 1000 Ang^3
#
#
#
# Elastic Constant Matrix: (Units=GPa)
#
#
# Indices 1 2 3 4 5 6 
#
# 1 142.7035 78.6651 37.7292 21.3478 41.8254 -1.2441
# 2 78.6651 154.0339 41.9796 27.5045 34.0836 5.9588
# 3 37.7292 41.9796 77.6435 19.5063 24.9592 -3.7954
# 4 21.3478 27.5045 19.5063 56.2359 -1.1769 2.6609
# 5 41.8254 34.0836 24.9592 -1.1769 27.2159 2.4565
# 6 -1.2441 5.9588 -3.7954 2.6609 2.4565 71.6006
#
#
#
# Elastic Compliance Matrix: (Units=1/GPa)
#
#
# Indices 1 2 3 4 5 6 
#
# 1 0.015593 -0.002349 0.003272 -0.006499 -0.024459 0.001721
# 2 -0.002349 0.010730 -0.000549 -0.004342 -0.009469 -0.000477
# 3 0.003272 -0.000549 0.022187 -0.009318 -0.025317 0.002493
# 4 -0.006499 -0.004342 -0.009318 0.026233 0.025292 -0.002088
# 5 -0.024459 -0.009469 -0.025317 0.025292 0.111019 -0.005728
# 6 0.001721 -0.000477 0.002493 -0.002088 -0.005728 0.014442
#
#
# Mechanical properties :
#
#
# Convention : Reuss Voigt Hill
#
# Bulk Modulus (GPa) = 20.30062 76.79209 48.54635
# Shear Modulus (GPa) = 23.16139 45.41093 34.28616
#
# Velocity S-wave (km/s) = 3.06543 4.29230 3.72966
# Velocity P-wave (km/s) = 4.55691 7.46463 6.18409
#
# Compressibility (1/GPa) = 0.04925958
#
# Stress axis : x y z
#
# Youngs Moduli (GPa) = 64.12934 93.19334 45.07140
#
# Poissons Ratio (x) = 0.21895 -0.14749
# Poissons Ratio (y) = 0.15066 0.02473
# Poissons Ratio (z) = -0.20985 0.05113
#
# Static dielectric constant tensor:
#      x y z
#    x 1.998450 0.046890 -0.046690 
#    y 0.046890 1.962910 -0.005870 
#    z -0.046690 -0.005870 1.965380 
# 
# From -- ./inp_files/55674.got.cif
#   From: 2010.05.17/outbox.cif.g08.bks.cpg/sg2_28_cif.got.tgz:55674.got - 2010.06.03 11:33:40.
