data_PCOD9034306
_publ_section_title
;
Structure prediction by ZEFSAII (Michael W. Deem and Ramdas Pophale) SiO2 
 PCOD9034306
Probable space group: P -1
;
_chemical_formula_sum "Si O2"
_cell_formula_units_Z 16
_cell_length_a 13.852211
_cell_length_b 16.021652
_cell_length_c 7.672361
_cell_angle_alpha 110.667832
_cell_angle_beta 78.046215
_cell_angle_gamma 154.561849
_cell_volume 657.412201
_symmetry_space_group_name_H-M "P -1"
_symmetry_group_IT_number 2
_symmetry_cell_setting 'triclinic'
loop_
_space_group_symop_operation_xyz
x,y,z
-x,-y,-z
loop_
_atom_site_type_symbol
_atom_site_label
_atom_site_fract_x
_atom_site_fract_y
_atom_site_fract_z
Si Si1 0.686494 0.471867 0.791141
Si Si2 0.371152 0.348163 0.659101
Si Si3 0.426340 0.038680 0.110855
Si Si4 0.135836 0.940873 0.978354
Si Si5 0.977435 0.069166 0.353930
Si Si6 0.528248 0.372639 0.132477
Si Si7 0.871766 0.482909 0.471365
Si Si8 0.052788 0.768587 0.352798
O O1 0.562857 0.428299 0.654828
O O2 0.780243 0.461100 0.657883
O O3 0.519576 0.320009 0.905517
O O4 0.896919 0.703484 0.964137
O O5 0.477614 0.526884 0.821023
O O6 0.239037 0.266423 0.471577
O O7 0.167255 0.138553 0.702017
O O8 0.653815 0.274803 0.278053
O O9 0.226113 0.877303 0.217252
O O10 0.310458 0.998559 0.964206
O O11 0.500000 0.000000 0.000000
O O12 0.042338 0.913716 0.821645
O O13 0.305033 0.152740 0.158533
O O14 0.881983 0.076464 0.505111
O O15 0.777454 0.550346 0.247937
O O16 0.000000 0.500000 0.500000
O O17 0.044781 0.691987 0.458089
#
# Coordination Sequence:
#
# PCOD9034306 Si02
#       8
#     2   2   2   2   2   2   2   2
#     4  12  24  44  72 101 143 186 237 290 344 421
#     4  10  23  44  69 105 146 192 234 288 355 415
#     4  12  28  47  74 107 137 183 243 291 359 425
#     4  12  24  43  70 105 139 185 243 287 346 424
#     4  10  22  44  72  99 145 188 235 285 354 419
#     4  11  24  45  70 103 147 186 232 294 350 410
#     4  12  28  48  74 106 139 185 236 288 364 425
#     4  11  24  49  73  98 148 184 223 304 350 417
#
# _framework density 24.337848999999999
#
# number of rings (size 3 to 8) (size 9 to 14) (size 15 to 20)
#    0.000    0.750    5.000    1.875    0.000    3.000 
#    0.000    0.000    0.000    0.000    0.000    0.000 
#    0.000    0.000    0.000    0.000    0.000    0.000 
#
# Total GULP energy -89504.284316 kJ/mol
# GULP energy per Si atom -5594.017770 kJ/mol
# Density = 2.428245 g / cm^3
# Si number density = 24.337849 Si / 1000 Ang^3
#
#
#
# Elastic Constant Matrix: (Units=GPa)
#
#
# Indices 1 2 3 4 5 6 
#
# 1 180.3916 29.1622 41.9702 -7.7789 1.8248 0.7901
# 2 29.1622 99.4365 24.3660 20.4052 -10.7534 -4.6117
# 3 41.9702 24.3660 67.2162 -0.2066 -9.2942 -1.9889
# 4 -7.7789 20.4052 -0.2066 39.1833 4.6801 1.3067
# 5 1.8248 -10.7534 -9.2942 4.6801 59.8846 1.0195
# 6 0.7901 -4.6117 -1.9889 1.3067 1.0195 38.8855
#
#
#
# Elastic Compliance Matrix: (Units=1/GPa)
#
#
# Indices 1 2 3 4 5 6 
#
# 1 0.006833 -0.001727 -0.003829 0.002409 -0.001291 -0.000587
# 2 -0.001727 0.013303 -0.003375 -0.007640 0.002487 0.001632
# 3 -0.003829 -0.003375 0.018837 0.000796 0.002363 0.000552
# 4 0.002409 -0.007640 0.000796 0.030482 -0.003673 -0.001842
# 5 -0.001291 0.002487 0.002363 -0.003673 0.017837 0.000098
# 6 -0.000587 0.001632 0.000552 -0.001842 0.000098 0.026010
#
#
# Mechanical properties :
#
#
# Convention : Reuss Voigt Hill
#
# Bulk Modulus (GPa) = 47.37002 59.78235 53.57619
# Shear Modulus (GPa) = 36.17936 44.36040 40.26988
#
# Velocity S-wave (km/s) = 3.85976 4.27393 4.07211
# Velocity P-wave (km/s) = 6.27451 6.99801 6.64611
#
# Compressibility (1/GPa) = 0.02111040
#
# Stress axis : x y z
#
# Youngs Moduli (GPa) = 146.34704 75.17384 53.08631
#
# Poissons Ratio (x) = 0.12982 0.20327
# Poissons Ratio (y) = 0.25273 0.17918
# Poissons Ratio (z) = 0.56037 0.25373
#
# Static dielectric constant tensor:
#      x y z
#    x 1.881250 -0.008960 0.020590 
#    y -0.008960 1.976950 0.034730 
#    z 0.020590 0.034730 1.977340 
# 
# From -- ./inp_files/273715.got.cif
#   From: 2010.05.17/outbox.cif.g08.bks.cpg/sg2_137_cif.got.tgz:273715.got - 2010.06.03 11:33:40.
