data_PCOD9034849
_publ_section_title
;
Structure prediction by ZEFSAII (Michael W. Deem and Ramdas Pophale) SiO2 
 PCOD9034849
Probable space group: P -1
;
_chemical_formula_sum "Si O2"
_cell_formula_units_Z 14
_cell_length_a 19.817024
_cell_length_b 12.693051
_cell_length_c 6.406440
_cell_angle_alpha 94.489026
_cell_angle_beta 107.354943
_cell_angle_gamma 147.943526
_cell_volume 617.896003
_symmetry_space_group_name_H-M "P -1"
_symmetry_group_IT_number 2
_symmetry_cell_setting 'triclinic'
loop_
_space_group_symop_operation_xyz
x,y,z
-x,-y,-z
loop_
_atom_site_type_symbol
_atom_site_label
_atom_site_fract_x
_atom_site_fract_y
_atom_site_fract_z
Si Si1 0.966561 0.541257 0.154997
Si Si2 0.811825 0.983976 0.914285
Si Si3 0.007672 0.139536 0.732274
Si Si4 0.880693 0.526133 0.438616
Si Si5 0.643749 0.901744 0.432304
Si Si6 0.729711 0.678856 0.080623
Si Si7 0.657989 0.171734 0.542547
O O1 0.875582 0.412551 0.276715
O O2 0.827120 0.420227 0.882396
O O3 0.161157 0.847150 0.442035
O O4 0.000000 0.500000 0.000000
O O5 0.670181 0.868723 0.662271
O O6 0.730615 0.785193 0.958310
O O7 0.921172 0.071725 0.848044
O O8 0.951867 0.242483 0.218124
O O9 0.087997 0.332786 0.666872
O O10 0.162531 0.266412 0.931550
O O11 0.845797 0.861053 0.420149
O O12 0.708757 0.293111 0.387693
O O13 0.471247 0.627465 0.112760
O O14 0.628360 0.005877 0.466126
O O15 0.500000 0.000000 0.500000
#
# Coordination Sequence:
#
# PCOD9034849 Si02
#       7
#     2   2   2   2   2   2   2
#     4  10  23  46  65  98 139 175 228 277 338 408
#     4  11  22  44  70  98 137 182 225 290 339 405
#     4  10  22  45  68  98 138 177 233 282 338 412
#     4  11  22  43  76  95 137 184 226 278 352 398
#     4  11  23  43  67 101 139 175 228 282 334 418
#     4  10  24  42  68 101 134 180 230 280 346 399
#     4  11  26  46  68 100 140 179 229 286 340 413
#
# _framework density 22.657537000000001
#
# number of rings (size 3 to 8) (size 9 to 14) (size 15 to 20)
#    0.000    1.429    2.857    0.857    4.000    3.429 
#    2.571    0.000    0.000    0.000    0.000    0.000 
#    0.000    0.000    0.000    0.000    0.000    0.000 
#
# Total GULP energy -78066.226210 kJ/mol
# GULP energy per Si atom -5576.159015 kJ/mol
# Density = 2.260597 g / cm^3
# Si number density = 22.657537 Si / 1000 Ang^3
#
#
#
# Elastic Constant Matrix: (Units=GPa)
#
#
# Indices 1 2 3 4 5 6 
#
# 1 58.1721 31.5504 15.2017 3.6049 -11.1067 6.5795
# 2 31.5504 109.2121 44.3884 22.1395 -7.0580 18.8503
# 3 15.2017 44.3884 72.9060 11.4521 -16.6829 7.5127
# 4 3.6049 22.1395 11.4521 29.6136 7.9300 -0.1441
# 5 -11.1067 -7.0580 -16.6829 7.9300 36.6415 -11.7843
# 6 6.5795 18.8503 7.5127 -0.1441 -11.7843 40.6835
#
#
#
# Elastic Compliance Matrix: (Units=1/GPa)
#
#
# Indices 1 2 3 4 5 6 
#
# 1 0.021422 -0.006269 0.000513 0.000339 0.005774 0.001019
# 2 -0.006269 0.016489 -0.007344 -0.008161 -0.002212 -0.005940
# 3 0.000513 -0.007344 0.021040 -0.005446 0.010267 0.002389
# 4 0.000339 -0.008161 -0.005446 0.045551 -0.013490 0.000986
# 5 0.005774 -0.002212 0.010267 -0.013490 0.039272 0.009523
# 6 0.001019 -0.005940 0.002389 0.000986 0.009523 0.029488
#
#
# Mechanical properties :
#
#
# Convention : Reuss Voigt Hill
#
# Bulk Modulus (GPa) = 30.53401 46.95237 38.74319
# Shear Modulus (GPa) = 23.76654 31.33104 27.54879
#
# Velocity S-wave (km/s) = 3.24226 3.72265 3.49073
# Velocity P-wave (km/s) = 5.24613 6.26459 5.77784
#
# Compressibility (1/GPa) = 0.03275037
#
# Stress axis : x y z
#
# Youngs Moduli (GPa) = 46.68023 60.64607 47.52941
#
# Poissons Ratio (x) = 0.38017 -0.02437
# Poissons Ratio (y) = 0.29262 0.34908
# Poissons Ratio (z) = -0.02393 0.44541
#
# Static dielectric constant tensor:
#      x y z
#    x 1.964380 -0.068400 -0.038630 
#    y -0.068400 1.917210 -0.014600 
#    z -0.038630 -0.014600 1.849250 
# 
# From -- ./inp_files/119324.got.cif
#   From: 2010.05.17/outbox.cif.g08.bks.cpg/sg2_60_cif.got.tgz:119324.got - 2010.06.03 11:33:40.
