data_PCOD9034098
_publ_section_title
;
Structure prediction by ZEFSAII (Michael W. Deem and Ramdas Pophale) SiO2 
 PCOD9034098
Probable space group: P -1
;
_chemical_formula_sum "Si O2"
_cell_formula_units_Z 12
_cell_length_a 10.564705
_cell_length_b 4.835773
_cell_length_c 12.509141
_cell_angle_alpha 106.516622
_cell_angle_beta 53.272229
_cell_angle_gamma 85.545595
_cell_volume 464.864647
_symmetry_space_group_name_H-M "P -1"
_symmetry_group_IT_number 2
_symmetry_cell_setting 'triclinic'
loop_
_space_group_symop_operation_xyz
x,y,z
-x,-y,-z
loop_
_atom_site_type_symbol
_atom_site_label
_atom_site_fract_x
_atom_site_fract_y
_atom_site_fract_z
Si Si1 0.501305 0.610334 0.785671
Si Si2 0.134392 0.668363 0.469035
Si Si3 0.652857 0.747543 0.337704
Si Si4 0.770323 0.836916 0.932179
Si Si5 0.277925 0.743263 0.190027
Si Si6 0.126678 0.851445 0.730194
O O1 0.679044 0.581447 0.640323
O O2 0.418317 0.406327 0.737551
O O3 0.373957 0.946829 0.898495
O O4 0.551803 0.457709 0.860189
O O5 0.161377 0.831533 0.363929
O O6 0.106008 0.860140 0.613044
O O7 0.000000 0.500000 0.500000
O O8 0.745206 0.476581 0.341303
O O9 0.500000 0.000000 0.500000
O O10 0.789325 0.901447 0.249965
O O11 0.721474 0.976731 0.852358
O O12 0.785021 0.486083 0.876264
O O13 0.948081 0.875250 0.871999
#
# Coordination Sequence:
#
# PCOD9034098 Si02
#       6
#     2   2   2   2   2   2
#     4  10  25  44  72 102 139 188 228 281 347 411
#     4  10  22  44  71 106 134 182 228 284 345 406
#     4  12  26  47  70  99 139 184 231 284 332 414
#     4  12  24  46  68 106 141 179 227 290 346 406
#     4  10  24  41  71 100 142 177 227 282 348 402
#     4  12  26  44  71 102 139 181 231 283 340 405
#
# _framework density 25.813965
#
# number of rings (size 3 to 8) (size 9 to 14) (size 15 to 20)
#    1.000    0.000    3.333    2.500    0.000    7.333 
#    0.000    0.000    0.000    0.000    0.000    0.000 
#    0.000    0.000    0.000    0.000    0.000    0.000 
#
# Total GULP energy -67320.393090 kJ/mol
# GULP energy per Si atom -5610.032757 kJ/mol
# Density = 2.575521 g / cm^3
# Si number density = 25.813965 Si / 1000 Ang^3
#
#
#
# Elastic Constant Matrix: (Units=GPa)
#
#
# Indices 1 2 3 4 5 6 
#
# 1 160.6075 42.2314 36.0138 5.6452 -16.6359 25.5269
# 2 42.2314 117.3555 17.7001 5.3998 1.6569 10.9496
# 3 36.0138 17.7001 95.8847 15.4929 -18.3127 15.7589
# 4 5.6452 5.3998 15.4929 37.8641 1.1135 2.8523
# 5 -16.6359 1.6569 -18.3127 1.1135 32.6520 -8.2887
# 6 25.5269 10.9496 15.7589 2.8523 -8.2887 60.4579
#
#
#
# Elastic Compliance Matrix: (Units=1/GPa)
#
#
# Indices 1 2 3 4 5 6 
#
# 1 0.007837 -0.002414 -0.001633 -0.000078 0.002675 -0.002076
# 2 -0.002414 0.009694 -0.001182 -0.000406 -0.002564 -0.000761
# 3 -0.001633 -0.001182 0.013627 -0.005248 0.006672 -0.001486
# 4 -0.000078 -0.000406 -0.005248 0.028780 -0.004056 -0.000439
# 5 0.002675 -0.002564 0.006672 -0.004056 0.036716 0.002821
# 6 -0.002076 -0.000761 -0.001486 -0.000439 0.002821 0.018349
#
#
# Mechanical properties :
#
#
# Convention : Reuss Voigt Hill
#
# Bulk Modulus (GPa) = 48.30940 62.85981 55.58460
# Shear Modulus (GPa) = 37.77520 44.72161 41.24841
#
# Velocity S-wave (km/s) = 3.82954 4.16680 4.00172
# Velocity P-wave (km/s) = 6.18942 6.89591 6.55219
#
# Compressibility (1/GPa) = 0.02069991
#
# Stress axis : x y z
#
# Youngs Moduli (GPa) = 127.59633 103.15579 73.38193
#
# Poissons Ratio (x) = 0.24907 0.11985
# Poissons Ratio (y) = 0.30808 0.08671
# Poissons Ratio (z) = 0.20839 0.12190
#
# Static dielectric constant tensor:
#      x y z
#    x 2.036820 -0.060130 -0.064020 
#    y -0.060130 1.976310 0.000900 
#    z -0.064020 0.000900 2.071030 
# 
# From -- ./inp_files/409538.got.cif
#   From: 2010.05.17/outbox.cif.g08.bks.cpg/sg2_205_cif.got.tgz:409538.got - 2010.06.03 11:33:40.
