data_PCOD9034056
_publ_section_title
;
Structure prediction by ZEFSAII (Michael W. Deem and Ramdas Pophale) SiO2 
 PCOD9034056
Probable space group: P -1
;
_chemical_formula_sum "Si O2"
_cell_formula_units_Z 12
_cell_length_a 7.797722
_cell_length_b 17.625900
_cell_length_c 10.552008
_cell_angle_alpha 23.842137
_cell_angle_beta 89.080059
_cell_angle_gamma 80.179265
_cell_volume 540.806187
_symmetry_space_group_name_H-M "P -1"
_symmetry_group_IT_number 2
_symmetry_cell_setting 'triclinic'
loop_
_space_group_symop_operation_xyz
x,y,z
-x,-y,-z
loop_
_atom_site_type_symbol
_atom_site_label
_atom_site_fract_x
_atom_site_fract_y
_atom_site_fract_z
Si Si1 0.557995 0.940104 0.838960
Si Si2 0.179939 0.928269 0.921139
Si Si3 0.947492 0.667717 0.356420
Si Si4 0.423843 0.667853 0.131798
Si Si5 0.464534 0.388844 0.049631
Si Si6 0.966266 0.388138 0.293058
O O1 0.385622 0.931718 0.939806
O O2 0.511258 0.159154 0.445551
O O3 0.753492 0.847319 0.047871
O O4 0.561921 0.787295 0.957887
O O5 0.225274 0.839029 0.913448
O O6 0.036659 0.151328 0.614582
O O7 0.100356 0.768363 0.221503
O O8 0.000000 0.500000 0.500000
O O9 0.929994 0.587239 0.618834
O O10 0.500000 0.500000 0.500000
O O11 0.425342 0.595079 0.101758
O O12 0.500000 0.500000 0.000000
O O13 0.250407 0.503159 0.843990
O O14 0.000000 0.500000 0.000000
#
# Coordination Sequence:
#
# PCOD9034056 Si02
#       6
#     2   2   2   2   2   2
#     4  10  24  45  71 102 142 186 233 283 361 410
#     4  10  24  45  70 102 144 184 232 288 352 414
#     4  12  26  45  75 108 140 184 241 293 349 422
#     4  10  22  44  71 101 142 187 233 287 353 419
#     4  12  25  45  74 104 142 187 237 292 355 418
#     4  12  25  48  69 105 146 182 235 298 348 420
#
# _framework density 22.189093
#
# number of rings (size 3 to 8) (size 9 to 14) (size 15 to 20)
#    1.000    0.000    1.667    5.000    0.000    6.000 
#    0.000    2.500    0.000    0.000    0.000    0.000 
#    0.000    0.000    0.000    0.000    0.000    0.000 
#
# Total GULP energy -66898.125472 kJ/mol
# GULP energy per Si atom -5574.843789 kJ/mol
# Density = 2.213859 g / cm^3
# Si number density = 22.189093 Si / 1000 Ang^3
#
#
#
# Elastic Constant Matrix: (Units=GPa)
#
#
# Indices 1 2 3 4 5 6 
#
# 1 79.7508 21.4650 55.5484 7.7957 9.8370 -12.5955
# 2 21.4650 164.3631 96.6236 4.5972 -1.0963 -15.3240
# 3 55.5484 96.6236 159.2378 -6.5694 8.3871 6.1076
# 4 7.7957 4.5972 -6.5694 36.5955 0.8988 4.0934
# 5 9.8370 -1.0963 8.3871 0.8988 41.7261 -8.4620
# 6 -12.5955 -15.3240 6.1076 4.0934 -8.4620 27.8091
#
#
#
# Elastic Compliance Matrix: (Units=1/GPa)
#
#
# Indices 1 2 3 4 5 6 
#
# 1 0.024915 0.007676 -0.014712 -0.011300 0.001777 0.020950
# 2 0.007676 0.014220 -0.012500 -0.007633 0.004604 0.016582
# 3 -0.014712 -0.012500 0.020560 0.010922 -0.005561 -0.021367
# 4 -0.011300 -0.007633 0.010922 0.034780 -0.004153 -0.018106
# 5 0.001777 0.004604 -0.005561 -0.004153 0.027629 0.013582
# 6 0.020950 0.016582 -0.021367 -0.018106 0.013582 0.066076
#
#
# Mechanical properties :
#
#
# Convention : Reuss Voigt Hill
#
# Bulk Modulus (GPa) = 48.49003 83.40286 65.94644
# Shear Modulus (GPa) = 21.35607 36.54046 28.94826
#
# Velocity S-wave (km/s) = 3.10572 4.06245 3.61587
# Velocity P-wave (km/s) = 5.89586 7.72487 6.87149
#
# Compressibility (1/GPa) = 0.02062280
#
# Stress axis : x y z
#
# Youngs Moduli (GPa) = 40.13720 70.32346 48.63848
#
# Poissons Ratio (x) = -0.53982 0.71559
# Poissons Ratio (y) = -0.30811 0.60797
# Poissons Ratio (z) = 0.59051 0.87902
#
# Static dielectric constant tensor:
#      x y z
#    x 1.485060 -0.090750 -0.124400 
#    y -0.090750 1.867590 0.000300 
#    z -0.124400 0.000300 1.816550 
# 
# From -- ./inp_files/196992.got.cif
#   From: 2010.05.17/outbox.cif.g08.bks.cpg/sg2_99_cif.got.tgz:196992.got - 2010.06.03 11:33:40.
