data_PCOD9034704
_publ_section_title
;
Structure prediction by ZEFSAII (Michael W. Deem and Ramdas Pophale) SiO2 
 PCOD9034704
Probable space group: P -1
;
_chemical_formula_sum "Si O2"
_cell_formula_units_Z 16
_cell_length_a 16.789496
_cell_length_b 23.436873
_cell_length_c 19.384670
_cell_angle_alpha 16.308774
_cell_angle_beta 30.143619
_cell_angle_gamma 20.868571
_cell_volume 722.847020
_symmetry_space_group_name_H-M "P -1"
_symmetry_group_IT_number 2
_symmetry_cell_setting 'triclinic'
loop_
_space_group_symop_operation_xyz
x,y,z
-x,-y,-z
loop_
_atom_site_type_symbol
_atom_site_label
_atom_site_fract_x
_atom_site_fract_y
_atom_site_fract_z
Si Si1 0.469930 0.354569 0.384942
Si Si2 0.939751 0.747500 0.305533
Si Si3 0.264547 0.642925 0.477521
Si Si4 0.429556 0.634950 0.219783
Si Si5 0.770755 0.220303 0.191181
Si Si6 0.933395 0.637236 0.707351
Si Si7 0.250657 0.312282 0.352726
Si Si8 0.238044 0.329078 0.060727
O O1 0.187829 0.624781 0.274103
O O2 0.594749 0.367040 0.216838
O O3 0.574884 0.029634 0.674313
O O4 0.528391 0.377138 0.391366
O O5 0.000000 0.500000 0.500000
O O6 0.837972 0.750977 0.447959
O O7 0.743939 0.063335 0.046647
O O8 0.500000 0.500000 0.500000
O O9 0.189012 0.478038 0.724879
O O10 0.280543 0.686521 0.334398
O O11 0.044320 0.960788 0.310750
O O12 0.638031 0.578511 0.158465
O O13 0.781221 0.994941 0.404004
O O14 0.733075 0.466535 0.894073
O O15 0.921918 0.543424 0.751423
O O16 0.822764 0.611241 0.881549
O O17 0.500000 0.000000 0.500000
O O18 0.000000 0.500000 0.000000
#
# Coordination Sequence:
#
# PCOD9034704 Si02
#       8
#     2   2   2   2   2   2   2   2
#     4  11  24  43  67  98 132 172 221 264 332 392
#     4  12  25  43  67  98 136 173 215 275 332 387
#     4  10  22  45  67  90 130 170 213 269 324 381
#     4  12  24  43  68  97 132 170 220 273 322 391
#     4   9  23  42  64  90 132 166 215 256 324 379
#     4   9  22  42  62  92 129 164 218 257 321 383
#     4  12  24  42  67  96 130 171 217 264 322 392
#     4  11  23  43  68  97 134 174 219 274 325 385
#
# _framework density 22.134698
#
# number of rings (size 3 to 8) (size 9 to 14) (size 15 to 20)
#    0.750    0.500    1.250    4.875    1.750    2.000 
#    2.250    0.625    0.000    0.000    0.000    0.000 
#    0.000    0.000    0.000    0.000    0.000    0.000 
#
# Total GULP energy -89391.666309 kJ/mol
# GULP energy per Si atom -5586.979144 kJ/mol
# Density = 2.208432 g / cm^3
# Si number density = 22.134698 Si / 1000 Ang^3
#
#
#
# Elastic Constant Matrix: (Units=GPa)
#
#
# Indices 1 2 3 4 5 6 
#
# 1 66.8282 22.5687 -7.5293 -3.3579 -1.8960 2.8566
# 2 22.5687 144.7570 10.5261 24.0635 6.5763 -1.4160
# 3 -7.5293 10.5261 25.2453 12.1269 -1.1545 7.7773
# 4 -3.3579 24.0635 12.1269 23.6071 -1.0994 8.7524
# 5 -1.8960 6.5763 -1.1545 -1.0994 24.8902 2.7253
# 6 2.8566 -1.4160 7.7773 8.7524 2.7253 45.8484
#
#
#
# Elastic Compliance Matrix: (Units=1/GPa)
#
#
# Indices 1 2 3 4 5 6 
#
# 1 0.017523 -0.004205 0.005630 0.005296 0.003312 -0.003384
# 2 -0.004205 0.009721 -0.001001 -0.011325 -0.003777 0.003119
# 3 0.005630 -0.001001 0.055199 -0.024465 0.002747 -0.005238
# 4 0.005296 -0.011325 -0.024465 0.071446 0.006573 -0.010559
# 5 0.003312 -0.003777 0.002747 0.006573 0.042344 -0.004561
# 6 -0.003384 0.003119 -0.005238 -0.010559 -0.004561 0.025294
#
#
# Mechanical properties :
#
#
# Convention : Reuss Voigt Hill
#
# Bulk Modulus (GPa) = 12.00622 31.99574 22.00098
# Shear Modulus (GPa) = 20.12538 32.95348 26.53943
#
# Velocity S-wave (km/s) = 3.01860 3.86264 3.46641
# Velocity P-wave (km/s) = 4.19347 5.86343 5.09730
#
# Compressibility (1/GPa) = 0.08329018
#
# Stress axis : x y z
#
# Youngs Moduli (GPa) = 57.06812 102.86699 18.11637
#
# Poissons Ratio (x) = 0.43258 -0.10199
# Poissons Ratio (y) = 0.23999 0.01813
# Poissons Ratio (z) = -0.32127 0.10294
#
# Static dielectric constant tensor:
#      x y z
#    x 1.854090 -0.039630 0.000910 
#    y -0.039630 1.800840 0.019860 
#    z 0.000910 0.019860 1.823370 
# 
# From -- ./inp_files/574298.got.cif
#   From: 2010.05.17/outbox.cif.g08.bks.cpg/sg2_288_cif.got.tgz:574298.got - 2010.06.03 11:33:40.
