data_PCOD9034190
_publ_section_title
;
Structure prediction by ZEFSAII (Michael W. Deem and Ramdas Pophale) SiO2 
 PCOD9034190
Probable space group: P -1
;
_chemical_formula_sum "Si O2"
_cell_formula_units_Z 14
_cell_length_a 11.515463
_cell_length_b 11.671712
_cell_length_c 6.600052
_cell_angle_alpha 115.283683
_cell_angle_beta 105.952078
_cell_angle_gamma 50.951716
_cell_volume 622.904054
_symmetry_space_group_name_H-M "P -1"
_symmetry_group_IT_number 2
_symmetry_cell_setting 'triclinic'
loop_
_space_group_symop_operation_xyz
x,y,z
-x,-y,-z
loop_
_atom_site_type_symbol
_atom_site_label
_atom_site_fract_x
_atom_site_fract_y
_atom_site_fract_z
Si Si1 0.323922 0.007129 0.837032
Si Si2 0.897335 0.977971 0.574425
Si Si3 0.108657 0.242401 0.280275
Si Si4 0.207228 0.440195 0.690483
Si Si5 0.573511 0.495487 0.327273
Si Si6 0.660463 0.241008 0.882167
Si Si7 0.559824 0.798455 0.086528
O O1 0.229396 0.988200 0.617996
O O2 0.385438 0.092535 0.815742
O O3 0.217148 0.119006 0.060688
O O4 0.470097 0.842516 0.865273
O O5 0.935878 0.832612 0.623439
O O6 0.827463 0.117452 0.806774
O O7 0.000000 0.000000 0.500000
O O8 0.186412 0.314456 0.484811
O O9 0.954058 0.395294 0.232087
O O10 0.307479 0.465210 0.608945
O O11 0.300113 0.369615 0.892813
O O12 0.500000 0.500000 0.500000
O O13 0.432697 0.619583 0.214580
O O14 0.652224 0.322485 0.145552
O O15 0.571618 0.163055 0.795104
#
# Coordination Sequence:
#
# PCOD9034190 Si02
#       7
#     2   2   2   2   2   2   2
#     4  11  25  42  74 105 136 189 238 295 359 422
#     4  12  28  46  72 104 147 191 240 294 361 428
#     4  11  25  47  68 107 141 187 242 287 363 427
#     4  10  24  46  70  99 150 185 231 303 344 435
#     4  10  24  42  69 100 142 185 231 288 364 415
#     4  10  24  44  65 105 138 181 239 294 344 428
#     4  10  22  44  72 101 138 181 238 298 352 415
#
# _framework density 22.475370000000002
#
# number of rings (size 3 to 8) (size 9 to 14) (size 15 to 20)
#    0.000    1.429    2.857    0.000    8.000    5.714 
#    0.000    0.000    0.000    0.000    0.000    0.000 
#    0.000    0.000    0.000    0.000    0.000    0.000 
#
# Total GULP energy -78111.014475 kJ/mol
# GULP energy per Si atom -5579.358177 kJ/mol
# Density = 2.242421 g / cm^3
# Si number density = 22.475370 Si / 1000 Ang^3
#
#
#
# Elastic Constant Matrix: (Units=GPa)
#
#
# Indices 1 2 3 4 5 6 
#
# 1 135.2440 51.5640 35.8871 -3.2874 -24.6703 42.1451
# 2 51.5640 117.3950 53.1509 -11.1465 -9.9940 -2.0913
# 3 35.8871 53.1509 88.9400 1.0463 -20.0503 9.6103
# 4 -3.2874 -11.1465 1.0463 34.4378 -6.7218 2.1224
# 5 -24.6703 -9.9940 -20.0503 -6.7218 26.3058 -6.2128
# 6 42.1451 -2.0913 9.6103 2.1224 -6.2128 36.8535
#
#
#
# Elastic Compliance Matrix: (Units=1/GPa)
#
#
# Indices 1 2 3 4 5 6 
#
# 1 0.018525 -0.008304 0.002331 0.002578 0.011831 -0.020418
# 2 -0.008304 0.016202 -0.008695 0.003075 -0.004707 0.011712
# 3 0.002331 -0.008695 0.018783 -0.000518 0.011634 -0.006066
# 4 0.002578 0.003075 -0.000518 0.032585 0.010884 -0.002680
# 5 0.011831 -0.004707 0.011634 0.010884 0.057122 -0.007828
# 6 -0.020418 0.011712 -0.006066 -0.002680 -0.007828 0.051565
#
#
# Mechanical properties :
#
#
# Convention : Reuss Voigt Hill
#
# Bulk Modulus (GPa) = 41.36542 69.19811 55.28177
# Shear Modulus (GPa) = 21.53535 32.91788 27.22662
#
# Velocity S-wave (km/s) = 3.09880 3.83119 3.48429
# Velocity P-wave (km/s) = 5.59000 7.10112 6.39039
#
# Compressibility (1/GPa) = 0.02417478
#
# Stress axis : x y z
#
# Youngs Moduli (GPa) = 53.98066 61.72068 53.23842
#
# Poissons Ratio (x) = 0.51252 -0.12408
# Poissons Ratio (y) = 0.44825 0.46289
# Poissons Ratio (z) = -0.12581 0.53665
#
# Static dielectric constant tensor:
#      x y z
#    x 1.840010 0.006850 0.014090 
#    y 0.006850 1.873450 -0.001550 
#    z 0.014090 -0.001550 1.864050 
# 
# From -- ./inp_files/71769.got.cif
#   From: 2010.05.17/outbox.cif.g08.bks.cpg/sg2_36_cif.got.tgz:71769.got - 2010.06.03 11:33:40.
