data_PCOD9034602
_publ_section_title
;
Structure prediction by ZEFSAII (Michael W. Deem and Ramdas Pophale) SiO2 
 PCOD9034602
Probable space group: P -1
;
_chemical_formula_sum "Si O2"
_cell_formula_units_Z 16
_cell_length_a 6.138879
_cell_length_b 8.669969
_cell_length_c 16.134540
_cell_angle_alpha 89.672407
_cell_angle_beta 69.886861
_cell_angle_gamma 59.246028
_cell_volume 677.398814
_symmetry_space_group_name_H-M "P -1"
_symmetry_group_IT_number 2
_symmetry_cell_setting 'triclinic'
loop_
_space_group_symop_operation_xyz
x,y,z
-x,-y,-z
loop_
_atom_site_type_symbol
_atom_site_label
_atom_site_fract_x
_atom_site_fract_y
_atom_site_fract_z
Si Si1 0.850850 0.626711 0.146595
Si Si2 0.699667 0.551063 0.565902
Si Si3 0.623540 0.119857 0.124958
Si Si4 0.602480 0.411672 0.232781
Si Si5 0.177026 0.813865 0.532184
Si Si6 0.865622 0.893255 0.736816
Si Si7 0.372966 0.280288 0.994129
Si Si8 0.881556 0.184251 0.841549
O O1 0.634677 0.581190 0.210261
O O2 0.961473 0.712756 0.196270
O O3 0.110720 0.439786 0.076474
O O4 0.737085 0.750825 0.077622
O O5 0.627876 0.563237 0.672433
O O6 0.457690 0.740419 0.551747
O O7 0.709891 0.368534 0.536418
O O8 0.000000 0.500000 0.500000
O O9 0.580812 0.315259 0.154276
O O10 0.413632 0.096052 0.208265
O O11 0.539477 0.126900 0.041443
O O12 0.928267 0.972190 0.115772
O O13 0.891494 0.269051 0.240253
O O14 0.956389 0.844457 0.630698
O O15 0.000000 0.000000 0.500000
O O16 0.855583 0.073600 0.769902
O O17 0.596557 0.317792 0.926471
#
# Coordination Sequence:
#
# PCOD9034602 Si02
#       8
#     2   2   2   2   2   2   2   2
#     4  11  25  42  63  93 130 176 220 275 322 385
#     4  10  22  45  74 103 135 178 225 278 346 417
#     4  11  23  42  65  91 129 178 220 270 325 387
#     4  10  23  42  68  97 132 176 218 267 335 396
#     4  10  23  44  70 102 138 173 221 283 345 415
#     4  10  22  45  65  95 134 173 219 269 331 402
#     4  11  25  41  63  90 132 176 222 272 325 379
#     4  11  25  40  64  93 128 172 226 272 320 388
#
# _framework density 23.619762999999999
#
# number of rings (size 3 to 8) (size 9 to 14) (size 15 to 20)
#    0.000    1.500    1.250    2.250    5.250    4.500 
#    0.000    1.250    0.000    0.000    0.000    0.000 
#    0.000    0.000    0.000    0.000    0.000    0.000 
#
# Total GULP energy -89319.749983 kJ/mol
# GULP energy per Si atom -5582.484374 kJ/mol
# Density = 2.356600 g / cm^3
# Si number density = 23.619763 Si / 1000 Ang^3
#
#
#
# Elastic Constant Matrix: (Units=GPa)
#
#
# Indices 1 2 3 4 5 6 
#
# 1 47.8034 19.4625 20.8241 -5.7764 -9.4967 1.5641
# 2 19.4625 110.9883 28.2592 -11.1224 3.2584 -19.3434
# 3 20.8241 28.2592 86.3904 -1.5591 -13.9956 -10.1411
# 4 -5.7764 -11.1224 -1.5591 28.0142 -3.4192 1.5045
# 5 -9.4967 3.2584 -13.9956 -3.4192 43.5973 7.8428
# 6 1.5641 -19.3434 -10.1411 1.5045 7.8428 52.1541
#
#
#
# Elastic Compliance Matrix: (Units=1/GPa)
#
#
# Indices 1 2 3 4 5 6 
#
# 1 0.026282 -0.003874 -0.004552 0.004537 0.005645 -0.004090
# 2 -0.003874 0.011532 -0.002794 0.003015 -0.003128 0.004234
# 3 -0.004552 -0.002794 0.014298 -0.000901 0.003488 0.001382
# 4 0.004537 0.003015 -0.000901 0.038266 0.003626 -0.000842
# 5 0.005645 -0.003128 0.003488 0.003626 0.026662 -0.004765
# 6 -0.004090 0.004234 0.001382 -0.000842 -0.004765 0.021876
#
#
# Mechanical properties :
#
#
# Convention : Reuss Voigt Hill
#
# Bulk Modulus (GPa) = 33.70033 42.47485 38.08759
# Shear Modulus (GPa) = 29.19754 36.52887 32.86320
#
# Velocity S-wave (km/s) = 3.51970 3.93687 3.73412
# Velocity P-wave (km/s) = 5.55127 6.21989 5.89507
#
# Compressibility (1/GPa) = 0.02967330
#
# Stress axis : x y z
#
# Youngs Moduli (GPa) = 38.04820 86.71176 69.94220
#
# Poissons Ratio (x) = 0.33589 0.31837
# Poissons Ratio (y) = 0.14739 0.19542
# Poissons Ratio (z) = 0.17319 0.24227
#
# Static dielectric constant tensor:
#      x y z
#    x 1.931780 -0.012680 -0.001250 
#    y -0.012680 1.969560 -0.013950 
#    z -0.001250 -0.013950 1.831060 
# 
# From -- ./inp_files/548018.got.cif
#   From: 2010.05.17/outbox.cif.g08.bks.cpg/sg2_275_cif.got.tgz:548018.got - 2010.06.03 11:33:40.
