data_PCOD9034935
_publ_section_title
;
Structure prediction by ZEFSAII (Michael W. Deem and Ramdas Pophale) SiO2 
 PCOD9034935
Probable space group: P -1
;
_chemical_formula_sum "Si O2"
_cell_formula_units_Z 16
_cell_length_a 15.441049
_cell_length_b 28.101611
_cell_length_c 9.501246
_cell_angle_alpha 37.576960
_cell_angle_beta 45.443150
_cell_angle_gamma 18.131425
_cell_volume 752.968603
_symmetry_space_group_name_H-M "P -1"
_symmetry_group_IT_number 2
_symmetry_cell_setting 'triclinic'
loop_
_space_group_symop_operation_xyz
x,y,z
-x,-y,-z
loop_
_atom_site_type_symbol
_atom_site_label
_atom_site_fract_x
_atom_site_fract_y
_atom_site_fract_z
Si Si1 0.769045 0.464761 0.562677
Si Si2 0.329316 0.330687 0.994563
Si Si3 0.434467 0.108042 0.715697
Si Si4 0.832988 0.104525 0.094807
Si Si5 0.353647 0.013007 0.558296
Si Si6 0.945516 0.214337 0.777227
Si Si7 0.743880 0.035216 0.745898
Si Si8 0.266676 0.783214 0.579874
O O1 0.651825 0.609442 0.276339
O O2 0.778932 0.382463 0.646520
O O3 0.553224 0.577952 0.673076
O O4 0.095819 0.297991 0.621083
O O5 0.516178 0.252340 0.096596
O O6 0.486507 0.159757 0.173922
O O7 0.000000 0.500000 0.000000
O O8 0.606779 0.003757 0.615451
O O9 0.537602 0.120713 0.662026
O O10 0.500000 0.000000 0.000000
O O11 0.811013 0.207172 0.926196
O O12 0.033358 0.939611 0.358466
O O13 0.000000 0.000000 0.000000
O O14 0.500000 0.000000 0.500000
O O15 0.040765 0.187070 0.577320
O O16 0.223303 0.034734 0.984915
O O17 0.077792 0.842805 0.762747
O O18 0.660949 0.173180 0.544474
#
# Coordination Sequence:
#
# PCOD9034935 Si02
#       8
#     2   2   2   2   2   2   2   2
#     4  12  24  42  69 105 141 172 237 293 333 402
#     4  12  23  40  65 102 136 170 225 287 331 403
#     4  12  24  42  70 100 138 187 223 277 348 413
#     4  11  21  41  68  95 135 182 225 274 354 408
#     4  12  22  42  72  99 141 184 223 278 351 411
#     4  11  23  43  70 100 137 184 229 284 344 412
#     4  10  22  45  69  92 135 184 233 270 356 417
#     4  10  23  42  70  95 131 184 228 293 339 408
#
# _framework density 21.249226
#
# number of rings (size 3 to 8) (size 9 to 14) (size 15 to 20)
#    0.000    0.750    6.250    1.500    0.000    1.500 
#    0.000    1.250    5.500    0.000    0.000    0.000 
#    0.000    0.000    0.000    0.000    0.000    0.000 
#
# Total GULP energy -89375.339688 kJ/mol
# GULP energy per Si atom -5585.958731 kJ/mol
# Density = 2.120086 g / cm^3
# Si number density = 21.249226 Si / 1000 Ang^3
#
#
#
# Elastic Constant Matrix: (Units=GPa)
#
#
# Indices 1 2 3 4 5 6 
#
# 1 154.8757 52.7099 29.1665 -10.5036 -1.1379 -1.7808
# 2 52.7099 123.4573 10.6099 9.6430 -0.1987 18.4293
# 3 29.1665 10.6099 88.2382 8.7051 0.8378 12.2638
# 4 -10.5036 9.6430 8.7051 21.6926 11.2233 0.5293
# 5 -1.1379 -0.1987 0.8378 11.2233 35.7760 -0.1476
# 6 -1.7808 18.4293 12.2638 0.5293 -0.1476 35.6575
#
#
#
# Elastic Compliance Matrix: (Units=1/GPa)
#
#
# Indices 1 2 3 4 5 6 
#
# 1 0.009747 -0.005261 -0.004178 0.010051 -0.002756 0.004482
# 2 -0.005261 0.012009 0.002254 -0.010175 0.003009 -0.007081
# 3 -0.004178 0.002254 0.014251 -0.009964 0.002646 -0.006116
# 4 0.010051 -0.010175 -0.009964 0.070451 -0.021571 0.008052
# 5 -0.002756 0.003009 0.002646 -0.021571 0.034577 -0.002140
# 6 0.004482 -0.007081 -0.006116 0.008052 -0.002140 0.033904
#
#
# Mechanical properties :
#
#
# Convention : Reuss Voigt Hill
#
# Bulk Modulus (GPa) = 46.21433 61.28266 53.74849
# Shear Modulus (GPa) = 25.44277 36.89754 31.17016
#
# Velocity S-wave (km/s) = 3.46403 4.17156 3.83415
# Velocity P-wave (km/s) = 6.14778 7.21838 6.70449
#
# Compressibility (1/GPa) = 0.02163831
#
# Stress axis : x y z
#
# Youngs Moduli (GPa) = 102.59567 83.27047 70.17227
#
# Poissons Ratio (x) = 0.43809 0.29315
# Poissons Ratio (y) = 0.53976 -0.15820
# Poissons Ratio (z) = 0.42860 -0.18773
#
# Static dielectric constant tensor:
#      x y z
#    x 1.806180 0.000650 -0.012500 
#    y 0.000650 1.818120 0.021740 
#    z -0.012500 0.021740 1.833890 
# 
# From -- ./inp_files/320649.got.cif
#   From: 2010.05.17/outbox.cif.g08.bks.cpg/sg2_161_cif.got.tgz:320649.got - 2010.06.03 11:33:40.
