data_PCOD9034153
_publ_section_title
;
Structure prediction by ZEFSAII (Michael W. Deem and Ramdas Pophale) SiO2 
 PCOD9034153
Probable space group: P -1
;
_chemical_formula_sum "Si O2"
_cell_formula_units_Z 15
_cell_length_a 18.127264
_cell_length_b 8.398340
_cell_length_c 11.792197
_cell_angle_alpha 78.908529
_cell_angle_beta 26.656438
_cell_angle_gamma 62.906471
_cell_volume 604.669187
_symmetry_space_group_name_H-M "P -1"
_symmetry_group_IT_number 2
_symmetry_cell_setting 'triclinic'
loop_
_space_group_symop_operation_xyz
x,y,z
-x,-y,-z
loop_
_atom_site_type_symbol
_atom_site_label
_atom_site_fract_x
_atom_site_fract_y
_atom_site_fract_z
Si Si1 0.419465 0.695641 0.503997
Si Si2 0.634361 0.428107 0.645991
Si Si3 0.141958 0.386717 0.099822
Si Si4 0.812901 0.682144 0.340600
Si Si5 0.430810 0.020372 0.964646
Si Si6 0.260206 0.082279 0.807376
Si Si7 0.227835 0.799092 0.269371
Si Si8 0.000000 0.500000 0.500000
O O1 0.500000 0.500000 0.500000
O O2 0.334780 0.688398 0.498536
O O3 0.267594 0.900633 0.767011
O O4 0.632195 0.666031 0.189620
O O5 0.717319 0.559258 0.492527
O O6 0.750624 0.283640 0.619862
O O7 0.376320 0.591096 0.011450
O O8 0.946834 0.533954 0.436242
O O9 0.032184 0.555139 0.124184
O O10 0.168628 0.185887 0.042516
O O11 0.845690 0.737423 0.165747
O O12 0.629353 0.909190 0.621887
O O13 0.222872 0.261850 0.189325
O O14 0.354489 0.885339 0.083837
O O15 0.500000 0.000000 0.000000
O O16 0.500000 0.000000 0.500000
O O17 0.000000 0.000000 0.500000
#
# Coordination Sequence:
#
# PCOD9034153 Si02
#       8
#     2   2   2   2   2   2   2   1
#     4  11  25  47  74 102 145 194 246 306 366 434
#     4  10  24  44  70  99 147 189 236 301 367 429
#     4  11  25  42  74 104 142 187 243 299 364 436
#     4  11  23  46  69 102 143 186 247 299 365 432
#     4  11  24  40  67 103 144 185 244 294 350 437
#     4  10  22  44  71  97 136 188 240 299 357 427
#     4  10  25  42  66 102 148 191 235 295 369 432
#     4  12  26  40  72 108 142 184 240 288 366 424
#
# _framework density 24.806953
#
# number of rings (size 3 to 8) (size 9 to 14) (size 15 to 20)
#    0.000    1.333    1.333    3.600    7.467    1.067 
#    0.000    1.333    0.000    0.000    0.000    0.000 
#    0.000    0.000    0.000    0.000    0.000    0.000 
#
# Total GULP energy -83564.529272 kJ/mol
# GULP energy per Si atom -5570.968618 kJ/mol
# Density = 2.475049 g / cm^3
# Si number density = 24.806953 Si / 1000 Ang^3
#
#
#
# Elastic Constant Matrix: (Units=GPa)
#
#
# Indices 1 2 3 4 5 6 
#
# 1 96.9152 13.6136 26.9277 -2.7085 28.4840 12.8493
# 2 13.6136 97.0094 24.6514 6.7581 11.0796 -5.4102
# 3 26.9277 24.6514 99.3370 11.9700 27.9253 20.0024
# 4 -2.7085 6.7581 11.9700 24.1456 -3.7747 3.0102
# 5 28.4840 11.0796 27.9253 -3.7747 65.0040 9.6900
# 6 12.8493 -5.4102 20.0024 3.0102 9.6900 29.6752
#
#
#
# Elastic Compliance Matrix: (Units=1/GPa)
#
#
# Indices 1 2 3 4 5 6 
#
# 1 0.012644 -0.001293 -0.001547 0.002375 -0.003979 -0.003609
# 2 -0.001293 0.011889 -0.003036 -0.002821 -0.001129 0.005429
# 3 -0.001547 -0.003036 0.014806 -0.006377 -0.004374 -0.007788
# 4 0.002375 -0.002821 -0.006377 0.046961 0.005472 -0.003795
# 5 -0.003979 -0.001129 -0.004374 0.005472 0.019903 -0.002588
# 6 -0.003609 0.005429 -0.007788 -0.003795 -0.002588 0.042730
#
#
# Mechanical properties :
#
#
# Convention : Reuss Voigt Hill
#
# Bulk Modulus (GPa) = 36.24955 47.07187 41.66071
# Shear Modulus (GPa) = 29.43210 38.96954 34.20082
#
# Velocity S-wave (km/s) = 3.44822 3.96777 3.71708
# Velocity P-wave (km/s) = 5.52250 6.32514 5.93740
#
# Compressibility (1/GPa) = 0.02758655
#
# Stress axis : x y z
#
# Youngs Moduli (GPa) = 79.08617 84.10853 67.54100
#
# Poissons Ratio (x) = 0.10879 0.10451
# Poissons Ratio (y) = 0.10230 0.20504
# Poissons Ratio (z) = 0.12237 0.25533
#
# Static dielectric constant tensor:
#      x y z
#    x 3.089530 -0.631290 0.071090 
#    y -0.631290 2.356570 -0.008600 
#    z 0.071090 -0.008600 2.165300 
# 
# From -- ./inp_files/461299.got.cif
#   From: 2010.05.17/outbox.cif.g08.bks.cpg/sg2_231_cif.got.tgz:461299.got - 2010.06.03 11:33:40.
