data_PCOD9034518
_publ_section_title
;
Structure prediction by ZEFSAII (Michael W. Deem and Ramdas Pophale) SiO2 
 PCOD9034518
Probable space group: P -1
;
_chemical_formula_sum "Si O2"
_cell_formula_units_Z 16
_cell_length_a 9.427635
_cell_length_b 7.102228
_cell_length_c 25.386372
_cell_angle_alpha 41.960791
_cell_angle_beta 33.483226
_cell_angle_gamma 55.640322
_cell_volume 619.793136
_symmetry_space_group_name_H-M "P -1"
_symmetry_group_IT_number 2
_symmetry_cell_setting 'triclinic'
loop_
_space_group_symop_operation_xyz
x,y,z
-x,-y,-z
loop_
_atom_site_type_symbol
_atom_site_label
_atom_site_fract_x
_atom_site_fract_y
_atom_site_fract_z
Si Si1 0.447473 0.216220 0.611845
Si Si2 0.882377 0.724058 0.715612
Si Si3 0.392434 0.798526 0.981110
Si Si4 0.269170 0.666143 0.941276
Si Si5 0.714105 0.075687 0.373021
Si Si6 0.027411 0.041803 0.118322
Si Si7 0.147174 0.691419 0.289794
Si Si8 0.960696 0.216771 0.513211
O O1 0.500000 0.500000 0.500000
O O2 0.092770 0.144648 0.657599
O O3 0.667286 0.264471 0.579264
O O4 0.841282 0.501728 0.621437
O O5 0.580562 0.712878 0.826279
O O6 0.891761 0.520054 0.704484
O O7 0.974881 0.045397 0.597888
O O8 0.074628 0.687694 0.712643
O O9 0.200869 0.787068 0.993243
O O10 0.759296 0.137945 0.932888
O O11 0.612563 0.069107 0.847339
O O12 0.500000 0.500000 0.000000
O O13 0.132366 0.825666 0.905579
O O14 0.174854 0.327076 0.040602
O O15 0.553055 0.054479 0.371967
O O16 0.500000 0.000000 0.500000
O O17 0.820521 0.864677 0.257226
O O18 0.000000 0.000000 0.500000
#
# Coordination Sequence:
#
# PCOD9034518 Si02
#       8
#     2   2   2   2   2   2   2   2
#     4  12  26  49  75 112 157 206 253 328 397 456
#     4  11  23  47  78 112 151 206 262 325 395 467
#     4  12  28  48  78 120 154 205 263 328 399 474
#     4  11  24  48  83 114 153 208 265 328 394 474
#     4  12  27  44  73 111 154 205 257 316 388 467
#     4  11  27  52  79 112 159 210 265 325 395 472
#     4  11  24  47  74 108 156 195 257 323 394 465
#     4  10  22  44  78 107 147 205 252 313 398 459
#
# _framework density 25.815066999999999
#
# number of rings (size 3 to 8) (size 9 to 14) (size 15 to 20)
#    0.000    0.750    5.000    1.875    1.750    3.000 
#    2.250    0.000    0.000    0.000    0.000    0.000 
#    0.000    0.000    0.000    0.000    0.000    0.000 
#
# Total GULP energy -89463.733897 kJ/mol
# GULP energy per Si atom -5591.483369 kJ/mol
# Density = 2.575631 g / cm^3
# Si number density = 25.815067 Si / 1000 Ang^3
#
#
#
# Elastic Constant Matrix: (Units=GPa)
#
#
# Indices 1 2 3 4 5 6 
#
# 1 107.4216 31.7617 33.7071 -14.7116 -9.3861 19.5752
# 2 31.7617 131.8770 63.0985 4.6404 4.1199 25.0414
# 3 33.7071 63.0985 202.3306 -4.1542 2.4178 3.2187
# 4 -14.7116 4.6404 -4.1542 49.5213 0.5295 1.4235
# 5 -9.3861 4.1199 2.4178 0.5295 42.0079 -4.4456
# 6 19.5752 25.0414 3.2187 1.4235 -4.4456 53.0866
#
#
#
# Elastic Compliance Matrix: (Units=1/GPa)
#
#
# Indices 1 2 3 4 5 6 
#
# 1 0.011514 -0.001748 -0.001278 0.003544 0.002431 -0.003235
# 2 -0.001748 0.010259 -0.002856 -0.001584 -0.001648 -0.004117
# 3 -0.001278 -0.002856 0.006033 0.000355 -0.000206 0.001426
# 4 0.003544 -0.001584 0.000355 0.021451 0.000539 -0.001111
# 5 0.002431 -0.001648 -0.000206 0.000539 0.024721 0.001949
# 6 -0.003235 -0.004117 0.001426 -0.001111 0.001949 0.022079
#
#
# Mechanical properties :
#
#
# Convention : Reuss Voigt Hill
#
# Bulk Modulus (GPa) = 62.33098 77.64043 69.98571
# Shear Modulus (GPa) = 44.18229 49.79395 46.98812
#
# Velocity S-wave (km/s) = 4.14151 4.39666 4.27099
# Velocity P-wave (km/s) = 6.86054 7.47764 7.17573
#
# Compressibility (1/GPa) = 0.01604339
#
# Stress axis : x y z
#
# Youngs Moduli (GPa) = 86.84884 97.47450 165.75811
#
# Poissons Ratio (x) = 0.17039 0.21182
# Poissons Ratio (y) = 0.15182 0.47332
# Poissons Ratio (z) = 0.11098 0.27834
#
# Static dielectric constant tensor:
#      x y z
#    x 2.325880 -0.092230 -0.000510 
#    y -0.092230 2.069510 -0.055400 
#    z -0.000510 -0.055400 2.053060 
# 
# From -- ./inp_files/622277.got.cif
#   From: 2010.05.17/outbox.cif.g08.bks.cpg/sg2_312_cif.got.tgz:622277.got - 2010.06.03 11:33:40.
