data_PCOD9034727
_publ_section_title
;
Structure prediction by ZEFSAII (Michael W. Deem and Ramdas Pophale) SiO2 
 PCOD9034727
Probable space group: P -1
;
_chemical_formula_sum "Si O2"
_cell_formula_units_Z 15
_cell_length_a 21.833403
_cell_length_b 8.662093
_cell_length_c 13.790370
_cell_angle_alpha 143.549428
_cell_angle_beta 157.347302
_cell_angle_gamma 35.134519
_cell_volume 563.386751
_symmetry_space_group_name_H-M "P -1"
_symmetry_group_IT_number 2
_symmetry_cell_setting 'triclinic'
loop_
_space_group_symop_operation_xyz
x,y,z
-x,-y,-z
loop_
_atom_site_type_symbol
_atom_site_label
_atom_site_fract_x
_atom_site_fract_y
_atom_site_fract_z
Si Si1 0.009540 0.520636 0.339411
Si Si2 0.677907 0.518232 0.889397
Si Si3 0.332238 0.640893 0.499762
Si Si4 0.335914 0.248391 0.800471
Si Si5 0.000000 0.000000 0.500000
Si Si6 0.617974 0.801047 0.493519
Si Si7 0.985029 0.619104 0.930213
Si Si8 0.388751 0.903582 0.021263
O O1 0.177245 0.347084 0.547450
O O2 0.015013 0.591438 0.266091
O O3 0.960295 0.836369 0.459285
O O4 0.873138 0.368086 0.073357
O O5 0.502935 0.455815 0.599558
O O6 0.644798 0.784448 0.906466
O O7 0.691722 0.581152 0.055538
O O8 0.324937 0.489015 0.512571
O O9 0.356672 0.933756 0.697100
O O10 0.159089 0.683608 0.210870
O O11 0.493546 0.264515 0.977695
O O12 0.790878 0.127294 0.236737
O O13 0.799156 0.842612 0.760682
O O14 0.508884 0.833101 0.254580
O O15 0.500000 0.000000 0.500000
O O16 0.000000 0.500000 0.000000
#
# Coordination Sequence:
#
# PCOD9034727 Si02
#       8
#     2   2   2   2   1   2   2   2
#     4  11  24  44  69 100 137 174 224 276 329 403
#     4  10  24  44  66 101 138 176 219 279 322 407
#     4  10  24  44  71  97 137 179 217 277 337 387
#     4  11  23  47  68  99 139 174 225 272 335 401
#     4  10  26  40  70 104 128 178 220 276 334 390
#     4  11  25  45  68 100 132 175 227 281 326 400
#     4  10  24  44  68  99 136 172 224 281 326 396
#     4  10  22  45  67  96 135 171 226 274 330 393
#
# _framework density 26.624694000000002
#
# number of rings (size 3 to 8) (size 9 to 14) (size 15 to 20)
#    0.000    1.600    1.333    2.000    9.333    9.067 
#    2.400    0.000    0.000    0.000    0.000    0.000 
#    0.000    0.000    0.000    0.000    0.000    0.000 
#
# Total GULP energy -83648.158684 kJ/mol
# GULP energy per Si atom -5576.543912 kJ/mol
# Density = 2.656410 g / cm^3
# Si number density = 26.624694 Si / 1000 Ang^3
#
#
#
# Elastic Constant Matrix: (Units=GPa)
#
#
# Indices 1 2 3 4 5 6 
#
# 1 136.5524 25.2609 84.4185 -15.7064 -10.6920 10.5749
# 2 25.2609 68.9250 41.3637 -21.6410 3.7460 18.0063
# 3 84.4185 41.3637 257.4835 -50.0890 28.9872 2.1893
# 4 -15.7064 -21.6410 -50.0890 53.9774 -2.2576 10.9589
# 5 -10.6920 3.7460 28.9872 -2.2576 61.5298 -4.2616
# 6 10.5749 18.0063 2.1893 10.9589 -4.2616 37.1974
#
#
#
# Elastic Compliance Matrix: (Units=1/GPa)
#
#
# Indices 1 2 3 4 5 6 
#
# 1 0.010114 -0.001596 -0.003543 -0.000571 0.003410 -0.001335
# 2 -0.001596 0.022559 -0.000700 0.010650 -0.001885 -0.013779
# 3 -0.003543 -0.000700 0.006478 0.004722 -0.003509 -0.000828
# 4 -0.000571 0.010650 0.004722 0.029811 -0.002874 -0.014383
# 5 0.003410 -0.001885 -0.003509 -0.002874 0.018725 0.003142
# 6 -0.001335 -0.013779 -0.000828 -0.014383 0.003142 0.038579
#
#
# Mechanical properties :
#
#
# Convention : Reuss Voigt Hill
#
# Bulk Modulus (GPa) = 36.39932 85.00524 60.70228
# Shear Modulus (GPa) = 33.98992 51.33544 42.66268
#
# Velocity S-wave (km/s) = 3.57687 4.39579 4.00731
# Velocity P-wave (km/s) = 5.54614 7.60003 6.65283
#
# Compressibility (1/GPa) = 0.02747304
#
# Stress axis : x y z
#
# Youngs Moduli (GPa) = 98.87665 44.32773 154.35832
#
# Poissons Ratio (x) = 0.07076 0.54691
# Poissons Ratio (y) = 0.15784 0.10800
# Poissons Ratio (z) = 0.35033 0.03101
#
# Static dielectric constant tensor:
#      x y z
#    x 2.096540 0.066470 0.154180 
#    y 0.066470 1.840090 -0.178500 
#    z 0.154180 -0.178500 1.966400 
# 
# From -- ./inp_files/542624.got.cif
#   From: 2010.05.17/outbox.cif.g08.bks.cpg/sg2_272_cif.got.tgz:542624.got - 2010.06.03 11:33:40.
