data_PCOD9034076
_publ_section_title
;
Structure prediction by ZEFSAII (Michael W. Deem and Ramdas Pophale) SiO2 
 PCOD9034076
Probable space group: P -1
;
_chemical_formula_sum "Si O2"
_cell_formula_units_Z 16
_cell_length_a 8.353752
_cell_length_b 5.135244
_cell_length_c 20.921188
_cell_angle_alpha 66.521715
_cell_angle_beta 129.773270
_cell_angle_gamma 112.163585
_cell_volume 623.080775
_symmetry_space_group_name_H-M "P -1"
_symmetry_group_IT_number 2
_symmetry_cell_setting 'triclinic'
loop_
_space_group_symop_operation_xyz
x,y,z
-x,-y,-z
loop_
_atom_site_type_symbol
_atom_site_label
_atom_site_fract_x
_atom_site_fract_y
_atom_site_fract_z
Si Si1 0.166551 0.431063 0.468639
Si Si2 0.813891 0.731076 0.970584
Si Si3 0.278438 0.844967 0.243678
Si Si4 0.549740 0.148770 0.579767
Si Si5 0.009054 0.677089 0.849398
Si Si6 0.434495 0.002483 0.908094
Si Si7 0.701103 0.429931 0.373976
Si Si8 0.482109 0.418935 0.193131
O O1 0.331783 0.255831 0.495319
O O2 0.267496 0.748680 0.435491
O O3 0.203271 0.387891 0.558062
O O4 0.915066 0.352148 0.403527
O O5 0.753218 0.613100 0.895528
O O6 0.614218 0.863974 0.931676
O O7 0.868781 0.466118 0.049779
O O8 0.000000 0.000000 0.000000
O O9 0.357986 0.723104 0.341251
O O10 0.152220 0.587518 0.195402
O O11 0.467464 0.074882 0.236378
O O12 0.109648 0.051749 0.198471
O O13 0.466120 0.821268 0.610778
O O14 0.215332 0.810861 0.848617
O O15 0.412748 0.329596 0.852261
O O16 0.500000 0.000000 0.000000
O O17 0.571459 0.538606 0.272787
#
# Coordination Sequence:
#
# PCOD9034076 Si02
#       8
#     2   2   2   2   2   2   2   2
#     4  10  22  44  71 103 141 187 238 303 386 439
#     4  12  25  45  72  99 145 200 246 300 370 443
#     4  11  27  46  74 109 150 196 251 306 366 454
#     4  10  23  42  73 103 142 188 245 299 375 449
#     4  12  26  45  72 105 150 192 247 306 370 430
#     4  12  27  44  70 105 147 192 253 309 370 434
#     4  10  23  43  70 102 148 181 249 300 377 442
#     4  11  26  43  72 104 145 197 249 300 366 445
#
# _framework density 25.678853
#
# number of rings (size 3 to 8) (size 9 to 14) (size 15 to 20)
#    0.000    1.000    2.500    2.625    7.000    2.000 
#    0.000    0.000    0.000    0.000    0.000    0.000 
#    0.000    0.000    0.000    0.000    0.000    0.000 
#
# Total GULP energy -89199.581126 kJ/mol
# GULP energy per Si atom -5574.973820 kJ/mol
# Density = 2.562041 g / cm^3
# Si number density = 25.678853 Si / 1000 Ang^3
#
#
#
# Elastic Constant Matrix: (Units=GPa)
#
#
# Indices 1 2 3 4 5 6 
#
# 1 96.1005 43.6724 48.9543 -4.2824 27.0035 8.9830
# 2 43.6724 121.5457 66.9192 -3.4047 11.0660 8.0427
# 3 48.9543 66.9192 150.4601 12.2333 -14.4954 5.0057
# 4 -4.2824 -3.4047 12.2333 33.7274 7.4479 -0.9665
# 5 27.0035 11.0660 -14.4954 7.4479 44.5619 -3.0691
# 6 8.9830 8.0427 5.0057 -0.9665 -3.0691 41.0276
#
#
#
# Elastic Compliance Matrix: (Units=1/GPa)
#
#
# Indices 1 2 3 4 5 6 
#
# 1 0.020824 -0.000475 -0.008852 0.009494 -0.017274 -0.004455
# 2 -0.000475 0.012715 -0.006392 0.004785 -0.005882 -0.001936
# 3 -0.008852 -0.006392 0.014395 -0.009895 0.013440 0.002207
# 4 0.009494 0.004785 -0.009895 0.038565 -0.016754 -0.002154
# 5 -0.017274 -0.005882 0.013440 -0.016754 0.041957 0.006039
# 6 -0.004455 -0.001936 0.002207 -0.002154 0.006039 0.025860
#
#
# Mechanical properties :
#
#
# Convention : Reuss Voigt Hill
#
# Bulk Modulus (GPa) = 60.61981 76.35533 68.48757
# Shear Modulus (GPa) = 26.14337 37.76742 31.95539
#
# Velocity S-wave (km/s) = 3.19421 3.83921 3.53147
# Velocity P-wave (km/s) = 6.10427 7.03221 6.58461
#
# Compressibility (1/GPa) = 0.01649626
#
# Stress axis : x y z
#
# Youngs Moduli (GPa) = 48.02059 78.64832 69.46838
#
# Poissons Ratio (x) = 0.03739 0.61493
# Poissons Ratio (y) = 0.02283 0.44402
# Poissons Ratio (z) = 0.42508 0.50270
#
# Static dielectric constant tensor:
#      x y z
#    x 2.232930 0.003290 -0.090670 
#    y 0.003290 2.090040 -0.023070 
#    z -0.090670 -0.023070 2.067880 
# 
# From -- ./inp_files/585572.got.cif
#   From: 2010.05.17/outbox.cif.g08.bks.cpg/sg2_293_cif.got.tgz:585572.got - 2010.06.03 11:33:40.
