data_PCOD9034651
_publ_section_title
;
Structure prediction by ZEFSAII (Michael W. Deem and Ramdas Pophale) SiO2 
 PCOD9034651
Probable space group: P -1
;
_chemical_formula_sum "Si O2"
_cell_formula_units_Z 16
_cell_length_a 10.295053
_cell_length_b 15.903209
_cell_length_c 8.489578
_cell_angle_alpha 45.956258
_cell_angle_beta 84.881647
_cell_angle_gamma 119.658313
_cell_volume 625.469230
_symmetry_space_group_name_H-M "P -1"
_symmetry_group_IT_number 2
_symmetry_cell_setting 'triclinic'
loop_
_space_group_symop_operation_xyz
x,y,z
-x,-y,-z
loop_
_atom_site_type_symbol
_atom_site_label
_atom_site_fract_x
_atom_site_fract_y
_atom_site_fract_z
Si Si1 0.128503 0.520980 0.190540
Si Si2 0.547307 0.817249 0.940298
Si Si3 0.918057 0.240631 0.813249
Si Si4 0.187223 0.199855 0.153170
Si Si5 0.621958 0.825112 0.288643
Si Si6 0.653382 0.498494 0.038642
Si Si7 0.276729 0.331450 0.658266
Si Si8 0.252726 0.845095 0.703576
O O1 0.927541 0.355482 0.538450
O O2 0.321278 0.689049 0.067341
O O3 0.195935 0.454997 0.166369
O O4 0.133538 0.644256 0.926516
O O5 0.612018 0.743552 0.936678
O O6 0.724869 0.034373 0.584213
O O7 0.544281 0.793210 0.159402
O O8 0.157456 0.367273 0.604476
O O9 0.851901 0.202158 0.052970
O O10 0.775855 0.037702 0.027262
O O11 0.223018 0.348800 0.034716
O O12 0.136051 0.173406 0.010795
O O13 0.000000 0.000000 0.500000
O O14 0.460987 0.692670 0.619799
O O15 0.713947 0.756652 0.363713
O O16 0.500000 0.500000 0.000000
O O17 0.500000 0.500000 0.500000
O O18 0.500000 0.000000 0.500000
#
# Coordination Sequence:
#
# PCOD9034651 Si02
#       8
#     2   2   2   2   2   2   2   2
#     4  11  24  43  69  99 135 182 233 283 339 412
#     4  10  22  45  66  95 138 184 226 282 344 403
#     4  12  24  42  71 101 137 178 235 284 341 417
#     4  11  23  36  64  97 135 174 224 275 344 407
#     4  11  24  40  66 103 140 178 228 282 347 413
#     4  12  24  41  66 100 141 179 223 281 352 405
#     4  11  22  41  64 100 141 180 217 275 354 409
#     4  10  23  47  72  94 133 189 236 282 344 405
#
# _framework density 25.580794999999998
#
# number of rings (size 3 to 8) (size 9 to 14) (size 15 to 20)
#    0.000    1.000    2.500    5.250    5.250    0.000 
#    0.000    6.250    0.000    0.000    0.000    0.000 
#    0.000    0.000    0.000    0.000    0.000    0.000 
#
# Total GULP energy -89304.609738 kJ/mol
# GULP energy per Si atom -5581.538109 kJ/mol
# Density = 2.552257 g / cm^3
# Si number density = 25.580795 Si / 1000 Ang^3
#
#
#
# Elastic Constant Matrix: (Units=GPa)
#
#
# Indices 1 2 3 4 5 6 
#
# 1 48.8664 22.0173 14.4120 1.4100 3.1140 -12.3711
# 2 22.0173 98.1006 31.0863 -0.3170 -9.7408 -11.5791
# 3 14.4120 31.0863 207.3968 8.3955 23.9790 -5.3253
# 4 1.4100 -0.3170 8.3955 56.8480 -6.4149 -3.6302
# 5 3.1140 -9.7408 23.9790 -6.4149 40.4441 -1.1869
# 6 -12.3711 -11.5791 -5.3253 -3.6302 -1.1869 25.9401
#
#
#
# Elastic Compliance Matrix: (Units=1/GPa)
#
#
# Indices 1 2 3 4 5 6 
#
# 1 0.025337 -0.004619 -0.000518 -0.000237 -0.002507 0.009767
# 2 -0.004619 0.012825 -0.002145 0.001293 0.005024 0.003492
# 3 -0.000518 -0.002145 0.005693 -0.001326 -0.004075 -0.000408
# 4 -0.000237 0.001293 -0.001326 0.018455 0.004130 0.002964
# 5 -0.002507 0.005024 -0.004075 0.004130 0.029262 0.002127
# 6 0.009767 0.003492 -0.000408 0.002964 0.002127 0.045196
#
#
# Mechanical properties :
#
#
# Convention : Reuss Voigt Hill
#
# Bulk Modulus (GPa) = 34.13941 54.37722 44.25832
# Shear Modulus (GPa) = 31.03724 43.76965 37.40345
#
# Velocity S-wave (km/s) = 3.48703 4.14095 3.82798
# Velocity P-wave (km/s) = 5.43941 6.64579 6.07263
#
# Compressibility (1/GPa) = 0.02929166
#
# Stress axis : x y z
#
# Youngs Moduli (GPa) = 39.46743 77.97119 175.64011
#
# Poissons Ratio (x) = 0.36017 0.09099
# Poissons Ratio (y) = 0.18231 0.37672
# Poissons Ratio (z) = 0.02045 0.16724
#
# Static dielectric constant tensor:
#      x y z
#    x 2.410700 0.072360 0.128310 
#    y 0.072360 2.044620 0.048520 
#    z 0.128310 0.048520 2.048340 
# 
# From -- ./inp_files/271827.got.cif
#   From: 2010.05.17/outbox.cif.g08.bks.cpg/sg2_136_cif.got.tgz:271827.got - 2010.06.03 11:33:40.
