data_PCOD9034599
_publ_section_title
;
Structure prediction by ZEFSAII (Michael W. Deem and Ramdas Pophale) SiO2 
 PCOD9034599
Probable space group: P -1
;
_chemical_formula_sum "Si O2"
_cell_formula_units_Z 16
_cell_length_a 18.435543
_cell_length_b 5.278230
_cell_length_c 8.333879
_cell_angle_alpha 60.597810
_cell_angle_beta 87.833445
_cell_angle_gamma 112.569486
_cell_volume 626.057953
_symmetry_space_group_name_H-M "P -1"
_symmetry_group_IT_number 2
_symmetry_cell_setting 'triclinic'
loop_
_space_group_symop_operation_xyz
x,y,z
-x,-y,-z
loop_
_atom_site_type_symbol
_atom_site_label
_atom_site_fract_x
_atom_site_fract_y
_atom_site_fract_z
Si Si1 0.244206 0.164668 0.570156
Si Si2 0.921434 0.682973 0.807094
Si Si3 0.905727 0.872503 0.235289
Si Si4 0.213624 0.510685 0.888180
Si Si5 0.117133 0.709649 0.385862
Si Si6 0.403741 0.502822 0.588529
Si Si7 0.553971 0.748658 0.667482
Si Si8 0.704490 0.744196 0.805383
O O1 0.154717 0.109631 0.631905
O O2 0.306144 0.346574 0.654064
O O3 0.277257 0.355139 0.342453
O O4 0.245026 0.816320 0.672150
O O5 0.924344 0.513405 0.695342
O O6 0.906113 0.998090 0.680481
O O7 0.842130 0.434168 0.989868
O O8 0.005335 0.826923 0.855138
O O9 0.855657 0.806856 0.095901
O O10 0.909299 0.539086 0.385784
O O11 0.282929 0.463041 0.990146
O O12 0.216469 0.895735 0.296560
O O13 0.456811 0.503085 0.737342
O O14 0.418776 0.317304 0.492383
O O15 0.434319 0.884843 0.428414
O O16 0.614787 0.713266 0.800404
#
# Coordination Sequence:
#
# PCOD9034599 Si02
#       8
#     2   2   2   2   2   2   2   2
#     4  11  24  42  68  94 130 172 215 264 320 381
#     4  11  27  43  66  91 131 166 221 269 324 378
#     4  12  24  42  65  93 127 173 215 272 322 378
#     4  11  26  42  62  97 126 173 217 267 317 386
#     4  11  23  43  67  96 122 169 216 271 321 383
#     4   9  19  36  65  98 127 162 215 255 310 381
#     4   9  18  37  66  97 126 168 206 257 314 377
#     4  10  22  45  65  95 131 169 212 263 324 380
#
# _framework density 25.556740000000001
#
# number of rings (size 3 to 8) (size 9 to 14) (size 15 to 20)
#    0.000    1.500    1.250    3.375    7.000    2.500 
#    0.000    0.625    0.000    0.750    0.000    0.000 
#    0.000    0.000    0.000    0.000    0.000    0.000 
#
# Total GULP energy -89508.231449 kJ/mol
# GULP energy per Si atom -5594.264466 kJ/mol
# Density = 2.549857 g / cm^3
# Si number density = 25.556740 Si / 1000 Ang^3
#
#
#
# Elastic Constant Matrix: (Units=GPa)
#
#
# Indices 1 2 3 4 5 6 
#
# 1 108.3032 53.3681 15.6017 20.9284 29.3012 19.7482
# 2 53.3681 128.1013 20.8709 6.2167 20.5537 12.5100
# 3 15.6017 20.8709 71.3006 11.1043 24.1404 -6.4530
# 4 20.9284 6.2167 11.1043 32.9788 3.9652 15.5653
# 5 29.3012 20.5537 24.1404 3.9652 27.5193 11.6636
# 6 19.7482 12.5100 -6.4530 15.5653 11.6636 59.4023
#
#
#
# Elastic Compliance Matrix: (Units=1/GPa)
#
#
# Indices 1 2 3 4 5 6 
#
# 1 0.018138 -0.004995 0.006693 -0.011681 -0.021014 0.002936
# 2 -0.004995 0.010299 -0.002525 0.002791 0.000088 -0.001531
# 3 0.006693 -0.002525 0.027445 -0.014535 -0.032049 0.011389
# 4 -0.011681 0.002791 -0.014535 0.046406 0.022735 -0.014907
# 5 -0.021014 0.000088 -0.032049 0.022735 0.092206 -0.020576
# 6 0.002936 -0.001531 0.011389 -0.014907 -0.020576 0.025364
#
#
# Mechanical properties :
#
#
# Convention : Reuss Voigt Hill
#
# Bulk Modulus (GPa) = 18.44060 54.15404 36.29732
# Shear Modulus (GPa) = 20.86939 38.50437 29.68688
#
# Velocity S-wave (km/s) = 2.86070 3.88573 3.41193
# Velocity P-wave (km/s) = 4.25943 6.43177 5.45483
#
# Compressibility (1/GPa) = 0.05422818
#
# Stress axis : x y z
#
# Youngs Moduli (GPa) = 55.13361 97.10093 36.43686
#
# Poissons Ratio (x) = 0.48502 -0.24387
# Poissons Ratio (y) = 0.27539 0.09199
# Poissons Ratio (z) = -0.36901 0.24513
#
# Static dielectric constant tensor:
#      x y z
#    x 2.104740 0.019810 0.007320 
#    y 0.019810 2.014990 0.014840 
#    z 0.007320 0.014840 2.019150 
# 
# From -- ./inp_files/340150.got.cif
#   From: 2010.05.17/outbox.cif.g08.bks.cpg/sg2_171_cif.got.tgz:340150.got - 2010.06.03 11:33:40.
