data_PCOD9034825
_publ_section_title
;
Structure prediction by ZEFSAII (Michael W. Deem and Ramdas Pophale) SiO2 
 PCOD9034825
Probable space group: P -1
;
_chemical_formula_sum "Si O2"
_cell_formula_units_Z 16
_cell_length_a 8.041454
_cell_length_b 10.132427
_cell_length_c 14.020185
_cell_angle_alpha 94.818798
_cell_angle_beta 47.759783
_cell_angle_gamma 118.258030
_cell_volume 695.206199
_symmetry_space_group_name_H-M "P -1"
_symmetry_group_IT_number 2
_symmetry_cell_setting 'triclinic'
loop_
_space_group_symop_operation_xyz
x,y,z
-x,-y,-z
loop_
_atom_site_type_symbol
_atom_site_label
_atom_site_fract_x
_atom_site_fract_y
_atom_site_fract_z
Si Si1 0.191027 0.468556 0.493578
Si Si2 0.207482 0.727003 0.594840
Si Si3 0.415069 0.505068 0.220246
Si Si4 0.060431 0.719653 0.231266
Si Si5 0.542961 0.000352 0.337254
Si Si6 0.837992 0.834229 0.164520
Si Si7 0.570353 0.049148 0.115854
Si Si8 0.774274 0.400635 0.000015
O O1 0.339903 0.631568 0.508016
O O2 0.360037 0.443286 0.348797
O O3 0.000000 0.500000 0.500000
O O4 0.042514 0.336790 0.624946
O O5 0.293472 0.858783 0.486138
O O6 0.885695 0.595311 0.713293
O O7 0.324092 0.832386 0.650000
O O8 0.593018 0.697454 0.182848
O O9 0.588417 0.466432 0.085391
O O10 0.879001 0.749079 0.233156
O O11 0.348810 0.890753 0.135597
O O12 0.097796 0.595272 0.150685
O O13 0.757704 0.951082 0.240656
O O14 0.469674 0.015606 0.260722
O O15 0.130217 0.918440 0.005219
O O16 0.607297 0.212774 0.079948
O O17 0.000000 0.500000 0.000000
#
# Coordination Sequence:
#
# PCOD9034825 Si02
#       8
#     2   2   2   2   2   2   2   2
#     4  10  22  45  68  96 132 175 225 271 327 398
#     4  10  24  41  69  90 136 173 223 276 330 391
#     4  11  22  42  69  96 135 173 221 275 329 398
#     4  11  25  43  73  97 134 185 216 275 341 388
#     4  11  24  45  64  99 132 177 223 277 328 393
#     4  11  23  42  65  99 132 170 222 272 332 400
#     4  11  24  43  68  94 137 178 219 275 333 396
#     4  11  23  44  64 101 141 168 226 273 331 401
#
# _framework density 23.014752999999999
#
# number of rings (size 3 to 8) (size 9 to 14) (size 15 to 20)
#    0.000    1.250    3.750    3.375    7.000    0.500 
#    4.500    4.375    0.000    0.000    0.000    0.000 
#    0.000    0.000    0.000    0.000    0.000    0.000 
#
# Total GULP energy -89363.999289 kJ/mol
# GULP energy per Si atom -5585.249956 kJ/mol
# Density = 2.296237 g / cm^3
# Si number density = 23.014753 Si / 1000 Ang^3
#
#
#
# Elastic Constant Matrix: (Units=GPa)
#
#
# Indices 1 2 3 4 5 6 
#
# 1 47.0549 20.7225 19.2403 -5.8101 11.6935 11.4866
# 2 20.7225 140.9642 20.9629 1.2315 -0.0919 25.5993
# 3 19.2403 20.9629 56.3196 3.0763 3.4375 16.3150
# 4 -5.8101 1.2315 3.0763 45.8045 5.5926 -10.6576
# 5 11.6935 -0.0919 3.4375 5.5926 42.0277 -3.1953
# 6 11.4866 25.5993 16.3150 -10.6576 -3.1953 31.5460
#
#
#
# Elastic Compliance Matrix: (Units=1/GPa)
#
#
# Indices 1 2 3 4 5 6 
#
# 1 0.029017 -0.002449 -0.007554 0.004330 -0.008345 -0.004054
# 2 -0.002449 0.008743 -0.000402 -0.002132 0.000511 -0.006664
# 3 -0.007554 -0.000402 0.023969 -0.005127 -0.000018 -0.011054
# 4 0.004330 -0.002132 -0.005127 0.025795 -0.003373 0.011178
# 5 -0.008345 0.000511 -0.000018 -0.003373 0.026888 0.004218
# 6 -0.004054 -0.006664 -0.011054 0.011178 0.004218 0.048504
#
#
# Mechanical properties :
#
#
# Convention : Reuss Voigt Hill
#
# Bulk Modulus (GPa) = 24.43869 40.68777 32.56323
# Shear Modulus (GPa) = 25.33353 36.10316 30.71835
#
# Velocity S-wave (km/s) = 3.32136 3.96497 3.65735
# Velocity P-wave (km/s) = 5.03491 6.21922 5.65814
#
# Compressibility (1/GPa) = 0.04091872
#
# Stress axis : x y z
#
# Youngs Moduli (GPa) = 34.46217 114.37863 41.71996
#
# Poissons Ratio (x) = 0.28016 0.31516
# Poissons Ratio (y) = 0.08441 0.01677
# Poissons Ratio (z) = 0.26033 0.04596
#
# Static dielectric constant tensor:
#      x y z
#    x 1.931280 -0.010930 -0.021810 
#    y -0.010930 1.857390 -0.009670 
#    z -0.021810 -0.009670 1.957380 
# 
# From -- ./inp_files/500449.got.cif
#   From: 2010.05.17/outbox.cif.g08.bks.cpg/sg2_251_cif.got.tgz:500449.got - 2010.06.03 11:33:40.
