data_PCOD9034028
_publ_section_title
;
Structure prediction by ZEFSAII (Michael W. Deem and Ramdas Pophale) SiO2 
 PCOD9034028
Probable space group: P -1
;
_chemical_formula_sum "Si O2"
_cell_formula_units_Z 14
_cell_length_a 15.781160
_cell_length_b 11.952639
_cell_length_c 7.282350
_cell_angle_alpha 134.564275
_cell_angle_beta 40.257420
_cell_angle_gamma 141.974667
_cell_volume 529.089561
_symmetry_space_group_name_H-M "P -1"
_symmetry_group_IT_number 2
_symmetry_cell_setting 'triclinic'
loop_
_space_group_symop_operation_xyz
x,y,z
-x,-y,-z
loop_
_atom_site_type_symbol
_atom_site_label
_atom_site_fract_x
_atom_site_fract_y
_atom_site_fract_z
Si Si1 0.309891 0.104539 0.276654
Si Si2 0.525966 0.411829 0.583132
Si Si3 0.698417 0.452568 0.857375
Si Si4 0.747749 0.194578 0.695696
Si Si5 0.044405 0.556526 0.784657
Si Si6 0.602360 0.919871 0.305892
Si Si7 0.139079 0.276262 0.786822
O O1 0.423490 0.285701 0.430129
O O2 0.336828 0.108533 0.019483
O O3 0.145987 0.093667 0.554670
O O4 0.306839 0.931612 0.177581
O O5 0.500986 0.264521 0.609860
O O6 0.707876 0.563572 0.403479
O O7 0.651150 0.281228 0.880407
O O8 0.792053 0.414655 0.507127
O O9 0.562437 0.488473 0.087037
O O10 0.822368 0.642660 0.977796
O O11 0.915009 0.380556 0.673514
O O12 0.730833 0.060806 0.404294
O O13 0.000000 0.500000 0.000000
O O14 0.011015 0.720369 0.012101
O O15 0.500000 0.000000 0.500000
#
# Coordination Sequence:
#
# PCOD9034028 Si02
#       7
#     2   2   2   2   2   2   2
#     4  10  23  43  66 105 140 181 227 282 353 408
#     4  10  24  46  72 104 140 180 232 292 336 407
#     4  10  22  45  74  97 137 183 231 287 346 399
#     4  10  24  45  67  98 140 180 229 286 340 409
#     4  11  26  45  73 100 134 185 239 283 342 415
#     4  11  27  39  67 105 147 182 223 282 352 414
#     4  10  22  44  71 100 136 182 233 287 337 406
#
# _framework density 26.460549
#
# number of rings (size 3 to 8) (size 9 to 14) (size 15 to 20)
#    0.000    1.714    0.000    3.429   14.000    1.714 
#    0.000   12.143    0.000    0.000    0.000    0.000 
#    0.000    0.000    0.000    0.000    0.000    0.000 
#
# Total GULP energy -78264.914402 kJ/mol
# GULP energy per Si atom -5590.351029 kJ/mol
# Density = 2.640032 g / cm^3
# Si number density = 26.460549 Si / 1000 Ang^3
#
#
#
# Elastic Constant Matrix: (Units=GPa)
#
#
# Indices 1 2 3 4 5 6 
#
# 1 126.9389 45.0114 62.1546 -5.0297 8.2838 -14.2418
# 2 45.0114 104.9998 39.7149 -3.3686 -13.3208 -23.4160
# 3 62.1546 39.7149 216.0916 -19.9445 -16.5818 -17.0807
# 4 -5.0297 -3.3686 -19.9445 40.4602 -0.4563 7.4169
# 5 8.2838 -13.3208 -16.5818 -0.4563 53.4151 9.2874
# 6 -14.2418 -23.4160 -17.0807 7.4169 9.2874 51.8430
#
#
#
# Elastic Compliance Matrix: (Units=1/GPa)
#
#
# Indices 1 2 3 4 5 6 
#
# 1 0.010912 -0.003912 -0.002665 -0.000524 -0.003689 0.001089
# 2 -0.003912 0.012709 -0.000721 -0.000482 0.002855 0.003986
# 3 -0.002665 -0.000721 0.005932 0.002526 0.002068 0.000165
# 4 -0.000524 -0.000482 0.002526 0.026536 0.001600 -0.003612
# 5 -0.003689 0.002855 0.002068 0.001600 0.021194 -0.003068
# 6 0.001089 0.003986 0.000165 -0.003612 -0.003068 0.022509
#
#
# Mechanical properties :
#
#
# Convention : Reuss Voigt Hill
#
# Bulk Modulus (GPa) = 66.85884 82.42134 74.64009
# Shear Modulus (GPa) = 41.88562 49.22027 45.55295
#
# Velocity S-wave (km/s) = 3.98294 4.31761 4.15365
# Velocity P-wave (km/s) = 6.81718 7.48813 7.16052
#
# Compressibility (1/GPa) = 0.01495688
#
# Stress axis : x y z
#
# Youngs Moduli (GPa) = 91.64312 78.68442 168.59038
#
# Poissons Ratio (x) = 0.30779 0.44930
# Poissons Ratio (y) = 0.35848 0.12155
# Poissons Ratio (z) = 0.24423 0.05673
#
# Static dielectric constant tensor:
#      x y z
#    x 2.223590 0.046270 -0.015740 
#    y 0.046270 2.162310 -0.016360 
#    z -0.015740 -0.016360 2.074800 
# 
# From -- ./inp_files/333865.got.cif
#   From: 2010.05.17/outbox.cif.g08.bks.cpg/sg2_167_cif.got.tgz:333865.got - 2010.06.03 11:33:40.
