data_PCOD9034233
_publ_section_title
;
Structure prediction by ZEFSAII (Michael W. Deem and Ramdas Pophale) SiO2 
 PCOD9034233
Probable space group: P -1
;
_chemical_formula_sum "Si O2"
_cell_formula_units_Z 15
_cell_length_a 5.375857
_cell_length_b 9.647047
_cell_length_c 11.266092
_cell_angle_alpha 95.120801
_cell_angle_beta 71.823373
_cell_angle_gamma 102.470514
_cell_volume 541.869169
_symmetry_space_group_name_H-M "P -1"
_symmetry_group_IT_number 2
_symmetry_cell_setting 'triclinic'
loop_
_space_group_symop_operation_xyz
x,y,z
-x,-y,-z
loop_
_atom_site_type_symbol
_atom_site_label
_atom_site_fract_x
_atom_site_fract_y
_atom_site_fract_z
Si Si1 0.539512 0.568246 0.871492
Si Si2 0.536587 0.167160 0.976136
Si Si3 0.217096 0.916368 0.416489
Si Si4 0.739104 0.101093 0.319623
Si Si5 0.172049 0.607946 0.346404
Si Si6 0.500000 0.500000 0.500000
Si Si7 0.926128 0.891391 0.114913
Si Si8 0.224668 0.594906 0.711295
O O1 0.779045 0.501518 0.773892
O O2 0.281011 0.529673 0.822774
O O3 0.500000 0.500000 0.000000
O O4 0.563811 0.736292 0.902054
O O5 0.367403 0.190321 0.886543
O O6 0.855825 0.206293 0.918681
O O7 0.500000 0.000000 0.000000
O O8 0.299149 0.875026 0.533868
O O9 0.144116 0.767916 0.348682
O O10 0.444699 0.021496 0.319272
O O11 0.000000 0.000000 0.500000
O O12 0.853058 0.253268 0.257970
O O13 0.911331 0.987087 0.240176
O O14 0.395457 0.599918 0.408323
O O15 0.858458 0.522823 0.395110
O O16 0.523383 0.634603 0.608714
O O17 0.000000 0.000000 0.000000
#
# Coordination Sequence:
#
# PCOD9034233 Si02
#       8
#     2   2   2   2   2   1   2   2
#     4  11  28  47  72 110 158 203 266 330 403 477
#     4  10  23  45  73 107 152 200 263 323 401 480
#     4  11  28  48  72 114 160 206 259 333 410 481
#     4  11  26  46  75 113 155 204 268 324 403 484
#     4  11  26  47  77 111 154 207 262 328 405 481
#     4  10  22  44  72 106 144 188 258 316 386 468
#     4  10  23  43  75 111 148 198 263 328 394 471
#     4  11  24  45  78 106 149 202 265 321 393 482
#
# _framework density 27.681958000000002
#
# number of rings (size 3 to 8) (size 9 to 14) (size 15 to 20)
#    0.000    1.333    1.333    2.000   11.200    2.667 
#    0.000    0.000    0.000    0.000    0.000    0.000 
#    0.000    0.000    0.000    0.000    0.000    0.000 
#
# Total GULP energy -83596.127665 kJ/mol
# GULP energy per Si atom -5573.075178 kJ/mol
# Density = 2.761895 g / cm^3
# Si number density = 27.681958 Si / 1000 Ang^3
#
#
#
# Elastic Constant Matrix: (Units=GPa)
#
#
# Indices 1 2 3 4 5 6 
#
# 1 126.3824 43.2799 -12.4482 17.4107 -0.9644 -20.7423
# 2 43.2799 182.5538 25.7529 41.3086 -15.5168 -14.2911
# 3 -12.4482 25.7529 70.2560 29.7753 -3.7386 -2.0245
# 4 17.4107 41.3086 29.7753 51.9657 -17.5663 -6.1028
# 5 -0.9644 -15.5168 -3.7386 -17.5663 52.3488 4.5688
# 6 -20.7423 -14.2911 -2.0245 -6.1028 4.5688 38.8181
#
#
#
# Elastic Compliance Matrix: (Units=1/GPa)
#
#
# Indices 1 2 3 4 5 6 
#
# 1 0.010390 -0.001838 0.004567 -0.004784 -0.002034 0.004601
# 2 -0.001838 0.007117 -0.001142 -0.004102 0.000542 0.000870
# 3 0.004567 -0.001142 0.021144 -0.013752 -0.003479 0.001370
# 4 -0.004784 -0.004102 -0.013752 0.035170 0.009549 -0.000378
# 5 -0.002034 0.000542 -0.003479 0.009549 0.022374 -0.002201
# 6 0.004601 0.000870 0.001370 -0.000378 -0.002201 0.028811
#
#
# Mechanical properties :
#
#
# Convention : Reuss Voigt Hill
#
# Bulk Modulus (GPa) = 23.90906 54.70683 39.30795
# Shear Modulus (GPa) = 36.82581 50.13368 43.47975
#
# Velocity S-wave (km/s) = 3.65131 4.26027 3.96749
# Velocity P-wave (km/s) = 5.14120 6.63366 5.93453
#
# Compressibility (1/GPa) = 0.04182514
#
# Stress axis : x y z
#
# Youngs Moduli (GPa) = 96.24408 140.50863 47.29439
#
# Poissons Ratio (x) = 0.25821 -0.21597
# Poissons Ratio (y) = 0.17687 0.05401
# Poissons Ratio (z) = -0.43950 0.16046
#
# Static dielectric constant tensor:
#      x y z
#    x 10.807590 3.177720 -0.959870 
#    y 3.177720 3.416050 -0.396030 
#    z -0.959870 -0.396030 2.370240 
# 
# From -- ./inp_files/360831.got.cif
#   From: 2010.05.17/outbox.cif.g08.bks.cpg/sg2_181_cif.got.tgz:360831.got - 2010.06.03 11:33:40.
