data_PCOD9034576
_publ_section_title
;
Structure prediction by ZEFSAII (Michael W. Deem and Ramdas Pophale) SiO2 
 PCOD9034576
Probable space group: P -1
;
_chemical_formula_sum "Si O2"
_cell_formula_units_Z 16
_cell_length_a 7.407840
_cell_length_b 22.194492
_cell_length_c 5.156707
_cell_angle_alpha 112.209965
_cell_angle_beta 116.157876
_cell_angle_gamma 55.642652
_cell_volume 618.605030
_symmetry_space_group_name_H-M "P -1"
_symmetry_group_IT_number 2
_symmetry_cell_setting 'triclinic'
loop_
_space_group_symop_operation_xyz
x,y,z
-x,-y,-z
loop_
_atom_site_type_symbol
_atom_site_label
_atom_site_fract_x
_atom_site_fract_y
_atom_site_fract_z
Si Si1 0.270713 0.763732 0.413914
Si Si2 0.994454 0.396020 0.810487
Si Si3 0.377406 0.612016 0.069201
Si Si4 0.483455 0.822943 0.986998
Si Si5 0.330578 0.442597 0.323313
Si Si6 0.914607 0.752783 0.517409
Si Si7 0.623795 0.010063 0.847813
Si Si8 0.986556 0.137034 0.974251
O O1 0.324784 0.697270 0.142088
O O2 0.068337 0.845435 0.335376
O O3 0.155048 0.738279 0.521588
O O4 0.478223 0.776253 0.659416
O O5 0.832606 0.393132 0.934827
O O6 0.864508 0.473297 0.703015
O O7 0.053383 0.328059 0.541554
O O8 0.218007 0.392367 0.077613
O O9 0.574117 0.576388 0.357442
O O10 0.473532 0.572137 0.791452
O O11 0.716947 0.785745 0.230887
O O12 0.273500 0.827752 0.032599
O O13 0.410462 0.907948 0.027742
O O14 0.877125 0.817468 0.798165
O O15 0.500000 0.000000 0.500000
O O16 0.879080 0.943490 0.947529
O O17 0.500000 0.000000 0.000000
#
# Coordination Sequence:
#
# PCOD9034576 Si02
#       8
#     2   2   2   2   2   2   2   2
#     4  10  25  41  68 103 137 186 236 291 349 425
#     4  10  24  43  72 101 142 188 241 296 359 425
#     4  11  25  45  71 100 148 185 239 298 362 419
#     4  11  24  44  73 100 141 184 232 287 349 413
#     4  11  25  46  68 106 139 190 243 295 358 434
#     4  10  22  45  65 101 140 181 233 293 354 416
#     4  12  27  48  75 104 143 185 228 284 350 416
#     4  11  25  44  72 103 138 181 238 282 350 423
#
# _framework density 25.864647999999999
#
# number of rings (size 3 to 8) (size 9 to 14) (size 15 to 20)
#    0.000    1.250    1.250    2.625   10.500    4.500 
#    4.500    0.000    0.000    0.000    0.000    0.000 
#    0.000    0.000    0.000    0.000    0.000    0.000 
#
# Total GULP energy -89586.049012 kJ/mol
# GULP energy per Si atom -5599.128063 kJ/mol
# Density = 2.580578 g / cm^3
# Si number density = 25.864648 Si / 1000 Ang^3
#
#
#
# Elastic Constant Matrix: (Units=GPa)
#
#
# Indices 1 2 3 4 5 6 
#
# 1 67.0792 10.1171 20.2080 2.3513 16.5396 7.9765
# 2 10.1171 144.6346 23.5983 -5.6041 2.7811 20.8149
# 3 20.2080 23.5983 104.1571 -11.2043 12.2057 12.0633
# 4 2.3513 -5.6041 -11.2043 44.3678 8.5277 3.5536
# 5 16.5396 2.7811 12.2057 8.5277 46.5497 6.5545
# 6 7.9765 20.8149 12.0633 3.5536 6.5545 38.7214
#
#
#
# Elastic Compliance Matrix: (Units=1/GPa)
#
#
# Indices 1 2 3 4 5 6 
#
# 1 0.017201 -0.000487 -0.002496 -0.000493 -0.005113 -0.001593
# 2 -0.000487 0.007718 -0.001152 0.000944 0.000382 -0.003841
# 3 -0.002496 -0.001152 0.011254 0.003456 -0.002305 -0.002300
# 4 -0.000493 0.000944 0.003456 0.024734 -0.004907 -0.002922
# 5 -0.005113 0.000382 -0.002305 -0.004907 0.025094 -0.002232
# 6 -0.001593 -0.003841 -0.002300 -0.002922 -0.002232 0.029581
#
#
# Mechanical properties :
#
#
# Convention : Reuss Voigt Hill
#
# Bulk Modulus (GPa) = 35.84091 47.07974 41.46032
# Shear Modulus (GPa) = 37.55044 43.39096 40.47070
#
# Velocity S-wave (km/s) = 3.81439 4.10032 3.95993
# Velocity P-wave (km/s) = 5.76946 6.37641 6.08051
#
# Compressibility (1/GPa) = 0.02790108
#
# Stress axis : x y z
#
# Youngs Moduli (GPa) = 58.13707 129.56607 88.85401
#
# Poissons Ratio (x) = 0.06316 0.22179
# Poissons Ratio (y) = 0.02834 0.10240
# Poissons Ratio (z) = 0.14512 0.14932
#
# Static dielectric constant tensor:
#      x y z
#    x 2.053990 -0.015840 -0.090490 
#    y -0.015840 2.307970 -0.093410 
#    z -0.090490 -0.093410 2.135020 
# 
# From -- ./inp_files/55671.got.cif
#   From: 2010.05.17/outbox.cif.g08.bks.cpg/sg2_28_cif.got.tgz:55671.got - 2010.06.03 11:33:40.
