data_PCOD9034368
_publ_section_title
;
Structure prediction by ZEFSAII (Michael W. Deem and Ramdas Pophale) SiO2 
 PCOD9034368
Probable space group: P -1
;
_chemical_formula_sum "Si O2"
_cell_formula_units_Z 14
_cell_length_a 9.686097
_cell_length_b 15.167634
_cell_length_c 14.388804
_cell_angle_alpha 153.146493
_cell_angle_beta 63.913667
_cell_angle_gamma 131.286664
_cell_volume 644.741324
_symmetry_space_group_name_H-M "P -1"
_symmetry_group_IT_number 2
_symmetry_cell_setting 'triclinic'
loop_
_space_group_symop_operation_xyz
x,y,z
-x,-y,-z
loop_
_atom_site_type_symbol
_atom_site_label
_atom_site_fract_x
_atom_site_fract_y
_atom_site_fract_z
Si Si1 0.280560 0.734222 0.286884
Si Si2 0.462642 0.792729 0.092092
Si Si3 0.652941 0.616452 0.978102
Si Si4 0.838485 0.413614 0.184655
Si Si5 0.794578 0.395829 0.516157
Si Si6 0.972919 0.130647 0.966307
Si Si7 0.697098 0.558527 0.534593
O O1 0.311167 0.719421 0.154210
O O2 0.284035 0.553750 0.185025
O O3 0.062178 0.647138 0.292797
O O4 0.500000 0.000000 0.500000
O O5 0.657474 0.104808 0.324765
O O6 0.542857 0.642408 0.952915
O O7 0.336414 0.699791 0.947089
O O8 0.886063 0.885563 0.159110
O O9 0.500000 0.500000 0.000000
O O10 0.793067 0.505365 0.374785
O O11 0.846715 0.193046 0.008620
O O12 0.881601 0.632599 0.782325
O O13 0.656028 0.386774 0.472427
O O14 0.000000 0.500000 0.500000
O O15 0.840498 0.859737 0.803504
O O16 0.500000 0.500000 0.500000
#
# Coordination Sequence:
#
# PCOD9034368 Si02
#       7
#     2   2   2   2   2   2   2
#     4  10  22  44  73  98 137 178 226 280 339 408
#     4  11  23  42  70 101 138 176 226 281 347 397
#     4   9  21  38  69  99 127 172 225 279 327 405
#     4  11  25  45  69 100 141 179 218 285 348 401
#     4  12  25  43  71  96 134 188 232 278 331 402
#     4  11  24  45  67  97 136 179 236 276 332 404
#     4  12  28  44  67 101 138 183 228 280 341 398
#
# _framework density 21.714133
#
# number of rings (size 3 to 8) (size 9 to 14) (size 15 to 20)
#    0.000    1.143    1.429    4.286    8.000    1.143 
#    2.571    0.714    0.000    0.000    0.000    0.000 
#    0.000    0.000    0.000    0.000    0.000    0.000 
#
# Total GULP energy -77934.554608 kJ/mol
# GULP energy per Si atom -5566.753901 kJ/mol
# Density = 2.166471 g / cm^3
# Si number density = 21.714133 Si / 1000 Ang^3
#
#
#
# Elastic Constant Matrix: (Units=GPa)
#
#
# Indices 1 2 3 4 5 6 
#
# 1 143.3196 29.6495 23.1106 -0.7427 2.0706 -19.6417
# 2 29.6495 98.6374 30.4026 2.2319 -10.9902 -3.8176
# 3 23.1106 30.4026 80.2517 -0.2354 11.1554 -10.6161
# 4 -0.7427 2.2319 -0.2354 33.2961 -3.0978 3.1187
# 5 2.0706 -10.9902 11.1554 -3.0978 17.3214 -1.9031
# 6 -19.6417 -3.8176 -10.6161 3.1187 -1.9031 46.8021
#
#
#
# Elastic Compliance Matrix: (Units=1/GPa)
#
#
# Indices 1 2 3 4 5 6 
#
# 1 0.007992 -0.002176 -0.000888 -0.000092 -0.001460 0.002922
# 2 -0.002176 0.014400 -0.006841 0.000289 0.013772 -0.000750
# 3 -0.000888 -0.006841 0.017815 -0.001128 -0.015629 0.002550
# 4 -0.000092 0.000289 -0.001128 0.030775 0.006198 -0.002069
# 5 -0.001460 0.013772 -0.015629 0.006198 0.077788 -0.000284
# 6 0.002922 -0.000750 0.002550 -0.002069 -0.000284 0.023236
#
#
# Mechanical properties :
#
#
# Convention : Reuss Voigt Hill
#
# Bulk Modulus (GPa) = 49.02949 54.28155 51.65552
# Shear Modulus (GPa) = 25.17442 35.42033 30.29738
#
# Velocity S-wave (km/s) = 3.40863 4.04321 3.73940
# Velocity P-wave (km/s) = 6.17416 6.84465 6.51803
#
# Compressibility (1/GPa) = 0.02039589
#
# Stress axis : x y z
#
# Youngs Moduli (GPa) = 125.12808 69.44531 56.13294
#
# Poissons Ratio (x) = 0.15112 0.04984
# Poissons Ratio (y) = 0.27228 0.38402
# Poissons Ratio (z) = 0.11111 0.47510
#
# Static dielectric constant tensor:
#      x y z
#    x 1.665080 0.598770 0.791610 
#    y 0.598770 0.937160 -1.910580 
#    z 0.791610 -1.910580 -1.388950 
# 
# From -- ./inp_files/382024.got.cif
#   From: 2010.05.17/outbox.cif.g08.bks.cpg/sg2_192_cif.got.tgz:382024.got - 2010.06.03 11:33:40.
