data_PCOD9034941
_publ_section_title
;
Structure prediction by ZEFSAII (Michael W. Deem and Ramdas Pophale) SiO2 
 PCOD9034941
Probable space group: P -1
;
_chemical_formula_sum "Si O2"
_cell_formula_units_Z 14
_cell_length_a 9.645220
_cell_length_b 12.650378
_cell_length_c 11.486306
_cell_angle_alpha 46.849471
_cell_angle_beta 123.703188
_cell_angle_gamma 142.352376
_cell_volume 624.255585
_symmetry_space_group_name_H-M "P -1"
_symmetry_group_IT_number 2
_symmetry_cell_setting 'triclinic'
loop_
_space_group_symop_operation_xyz
x,y,z
-x,-y,-z
loop_
_atom_site_type_symbol
_atom_site_label
_atom_site_fract_x
_atom_site_fract_y
_atom_site_fract_z
Si Si1 0.130234 0.446455 0.662310
Si Si2 0.272355 0.350155 0.579382
Si Si3 0.439230 0.145487 0.863714
Si Si4 0.544762 0.857763 0.653792
Si Si5 0.306199 0.737800 0.861200
Si Si6 0.888898 0.076138 0.452224
Si Si7 0.126691 0.696628 0.122475
O O1 0.218785 0.396176 0.640262
O O2 0.344215 0.641923 0.676364
O O3 0.000000 0.500000 0.500000
O O4 0.973737 0.301499 0.805013
O O5 0.500000 0.500000 0.500000
O O6 0.279178 0.185906 0.738333
O O7 0.084797 0.282521 0.449878
O O8 0.646258 0.265510 0.775604
O O9 0.588594 0.240984 0.980901
O O10 0.263040 0.907686 0.964181
O O11 0.513592 0.828670 0.799373
O O12 0.500000 0.000000 0.500000
O O13 0.750797 0.939801 0.603938
O O14 0.244911 0.875145 0.716882
O O15 0.080096 0.508473 0.889183
O O16 0.000000 0.000000 0.500000
#
# Coordination Sequence:
#
# PCOD9034941 Si02
#       7
#     2   2   2   2   2   2   2
#     4  11  22  40  70  93 134 176 220 281 332 402
#     4  12  26  45  66 102 133 171 229 282 339 403
#     4  11  25  43  71  95 139 179 224 280 338 407
#     4   9  20  39  62  96 126 174 219 265 331 399
#     4  10  22  45  69  94 135 179 225 274 335 408
#     4  11  24  40  67  98 135 173 223 281 337 397
#     4  10  24  42  66 100 132 180 227 270 346 400
#
# _framework density 22.426711999999998
#
# number of rings (size 3 to 8) (size 9 to 14) (size 15 to 20)
#    0.000    1.429    0.000    5.571   10.000    0.571 
#    2.571    1.429    0.000    0.000    0.000    0.000 
#    0.000    0.000    0.000    0.000    0.000    0.000 
#
# Total GULP energy -77988.973096 kJ/mol
# GULP energy per Si atom -5570.640935 kJ/mol
# Density = 2.237567 g / cm^3
# Si number density = 22.426712 Si / 1000 Ang^3
#
#
#
# Elastic Constant Matrix: (Units=GPa)
#
#
# Indices 1 2 3 4 5 6 
#
# 1 174.0511 30.2128 30.3205 -12.5982 -34.3888 -3.7413
# 2 30.2128 72.3976 28.2163 -8.6759 -21.7957 3.9365
# 3 30.3205 28.2163 51.0878 -2.5619 -6.7997 2.9322
# 4 -12.5982 -8.6759 -2.5619 37.8855 2.3666 -2.1552
# 5 -34.3888 -21.7957 -6.7997 2.3666 45.9259 -9.1911
# 6 -3.7413 3.9365 2.9322 -2.1552 -9.1911 40.1979
#
#
#
# Elastic Compliance Matrix: (Units=1/GPa)
#
#
# Indices 1 2 3 4 5 6 
#
# 1 0.007727 0.000131 -0.003940 0.002117 0.005635 0.002396
# 2 0.000131 0.020654 -0.010239 0.003606 0.008367 0.000843
# 3 -0.003940 -0.010239 0.027061 -0.001699 -0.004193 -0.002388
# 4 0.002117 0.003606 -0.001699 0.027795 0.001996 0.001915
# 5 0.005635 0.008367 -0.004193 0.001996 0.030668 0.007130
# 6 0.002396 0.000843 -0.002388 0.001915 0.007130 0.026924
#
#
# Mechanical properties :
#
#
# Convention : Reuss Voigt Hill
#
# Bulk Modulus (GPa) = 36.56753 52.78175 44.67464
# Shear Modulus (GPa) = 28.08367 38.72099 33.40233
#
# Velocity S-wave (km/s) = 3.54254 4.15969 3.86346
# Velocity P-wave (km/s) = 5.75096 6.83060 6.31390
#
# Compressibility (1/GPa) = 0.02734667
#
# Stress axis : x y z
#
# Youngs Moduli (GPa) = 129.41351 48.41743 36.95354
#
# Poissons Ratio (x) = -0.00633 0.14558
# Poissons Ratio (y) = -0.01691 0.37836
# Poissons Ratio (z) = 0.50983 0.49573
#
# Static dielectric constant tensor:
#      x y z
#    x 1.740530 -0.069220 0.027070 
#    y -0.069220 1.841730 -0.009800 
#    z 0.027070 -0.009800 1.861720 
# 
# From -- ./inp_files/392198.got.cif
#   From: 2010.05.17/outbox.cif.g08.bks.cpg/sg2_197_cif.got.tgz:392198.got - 2010.06.03 11:33:40.
