data_PCOD9034998
_publ_section_title
;
Structure prediction by ZEFSAII (Michael W. Deem and Ramdas Pophale) SiO2 
 PCOD9034998
Probable space group: P -1
;
_chemical_formula_sum "Si O2"
_cell_formula_units_Z 14
_cell_length_a 21.501652
_cell_length_b 10.588228
_cell_length_c 8.646408
_cell_angle_alpha 42.261431
_cell_angle_beta 51.285809
_cell_angle_gamma 26.380558
_cell_volume 583.549757
_symmetry_space_group_name_H-M "P -1"
_symmetry_group_IT_number 2
_symmetry_cell_setting 'triclinic'
loop_
_space_group_symop_operation_xyz
x,y,z
-x,-y,-z
loop_
_atom_site_type_symbol
_atom_site_label
_atom_site_fract_x
_atom_site_fract_y
_atom_site_fract_z
Si Si1 0.151102 0.772293 0.034986
Si Si2 0.848143 0.702041 0.031308
Si Si3 0.712924 0.789838 0.885273
Si Si4 0.544390 0.475877 0.785093
Si Si5 0.851240 0.329480 0.514269
Si Si6 0.329870 0.730333 0.649722
Si Si7 0.606097 0.690689 0.339987
O O1 0.254373 0.425860 0.101388
O O2 0.157649 0.735033 0.242138
O O3 0.199676 0.884474 0.801545
O O4 0.000000 0.000000 0.000000
O O5 0.827551 0.600190 0.298893
O O6 0.838875 0.591254 0.990939
O O7 0.000000 0.500000 0.000000
O O8 0.712674 0.100829 0.859509
O O9 0.693163 0.023981 0.616933
O O10 0.597793 0.904633 0.069295
O O11 0.455364 0.524576 0.760205
O O12 0.505036 0.769078 0.539815
O O13 0.500000 0.500000 0.000000
O O14 0.736891 0.465847 0.454061
O O15 0.000000 0.000000 0.500000
O O16 0.367600 0.514218 0.648685
#
# Coordination Sequence:
#
# PCOD9034998 Si02
#       7
#     2   2   2   2   2   2   2
#     4  11  25  45  70 106 147 190 244 310 366 437
#     4  11  25  45  75 103 144 195 249 295 370 442
#     4  10  24  44  72 108 133 198 243 300 370 430
#     4  12  26  44  72 111 150 194 241 308 371 439
#     4  11  23  45  69 101 145 189 243 300 366 438
#     4  11  24  46  71 102 149 183 249 303 364 437
#     4  10  22  45  70 100 143 188 238 300 361 435
#
# _framework density 23.991099999999999
#
# number of rings (size 3 to 8) (size 9 to 14) (size 15 to 20)
#    0.000    1.143    1.429    4.714    4.000    2.286 
#    7.714    3.571    0.000    0.000    0.000    0.000 
#    0.000    0.000    0.000    0.000    0.000    0.000 
#
# Total GULP energy -78219.768208 kJ/mol
# GULP energy per Si atom -5587.126301 kJ/mol
# Density = 2.393650 g / cm^3
# Si number density = 23.991100 Si / 1000 Ang^3
#
#
#
# Elastic Constant Matrix: (Units=GPa)
#
#
# Indices 1 2 3 4 5 6 
#
# 1 140.3448 37.8594 82.9406 9.7837 2.8068 -36.2656
# 2 37.8594 60.4206 64.3270 13.3041 -0.5802 -26.6420
# 3 82.9406 64.3270 268.3408 26.2047 -17.5073 -7.5737
# 4 9.7837 13.3041 26.2047 40.6487 0.2426 -0.6515
# 5 2.8068 -0.5802 -17.5073 0.2426 60.8455 2.3685
# 6 -36.2656 -26.6420 -7.5737 -0.6515 2.3685 43.5508
#
#
#
# Elastic Compliance Matrix: (Units=1/GPa)
#
#
# Indices 1 2 3 4 5 6 
#
# 1 0.011586 0.000986 -0.003609 -0.000617 -0.001939 0.009719
# 2 0.000986 0.034390 -0.007526 -0.006295 -0.002660 0.020600
# 3 -0.003609 -0.007526 0.006719 -0.001119 0.002289 -0.006582
# 4 -0.000617 -0.006295 -0.001119 0.027467 -0.000302 -0.004132
# 5 -0.001939 -0.002660 0.002289 -0.000302 0.017306 -0.003790
# 6 0.009719 0.020600 -0.006582 -0.004132 -0.003790 0.042657
#
#
# Mechanical properties :
#
#
# Convention : Reuss Voigt Hill
#
# Bulk Modulus (GPa) = 30.86824 93.26226 62.06525
# Shear Modulus (GPa) = 29.20189 47.94093 38.57141
#
# Velocity S-wave (km/s) = 3.49262 4.47506 4.01401
# Velocity P-wave (km/s) = 5.39991 8.10306 6.88544
#
# Compressibility (1/GPa) = 0.03239575
#
# Stress axis : x y z
#
# Youngs Moduli (GPa) = 86.31365 29.07857 148.82842
#
# Poissons Ratio (x) = -0.02867 0.53717
# Poissons Ratio (y) = -0.08511 1.12009
# Poissons Ratio (z) = 0.31153 0.21885
#
# Static dielectric constant tensor:
#      x y z
#    x 1.898020 0.032860 -0.059420 
#    y 0.032860 2.020910 -0.014220 
#    z -0.059420 -0.014220 1.971150 
# 
# From -- ./inp_files/344959.got.cif
#   From: 2010.05.17/outbox.cif.g08.bks.cpg/sg2_173_cif.got.tgz:344959.got - 2010.06.03 11:33:40.
