data_PCOD9034676
_publ_section_title
;
Structure prediction by ZEFSAII (Michael W. Deem and Ramdas Pophale) SiO2 
 PCOD9034676
Probable space group: P -1
;
_chemical_formula_sum "Si O2"
_cell_formula_units_Z 16
_cell_length_a 21.916701
_cell_length_b 19.328380
_cell_length_c 8.891006
_cell_angle_alpha 41.717440
_cell_angle_beta 138.684841
_cell_angle_gamma 161.958404
_cell_volume 760.448162
_symmetry_space_group_name_H-M "P -1"
_symmetry_group_IT_number 2
_symmetry_cell_setting 'triclinic'
loop_
_space_group_symop_operation_xyz
x,y,z
-x,-y,-z
loop_
_atom_site_type_symbol
_atom_site_label
_atom_site_fract_x
_atom_site_fract_y
_atom_site_fract_z
Si Si1 0.136723 0.861323 0.223201
Si Si2 0.649059 0.584523 0.237651
Si Si3 0.915245 0.539932 0.607518
Si Si4 0.713457 0.014784 0.221520
Si Si5 0.296693 0.854613 0.294598
Si Si6 0.006019 0.063994 0.245241
Si Si7 0.369894 0.306172 0.453221
Si Si8 0.455891 0.734216 0.497141
O O1 0.195812 0.824421 0.286335
O O2 0.982375 0.680687 0.364969
O O3 0.349942 0.099982 0.311612
O O4 0.042154 0.862647 0.953616
O O5 0.528959 0.446168 0.391861
O O6 0.689640 0.511204 0.372089
O O7 0.500000 0.500000 0.000000
O O8 0.833307 0.840216 0.192552
O O9 0.882067 0.397117 0.693345
O O10 0.691842 0.328801 0.605694
O O11 0.084513 0.733696 0.734456
O O12 0.729059 0.908565 0.367140
O O13 0.547829 0.853511 0.310981
O O14 0.648151 0.015766 0.954296
O O15 0.500000 0.000000 0.500000
O O16 0.199006 0.221375 0.253181
O O17 0.000000 0.000000 0.500000
O O18 0.500000 0.500000 0.500000
#
# Coordination Sequence:
#
# PCOD9034676 Si02
#       8
#     2   2   2   2   2   2   2   2
#     4  11  25  43  69 103 138 172 235 286 336 410
#     4  11  23  39  66  97 136 176 228 270 329 405
#     4  11  24  48  71  97 137 182 229 284 348 399
#     4  10  25  46  71 102 137 174 235 280 334 422
#     4  12  25  47  73 100 135 181 228 294 346 397
#     4  12  24  41  67 100 140 182 222 277 339 407
#     4  11  24  43  68 102 139 179 224 271 341 407
#     4  10  22  45  67 100 136 181 223 281 342 406
#
# _framework density 21.040226000000001
#
# number of rings (size 3 to 8) (size 9 to 14) (size 15 to 20)
#    0.000    1.000    3.750    2.250    1.750    2.000 
#    4.500    0.000    0.000    0.000    0.000    0.000 
#    0.000    0.000    0.000    0.000    0.000    0.000 
#
# Total GULP energy -89121.245046 kJ/mol
# GULP energy per Si atom -5570.077815 kJ/mol
# Density = 2.099234 g / cm^3
# Si number density = 21.040226 Si / 1000 Ang^3
#
#
#
# Elastic Constant Matrix: (Units=GPa)
#
#
# Indices 1 2 3 4 5 6 
#
# 1 88.8893 21.1785 34.1292 2.4693 7.1875 -2.4176
# 2 21.1785 101.2537 22.0805 7.5690 10.2797 -9.9724
# 3 34.1292 22.0805 92.5740 12.3555 2.8730 -8.1781
# 4 2.4693 7.5690 12.3555 22.2102 -3.9795 4.2524
# 5 7.1875 10.2797 2.8730 -3.9795 25.0796 2.4076
# 6 -2.4176 -9.9724 -8.1781 4.2524 2.4076 43.3594
#
#
#
# Elastic Compliance Matrix: (Units=1/GPa)
#
#
# Indices 1 2 3 4 5 6 
#
# 1 0.013634 -0.001728 -0.004777 0.001409 -0.002376 -0.000544
# 2 -0.001728 0.011663 -0.001076 -0.004718 -0.005211 0.003135
# 3 -0.004777 -0.001076 0.014167 -0.007796 -0.001338 0.002997
# 4 0.001409 -0.004718 -0.007796 0.054570 0.011897 -0.008489
# 5 -0.002376 -0.005211 -0.001338 0.011897 0.045236 -0.005262
# 6 -0.000544 0.003135 0.002997 -0.008489 -0.005262 0.025444
#
#
# Mechanical properties :
#
#
# Convention : Reuss Voigt Hill
#
# Bulk Modulus (GPa) = 41.14940 48.61037 44.87989
# Shear Modulus (GPa) = 26.59925 31.81843 29.20884
#
# Velocity S-wave (km/s) = 3.55943 3.89301 3.72995
# Velocity P-wave (km/s) = 6.04092 6.58491 6.31877
#
# Compressibility (1/GPa) = 0.02430169
#
# Stress axis : x y z
#
# Youngs Moduli (GPa) = 73.34723 85.74256 70.58773
#
# Poissons Ratio (x) = 0.14814 0.33717
# Poissons Ratio (y) = 0.12672 0.07599
# Poissons Ratio (z) = 0.35035 0.09230
#
# Static dielectric constant tensor:
#      x y z
#    x 1.841570 -0.027020 0.034710 
#    y -0.027020 1.714880 -0.035040 
#    z 0.034710 -0.035040 1.789630 
# 
# From -- ./inp_files/328077.got.cif
#   From: 2010.05.17/outbox.cif.g08.bks.cpg/sg2_165_cif.got.tgz:328077.got - 2010.06.03 11:33:40.
