data_PCOD9034937
_publ_section_title
;
Structure prediction by ZEFSAII (Michael W. Deem and Ramdas Pophale) SiO2 
 PCOD9034937
Probable space group: P -1
;
_chemical_formula_sum "Si O2"
_cell_formula_units_Z 15
_cell_length_a 9.464410
_cell_length_b 12.778259
_cell_length_c 10.589055
_cell_angle_alpha 147.222651
_cell_angle_beta 66.436542
_cell_angle_gamma 98.984198
_cell_volume 592.234194
_symmetry_space_group_name_H-M "P -1"
_symmetry_group_IT_number 2
_symmetry_cell_setting 'triclinic'
loop_
_space_group_symop_operation_xyz
x,y,z
-x,-y,-z
loop_
_atom_site_type_symbol
_atom_site_label
_atom_site_fract_x
_atom_site_fract_y
_atom_site_fract_z
Si Si1 0.453393 0.322716 0.725586
Si Si2 0.623736 0.500321 0.641525
Si Si3 0.252584 0.775898 0.325324
Si Si4 0.059207 0.223137 0.459948
Si Si5 0.995831 0.325642 0.105679
Si Si6 0.683036 0.215755 0.095906
Si Si7 0.812721 0.833941 0.379495
Si Si8 0.000000 0.500000 0.500000
O O1 0.566684 0.416713 0.701644
O O2 0.580139 0.198100 0.660714
O O3 0.362326 0.187362 0.556600
O O4 0.305661 0.532917 0.033923
O O5 0.625558 0.327550 0.362596
O O6 0.474266 0.707425 0.860830
O O7 0.798318 0.523856 0.611085
O O8 0.102183 0.837675 0.541503
O O9 0.194560 0.930128 0.384358
O O10 0.036480 0.427805 0.594772
O O11 0.074805 0.279223 0.658362
O O12 0.222159 0.029417 0.176125
O O13 0.827103 0.305405 0.098538
O O14 0.041075 0.260614 0.166714
O O15 0.122129 0.250266 0.869296
#
# Coordination Sequence:
#
# PCOD9034937 Si02
#       8
#     2   2   2   2   2   2   2   1
#     4  11  24  43  64  97 138 173 216 273 324 399
#     4  10  22  45  69  93 131 179 216 272 330 381
#     4  11  24  40  64  97 136 174 214 267 334 384
#     4  12  23  41  68 102 129 174 221 270 326 390
#     4  11  23  43  67  97 134 172 220 265 330 385
#     4  10  23  44  67  96 134 171 224 269 319 394
#     4  12  24  40  66 101 133 170 219 271 328 387
#     4  10  24  46  68  92 128 180 216 270 322 388
#
# _framework density 25.327819000000002
#
# number of rings (size 3 to 8) (size 9 to 14) (size 15 to 20)
#    0.000    1.067    2.667    3.600    3.733    0.000 
#    4.800   12.667    0.000    0.000    0.000    0.000 
#    0.000    0.000    0.000    0.000    0.000    0.000 
#
# Total GULP energy -83686.875901 kJ/mol
# GULP energy per Si atom -5579.125060 kJ/mol
# Density = 2.527017 g / cm^3
# Si number density = 25.327819 Si / 1000 Ang^3
#
#
#
# Elastic Constant Matrix: (Units=GPa)
#
#
# Indices 1 2 3 4 5 6 
#
# 1 147.5803 31.2833 16.6804 -0.1817 -1.9820 -0.0380
# 2 31.2833 76.2640 13.8919 1.8452 -10.3027 5.3071
# 3 16.6804 13.8919 103.7943 -9.1976 -5.2866 -7.8253
# 4 -0.1817 1.8452 -9.1976 41.5370 -3.6087 -4.2384
# 5 -1.9820 -10.3027 -5.2866 -3.6087 34.9352 -0.1136
# 6 -0.0380 5.3071 -7.8253 -4.2384 -0.1136 35.2819
#
#
#
# Elastic Compliance Matrix: (Units=1/GPa)
#
#
# Indices 1 2 3 4 5 6 
#
# 1 0.007502 -0.003028 -0.000813 -0.000036 -0.000593 0.000277
# 2 -0.003028 0.015420 -0.001673 -0.001006 0.004009 -0.002802
# 3 -0.000813 -0.001673 0.010529 0.002819 0.001354 0.002929
# 4 -0.000036 -0.001006 0.002819 0.025375 0.002761 0.003834
# 5 -0.000593 0.004009 0.001354 0.002761 0.030264 0.000126
# 6 0.000277 -0.002802 0.002929 0.003834 0.000126 0.029875
#
#
# Mechanical properties :
#
#
# Convention : Reuss Voigt Hill
#
# Bulk Modulus (GPa) = 44.59816 50.14998 47.37407
# Shear Modulus (GPa) = 36.37251 40.06969 38.22110
#
# Velocity S-wave (km/s) = 3.79366 3.98181 3.88887
# Velocity P-wave (km/s) = 6.06925 6.40180 6.23774
#
# Compressibility (1/GPa) = 0.02242245
#
# Stress axis : x y z
#
# Youngs Moduli (GPa) = 133.30324 64.85052 94.97911
#
# Poissons Ratio (x) = 0.19634 0.07720
# Poissons Ratio (y) = 0.40359 0.15895
# Poissons Ratio (z) = 0.10836 0.10853
#
# Static dielectric constant tensor:
#      x y z
#    x 1.957680 -0.156800 0.050340 
#    y -0.156800 2.206420 -0.085340 
#    z 0.050340 -0.085340 2.109460 
# 
# From -- ./inp_files/236574.got.cif
#   From: 2010.05.17/outbox.cif.g08.bks.cpg/sg2_119_cif.got.tgz:236574.got - 2010.06.03 11:33:40.
