data_PCOD9034712
_publ_section_title
;
Structure prediction by ZEFSAII (Michael W. Deem and Ramdas Pophale) SiO2 
 PCOD9034712
Probable space group: P -1
;
_chemical_formula_sum "Si O2"
_cell_formula_units_Z 16
_cell_length_a 10.555486
_cell_length_b 13.330314
_cell_length_c 5.619924
_cell_angle_alpha 58.856536
_cell_angle_beta 96.931204
_cell_angle_gamma 87.200208
_cell_volume 666.066902
_symmetry_space_group_name_H-M "P -1"
_symmetry_group_IT_number 2
_symmetry_cell_setting 'triclinic'
loop_
_space_group_symop_operation_xyz
x,y,z
-x,-y,-z
loop_
_atom_site_type_symbol
_atom_site_label
_atom_site_fract_x
_atom_site_fract_y
_atom_site_fract_z
Si Si1 0.304433 0.587783 0.761412
Si Si2 0.395917 0.927819 0.234193
Si Si3 0.061872 0.109360 0.501549
Si Si4 0.851279 0.199500 0.658713
Si Si5 0.559162 0.583985 0.600340
Si Si6 0.034205 0.665040 0.099465
Si Si7 0.816422 0.569709 0.465641
Si Si8 0.637433 0.947524 0.419499
O O1 0.197726 0.696346 0.668170
O O2 0.423963 0.645094 0.600367
O O3 0.236351 0.504774 0.670460
O O4 0.369928 0.505539 0.080797
O O5 0.260705 0.879459 0.270173
O O6 0.533987 0.859263 0.438172
O O7 0.375348 0.019712 0.344653
O O8 0.407620 0.956352 0.918875
O O9 0.214219 0.084322 0.568129
O O10 0.987373 0.129029 0.709092
O O11 0.000000 0.000000 0.500000
O O12 0.032338 0.238212 0.214362
O O13 0.862425 0.266323 0.825369
O O14 0.500000 0.500000 0.500000
O O15 0.683242 0.637729 0.457514
O O16 0.104492 0.532209 0.223664
O O17 0.922377 0.643459 0.292127
#
# Coordination Sequence:
#
# PCOD9034712 Si02
#       8
#     2   2   2   2   2   2   2   2
#     4   9  19  36  61  89 125 166 214 264 333 403
#     4  10  22  45  67  93 130 178 223 279 343 400
#     4  12  24  40  64  95 130 172 220 282 330 408
#     4  11  23  39  63  91 126 172 220 269 338 405
#     4   9  17  35  59  85 120 164 208 268 327 390
#     4  10  23  39  62  93 127 171 219 270 343 396
#     4   9  19  40  61  88 129 167 213 276 326 406
#     4  10  23  43  68  92 132 176 222 283 338 403
#
# _framework density 24.021609000000002
#
# number of rings (size 3 to 8) (size 9 to 14) (size 15 to 20)
#    0.000    2.000    1.250    1.500    1.750    2.000 
#    9.000    3.750    0.000    0.000    0.000    0.000 
#    0.000    0.000    0.000    0.000    0.000    0.000 
#
# Total GULP energy -89076.646161 kJ/mol
# GULP energy per Si atom -5567.290385 kJ/mol
# Density = 2.396693 g / cm^3
# Si number density = 24.021609 Si / 1000 Ang^3
#
#
#
# Elastic Constant Matrix: (Units=GPa)
#
#
# Indices 1 2 3 4 5 6 
#
# 1 189.0538 38.4222 15.6628 3.6349 15.8077 -7.3445
# 2 38.4222 54.1893 13.7338 6.8275 -5.2989 -6.3756
# 3 15.6628 13.7338 80.5113 6.6655 7.5053 0.7045
# 4 3.6349 6.8275 6.6655 15.7356 2.2756 1.1678
# 5 15.8077 -5.2989 7.5053 2.2756 34.8203 -3.9257
# 6 -7.3445 -6.3756 0.7045 1.1678 -3.9257 49.2055
#
#
#
# Elastic Compliance Matrix: (Units=1/GPa)
#
#
# Indices 1 2 3 4 5 6 
#
# 1 0.006665 -0.005241 -0.000153 0.001363 -0.003882 -0.000024
# 2 -0.005241 0.025425 -0.003277 -0.009842 0.007984 0.003430
# 3 -0.000153 -0.003277 0.013630 -0.003792 -0.003210 -0.000809
# 4 0.001363 -0.009842 -0.003792 0.070252 -0.006249 -0.003183
# 5 -0.003882 0.007984 -0.003210 -0.006249 0.033168 0.003296
# 6 -0.000024 0.003430 -0.000809 -0.003183 0.003296 0.021114
#
#
# Mechanical properties :
#
#
# Convention : Reuss Voigt Hill
#
# Bulk Modulus (GPa) = 35.23988 51.04354 43.14171
# Shear Modulus (GPa) = 25.37373 37.01465 31.19419
#
# Velocity S-wave (km/s) = 3.25358 3.92968 3.60750
# Velocity P-wave (km/s) = 5.36808 6.47186 5.94564
#
# Compressibility (1/GPa) = 0.02837694
#
# Stress axis : x y z
#
# Youngs Moduli (GPa) = 150.04277 39.33203 73.36913
#
# Poissons Ratio (x) = 0.20613 0.01125
# Poissons Ratio (y) = 0.78635 0.24043
# Poissons Ratio (z) = 0.02300 0.12889
#
# Static dielectric constant tensor:
#      x y z
#    x 2.037040 -0.031560 -0.073830 
#    y -0.031560 1.926750 -0.052440 
#    z -0.073830 -0.052440 2.056320 
# 
# From -- ./inp_files/77205.got.cif
#   From: 2010.05.17/outbox.cif.g08.bks.cpg/sg2_39_cif.got.tgz:77205.got - 2010.06.03 11:33:40.
