data_PCOD9034041
_publ_section_title
;
Structure prediction by ZEFSAII (Michael W. Deem and Ramdas Pophale) SiO2 
 PCOD9034041
Probable space group: P -1
;
_chemical_formula_sum "Si O2"
_cell_formula_units_Z 14
_cell_length_a 5.378579
_cell_length_b 25.129652
_cell_length_c 7.922164
_cell_angle_alpha 35.318320
_cell_angle_beta 64.864475
_cell_angle_gamma 75.475765
_cell_volume 550.947945
_symmetry_space_group_name_H-M "P -1"
_symmetry_group_IT_number 2
_symmetry_cell_setting 'triclinic'
loop_
_space_group_symop_operation_xyz
x,y,z
-x,-y,-z
loop_
_atom_site_type_symbol
_atom_site_label
_atom_site_fract_x
_atom_site_fract_y
_atom_site_fract_z
Si Si1 0.239929 0.692283 0.303099
Si Si2 0.373161 0.595628 0.820581
Si Si3 0.827742 0.493341 0.395779
Si Si4 0.522606 0.916756 0.964240
Si Si5 0.253144 0.242136 0.534981
Si Si6 0.556609 0.109487 0.323928
Si Si7 0.019556 0.106490 0.651908
O O1 0.447387 0.658165 0.468044
O O2 0.164875 0.606874 0.423739
O O3 0.998587 0.713637 0.437266
O O4 0.323597 0.785955 0.930321
O O5 0.493093 0.668905 0.746031
O O6 0.500000 0.500000 0.000000
O O7 0.039331 0.563261 0.031583
O O8 0.500000 0.500000 0.500000
O O9 0.000000 0.500000 0.500000
O O10 0.372691 0.901311 0.865048
O O11 0.635821 0.027409 0.629149
O O12 0.721455 0.843627 0.123283
O O13 0.303907 0.887493 0.255092
O O14 0.175551 0.188632 0.518872
O O15 0.221717 0.105826 0.437559
O O16 0.000000 0.000000 0.000000
#
# Coordination Sequence:
#
# PCOD9034041 Si02
#       7
#     2   2   2   2   2   2   2
#     4  12  26  48  74 107 148 203 260 316 401 476
#     4  12  26  50  78 106 150 207 262 326 400 479
#     4  12  30  50  80 117 158 200 268 338 402 478
#     4  10  22  46  66 104 147 195 246 316 384 457
#     4  12  24  44  76 104 150 203 261 307 404 462
#     4  10  22  44  71 100 150 190 250 316 379 467
#     4  10  23  44  69 106 150 199 254 322 379 460
#
# _framework density 25.410748999999999
#
# number of rings (size 3 to 8) (size 9 to 14) (size 15 to 20)
#    0.000    0.857    4.286    1.286    4.000    4.000 
#    2.571    0.000    0.000    0.000    0.000    0.000 
#    0.000    0.000    0.000    0.000    0.000    0.000 
#
# Total GULP energy -78159.335338 kJ/mol
# GULP energy per Si atom -5582.809667 kJ/mol
# Density = 2.535291 g / cm^3
# Si number density = 25.410749 Si / 1000 Ang^3
#
#
#
# Elastic Constant Matrix: (Units=GPa)
#
#
# Indices 1 2 3 4 5 6 
#
# 1 82.4472 43.3569 45.0391 -22.2251 -0.6283 -12.4743
# 2 43.3569 149.2692 51.7780 -30.5461 -5.4331 2.5500
# 3 45.0391 51.7780 159.2140 -39.5439 -7.7413 -16.8854
# 4 -22.2251 -30.5461 -39.5439 47.9967 -0.4909 -7.7803
# 5 -0.6283 -5.4331 -7.7413 -0.4909 45.4784 -6.8242
# 6 -12.4743 2.5500 -16.8854 -7.7803 -6.8242 43.4908
#
#
#
# Elastic Compliance Matrix: (Units=1/GPa)
#
#
# Indices 1 2 3 4 5 6 
#
# 1 0.017111 -0.003345 -0.001904 0.005095 0.000368 0.005334
# 2 -0.003345 0.008732 -0.001355 0.002667 0.000581 -0.001429
# 3 -0.001904 -0.001355 0.009626 0.007001 0.002258 0.004877
# 4 0.005095 0.002667 0.007001 0.032374 0.003485 0.010361
# 5 0.000368 0.000581 0.002258 0.003485 0.023269 0.005223
# 6 0.005334 -0.001429 0.004877 0.010361 0.005223 0.029174
#
#
# Mechanical properties :
#
#
# Convention : Reuss Voigt Hill
#
# Bulk Modulus (GPa) = 44.91881 74.58650 59.75265
# Shear Modulus (GPa) = 35.48314 44.11028 39.79671
#
# Velocity S-wave (km/s) = 3.74087 4.17092 3.96174
# Velocity P-wave (km/s) = 6.03111 7.25338 6.67030
#
# Compressibility (1/GPa) = 0.02226239
#
# Stress axis : x y z
#
# Youngs Moduli (GPa) = 58.44148 114.52159 103.88914
#
# Poissons Ratio (x) = 0.38307 0.19778
# Poissons Ratio (y) = 0.19548 0.14072
# Poissons Ratio (z) = 0.11126 0.15512
#
# Static dielectric constant tensor:
#      x y z
#    x 3.035540 0.698060 0.335890 
#    y 0.698060 2.566170 0.340990 
#    z 0.335890 0.340990 2.240820 
# 
# From -- ./inp_files/38370.got.cif
#   From: 2010.05.17/outbox.cif.g08.bks.cpg/sg2_20_cif.got.tgz:38370.got - 2010.06.03 11:33:40.
