data_PCOD9034087
_publ_section_title
;
Structure prediction by ZEFSAII (Michael W. Deem and Ramdas Pophale) SiO2 
 PCOD9034087
Probable space group: P -1
;
_chemical_formula_sum "Si O2"
_cell_formula_units_Z 11
_cell_length_a 10.204319
_cell_length_b 7.264047
_cell_length_c 11.656717
_cell_angle_alpha 57.520990
_cell_angle_beta 138.548975
_cell_angle_gamma 136.411283
_cell_volume 394.336580
_symmetry_space_group_name_H-M "P -1"
_symmetry_group_IT_number 2
_symmetry_cell_setting 'triclinic'
loop_
_space_group_symop_operation_xyz
x,y,z
-x,-y,-z
loop_
_atom_site_type_symbol
_atom_site_label
_atom_site_fract_x
_atom_site_fract_y
_atom_site_fract_z
Si Si1 0.113718 0.778861 0.852990
Si Si2 0.606669 0.870821 0.768026
Si Si3 0.758811 0.549673 0.506306
Si Si4 0.494030 0.165572 0.777979
Si Si5 0.000000 0.500000 0.500000
Si Si6 0.111782 0.214493 0.857054
O O1 0.872826 0.567618 0.696679
O O2 0.307984 0.971443 0.819136
O O3 0.241660 0.667758 0.044478
O O4 0.086289 0.972929 0.850249
O O5 0.402577 0.719034 0.586497
O O6 0.515906 0.004793 0.745005
O O7 0.864976 0.080893 0.811552
O O8 0.661940 0.688923 0.941475
O O9 0.596410 0.657350 0.377920
O O10 0.973433 0.699984 0.503013
O O11 0.113021 0.423769 0.705859
#
# Coordination Sequence:
#
# PCOD9034087 Si02
#       6
#     2   2   2   2   1   2
#     4  10  22  44  71 104 146 184 246 291 352 422
#     4  10  25  48  73 103 149 188 234 296 366 411
#     4  12  25  41  73 110 137 189 242 295 349 429
#     4  10  22  45  71 102 145 192 234 297 350 430
#     4  12  26  42  76 108 140 188 246 286 358 428
#     4  10  24  50  71 104 149 190 233 298 356 431
#
# _framework density 27.894953000000001
#
# number of rings (size 3 to 8) (size 9 to 14) (size 15 to 20)
#    0.000    1.455    1.818    1.636    5.091    2.182 
#    3.273    2.727    0.000    0.000    0.000    0.000 
#    0.000    0.000    0.000    0.000    0.000    0.000 
#
# Total GULP energy -61510.838667 kJ/mol
# GULP energy per Si atom -5591.894424 kJ/mol
# Density = 2.783146 g / cm^3
# Si number density = 27.894953 Si / 1000 Ang^3
#
#
#
# Elastic Constant Matrix: (Units=GPa)
#
#
# Indices 1 2 3 4 5 6 
#
# 1 198.9098 54.0515 64.4491 1.3041 46.4368 -31.6777
# 2 54.0515 171.6247 119.8773 15.8761 111.5722 1.8169
# 3 64.4491 119.8773 311.8341 17.1196 48.6504 -18.3547
# 4 1.3041 15.8761 17.1196 45.8077 12.4281 6.8039
# 5 46.4368 111.5722 48.6504 12.4281 157.3818 11.6267
# 6 -31.6777 1.8169 -18.3547 6.8039 11.6267 60.0338
#
#
#
# Elastic Compliance Matrix: (Units=1/GPa)
#
#
# Indices 1 2 3 4 5 6 
#
# 1 0.006292 -0.000625 -0.000638 0.000171 -0.001482 0.003412
# 2 -0.000625 0.014829 -0.004124 -0.001125 -0.008952 -0.000178
# 3 -0.000638 -0.004124 0.004782 -0.000937 0.001630 0.001041
# 4 0.000171 -0.001125 -0.000937 0.023123 -0.000592 -0.002668
# 5 -0.001482 -0.008952 0.001630 -0.000592 0.012860 -0.002436
# 6 0.003412 -0.000178 0.001041 -0.002668 -0.002436 0.019555
#
#
# Mechanical properties :
#
#
# Convention : Reuss Voigt Hill
#
# Bulk Modulus (GPa) = 66.08765 128.79162 97.43963
# Shear Modulus (GPa) = 51.40997 82.24404 66.82700
#
# Velocity S-wave (km/s) = 4.29766 5.43576 4.89986
# Velocity P-wave (km/s) = 6.95482 9.25565 8.18647
#
# Compressibility (1/GPa) = 0.01513142
#
# Stress axis : x y z
#
# Youngs Moduli (GPa) = 158.93298 67.43418 209.10730
#
# Poissons Ratio (x) = 0.04212 0.13333
# Poissons Ratio (y) = 0.09928 0.86231
# Poissons Ratio (z) = 0.10134 0.27808
#
# Static dielectric constant tensor:
#      x y z
#    x 1.813490 -0.198890 -0.268580 
#    y -0.198890 1.951550 -0.152050 
#    z -0.268580 -0.152050 1.970460 
# 
# From -- ./inp_files/374962.got.cif
#   From: 2010.05.17/outbox.cif.g08.bks.cpg/sg2_188_cif.got.tgz:374962.got - 2010.06.03 11:33:40.
