data_PCOD9034735
_publ_section_title
;
Structure prediction by ZEFSAII (Michael W. Deem and Ramdas Pophale) SiO2 
 PCOD9034735
Probable space group: P -1
;
_chemical_formula_sum "Si O2"
_cell_formula_units_Z 16
_cell_length_a 5.256571
_cell_length_b 25.171926
_cell_length_c 15.728943
_cell_angle_alpha 158.934248
_cell_angle_beta 111.247620
_cell_angle_gamma 69.906322
_cell_volume 697.131122
_symmetry_space_group_name_H-M "P -1"
_symmetry_group_IT_number 2
_symmetry_cell_setting 'triclinic'
loop_
_space_group_symop_operation_xyz
x,y,z
-x,-y,-z
loop_
_atom_site_type_symbol
_atom_site_label
_atom_site_fract_x
_atom_site_fract_y
_atom_site_fract_z
Si Si1 0.929151 0.793660 0.858982
Si Si2 0.537584 0.675047 0.778504
Si Si3 0.713370 0.578466 0.371314
Si Si4 0.403412 0.129322 0.619355
Si Si5 0.244815 0.377037 0.092599
Si Si6 0.790909 0.611208 0.240050
Si Si7 0.970800 0.113997 0.399337
Si Si8 0.718254 0.296193 0.781812
O O1 0.249770 0.752844 0.838783
O O2 0.776503 0.728434 0.825531
O O3 0.796405 0.713096 0.642303
O O4 0.895308 0.969402 0.123284
O O5 0.500000 0.500000 0.500000
O O6 0.619573 0.697677 0.919661
O O7 0.460076 0.493052 0.253452
O O8 0.659712 0.629670 0.344951
O O9 0.977818 0.467555 0.228141
O O10 0.235077 0.080028 0.441852
O O11 0.660058 0.220639 0.751949
O O12 0.500000 0.000000 0.500000
O O13 0.217357 0.244344 0.822867
O O14 0.988868 0.745918 0.447850
O O15 0.576912 0.630026 0.166259
O O16 0.899162 0.441787 0.002220
O O17 0.760720 0.170048 0.528925
#
# Coordination Sequence:
#
# PCOD9034735 Si02
#       8
#     2   2   2   2   2   2   2   2
#     4  12  26  44  70 103 143 180 234 283 347 418
#     4  12  23  46  69 100 141 189 228 274 345 416
#     4  12  24  44  69 105 130 179 239 287 333 404
#     4  11  25  43  65 105 140 177 225 289 351 413
#     4  12  25  42  71 101 138 179 233 284 339 409
#     4  10  23  42  71  93 135 178 242 287 338 405
#     4  11  26  43  68  97 142 187 223 287 358 404
#     4  10  22  45  67  97 132 183 236 278 351 411
#
# _framework density 22.951203
#
# number of rings (size 3 to 8) (size 9 to 14) (size 15 to 20)
#    0.000    0.750    3.750    3.000    7.000    1.000 
#    0.000    0.625    0.000    0.000    0.000    0.000 
#    0.000    0.000    0.000    0.000    0.000    0.000 
#
# Total GULP energy -89461.847804 kJ/mol
# GULP energy per Si atom -5591.365488 kJ/mol
# Density = 2.289897 g / cm^3
# Si number density = 22.951203 Si / 1000 Ang^3
#
#
#
# Elastic Constant Matrix: (Units=GPa)
#
#
# Indices 1 2 3 4 5 6 
#
# 1 89.5360 11.9511 28.0244 8.7500 -5.7318 15.1502
# 2 11.9511 114.1172 33.6016 8.2719 5.5033 18.8503
# 3 28.0244 33.6016 170.8183 4.1441 -4.1024 8.3013
# 4 8.7500 8.2719 4.1441 50.3415 -6.4459 -3.4280
# 5 -5.7318 5.5033 -4.1024 -6.4459 22.5400 -5.8557
# 6 15.1502 18.8503 8.3013 -3.4280 -5.8557 28.8135
#
#
#
# Elastic Compliance Matrix: (Units=1/GPa)
#
#
# Indices 1 2 3 4 5 6 
#
# 1 0.013134 0.000490 -0.001842 -0.002643 0.000325 -0.006944
# 2 0.000490 0.011239 -0.001941 -0.003147 -0.006125 -0.008670
# 3 -0.001842 -0.001941 0.006531 0.000337 0.001471 0.000695
# 4 -0.002643 -0.003147 0.000337 0.022442 0.008593 0.007768
# 5 0.000325 -0.006125 0.001471 0.008593 0.052598 0.015124
# 6 -0.006944 -0.008670 0.000695 0.007768 0.015124 0.047827
#
#
# Mechanical properties :
#
#
# Convention : Reuss Voigt Hill
#
# Bulk Modulus (GPa) = 41.12027 57.95844 49.53936
# Shear Modulus (GPa) = 29.68026 40.39863 35.03944
#
# Velocity S-wave (km/s) = 3.60000 4.20002 3.91153
# Velocity P-wave (km/s) = 5.93593 6.98770 6.48318
#
# Compressibility (1/GPa) = 0.02431891
#
# Stress axis : x y z
#
# Youngs Moduli (GPa) = 76.13929 88.97877 153.10640
#
# Poissons Ratio (x) = -0.04357 0.28197
# Poissons Ratio (y) = -0.03729 0.29710
# Poissons Ratio (z) = 0.14022 0.17266
#
# Static dielectric constant tensor:
#      x y z
#    x 1.960670 -0.075910 0.048750 
#    y -0.075910 1.890450 -0.031540 
#    z 0.048750 -0.031540 1.877260 
# 
# From -- ./inp_files/72217.got.cif
#   From: 2010.05.17/outbox.cif.g08.bks.cpg/sg2_37_cif.got.tgz:72217.got - 2010.06.03 11:33:40.
