data_PCOD9034866
_publ_section_title
;
Structure prediction by ZEFSAII (Michael W. Deem and Ramdas Pophale) SiO2 
 PCOD9034866
Probable space group: P -1
;
_chemical_formula_sum "Si O2"
_cell_formula_units_Z 15
_cell_length_a 16.482688
_cell_length_b 5.408552
_cell_length_c 9.626938
_cell_angle_alpha 108.459136
_cell_angle_beta 127.665906
_cell_angle_gamma 81.344809
_cell_volume 643.343834
_symmetry_space_group_name_H-M "P -1"
_symmetry_group_IT_number 2
_symmetry_cell_setting 'triclinic'
loop_
_space_group_symop_operation_xyz
x,y,z
-x,-y,-z
loop_
_atom_site_type_symbol
_atom_site_label
_atom_site_fract_x
_atom_site_fract_y
_atom_site_fract_z
Si Si1 0.107460 0.532496 0.699522
Si Si2 0.500000 0.000000 0.500000
Si Si3 0.426089 0.527356 0.618719
Si Si4 0.603137 0.932195 0.966502
Si Si5 0.705077 0.249728 0.717824
Si Si6 0.102687 0.958389 0.021338
Si Si7 0.664263 0.510061 0.184910
Si Si8 0.207876 0.269913 0.978801
O O1 0.096904 0.763193 0.845627
O O2 0.214328 0.546345 0.722460
O O3 0.000000 0.500000 0.500000
O O4 0.128879 0.280265 0.772342
O O5 0.499383 0.310189 0.601418
O O6 0.623981 0.017615 0.627037
O O7 0.503071 0.790870 0.765669
O O8 0.340753 0.609651 0.436634
O O9 0.368578 0.434632 0.682249
O O10 0.705475 0.931484 0.981386
O O11 0.632619 0.749164 0.095646
O O12 0.595750 0.238765 0.038468
O O13 0.724499 0.459330 0.897811
O O14 0.816138 0.139682 0.801244
O O15 0.147645 0.227003 0.049284
O O16 0.000000 0.000000 0.000000
#
# Coordination Sequence:
#
# PCOD9034866 Si02
#       8
#     2   1   2   2   2   2   2   2
#     4  10  24  44  72 103 138 189 246 314 370 440
#     4  12  26  42  68 108 148 190 246 300 374 442
#     4  12  27  41  73 107 149 194 250 302 366 460
#     4  11  24  46  73 103 147 200 242 301 375 446
#     4  11  26  42  69 105 144 195 240 306 371 446
#     4  11  25  47  73 101 144 192 249 310 378 446
#     4  11  26  47  71 108 151 193 252 307 373 448
#     4  10  22  45  68  99 143 189 240 305 375 442
#
# _framework density 23.315681999999999
#
# number of rings (size 3 to 8) (size 9 to 14) (size 15 to 20)
#    0.000    1.067    2.667    2.000    5.600    5.867 
#    2.400    0.000    0.000    0.000    0.000    0.000 
#    0.000    0.000    0.000    0.000    0.000    0.000 
#
# Total GULP energy -83573.958256 kJ/mol
# GULP energy per Si atom -5571.597217 kJ/mol
# Density = 2.326261 g / cm^3
# Si number density = 23.315682 Si / 1000 Ang^3
#
#
#
# Elastic Constant Matrix: (Units=GPa)
#
#
# Indices 1 2 3 4 5 6 
#
# 1 170.1792 33.5664 53.1590 -15.5188 15.9995 -12.0405
# 2 33.5664 83.2855 38.3642 -7.5519 2.4670 9.5761
# 3 53.1590 38.3642 131.8279 -29.6162 23.6592 -1.5310
# 4 -15.5188 -7.5519 -29.6162 36.6405 -1.5838 6.3704
# 5 15.9995 2.4670 23.6592 -1.5838 34.2102 -9.3990
# 6 -12.0405 9.5761 -1.5310 6.3704 -9.3990 29.5361
#
#
#
# Elastic Compliance Matrix: (Units=1/GPa)
#
#
# Indices 1 2 3 4 5 6 
#
# 1 0.007311 -0.002351 -0.001952 0.000429 -0.000991 0.003233
# 2 -0.002351 0.015325 -0.003698 0.000235 0.000951 -0.005867
# 3 -0.001952 -0.003698 0.012957 0.009141 -0.008333 -0.003548
# 4 0.000429 0.000235 0.009141 0.036262 -0.007508 -0.009638
# 5 -0.000991 0.000951 -0.008333 -0.007508 0.038542 0.012740
# 6 0.003233 -0.005867 -0.003548 -0.009638 0.012740 0.043026
#
#
# Mechanical properties :
#
#
# Convention : Reuss Voigt Hill
#
# Bulk Modulus (GPa) = 51.04264 70.60798 60.82531
# Shear Modulus (GPa) = 28.41651 37.42422 32.92036
#
# Velocity S-wave (km/s) = 3.49488 4.01073 3.76166
# Velocity P-wave (km/s) = 6.18264 7.19702 6.70903
#
# Compressibility (1/GPa) = 0.01959146
#
# Stress axis : x y z
#
# Youngs Moduli (GPa) = 136.78662 65.25086 77.17989
#
# Poissons Ratio (x) = 0.15339 0.15066
# Poissons Ratio (y) = 0.32155 0.28541
# Poissons Ratio (z) = 0.26701 0.24130
#
# Static dielectric constant tensor:
#      x y z
#    x 1.919240 0.061580 -0.095990 
#    y 0.061580 2.008790 -0.001620 
#    z -0.095990 -0.001620 1.866160 
# 
# From -- ./inp_files/322959.got.cif
#   From: 2010.05.17/outbox.cif.g08.bks.cpg/sg2_162_cif.got.tgz:322959.got - 2010.06.03 11:33:40.
