data_PCOD9034747
_publ_section_title
;
Structure prediction by ZEFSAII (Michael W. Deem and Ramdas Pophale) SiO2 
 PCOD9034747
Probable space group: P -1
;
_chemical_formula_sum "Si O2"
_cell_formula_units_Z 10
_cell_length_a 11.663910
_cell_length_b 8.871688
_cell_length_c 7.356987
_cell_angle_alpha 53.934435
_cell_angle_beta 117.723878
_cell_angle_gamma 129.176308
_cell_volume 471.730243
_symmetry_space_group_name_H-M "P -1"
_symmetry_group_IT_number 2
_symmetry_cell_setting 'triclinic'
loop_
_space_group_symop_operation_xyz
x,y,z
-x,-y,-z
loop_
_atom_site_type_symbol
_atom_site_label
_atom_site_fract_x
_atom_site_fract_y
_atom_site_fract_z
Si Si1 0.035202 0.104945 0.147783
Si Si2 0.724916 0.994716 0.118511
Si Si3 0.746958 0.422262 0.978829
Si Si4 0.345345 0.266790 0.408681
Si Si5 0.505136 0.810983 0.747975
O O1 0.098756 0.363188 0.007156
O O2 0.176563 0.093612 0.339057
O O3 0.881157 0.996853 0.220045
O O4 0.000000 0.000000 0.000000
O O5 0.628758 0.837076 0.322311
O O6 0.755797 0.231031 0.024832
O O7 0.635764 0.913491 0.922475
O O8 0.671171 0.524605 0.720754
O O9 0.645773 0.330727 0.149609
O O10 0.455822 0.311952 0.290257
O O11 0.500000 0.000000 0.500000
#
# Coordination Sequence:
#
# PCOD9034747 Si02
#       5
#     2   2   2   2   2
#     4  10  22  45  67  98 130 171 216 270 322 386
#     4  12  22  46  68  93 137 167 217 274 316 387
#     4  10  24  41  67 100 129 172 218 261 331 380
#     4  10  24  42  69  94 133 167 221 261 326 384
#     4  12  24  45  66  97 136 170 218 267 323 388
#
# _framework density 21.198557000000001
#
# number of rings (size 3 to 8) (size 9 to 14) (size 15 to 20)
#    1.200    0.000    4.000    2.400    0.000    0.800 
#    7.200    2.000    0.000    0.000    0.000    0.000 
#    0.000    0.000    0.000    0.000    0.000    0.000 
#
# Total GULP energy -55821.847592 kJ/mol
# GULP energy per Si atom -5582.184759 kJ/mol
# Density = 2.115031 g / cm^3
# Si number density = 21.198557 Si / 1000 Ang^3
#
#
#
# Elastic Constant Matrix: (Units=GPa)
#
#
# Indices 1 2 3 4 5 6 
#
# 1 53.8289 -0.2749 -15.8479 14.8059 -20.6853 -2.5422
# 2 -0.2749 68.5335 28.2377 11.5713 -6.7010 4.9214
# 3 -15.8479 28.2377 72.2936 -0.6206 -6.0336 -5.4039
# 4 14.8059 11.5713 -0.6206 26.5674 -0.8825 7.3397
# 5 -20.6853 -6.7010 -6.0336 -0.8825 35.3961 -3.6958
# 6 -2.5422 4.9214 -5.4039 7.3397 -3.6958 45.7489
#
#
#
# Elastic Compliance Matrix: (Units=1/GPa)
#
#
# Indices 1 2 3 4 5 6 
#
# 1 0.037732 0.001639 0.010130 -0.023125 0.024430 0.008801
# 2 0.001639 0.019472 -0.007152 -0.009146 0.003079 -0.001132
# 3 0.010130 -0.007152 0.019883 -0.003130 0.008384 0.004860
# 4 -0.023125 -0.009146 -0.003130 0.056980 -0.015514 -0.011066
# 5 0.024430 0.003079 0.008384 -0.015514 0.045004 0.008141
# 6 0.008801 -0.001132 0.004860 -0.011066 0.008141 0.025476
#
#
# Mechanical properties :
#
#
# Convention : Reuss Voigt Hill
#
# Bulk Modulus (GPa) = 11.58498 24.32065 17.95282
# Shear Modulus (GPa) = 22.31272 33.71191 28.01232
#
# Velocity S-wave (km/s) = 3.24784 3.99217 3.63909
# Velocity P-wave (km/s) = 4.42057 5.72255 5.11317
#
# Compressibility (1/GPa) = 0.08631863
#
# Stress axis : x y z
#
# Youngs Moduli (GPa) = 26.50258 51.35700 50.29427
#
# Poissons Ratio (x) = -0.08417 -0.50946
# Poissons Ratio (y) = -0.04343 0.35973
# Poissons Ratio (z) = -0.26846 0.36733
#
# Static dielectric constant tensor:
#      x y z
#    x 1.784360 0.012300 0.030210 
#    y 0.012300 1.759200 -0.000730 
#    z 0.030210 -0.000730 1.741430 
# 
# From -- ./inp_files/18022.got.cif
#   From: 2010.05.17/outbox.cif.g08.bks.cpg/sg2_10_cif.got.tgz:18022.got - 2010.06.03 11:33:40.
