data_PCOD9034248
_publ_section_title
;
Structure prediction by ZEFSAII (Michael W. Deem and Ramdas Pophale) SiO2 
 PCOD9034248
Probable space group: P -1
;
_chemical_formula_sum "Si O2"
_cell_formula_units_Z 16
_cell_length_a 5.322304
_cell_length_b 14.189732
_cell_length_c 14.215640
_cell_angle_alpha 41.185869
_cell_angle_beta 111.899235
_cell_angle_gamma 112.595784
_cell_volume 646.465958
_symmetry_space_group_name_H-M "P -1"
_symmetry_group_IT_number 2
_symmetry_cell_setting 'triclinic'
loop_
_space_group_symop_operation_xyz
x,y,z
-x,-y,-z
loop_
_atom_site_type_symbol
_atom_site_label
_atom_site_fract_x
_atom_site_fract_y
_atom_site_fract_z
Si Si1 0.350190 0.340453 0.364232
Si Si2 0.104431 0.397355 0.963908
Si Si3 0.644177 0.884761 0.787193
Si Si4 0.882321 0.200483 0.547142
Si Si5 0.154233 0.687813 0.821660
Si Si6 0.919642 0.339454 0.650116
Si Si7 0.659851 0.349190 0.789957
Si Si8 0.237537 0.130443 0.964375
O O1 0.616920 0.271437 0.429027
O O2 0.437206 0.507896 0.284915
O O3 0.157646 0.264783 0.480410
O O4 0.139968 0.317852 0.264438
O O5 0.258553 0.266609 0.105744
O O6 0.867360 0.372104 0.029551
O O7 0.261608 0.559908 0.874298
O O8 0.962278 0.377180 0.858841
O O9 0.332189 0.846967 0.734826
O O10 0.809772 0.027494 0.656601
O O11 0.693075 0.894544 0.898799
O O12 0.894614 0.238027 0.631552
O O13 0.667999 0.350277 0.677502
O O14 0.000000 0.500000 0.500000
O O15 0.124930 0.269050 0.798681
O O16 0.541487 0.181202 0.925878
O O17 0.000000 0.000000 0.000000
#
# Coordination Sequence:
#
# PCOD9034248 Si02
#       8
#     2   2   2   2   2   2   2   2
#     4  11  28  50  73 111 146 203 258 307 372 451
#     4  10  22  44  72 110 137 188 251 309 384 443
#     4  12  25  45  74 105 152 193 243 316 382 447
#     4  12  29  47  73 107 156 200 254 304 377 454
#     4  10  24  45  74 105 143 192 248 317 370 448
#     4  12  25  46  73 106 146 202 249 308 373 445
#     4  11  24  44  79 103 149 192 253 316 372 451
#     4  12  26  45  70 112 149 193 250 308 385 453
#
# _framework density 24.749950999999999
#
# number of rings (size 3 to 8) (size 9 to 14) (size 15 to 20)
#    0.000    0.750    5.000    1.125    5.250    2.500 
#    0.000    0.000    0.000    0.000    0.000    0.000 
#    0.000    0.000    0.000    0.000    0.000    0.000 
#
# Total GULP energy -89261.270746 kJ/mol
# GULP energy per Si atom -5578.829422 kJ/mol
# Density = 2.469362 g / cm^3
# Si number density = 24.749951 Si / 1000 Ang^3
#
#
#
# Elastic Constant Matrix: (Units=GPa)
#
#
# Indices 1 2 3 4 5 6 
#
# 1 38.0422 28.9645 18.1195 -6.8845 -15.0980 10.1055
# 2 28.9645 150.7174 22.8137 -5.1795 -38.8530 34.5229
# 3 18.1195 22.8137 86.1412 -8.4722 -20.3576 12.3147
# 4 -6.8845 -5.1795 -8.4722 42.2652 7.4407 -16.3983
# 5 -15.0980 -38.8530 -20.3576 7.4407 43.0054 -2.1367
# 6 10.1055 34.5229 12.3147 -16.3983 -2.1367 31.1491
#
#
#
# Elastic Compliance Matrix: (Units=1/GPa)
#
#
# Indices 1 2 3 4 5 6 
#
# 1 0.034954 -0.002996 -0.003976 0.001194 0.007211 -0.005324
# 2 -0.002996 0.014501 0.001904 -0.008147 0.013405 -0.019222
# 3 -0.003976 0.001904 0.014443 -0.001393 0.007066 -0.006780
# 4 0.001194 -0.008147 -0.001393 0.035174 -0.012352 0.026863
# 5 0.007211 0.013405 0.007066 -0.012352 0.042205 -0.023597
# 6 -0.005324 -0.019222 -0.006780 0.026863 -0.023597 0.070338
#
#
# Mechanical properties :
#
#
# Convention : Reuss Voigt Hill
#
# Bulk Modulus (GPa) = 18.60031 46.07735 32.33883
# Shear Modulus (GPa) = 20.86196 36.95082 28.90639
#
# Velocity S-wave (km/s) = 2.90644 3.86808 3.42122
# Velocity P-wave (km/s) = 4.33530 6.21345 5.35732
#
# Compressibility (1/GPa) = 0.05376253
#
# Stress axis : x y z
#
# Youngs Moduli (GPa) = 28.60917 68.96051 69.23846
#
# Poissons Ratio (x) = 0.20660 0.27530
# Poissons Ratio (y) = 0.08571 -0.13186
# Poissons Ratio (z) = 0.11375 -0.13133
#
# Static dielectric constant tensor:
#      x y z
#    x 2.477650 0.047170 0.070500 
#    y 0.047170 1.956260 -0.002470 
#    z 0.070500 -0.002470 1.968090 
# 
# From -- ./inp_files/84563.got.cif
#   From: 2010.05.17/outbox.cif.g08.bks.cpg/sg2_43_cif.got.tgz:84563.got - 2010.06.03 11:33:40.
