data_PCOD9034330
_publ_section_title
;
Structure prediction by ZEFSAII (Michael W. Deem and Ramdas Pophale) SiO2 
 PCOD9034330
Probable space group: P -1
;
_chemical_formula_sum "Si O2"
_cell_formula_units_Z 14
_cell_length_a 11.337778
_cell_length_b 12.287432
_cell_length_c 8.925465
_cell_angle_alpha 50.800280
_cell_angle_beta 36.547333
_cell_angle_gamma 54.249003
_cell_volume 565.862184
_symmetry_space_group_name_H-M "P -1"
_symmetry_group_IT_number 2
_symmetry_cell_setting 'triclinic'
loop_
_space_group_symop_operation_xyz
x,y,z
-x,-y,-z
loop_
_atom_site_type_symbol
_atom_site_label
_atom_site_fract_x
_atom_site_fract_y
_atom_site_fract_z
Si Si1 0.663114 0.605002 0.242180
Si Si2 0.021265 0.471989 0.769463
Si Si3 0.062571 0.258362 0.542400
Si Si4 0.583747 0.148336 0.905696
Si Si5 0.505662 0.667564 0.877161
Si Si6 0.166677 0.795167 0.911527
Si Si7 0.783640 0.992443 0.582707
O O1 0.500000 0.500000 0.500000
O O2 0.776710 0.594200 0.293582
O O3 0.541894 0.753853 0.179488
O O4 0.847300 0.553370 0.985571
O O5 0.061788 0.588709 0.506476
O O6 0.915970 0.347948 0.921195
O O7 0.270727 0.298676 0.356986
O O8 0.095545 0.162706 0.443082
O O9 0.970151 0.162477 0.840138
O O10 0.769395 0.056854 0.707965
O O11 0.602882 0.257777 0.925514
O O12 0.442461 0.037130 0.199020
O O13 0.391410 0.752827 0.781318
O O14 0.500000 0.500000 0.000000
O O15 0.155025 0.896219 0.694140
#
# Coordination Sequence:
#
# PCOD9034330 Si02
#       7
#     2   2   2   2   2   2   2
#     4  11  23  42  74 100 142 180 234 300 359 412
#     4  11  24  42  68 111 135 179 243 296 350 425
#     4  11  24  45  70 103 147 184 243 293 351 430
#     4  10  22  44  73 103 142 189 237 294 355 427
#     4  11  23  43  74 106 144 186 233 297 361 411
#     4  12  25  43  72 106 141 192 238 290 360 424
#     4  10  23  47  68 101 148 190 240 287 355 426
#
# _framework density 24.741008000000001
#
# number of rings (size 3 to 8) (size 9 to 14) (size 15 to 20)
#    0.000    1.143    4.286    1.714    2.000    4.571 
#    0.000    7.143    0.000    0.000    0.000    0.000 
#    0.000    0.000    0.000    0.000    0.000    0.000 
#
# Total GULP energy -78314.426875 kJ/mol
# GULP energy per Si atom -5593.887634 kJ/mol
# Density = 2.468470 g / cm^3
# Si number density = 24.741008 Si / 1000 Ang^3
#
#
#
# Elastic Constant Matrix: (Units=GPa)
#
#
# Indices 1 2 3 4 5 6 
#
# 1 118.0297 15.3790 14.8329 -16.5660 -19.7289 12.6293
# 2 15.3790 125.3129 33.0848 -0.8624 7.1036 30.3957
# 3 14.8329 33.0848 134.6257 -16.6636 1.1257 10.6437
# 4 -16.5660 -0.8624 -16.6636 39.4371 -2.1661 5.0345
# 5 -19.7289 7.1036 1.1257 -2.1661 38.0133 -0.5818
# 6 12.6293 30.3957 10.6437 5.0345 -0.5818 32.1122
#
#
#
# Elastic Compliance Matrix: (Units=1/GPa)
#
#
# Indices 1 2 3 4 5 6 
#
# 1 0.010772 -0.000517 -0.000093 0.005368 0.005928 -0.004450
# 2 -0.000517 0.011021 -0.001817 0.000366 -0.002402 -0.009728
# 3 -0.000093 -0.001817 0.008473 0.003722 0.000227 -0.001631
# 4 0.005368 0.000366 0.003722 0.030496 0.004217 -0.008396
# 5 0.005928 -0.002402 0.000227 0.004217 0.030062 -0.000249
# 6 -0.004450 -0.009728 -0.001631 -0.008396 -0.000249 0.043951
#
#
# Mechanical properties :
#
#
# Convention : Reuss Voigt Hill
#
# Bulk Modulus (GPa) = 39.35224 56.06241 47.70733
# Shear Modulus (GPa) = 33.76111 42.89063 38.32587
#
# Velocity S-wave (km/s) = 3.69803 4.16815 3.94011
# Velocity P-wave (km/s) = 5.84586 6.77300 6.32644
#
# Compressibility (1/GPa) = 0.02541151
#
# Stress axis : x y z
#
# Youngs Moduli (GPa) = 92.83358 90.73238 118.02814
#
# Poissons Ratio (x) = 0.04691 0.01098
# Poissons Ratio (y) = 0.04800 0.21447
# Poissons Ratio (z) = 0.00864 0.16487
#
# Static dielectric constant tensor:
#      x y z
#    x 1.950690 0.041420 0.027180 
#    y 0.041420 2.005750 0.119060 
#    z 0.027180 0.119060 2.021850 
# 
# From -- ./inp_files/261391.got.cif
#   From: 2010.05.17/outbox.cif.g08.bks.cpg/sg2_131_cif.got.tgz:261391.got - 2010.06.03 11:33:40.
