data_PCOD9034737
_publ_section_title
;
Structure prediction by ZEFSAII (Michael W. Deem and Ramdas Pophale) SiO2 
 PCOD9034737
Probable space group: P -1
;
_chemical_formula_sum "Si O2"
_cell_formula_units_Z 14
_cell_length_a 8.665132
_cell_length_b 6.661375
_cell_length_c 20.551255
_cell_angle_alpha 49.929153
_cell_angle_beta 52.152227
_cell_angle_gamma 53.410847
_cell_volume 675.962579
_symmetry_space_group_name_H-M "P -1"
_symmetry_group_IT_number 2
_symmetry_cell_setting 'triclinic'
loop_
_space_group_symop_operation_xyz
x,y,z
-x,-y,-z
loop_
_atom_site_type_symbol
_atom_site_label
_atom_site_fract_x
_atom_site_fract_y
_atom_site_fract_z
Si Si1 0.409192 0.085658 0.077276
Si Si2 0.245013 0.099500 0.864129
Si Si3 0.894952 0.191512 0.722381
Si Si4 0.069778 0.896420 0.604384
Si Si5 0.701747 0.749070 0.324866
Si Si6 0.924514 0.388447 0.978815
Si Si7 0.730937 0.833829 0.603573
O O1 0.577715 0.020195 0.103716
O O2 0.289884 0.410277 0.034316
O O3 0.245558 0.934223 0.170915
O O4 0.500000 0.000000 0.000000
O O5 0.326004 0.154368 0.762892
O O6 0.108980 0.897724 0.934012
O O7 0.088733 0.367267 0.883835
O O8 0.758386 0.507959 0.670981
O O9 0.094236 0.204981 0.707658
O O10 0.981241 0.001623 0.676301
O O11 0.239562 0.586116 0.621087
O O12 0.877426 0.891697 0.609986
O O13 0.172563 0.106251 0.501409
O O14 0.498354 0.943865 0.374150
O O15 0.000000 0.500000 0.000000
#
# Coordination Sequence:
#
# PCOD9034737 Si02
#       7
#     2   2   2   2   2   2   2
#     4  12  25  42  65  91 128 175 217 266 323 380
#     4  11  25  41  65  91 127 174 211 269 324 381
#     4  11  25  41  64  97 133 169 222 271 321 392
#     4  10  22  45  67  97 133 168 215 268 331 395
#     4  11  24  40  66  97 132 169 217 268 329 390
#     4  11  23  43  64  91 124 165 220 267 319 381
#     4  10  23  42  70  97 130 172 213 269 330 394
#
# _framework density 20.711205
#
# number of rings (size 3 to 8) (size 9 to 14) (size 15 to 20)
#    0.000    1.143    1.429    3.857    4.000    5.143 
#    0.000    0.000    0.000    0.000    0.000    0.000 
#    0.000    0.000    0.000    0.000    0.000    0.000 
#
# Total GULP energy -78242.539234 kJ/mol
# GULP energy per Si atom -5588.752802 kJ/mol
# Density = 2.066406 g / cm^3
# Si number density = 20.711205 Si / 1000 Ang^3
#
#
#
# Elastic Constant Matrix: (Units=GPa)
#
#
# Indices 1 2 3 4 5 6 
#
# 1 79.4347 22.4082 11.9760 9.3940 12.4073 -3.6551
# 2 22.4082 102.6607 30.3155 12.9165 -2.4108 -12.9804
# 3 11.9760 30.3155 116.9448 16.5840 2.9269 9.1634
# 4 9.3940 12.9165 16.5840 31.7178 -0.0548 -2.5102
# 5 12.4073 -2.4108 2.9269 -0.0548 26.4603 1.0517
# 6 -3.6551 -12.9804 9.1634 -2.5102 1.0517 31.3377
#
#
#
# Elastic Compliance Matrix: (Units=1/GPa)
#
#
# Indices 1 2 3 4 5 6 
#
# 1 0.014976 -0.002914 -0.000201 -0.003109 -0.007296 0.000594
# 2 -0.002914 0.012294 -0.003079 -0.002102 0.002608 0.005397
# 3 -0.000201 -0.003079 0.010402 -0.004496 -0.001161 -0.004661
# 4 -0.003109 -0.002102 -0.004496 0.035888 0.001723 0.002898
# 5 -0.007296 0.002608 -0.001161 0.001723 0.041610 -0.000690
# 6 0.000594 0.005397 -0.004661 0.002898 -0.000690 0.035833
#
#
# Mechanical properties :
#
#
# Convention : Reuss Voigt Hill
#
# Bulk Modulus (GPa) = 39.55195 47.60441 43.57818
# Shear Modulus (GPa) = 29.10020 33.52586 31.31303
#
# Velocity S-wave (km/s) = 3.75246 4.02771 3.89252
# Velocity P-wave (km/s) = 6.15735 6.68316 6.42564
#
# Compressibility (1/GPa) = 0.02528320
#
# Stress axis : x y z
#
# Youngs Moduli (GPa) = 66.77348 81.33925 96.13886
#
# Poissons Ratio (x) = 0.23706 0.01934
# Poissons Ratio (y) = 0.19461 0.29597
# Poissons Ratio (z) = 0.01344 0.25041
#
# Static dielectric constant tensor:
#      x y z
#    x 1.682140 -0.002830 -0.028680 
#    y -0.002830 1.756380 0.002850 
#    z -0.028680 0.002850 1.723680 
# 
# From -- ./inp_files/39625.got.cif
#   From: 2010.05.17/outbox.cif.g08.bks.cpg/sg2_20_cif.got.tgz:39625.got - 2010.06.03 11:33:40.
