data_PCOD9034010
_publ_section_title
;
Structure prediction by ZEFSAII (Michael W. Deem and Ramdas Pophale) SiO2 
 PCOD9034010
Probable space group: P -1
;
_chemical_formula_sum "Si O2"
_cell_formula_units_Z 14
_cell_length_a 11.527834
_cell_length_b 27.434966
_cell_length_c 14.910931
_cell_angle_alpha 161.615428
_cell_angle_beta 141.909092
_cell_angle_gamma 28.821187
_cell_volume 685.789894
_symmetry_space_group_name_H-M "P -1"
_symmetry_group_IT_number 2
_symmetry_cell_setting 'triclinic'
loop_
_space_group_symop_operation_xyz
x,y,z
-x,-y,-z
loop_
_atom_site_type_symbol
_atom_site_label
_atom_site_fract_x
_atom_site_fract_y
_atom_site_fract_z
Si Si1 0.299326 0.233893 0.757192
Si Si2 0.353718 0.437900 0.657104
Si Si3 0.138863 0.742675 0.527129
Si Si4 0.875188 0.998213 0.170074
Si Si5 0.749313 0.464052 0.602325
Si Si6 0.426753 0.683454 0.036832
Si Si7 0.017179 0.578893 0.519362
O O1 0.042716 0.281543 0.673653
O O2 0.500000 0.000000 0.500000
O O3 0.285419 0.370699 0.064640
O O4 0.400775 0.260530 0.774328
O O5 0.389382 0.604038 0.965376
O O6 0.211289 0.471262 0.533952
O O7 0.162951 0.470811 0.670454
O O8 0.628344 0.210593 0.433523
O O9 0.083723 0.745974 0.603587
O O10 0.419093 0.526731 0.297069
O O11 0.107769 0.925977 0.783716
O O12 0.149495 0.875120 0.166583
O O13 0.852400 0.825980 0.858202
O O14 0.500000 0.500000 0.500000
O O15 0.848089 0.471987 0.582319
#
# Coordination Sequence:
#
# PCOD9034010 Si02
#       7
#     2   2   2   2   2   2   2
#     4  11  21  39  62  86 116 161 193 228 297 366
#     4   9  19  34  55  80 115 158 193 235 293 336
#     4  10  21  36  59  85 118 156 187 231 302 354
#     4  10  17  32  56  83 108 150 196 233 280 347
#     4  11  22  37  58  90 126 144 191 248 292 336
#     4   9  17  32  56  81 105 143 195 236 268 340
#     4  10  20  35  53  83 120 153 190 245 286 339
#
# _framework density 20.414417
#
# number of rings (size 3 to 8) (size 9 to 14) (size 15 to 20)
#    0.000    2.000    1.429    6.429    0.000    0.571 
#    2.571    0.000    0.000    8.571    0.000    0.000 
#    0.000    0.000    0.000    0.000    0.000    0.000 
#
# Total GULP energy -77934.474713 kJ/mol
# GULP energy per Si atom -5566.748194 kJ/mol
# Density = 2.036795 g / cm^3
# Si number density = 20.414417 Si / 1000 Ang^3
#
#
#
# Elastic Constant Matrix: (Units=GPa)
#
#
# Indices 1 2 3 4 5 6 
#
# 1 138.2024 24.2158 7.3767 5.9219 19.3880 -16.5870
# 2 24.2158 78.5117 21.0628 22.6733 -8.7426 -11.8396
# 3 7.3767 21.0628 31.0125 21.6731 8.7390 -3.6550
# 4 5.9219 22.6733 21.6731 33.8879 2.6351 2.3168
# 5 19.3880 -8.7426 8.7390 2.6351 26.1373 1.1989
# 6 -16.5870 -11.8396 -3.6550 2.3168 1.1989 26.1397
#
#
#
# Elastic Compliance Matrix: (Units=1/GPa)
#
#
# Indices 1 2 3 4 5 6 
#
# 1 0.010014 -0.004369 0.005814 -0.002100 -0.010891 0.005874
# 2 -0.004369 0.022149 -0.012170 -0.007838 0.015254 0.005553
# 3 0.005814 -0.012170 0.078867 -0.041869 -0.031190 0.014346
# 4 -0.002100 -0.007838 -0.041869 0.062458 0.007400 -0.016612
# 5 -0.010891 0.015254 -0.031190 0.007400 0.061482 -0.007839
# 6 0.005874 0.005553 0.014346 -0.016612 -0.007839 0.048337
#
#
# Mechanical properties :
#
#
# Convention : Reuss Voigt Hill
#
# Bulk Modulus (GPa) = 11.16312 39.22633 25.19472
# Shear Modulus (GPa) = 14.94251 30.23773 22.59012
#
# Velocity S-wave (km/s) = 2.70841 3.85280 3.33013
# Velocity P-wave (km/s) = 3.90650 6.24891 5.21103
#
# Compressibility (1/GPa) = 0.08958073
#
# Stress axis : x y z
#
# Youngs Moduli (GPa) = 99.86218 45.14892 12.67954
#
# Poissons Ratio (x) = 0.19725 -0.07372
# Poissons Ratio (y) = 0.43629 0.15431
# Poissons Ratio (z) = -0.58062 0.54946
#
# Static dielectric constant tensor:
#      x y z
#    x 1.818970 0.013010 0.025430 
#    y 0.013010 1.768920 0.006030 
#    z 0.025430 0.006030 1.747400 
# 
# From -- ./inp_files/524586.got.cif
#   From: 2010.05.17/outbox.cif.g08.bks.cpg/sg2_263_cif.got.tgz:524586.got - 2010.06.03 11:33:40.
