data_PCOD9034434
_publ_section_title
;
Structure prediction by ZEFSAII (Michael W. Deem and Ramdas Pophale) SiO2 
 PCOD9034434
Probable space group: P -1
;
_chemical_formula_sum "Si O2"
_cell_formula_units_Z 13
_cell_length_a 9.276200
_cell_length_b 8.982215
_cell_length_c 14.411893
_cell_angle_alpha 114.640020
_cell_angle_beta 50.562196
_cell_angle_gamma 74.058202
_cell_volume 539.335631
_symmetry_space_group_name_H-M "P -1"
_symmetry_group_IT_number 2
_symmetry_cell_setting 'triclinic'
loop_
_space_group_symop_operation_xyz
x,y,z
-x,-y,-z
loop_
_atom_site_type_symbol
_atom_site_label
_atom_site_fract_x
_atom_site_fract_y
_atom_site_fract_z
Si Si1 0.845777 0.277527 0.123732
Si Si2 0.341252 0.041019 0.165670
Si Si3 0.000000 0.000000 0.500000
Si Si4 0.939887 0.542517 0.823510
Si Si5 0.756080 0.802868 0.564936
Si Si6 0.786198 0.203391 0.438440
Si Si7 0.173824 0.144912 0.781681
O O1 0.508661 0.498564 0.345905
O O2 0.990714 0.319734 0.138687
O O3 0.898160 0.304267 0.003738
O O4 0.000000 0.000000 0.000000
O O5 0.292520 0.208168 0.309945
O O6 0.051666 0.139479 0.284128
O O7 0.500000 0.000000 0.000000
O O8 0.592257 0.748814 0.027005
O O9 0.124520 0.943970 0.540584
O O10 0.920530 0.864032 0.522930
O O11 0.056568 0.430898 0.643436
O O12 0.100824 0.315313 0.771738
O O13 0.439476 0.031291 0.705675
O O14 0.737052 0.091957 0.356006
#
# Coordination Sequence:
#
# PCOD9034434 Si02
#       7
#     2   2   1   2   2   2   2
#     4  12  29  48  77 116 156 210 266 317 387 472
#     4  11  29  50  72 114 160 211 254 316 401 476
#     4  10  22  44  74 118 148 198 246 316 400 452
#     4  12  25  48  80 115 157 203 262 322 398 464
#     4  11  23  47  79 111 158 201 252 329 388 454
#     4  11  26  48  79 112 160 193 265 325 393 456
#     4  12  25  45  85 117 150 205 265 330 383 464
#
# _framework density 24.103726999999999
#
# number of rings (size 3 to 8) (size 9 to 14) (size 15 to 20)
#    0.000    0.615    4.615    1.846    6.462    5.538 
#    0.000    0.000    0.000    0.000    0.000    0.000 
#    0.000    0.000    0.000    0.000    0.000    0.000 
#
# Total GULP energy -72603.606442 kJ/mol
# GULP energy per Si atom -5584.892803 kJ/mol
# Density = 2.404887 g / cm^3
# Si number density = 24.103727 Si / 1000 Ang^3
#
#
#
# Elastic Constant Matrix: (Units=GPa)
#
#
# Indices 1 2 3 4 5 6 
#
# 1 119.6888 40.3414 49.9720 -8.5414 24.9956 9.4810
# 2 40.3414 85.9720 46.2196 -10.5211 19.7251 1.4656
# 3 49.9720 46.2196 168.8747 -4.1433 11.7457 8.0096
# 4 -8.5414 -10.5211 -4.1433 26.2050 -8.9792 5.1088
# 5 24.9956 19.7251 11.7457 -8.9792 50.5420 -11.4631
# 6 9.4810 1.4656 8.0096 5.1088 -11.4631 35.1042
#
#
#
# Elastic Compliance Matrix: (Units=1/GPa)
#
#
# Indices 1 2 3 4 5 6 
#
# 1 0.011693 -0.003014 -0.002054 0.001462 -0.004859 -0.004363
# 2 -0.003014 0.016025 -0.003110 0.003916 -0.003543 -0.000872
# 3 -0.002054 -0.003110 0.007393 -0.000505 0.000228 -0.000854
# 4 0.001462 0.003916 -0.000505 0.042609 0.004243 -0.005259
# 5 -0.004859 -0.003543 0.000228 0.004243 0.026407 0.009414
# 6 -0.004363 -0.000872 -0.000854 -0.005259 0.009414 0.033735
#
#
# Mechanical properties :
#
#
# Convention : Reuss Voigt Hill
#
# Bulk Modulus (GPa) = 53.32324 71.95571 62.63947
# Shear Modulus (GPa) = 31.15815 38.23709 34.69762
#
# Velocity S-wave (km/s) = 3.59927 3.98723 3.79821
# Velocity P-wave (km/s) = 6.28040 7.14945 6.72897
#
# Compressibility (1/GPa) = 0.01875355
#
# Stress axis : x y z
#
# Youngs Moduli (GPa) = 85.51788 62.40214 135.26425
#
# Poissons Ratio (x) = 0.18811 0.27789
# Poissons Ratio (y) = 0.25779 0.42068
# Poissons Ratio (z) = 0.17569 0.19408
#
# Static dielectric constant tensor:
#      x y z
#    x 1.870490 -0.061220 -0.008430 
#    y -0.061220 1.948320 0.002680 
#    z -0.008430 0.002680 1.973750 
# 
# From -- ./inp_files/491366.got.cif
#   From: 2010.05.17/outbox.cif.g08.bks.cpg/sg2_246_cif.got.tgz:491366.got - 2010.06.03 11:33:40.
