data_PCOD9034536
_publ_section_title
;
Structure prediction by ZEFSAII (Michael W. Deem and Ramdas Pophale) SiO2 
 PCOD9034536
Probable space group: P -1
;
_chemical_formula_sum "Si O2"
_cell_formula_units_Z 16
_cell_length_a 5.696892
_cell_length_b 22.025045
_cell_length_c 6.008088
_cell_angle_alpha 120.387342
_cell_angle_beta 73.133400
_cell_angle_gamma 99.666852
_cell_volume 622.121065
_symmetry_space_group_name_H-M "P -1"
_symmetry_group_IT_number 2
_symmetry_cell_setting 'triclinic'
loop_
_space_group_symop_operation_xyz
x,y,z
-x,-y,-z
loop_
_atom_site_type_symbol
_atom_site_label
_atom_site_fract_x
_atom_site_fract_y
_atom_site_fract_z
Si Si1 0.134650 0.408521 0.876156
Si Si2 0.664579 0.237275 0.705636
Si Si3 0.792135 0.509295 0.385416
Si Si4 0.484816 0.117928 0.208152
Si Si5 0.424499 0.649806 0.403488
Si Si6 0.711668 0.003677 0.642150
Si Si7 0.958880 0.302159 0.086698
Si Si8 0.273169 0.234017 0.203087
O O1 0.122366 0.353332 0.984772
O O2 0.139616 0.415617 0.615342
O O3 0.433712 0.420040 0.826624
O O4 0.893461 0.452575 0.077597
O O5 0.628473 0.174166 0.428129
O O6 0.682541 0.311933 0.711288
O O7 0.890935 0.239820 0.815343
O O8 0.441728 0.234756 0.937148
O O9 0.500000 0.500000 0.500000
O O10 0.000000 0.500000 0.500000
O O11 0.298207 0.160630 0.184103
O O12 0.350446 0.061180 0.296471
O O13 0.664071 0.075796 0.920845
O O14 0.631442 0.707658 0.539661
O O15 0.257809 0.649944 0.668869
O O16 0.500000 0.000000 0.500000
O O17 0.000000 0.000000 0.500000
O O18 0.027726 0.260232 0.211676
#
# Coordination Sequence:
#
# PCOD9034536 Si02
#       8
#     2   2   2   2   2   2   2   2
#     4  11  25  45  75 104 143 195 245 305 371 446
#     4  10  22  45  66 109 147 189 239 295 372 446
#     4  11  28  51  75 107 144 193 257 317 365 428
#     4  10  24  49  76 108 148 195 247 303 373 440
#     4  10  23  41  64 100 145 186 236 289 367 444
#     4  11  26  55  78 108 145 199 255 314 365 431
#     4  11  24  41  70 105 151 188 236 300 374 454
#     4  10  22  45  62 110 145 186 232 298 366 448
#
# _framework density 25.718465999999999
#
# number of rings (size 3 to 8) (size 9 to 14) (size 15 to 20)
#    0.000    1.500    1.250    1.500    3.500    6.000 
#   29.250    0.000    0.000    0.000    0.000    0.000 
#    0.000    0.000    0.000    0.000    0.000    0.000 
#
# Total GULP energy -89173.563540 kJ/mol
# GULP energy per Si atom -5573.347721 kJ/mol
# Density = 2.565993 g / cm^3
# Si number density = 25.718466 Si / 1000 Ang^3
#
#
#
# Elastic Constant Matrix: (Units=GPa)
#
#
# Indices 1 2 3 4 5 6 
#
# 1 123.8652 45.2773 83.6555 -9.5817 -5.6401 -22.2932
# 2 45.2773 139.2899 52.6215 -11.1806 -13.1744 -29.1940
# 3 83.6555 52.6215 151.5218 -7.3762 -34.8370 5.3389
# 4 -9.5817 -11.1806 -7.3762 50.6813 5.8401 10.6169
# 5 -5.6401 -13.1744 -34.8370 5.8401 52.8743 -6.6997
# 6 -22.2932 -29.1940 5.3389 10.6169 -6.6997 34.8093
#
#
#
# Elastic Compliance Matrix: (Units=1/GPa)
#
#
# Indices 1 2 3 4 5 6 
#
# 1 0.017586 0.000982 -0.011378 -0.000476 -0.003641 0.013276
# 2 0.000982 0.010892 -0.004424 -0.000481 0.001331 0.010845
# 3 -0.011378 -0.004424 0.016485 0.001114 0.006832 -0.012551
# 4 -0.000476 -0.000481 0.001114 0.021713 -0.002855 -0.008051
# 5 -0.003641 0.001331 0.006832 -0.002855 0.024084 0.003242
# 6 0.013276 0.010845 -0.012551 -0.008051 0.003242 0.051330
#
#
# Mechanical properties :
#
#
# Convention : Reuss Voigt Hill
#
# Bulk Modulus (GPa) = 65.26654 86.42061 75.84357
# Shear Modulus (GPa) = 28.27447 43.21449 35.74448
#
# Velocity S-wave (km/s) = 3.31929 4.10358 3.73210
# Velocity P-wave (km/s) = 6.33425 7.49186 6.93724
#
# Compressibility (1/GPa) = 0.01532179
#
# Stress axis : x y z
#
# Youngs Moduli (GPa) = 56.86451 91.81209 60.65943
#
# Poissons Ratio (x) = -0.09016 0.69020
# Poissons Ratio (y) = -0.05584 0.26838
# Poissons Ratio (z) = 0.64702 0.40620
#
# Static dielectric constant tensor:
#      x y z
#    x 2.229470 -0.046460 -0.024560 
#    y -0.046460 2.059120 0.076190 
#    z -0.024560 0.076190 2.089750 
# 
# From -- ./inp_files/13544.got.cif
#   From: 2010.05.17/outbox.cif.g08.bks.cpg/sg2_7_cif.got.tgz:13544.got - 2010.06.03 11:33:40.
