data_PCOD9034223
_publ_section_title
;
Structure prediction by ZEFSAII (Michael W. Deem and Ramdas Pophale) SiO2 
 PCOD9034223
Probable space group: P -1
;
_chemical_formula_sum "Si O2"
_cell_formula_units_Z 16
_cell_length_a 9.572421
_cell_length_b 15.612190
_cell_length_c 8.099793
_cell_angle_alpha 69.330048
_cell_angle_beta 71.553681
_cell_angle_gamma 37.491582
_cell_volume 687.924949
_symmetry_space_group_name_H-M "P -1"
_symmetry_group_IT_number 2
_symmetry_cell_setting 'triclinic'
loop_
_space_group_symop_operation_xyz
x,y,z
-x,-y,-z
loop_
_atom_site_type_symbol
_atom_site_label
_atom_site_fract_x
_atom_site_fract_y
_atom_site_fract_z
Si Si1 0.826474 0.816890 0.056034
Si Si2 0.978272 0.108611 0.244771
Si Si3 0.235379 0.474328 0.583831
Si Si4 0.582825 0.204165 0.131676
Si Si5 0.734121 0.192675 0.725664
Si Si6 0.007061 0.215601 0.478320
Si Si7 0.870505 0.497136 0.779946
Si Si8 0.537132 0.944807 0.741888
O O1 0.031659 0.648021 0.110882
O O2 0.668359 0.892262 0.227620
O O3 0.677613 0.862264 0.918836
O O4 0.917163 0.875074 0.945801
O O5 0.751823 0.167584 0.226147
O O6 0.931440 0.198001 0.353124
O O7 0.163486 0.940867 0.326727
O O8 0.494836 0.343398 0.640038
O O9 0.119282 0.627513 0.561167
O O10 0.220299 0.464090 0.400436
O O11 0.078993 0.469949 0.726682
O O12 0.336325 0.370523 0.120102
O O13 0.546806 0.114571 0.238140
O O14 0.690855 0.172165 0.935493
O O15 0.918182 0.187327 0.667967
O O16 0.277699 0.103310 0.422596
#
# Coordination Sequence:
#
# PCOD9034223 Si02
#       8
#     2   2   2   2   2   2   2   2
#     4  10  23  44  72 105 140 185 237 290 345 415
#     4  11  26  46  72 106 143 182 237 289 352 416
#     4  11  26  48  69 104 144 189 234 288 353 420
#     4  12  25  45  73 106 141 186 235 290 349 411
#     4  12  26  45  75 102 148 185 230 290 354 418
#     4  11  25  47  70 104 140 190 232 280 356 422
#     4  11  26  45  73 104 145 182 238 294 347 412
#     4  10  22  44  72 104 142 183 237 287 347 420
#
# _framework density 23.258351000000001
#
# number of rings (size 3 to 8) (size 9 to 14) (size 15 to 20)
#    0.000    1.000    2.500    2.625    8.750    1.500 
#    2.250    1.250    0.000    0.000    0.000    0.000 
#    0.000    0.000    0.000    0.000    0.000    0.000 
#
# Total GULP energy -89686.011928 kJ/mol
# GULP energy per Si atom -5605.375745 kJ/mol
# Density = 2.320541 g / cm^3
# Si number density = 23.258351 Si / 1000 Ang^3
#
#
#
# Elastic Constant Matrix: (Units=GPa)
#
#
# Indices 1 2 3 4 5 6 
#
# 1 147.6992 39.8272 33.9741 3.2606 -26.5002 -1.6083
# 2 39.8272 138.0740 32.1764 1.6087 -21.6975 9.1454
# 3 33.9741 32.1764 86.2451 12.3136 -24.3250 1.3786
# 4 3.2606 1.6087 12.3136 37.3024 3.3706 -2.4572
# 5 -26.5002 -21.6975 -24.3250 3.3706 40.1468 -2.6030
# 6 -1.6083 9.1454 1.3786 -2.4572 -2.6030 37.8912
#
#
#
# Elastic Compliance Matrix: (Units=1/GPa)
#
#
# Indices 1 2 3 4 5 6 
#
# 1 0.008229 -0.001472 -0.001586 -0.000408 0.003774 0.000995
# 2 -0.001472 0.008619 -0.001942 0.000057 0.002382 -0.001905
# 3 -0.001586 -0.001942 0.016066 -0.005816 0.008127 -0.000002
# 4 -0.000408 0.000057 -0.005816 0.029424 -0.006124 0.001668
# 5 0.003774 0.002382 0.008127 -0.006124 0.034206 0.001242
# 6 0.000995 -0.001905 -0.000002 0.001668 0.001242 0.027087
#
#
# Mechanical properties :
#
#
# Convention : Reuss Voigt Hill
#
# Bulk Modulus (GPa) = 43.63780 64.88598 54.26189
# Shear Modulus (GPa) = 35.39327 40.80413 38.09870
#
# Velocity S-wave (km/s) = 3.90519 4.19308 4.05169
# Velocity P-wave (km/s) = 6.25595 7.16946 6.72822
#
# Compressibility (1/GPa) = 0.02291591
#
# Stress axis : x y z
#
# Youngs Moduli (GPa) = 121.51749 116.01671 62.24193
#
# Poissons Ratio (x) = 0.17081 0.09869
# Poissons Ratio (y) = 0.17891 0.12086
# Poissons Ratio (z) = 0.19267 0.22528
#
# Static dielectric constant tensor:
#      x y z
#    x 1.844610 -0.034100 0.012600 
#    y -0.034100 1.815710 0.022780 
#    z 0.012600 0.022780 1.907000 
# 
# From -- ./inp_files/206250.got.cif
#   From: 2010.05.17/outbox.cif.g08.bks.cpg/sg2_104_cif.got.tgz:206250.got - 2010.06.03 11:33:40.
