data_PCOD9034362
_publ_section_title
;
Structure prediction by ZEFSAII (Michael W. Deem and Ramdas Pophale) SiO2 
 PCOD9034362
Probable space group: P -1
;
_chemical_formula_sum "Si O2"
_cell_formula_units_Z 16
_cell_length_a 8.724870
_cell_length_b 15.569059
_cell_length_c 12.316552
_cell_angle_alpha 27.526700
_cell_angle_beta 89.510075
_cell_angle_gamma 81.071163
_cell_volume 732.685658
_symmetry_space_group_name_H-M "P -1"
_symmetry_group_IT_number 2
_symmetry_cell_setting 'triclinic'
loop_
_space_group_symop_operation_xyz
x,y,z
-x,-y,-z
loop_
_atom_site_type_symbol
_atom_site_label
_atom_site_fract_x
_atom_site_fract_y
_atom_site_fract_z
Si Si1 0.355418 0.319440 0.126836
Si Si2 0.570079 0.476539 0.404921
Si Si3 0.995824 0.842324 0.801168
Si Si4 0.065796 0.729155 0.684473
Si Si5 0.264947 0.256879 0.425446
Si Si6 0.766318 0.723127 0.057255
Si Si7 0.656784 0.341682 0.985413
Si Si8 0.469326 0.930827 0.196657
O O1 0.345848 0.203576 0.365653
O O2 0.220174 0.535905 0.892438
O O3 0.310277 0.234068 0.111203
O O4 0.532450 0.334331 0.088147
O O5 0.500000 0.500000 0.500000
O O6 0.732240 0.532942 0.320023
O O7 0.439753 0.630816 0.156788
O O8 0.580559 0.264807 0.596903
O O9 0.993390 0.753127 0.781061
O O10 0.891785 0.070445 0.555506
O O11 0.946556 0.720384 0.032835
O O12 0.180647 0.838458 0.815689
O O13 0.923039 0.722018 0.612199
O O14 0.285138 0.469106 0.211080
O O15 0.370818 0.119650 0.671910
O O16 0.672993 0.899423 0.937380
O O17 0.500000 0.000000 0.000000
#
# Coordination Sequence:
#
# PCOD9034362 Si02
#       8
#     2   2   2   2   2   2   2   2
#     4  11  22  41  66 100 137 184 224 267 352 410
#     4  10  22  44  73  95 127 184 226 284 343 396
#     4  11  24  40  60 100 142 182 226 276 339 402
#     4  11  24  39  63  97 150 183 217 279 336 416
#     4  11  22  39  67  95 134 183 220 276 343 406
#     4  11  24  41  69  98 139 175 226 280 343 404
#     4  10  23  39  66  96 135 177 230 276 333 417
#     4  11  25  44  71 104 133 174 236 288 336 405
#
# _framework density 21.837468999999999
#
# number of rings (size 3 to 8) (size 9 to 14) (size 15 to 20)
#    0.000    1.250    3.750    1.500    8.750    1.500 
#    0.000    0.625    5.500    1.500    0.000    0.000 
#    0.000    0.000    0.000    0.000    0.000    0.000 
#
# Total GULP energy -89455.260646 kJ/mol
# GULP energy per Si atom -5590.953790 kJ/mol
# Density = 2.178777 g / cm^3
# Si number density = 21.837469 Si / 1000 Ang^3
#
#
#
# Elastic Constant Matrix: (Units=GPa)
#
#
# Indices 1 2 3 4 5 6 
#
# 1 121.3607 33.5489 42.5679 4.8707 -9.5105 -15.6387
# 2 33.5489 118.3354 38.0436 8.6281 -5.2644 -15.3501
# 3 42.5679 38.0436 84.8750 8.6116 -8.8797 -9.0322
# 4 4.8707 8.6281 8.6116 46.4447 3.0081 -5.8817
# 5 -9.5105 -5.2644 -8.8797 3.0081 28.8342 3.9676
# 6 -15.6387 -15.3501 -9.0322 -5.8817 3.9676 24.9840
#
#
#
# Elastic Compliance Matrix: (Units=1/GPa)
#
#
# Indices 1 2 3 4 5 6 
#
# 1 0.010701 -0.001041 -0.004327 0.000336 0.001372 0.004355
# 2 -0.001041 0.010536 -0.003684 -0.000607 -0.000091 0.004361
# 3 -0.004327 -0.003684 0.016125 -0.002068 0.003098 -0.000122
# 4 0.000336 -0.000607 -0.002068 0.022874 -0.003720 0.005066
# 5 0.001372 -0.000091 0.003098 -0.003720 0.037126 -0.004848
# 6 0.004355 0.004361 -0.000122 0.005066 -0.004848 0.047350
#
#
# Mechanical properties :
#
#
# Convention : Reuss Voigt Hill
#
# Bulk Modulus (GPa) = 51.93096 61.43244 56.68170
# Shear Modulus (GPa) = 29.54446 34.07996 31.81221
#
# Velocity S-wave (km/s) = 3.68220 3.95475 3.82091
# Velocity P-wave (km/s) = 6.47383 7.00330 6.74376
#
# Compressibility (1/GPa) = 0.01925634
#
# Stress axis : x y z
#
# Youngs Moduli (GPa) = 93.45103 94.91166 62.01665
#
# Poissons Ratio (x) = 0.09881 0.26836
# Poissons Ratio (y) = 0.09729 0.22849
# Poissons Ratio (z) = 0.40438 0.34968
#
# Static dielectric constant tensor:
#      x y z
#    x 1.891690 0.034160 -0.019380 
#    y 0.034160 1.792680 -0.028820 
#    z -0.019380 -0.028820 1.831970 
# 
# From -- ./inp_files/398158.got.cif
#   From: 2010.05.17/outbox.cif.g08.bks.cpg/sg2_200_cif.got.tgz:398158.got - 2010.06.03 11:33:40.
