data_PCOD9034992
_publ_section_title
;
Structure prediction by ZEFSAII (Michael W. Deem and Ramdas Pophale) SiO2 
 PCOD9034992
Probable space group: P -1
;
_chemical_formula_sum "Si O2"
_cell_formula_units_Z 16
_cell_length_a 8.672091
_cell_length_b 11.851746
_cell_length_c 17.476268
_cell_angle_alpha 126.650402
_cell_angle_beta 128.869318
_cell_angle_gamma 30.680976
_cell_volume 706.144760
_symmetry_space_group_name_H-M "P -1"
_symmetry_group_IT_number 2
_symmetry_cell_setting 'triclinic'
loop_
_space_group_symop_operation_xyz
x,y,z
-x,-y,-z
loop_
_atom_site_type_symbol
_atom_site_label
_atom_site_fract_x
_atom_site_fract_y
_atom_site_fract_z
Si Si1 0.032968 0.173802 0.936092
Si Si2 0.628207 0.443460 0.602462
Si Si3 0.588012 0.202545 0.750179
Si Si4 0.792882 0.498006 0.108017
Si Si5 0.622118 0.983470 0.366796
Si Si6 0.479279 0.194743 0.254850
Si Si7 0.677792 0.807683 0.079704
Si Si8 0.378140 0.304439 0.551037
O O1 0.045067 0.307482 0.940628
O O2 0.911681 0.106713 0.824679
O O3 0.819046 0.335484 0.006932
O O4 0.373737 0.958735 0.991717
O O5 0.500000 0.500000 0.500000
O O6 0.471238 0.667046 0.683203
O O7 0.521218 0.367118 0.584978
O O8 0.008861 0.244613 0.630391
O O9 0.360808 0.414904 0.821512
O O10 0.571174 0.053678 0.715937
O O11 0.463192 0.261652 0.649408
O O12 0.667920 0.688191 0.089181
O O13 0.148530 0.347892 0.174703
O O14 0.486708 0.166847 0.336985
O O15 0.557696 0.081845 0.470446
O O16 0.678173 0.955939 0.186307
O O17 0.000000 0.500000 0.500000
#
# Coordination Sequence:
#
# PCOD9034992 Si02
#       8
#     2   2   2   2   2   2   2   2
#     4  10  25  42  68 105 132 181 236 293 354 416
#     4  12  25  45  77 102 137 193 244 288 352 423
#     4  12  25  43  70 101 142 183 231 289 359 415
#     4  11  22  46  70  96 142 184 228 288 353 431
#     4  12  25  49  72 102 146 190 237 293 347 429
#     4  11  22  41  76  99 135 184 239 276 357 413
#     4  10  22  45  69  99 142 177 239 291 348 424
#     4  12  28  48  70 108 149 183 237 297 356 420
#
# _framework density 22.658242999999999
#
# number of rings (size 3 to 8) (size 9 to 14) (size 15 to 20)
#    0.000    0.750    3.750    3.000    3.500    1.500 
#    4.500    0.000    0.000    0.000    0.000    0.000 
#    0.000    0.000    0.000    0.000    0.000    0.000 
#
# Total GULP energy -89368.286804 kJ/mol
# GULP energy per Si atom -5585.517925 kJ/mol
# Density = 2.260667 g / cm^3
# Si number density = 22.658243 Si / 1000 Ang^3
#
#
#
# Elastic Constant Matrix: (Units=GPa)
#
#
# Indices 1 2 3 4 5 6 
#
# 1 81.0104 20.1109 25.0608 -5.1459 3.1516 -2.9135
# 2 20.1109 49.4712 29.8862 -5.7033 1.2541 4.4377
# 3 25.0608 29.8862 147.5144 3.3849 3.8772 -6.0162
# 4 -5.1459 -5.7033 3.3849 34.3235 7.3983 -8.2227
# 5 3.1516 1.2541 3.8772 7.3983 45.2490 4.7377
# 6 -2.9135 4.4377 -6.0162 -8.2227 4.7377 23.2672
#
#
#
# Elastic Compliance Matrix: (Units=1/GPa)
#
#
# Indices 1 2 3 4 5 6 
#
# 1 0.014357 -0.005043 -0.001287 0.002664 -0.001572 0.003688
# 2 -0.005043 0.025924 -0.004703 0.002539 0.000243 -0.005944
# 3 -0.001287 -0.004703 0.008094 -0.001030 -0.000576 0.002582
# 4 0.002664 0.002539 -0.001030 0.034825 -0.007261 0.013369
# 5 -0.001572 0.000243 -0.000576 -0.007261 0.024266 -0.007899
# 6 0.003688 -0.005944 0.002582 0.013369 -0.007899 0.051575
#
#
# Mechanical properties :
#
#
# Convention : Reuss Voigt Hill
#
# Bulk Modulus (GPa) = 38.00645 47.56796 42.78721
# Shear Modulus (GPa) = 26.33272 34.09716 30.21494
#
# Velocity S-wave (km/s) = 3.41276 3.88344 3.65568
# Velocity P-wave (km/s) = 5.68678 6.41462 6.06164
#
# Compressibility (1/GPa) = 0.02631132
#
# Stress axis : x y z
#
# Youngs Moduli (GPa) = 69.65203 38.57357 123.54213
#
# Poissons Ratio (x) = 0.19452 0.15897
# Poissons Ratio (y) = 0.35125 0.58097
# Poissons Ratio (z) = 0.08963 0.18140
#
# Static dielectric constant tensor:
#      x y z
#    x 1.892040 -0.032030 -0.007450 
#    y -0.032030 1.865050 0.051010 
#    z -0.007450 0.051010 1.868770 
# 
# From -- ./inp_files/43342.got.cif
#   From: 2010.05.17/outbox.cif.g08.bks.cpg/sg2_22_cif.got.tgz:43342.got - 2010.06.03 11:33:40.
