data_PCOD9034422
_publ_section_title
;
Structure prediction by ZEFSAII (Michael W. Deem and Ramdas Pophale) SiO2 
 PCOD9034422
Probable space group: P -1
;
_chemical_formula_sum "Si O2"
_cell_formula_units_Z 12
_cell_length_a 9.481965
_cell_length_b 9.130853
_cell_length_c 7.180657
_cell_angle_alpha 129.831250
_cell_angle_beta 112.870021
_cell_angle_gamma 63.373249
_cell_volume 422.087279
_symmetry_space_group_name_H-M "P -1"
_symmetry_group_IT_number 2
_symmetry_cell_setting 'triclinic'
loop_
_space_group_symop_operation_xyz
x,y,z
-x,-y,-z
loop_
_atom_site_type_symbol
_atom_site_label
_atom_site_fract_x
_atom_site_fract_y
_atom_site_fract_z
Si Si1 0.039291 0.207690 0.726391
Si Si2 0.136654 0.227980 0.378872
Si Si3 0.617605 0.820187 0.023933
Si Si4 0.398386 0.812969 0.221677
Si Si5 0.213498 0.627239 0.717167
Si Si6 0.304346 0.628077 0.359584
O O1 0.084485 0.277867 0.606876
O O2 0.198905 0.179287 0.903034
O O3 0.867985 0.350538 0.811229
O O4 0.000000 0.000000 0.500000
O O5 0.206968 0.404015 0.495043
O O6 0.965294 0.249763 0.214245
O O7 0.260603 0.013317 0.263681
O O8 0.557373 0.831665 0.218448
O O9 0.608253 0.604137 0.778225
O O10 0.500000 0.000000 0.000000
O O11 0.393185 0.756435 0.388497
O O12 0.341009 0.642354 0.947087
O O13 0.259928 0.705289 0.607978
#
# Coordination Sequence:
#
# PCOD9034422 Si02
#       6
#     2   2   2   2   2   2
#     4  11  24  49  78 108 146 206 260 300 376 464
#     4  10  22  44  74 110 149 200 256 308 372 461
#     4  12  29  46  75 117 154 195 252 322 385 445
#     4  12  25  45  76 111 154 194 251 316 391 436
#     4  10  24  44  73 115 150 200 255 312 373 457
#     4  11  25  50  78 107 152 204 255 306 376 467
#
# _framework density 28.430139
#
# number of rings (size 3 to 8) (size 9 to 14) (size 15 to 20)
#    0.000    1.000    1.667    3.500    4.667    5.333 
#    3.000    0.000    0.000    0.000    0.000    0.000 
#    0.000    0.000    0.000    0.000    0.000    0.000 
#
# Total GULP energy -67434.720189 kJ/mol
# GULP energy per Si atom -5619.560016 kJ/mol
# Density = 2.836543 g / cm^3
# Si number density = 28.430139 Si / 1000 Ang^3
#
#
#
# Elastic Constant Matrix: (Units=GPa)
#
#
# Indices 1 2 3 4 5 6 
#
# 1 185.6899 57.9085 34.3167 -0.4229 4.2569 2.0919
# 2 57.9085 152.6961 24.3139 16.2421 5.9384 6.1742
# 3 34.3167 24.3139 68.0763 6.3327 26.6261 8.1948
# 4 -0.4229 16.2421 6.3327 53.8925 -1.0412 -5.5027
# 5 4.2569 5.9384 26.6261 -1.0412 49.9955 -13.0505
# 6 2.0919 6.1742 8.1948 -5.5027 -13.0505 71.4090
#
#
#
# Elastic Compliance Matrix: (Units=1/GPa)
#
#
# Indices 1 2 3 4 5 6 
#
# 1 0.006672 -0.002210 -0.003490 0.001247 0.001793 0.000820
# 2 -0.002210 0.007878 -0.001284 -0.002318 -0.000295 -0.000702
# 3 -0.003490 -0.001284 0.022954 -0.003109 -0.013162 -0.005066
# 4 0.001247 -0.002318 -0.003109 0.019950 0.002917 0.002591
# 5 0.001793 -0.000295 -0.013162 0.002917 0.028773 0.006967
# 6 0.000820 -0.000702 -0.005066 0.002591 0.006967 0.016095
#
#
# Mechanical properties :
#
#
# Convention : Reuss Voigt Hill
#
# Bulk Modulus (GPa) = 42.48780 71.06009 56.77394
# Shear Modulus (GPa) = 40.27831 54.38760 47.33295
#
# Velocity S-wave (km/s) = 3.76805 4.37856 4.08473
# Velocity P-wave (km/s) = 5.82306 7.11416 6.50074
#
# Compressibility (1/GPa) = 0.02353617
#
# Stress axis : x y z
#
# Youngs Moduli (GPa) = 149.87965 126.93582 43.56465
#
# Poissons Ratio (x) = 0.28054 0.15204
# Poissons Ratio (y) = 0.33125 0.05594
# Poissons Ratio (z) = 0.52307 0.16299
#
# Static dielectric constant tensor:
#      x y z
#    x 2.185770 -0.055800 0.016080 
#    y -0.055800 2.178650 -0.031970 
#    z 0.016080 -0.031970 2.204890 
# 
# From -- ./inp_files/151792.got.cif
#   From: 2010.05.17/outbox.cif.g08.bks.cpg/sg2_76_cif.got.tgz:151792.got - 2010.06.03 11:33:40.
