data_PCOD9034442
_publ_section_title
;
Structure prediction by ZEFSAII (Michael W. Deem and Ramdas Pophale) SiO2 
 PCOD9034442
Probable space group: P -1
;
_chemical_formula_sum "Si O2"
_cell_formula_units_Z 14
_cell_length_a 15.005193
_cell_length_b 15.120298
_cell_length_c 8.573655
_cell_angle_alpha 54.686702
_cell_angle_beta 105.973185
_cell_angle_gamma 151.090290
_cell_volume 622.272469
_symmetry_space_group_name_H-M "P -1"
_symmetry_group_IT_number 2
_symmetry_cell_setting 'triclinic'
loop_
_space_group_symop_operation_xyz
x,y,z
-x,-y,-z
loop_
_atom_site_type_symbol
_atom_site_label
_atom_site_fract_x
_atom_site_fract_y
_atom_site_fract_z
Si Si1 0.683137 0.405966 0.915601
Si Si2 0.931742 0.730189 0.276985
Si Si3 0.718891 0.660667 0.478179
Si Si4 0.916043 0.084107 0.192764
Si Si5 0.570193 0.884456 0.358074
Si Si6 0.750626 0.096347 0.583719
Si Si7 0.870071 0.390061 0.888788
O O1 0.652504 0.484922 0.726783
O O2 0.774985 0.408581 0.848625
O O3 0.873400 0.636769 0.900998
O O4 0.458646 0.120198 0.179773
O O5 0.845243 0.747960 0.298154
O O6 0.699729 0.413372 0.470741
O O7 0.112117 0.864137 0.339355
O O8 0.042562 0.860598 0.028048
O O9 0.500000 0.500000 0.500000
O O10 0.885551 0.924307 0.372545
O O11 0.693711 0.910322 0.322248
O O12 0.652280 0.983077 0.476502
O O13 0.672569 0.091111 0.092316
O O14 0.933081 0.389571 0.370530
O O15 0.000000 0.500000 0.000000
#
# Coordination Sequence:
#
# PCOD9034442 Si02
#       7
#     2   2   2   2   2   2   2
#     4  12  24  45  73 103 140 185 234 281 348 420
#     4  12  25  46  71 103 143 179 233 288 346 415
#     4  12  25  46  70  99 144 180 230 295 341 408
#     4  12  24  44  71 104 135 185 233 283 347 412
#     4  11  24  46  72 101 140 183 235 282 347 413
#     4  11  24  44  70 105 141 183 226 285 350 409
#     4  10  22  44  74  98 143 182 229 289 345 407
#
# _framework density 22.498182
#
# number of rings (size 3 to 8) (size 9 to 14) (size 15 to 20)
#    0.000    0.571    7.143    1.714    0.000    4.000 
#    0.000    3.571    0.000    0.000    0.000    0.000 
#    0.000    0.000    0.000    0.000    0.000    0.000 
#
# Total GULP energy -78321.494175 kJ/mol
# GULP energy per Si atom -5594.392441 kJ/mol
# Density = 2.244698 g / cm^3
# Si number density = 22.498182 Si / 1000 Ang^3
#
#
#
# Elastic Constant Matrix: (Units=GPa)
#
#
# Indices 1 2 3 4 5 6 
#
# 1 10.5612 9.9484 4.5546 9.9800 3.9296 7.6206
# 2 9.9484 73.1191 15.7738 -1.2888 2.6208 9.6315
# 3 4.5546 15.7738 140.2456 -4.1861 -4.0143 0.7712
# 4 9.9800 -1.2888 -4.1861 40.4122 -1.5718 -0.1212
# 5 3.9296 2.6208 -4.0143 -1.5718 46.6713 -4.6745
# 6 7.6206 9.6315 0.7712 -0.1212 -4.6745 29.7022
#
#
#
# Elastic Compliance Matrix: (Units=1/GPa)
#
#
# Indices 1 2 3 4 5 6 
#
# 1 0.219073 -0.021419 -0.006821 -0.056626 -0.025071 -0.053261
# 2 -0.021419 0.016841 -0.000999 0.005762 0.000990 0.000240
# 3 -0.006821 -0.000999 0.007573 0.002505 0.001580 0.002136
# 4 -0.056626 0.005762 0.002505 0.039501 0.007384 0.013918
# 5 -0.025071 0.000990 0.001580 0.007384 0.024869 0.010014
# 6 -0.053261 0.000240 0.002136 0.013918 0.010014 0.048832
#
#
# Mechanical properties :
#
#
# Convention : Reuss Voigt Hill
#
# Bulk Modulus (GPa) = 5.40517 31.60884 18.50700
# Shear Modulus (GPa) = 10.48578 36.26707 23.37643
#
# Velocity S-wave (km/s) = 2.16121 4.01933 3.22691
# Velocity P-wave (km/s) = 2.93862 5.96825 4.70401
#
# Compressibility (1/GPa) = 0.18500801
#
# Stress axis : x y z
#
# Youngs Moduli (GPa) = 4.56469 59.37999 132.05660
#
# Poissons Ratio (x) = 1.27186 0.90069
# Poissons Ratio (y) = 0.09777 0.13199
# Poissons Ratio (z) = 0.03113 0.05935
#
# Static dielectric constant tensor:
#      x y z
#    x 1.786850 0.000060 0.018140 
#    y 0.000060 1.870700 -0.021560 
#    z 0.018140 -0.021560 1.853510 
# 
# From -- ./inp_files/201597.got.cif
#   From: 2010.05.17/outbox.cif.g08.bks.cpg/sg2_101_cif.got.tgz:201597.got - 2010.06.03 11:33:40.
