data_PCOD9034157
_publ_section_title
;
Structure prediction by ZEFSAII (Michael W. Deem and Ramdas Pophale) SiO2 
 PCOD9034157
Probable space group: P -1
;
_chemical_formula_sum "Si O2"
_cell_formula_units_Z 16
_cell_length_a 9.525166
_cell_length_b 4.906236
_cell_length_c 17.097832
_cell_angle_alpha 83.112747
_cell_angle_beta 122.487345
_cell_angle_gamma 78.650322
_cell_volume 635.742182
_symmetry_space_group_name_H-M "P -1"
_symmetry_group_IT_number 2
_symmetry_cell_setting 'triclinic'
loop_
_space_group_symop_operation_xyz
x,y,z
-x,-y,-z
loop_
_atom_site_type_symbol
_atom_site_label
_atom_site_fract_x
_atom_site_fract_y
_atom_site_fract_z
Si Si1 0.526383 0.823599 0.434851
Si Si2 0.102305 0.716294 0.494485
Si Si3 0.330671 0.305675 0.007769
Si Si4 0.005903 0.141191 0.081142
Si Si5 0.440108 0.386094 0.698282
Si Si6 0.539565 0.690702 0.120869
Si Si7 0.812853 0.480024 0.794198
Si Si8 0.204821 0.575493 0.378374
O O1 0.522429 0.890949 0.339830
O O2 0.372327 0.674825 0.400927
O O3 0.726115 0.641388 0.521099
O O4 0.500000 0.000000 0.500000
O O5 0.299019 0.626967 0.596934
O O6 0.076421 0.802990 0.389474
O O7 0.000000 0.500000 0.500000
O O8 0.000000 0.000000 0.500000
O O9 0.346351 0.267786 0.919874
O O10 0.161946 0.577637 0.965516
O O11 0.150339 0.295617 0.141886
O O12 0.369572 0.981078 0.062287
O O13 0.049715 0.847112 0.154701
O O14 0.000000 0.000000 0.000000
O O15 0.378353 0.348218 0.767693
O O16 0.625977 0.444152 0.760091
O O17 0.483827 0.415022 0.086803
O O18 0.829331 0.571727 0.705820
#
# Coordination Sequence:
#
# PCOD9034157 Si02
#       8
#     2   2   2   2   2   2   2   2
#     4   9  19  39  66  93 136 173 212 290 348 398
#     4  11  27  45  68  99 142 187 227 292 355 408
#     4  10  23  44  68  96 139 181 226 289 351 404
#     4  12  26  45  67 104 147 180 228 298 366 415
#     4  10  24  44  67 106 131 181 240 284 339 432
#     4  10  22  44  71  98 131 184 235 279 336 418
#     4  11  26  42  71 101 135 188 232 289 354 424
#     4   9  22  41  61  98 131 178 225 277 342 422
#
# _framework density 25.167438000000001
#
# number of rings (size 3 to 8) (size 9 to 14) (size 15 to 20)
#    0.000    1.750    0.000    2.625    7.000    7.000 
#    4.500    0.000    0.000    0.000    0.000    0.000 
#    0.000    0.000    0.000    0.000    0.000    0.000 
#
# Total GULP energy -89121.285255 kJ/mol
# GULP energy per Si atom -5570.080328 kJ/mol
# Density = 2.511016 g / cm^3
# Si number density = 25.167438 Si / 1000 Ang^3
#
#
#
# Elastic Constant Matrix: (Units=GPa)
#
#
# Indices 1 2 3 4 5 6 
#
# 1 68.8338 21.2025 28.8017 17.5096 -7.8184 -8.4099
# 2 21.2025 133.8058 44.0786 27.5426 -1.7022 1.4444
# 3 28.8017 44.0786 133.7689 32.2421 -27.9805 -16.7182
# 4 17.5096 27.5426 32.2421 44.7156 -10.0034 -0.5525
# 5 -7.8184 -1.7022 -27.9805 -10.0034 37.9512 9.2788
# 6 -8.4099 1.4444 -16.7182 -0.5525 9.2788 37.7547
#
#
#
# Elastic Compliance Matrix: (Units=1/GPa)
#
#
# Indices 1 2 3 4 5 6 
#
# 1 0.017210 -0.001223 -0.001766 -0.004621 0.000244 0.002970
# 2 -0.001223 0.009295 -0.002492 -0.004010 -0.002438 -0.001191
# 3 -0.001766 -0.002492 0.011448 -0.004658 0.005944 0.003242
# 4 -0.004621 -0.004010 -0.004658 0.030957 0.004470 -0.003584
# 5 0.000244 -0.002438 0.005944 0.004470 0.033148 -0.005301
# 6 0.002970 -0.001191 0.003242 -0.003584 -0.005301 0.029880
#
#
# Mechanical properties :
#
#
# Convention : Reuss Voigt Hill
#
# Bulk Modulus (GPa) = 37.04962 58.28599 47.66780
# Shear Modulus (GPa) = 32.91680 40.23936 36.57808
#
# Velocity S-wave (km/s) = 3.62043 4.00292 3.81647
# Velocity P-wave (km/s) = 5.67714 6.67638 6.19693
#
# Compressibility (1/GPa) = 0.02699083
#
# Stress axis : x y z
#
# Youngs Moduli (GPa) = 58.10724 107.57939 87.34803
#
# Poissons Ratio (x) = 0.13156 0.15429
# Poissons Ratio (y) = 0.07106 0.21767
# Poissons Ratio (z) = 0.10264 0.26808
#
# Static dielectric constant tensor:
#      x y z
#    x 1.793210 0.254190 0.071080 
#    y 0.254190 0.997540 -0.132420 
#    z 0.071080 -0.132420 2.143830 
# 
# From -- ./inp_files/553450.got.cif
#   From: 2010.05.17/outbox.cif.g08.bks.cpg/sg2_277_cif.got.tgz:553450.got - 2010.06.03 11:33:40.
