data_PCOD9034881
_publ_section_title
;
Structure prediction by ZEFSAII (Michael W. Deem and Ramdas Pophale) SiO2 
 PCOD9034881
Probable space group: P -1
;
_chemical_formula_sum "Si O2"
_cell_formula_units_Z 16
_cell_length_a 11.174988
_cell_length_b 8.723067
_cell_length_c 17.458618
_cell_angle_alpha 129.952066
_cell_angle_beta 147.203366
_cell_angle_gamma 48.341567
_cell_volume 673.932024
_symmetry_space_group_name_H-M "P -1"
_symmetry_group_IT_number 2
_symmetry_cell_setting 'triclinic'
loop_
_space_group_symop_operation_xyz
x,y,z
-x,-y,-z
loop_
_atom_site_type_symbol
_atom_site_label
_atom_site_fract_x
_atom_site_fract_y
_atom_site_fract_z
Si Si1 0.908433 0.913743 0.498027
Si Si2 0.247671 0.378846 0.137306
Si Si3 0.624669 0.102168 0.661867
Si Si4 0.376653 0.374255 0.796422
Si Si5 0.093383 0.779128 0.266918
Si Si6 0.832462 0.863743 0.846504
Si Si7 0.326366 0.577523 0.693611
Si Si8 0.215118 0.456138 0.906397
O O1 0.701147 0.823640 0.334525
O O2 0.113186 0.714067 0.574185
O O3 0.855196 0.090296 0.592263
O O4 0.000000 0.000000 0.500000
O O5 0.271164 0.551472 0.268341
O O6 0.257102 0.182043 0.132631
O O7 0.460730 0.329239 0.177876
O O8 0.000000 0.500000 0.000000
O O9 0.866900 0.107356 0.753646
O O10 0.447779 0.333740 0.658294
O O11 0.500000 0.000000 0.500000
O O12 0.683380 0.972630 0.729369
O O13 0.237364 0.568077 0.729508
O O14 0.331241 0.380836 0.864019
O O15 0.627213 0.410817 0.929195
O O16 0.856722 0.723887 0.143378
O O17 0.975603 0.633871 0.820187
O O18 0.000000 0.000000 0.000000
#
# Coordination Sequence:
#
# PCOD9034881 Si02
#       8
#     2   2   2   2   2   2   2   2
#     4  12  26  44  70 101 143 186 240 290 358 430
#     4  10  22  46  72 103 146 184 237 303 358 424
#     4  11  25  42  71 105 143 185 242 292 358 434
#     4  11  23  44  66  98 143 182 233 287 361 419
#     4  10  22  45  69 101 139 184 232 293 350 421
#     4  11  23  41  71 101 136 187 240 291 359 428
#     4  11  25  42  67  97 140 187 227 293 356 416
#     4  10  23  43  70  98 138 185 235 295 350 422
#
# _framework density 23.741264000000001
#
# number of rings (size 3 to 8) (size 9 to 14) (size 15 to 20)
#    0.000    1.250    1.250    4.875    3.500    3.000 
#    0.000    4.375    0.000    0.000    0.000    0.000 
#    0.000    0.000    0.000    0.000    0.000    0.000 
#
# Total GULP energy -89188.195602 kJ/mol
# GULP energy per Si atom -5574.262225 kJ/mol
# Density = 2.368723 g / cm^3
# Si number density = 23.741264 Si / 1000 Ang^3
#
#
#
# Elastic Constant Matrix: (Units=GPa)
#
#
# Indices 1 2 3 4 5 6 
#
# 1 142.6288 30.0767 52.8141 7.6240 18.1135 41.2337
# 2 30.0767 85.2161 53.2668 -5.5549 -8.3947 24.1211
# 3 52.8141 53.2668 142.8599 18.7071 -4.4391 13.9507
# 4 7.6240 -5.5549 18.7071 39.7748 8.8877 -5.5817
# 5 18.1135 -8.3947 -4.4391 8.8877 39.2081 9.2369
# 6 41.2337 24.1211 13.9507 -5.5817 9.2369 47.4978
#
#
#
# Elastic Compliance Matrix: (Units=1/GPa)
#
#
# Indices 1 2 3 4 5 6 
#
# 1 0.011034 0.000069 -0.003292 -0.000952 -0.003329 -0.008112
# 2 0.000069 0.018765 -0.006570 0.003596 0.004330 -0.008080
# 3 -0.003292 -0.006570 0.011344 -0.005903 0.002333 0.001715
# 4 -0.000952 0.003596 -0.005903 0.031209 -0.007934 0.005944
# 5 -0.003329 0.004330 0.002333 -0.007934 0.031703 -0.007092
# 6 -0.008112 -0.008080 0.001715 0.005944 -0.007092 0.033773
#
#
# Mechanical properties :
#
#
# Convention : Reuss Voigt Hill
#
# Bulk Modulus (GPa) = 46.38367 71.44667 58.91517
# Shear Modulus (GPa) = 30.37678 40.93263 35.65471
#
# Velocity S-wave (km/s) = 3.58088 4.15675 3.87951
# Velocity P-wave (km/s) = 6.05611 7.29365 6.70350
#
# Compressibility (1/GPa) = 0.02155931
#
# Stress axis : x y z
#
# Youngs Moduli (GPa) = 90.62700 53.29094 88.14978
#
# Poissons Ratio (x) = -0.00369 0.29017
# Poissons Ratio (y) = -0.00628 0.57911
# Poissons Ratio (z) = 0.29832 0.35010
#
# Static dielectric constant tensor:
#      x y z
#    x 1.532170 0.172330 0.398330 
#    y 0.172330 1.888830 -0.135510 
#    z 0.398330 -0.135510 1.644850 
# 
# From -- ./inp_files/566996.got.cif
#   From: 2010.05.17/outbox.cif.g08.bks.cpg/sg2_284_cif.got.tgz:566996.got - 2010.06.03 11:33:40.
