data_PCOD9034061
_publ_section_title
;
Structure prediction by ZEFSAII (Michael W. Deem and Ramdas Pophale) SiO2 
 PCOD9034061
Probable space group: P -1
;
_chemical_formula_sum "Si O2"
_cell_formula_units_Z 12
_cell_length_a 4.997033
_cell_length_b 12.378283
_cell_length_c 9.077786
_cell_angle_alpha 107.178373
_cell_angle_beta 97.986300
_cell_angle_gamma 61.889665
_cell_volume 473.175678
_symmetry_space_group_name_H-M "P -1"
_symmetry_group_IT_number 2
_symmetry_cell_setting 'triclinic'
loop_
_space_group_symop_operation_xyz
x,y,z
-x,-y,-z
loop_
_atom_site_type_symbol
_atom_site_label
_atom_site_fract_x
_atom_site_fract_y
_atom_site_fract_z
Si Si1 0.605034 0.151494 0.214326
Si Si2 0.994712 0.217706 0.069984
Si Si3 0.285413 0.073165 0.647586
Si Si4 0.294149 0.437372 0.397300
Si Si5 0.650248 0.226426 0.742512
Si Si6 0.464076 0.505248 0.824209
O O1 0.901756 0.140251 0.149854
O O2 0.458259 0.284107 0.347282
O O3 0.350795 0.168745 0.080576
O O4 0.664311 0.031241 0.267474
O O5 0.833560 0.363223 0.174611
O O6 0.838466 0.218592 0.903561
O O7 0.410088 0.174366 0.734222
O O8 0.924711 0.144298 0.619003
O O9 0.500000 0.000000 0.500000
O O10 0.500000 0.500000 0.500000
O O11 0.274740 0.478245 0.239299
O O12 0.000000 0.500000 0.500000
O O13 0.481953 0.370563 0.733046
O O14 0.500000 0.500000 0.000000
#
# Coordination Sequence:
#
# PCOD9034061 Si02
#       6
#     2   2   2   2   2   2
#     4  11  24  43  66  95 140 167 224 283 324 402
#     4  10  22  44  71 102 128 168 223 286 340 385
#     4  12  28  44  63  95 138 184 223 269 324 403
#     4  11  24  40  68  98 129 179 224 277 340 395
#     4  11  25  43  71  97 132 181 220 271 340 402
#     4   9  22  44  70 103 138 171 226 287 342 405
#
# _framework density 25.360558000000001
#
# number of rings (size 3 to 8) (size 9 to 14) (size 15 to 20)
#    0.000    1.333    0.000    4.500    4.667    6.667 
#    0.000   14.167    0.000    0.000    0.000    0.000 
#    0.000    0.000    0.000    0.000    0.000    0.000 
#
# Total GULP energy -67246.481207 kJ/mol
# GULP energy per Si atom -5603.873434 kJ/mol
# Density = 2.530284 g / cm^3
# Si number density = 25.360558 Si / 1000 Ang^3
#
#
#
# Elastic Constant Matrix: (Units=GPa)
#
#
# Indices 1 2 3 4 5 6 
#
# 1 141.2378 44.6079 18.2752 -2.9326 -17.0191 25.4583
# 2 44.6079 191.3241 23.2666 -3.8634 -12.6276 32.0365
# 3 18.2752 23.2666 75.7575 -4.2892 -24.1227 6.2893
# 4 -2.9326 -3.8634 -4.2892 32.9501 1.2154 -3.1439
# 5 -17.0191 -12.6276 -24.1227 1.2154 44.8125 0.3919
# 6 25.4583 32.0365 6.2893 -3.1439 0.3919 41.5326
#
#
#
# Elastic Compliance Matrix: (Units=1/GPa)
#
#
# Indices 1 2 3 4 5 6 
#
# 1 0.008598 -0.001018 -0.000519 0.000055 0.002736 -0.004428
# 2 -0.001018 0.006341 -0.001086 0.000089 0.000849 -0.004104
# 3 -0.000519 -0.001086 0.016516 0.001543 0.008357 -0.001307
# 4 0.000055 0.000089 0.001543 0.030754 0.000025 0.001992
# 5 0.002736 0.000849 0.008357 0.000025 0.028125 -0.003861
# 6 -0.004428 -0.004104 -0.001307 0.001992 -0.003861 0.030342
#
#
# Mechanical properties :
#
#
# Convention : Reuss Voigt Hill
#
# Bulk Modulus (GPa) = 38.15656 64.51317 51.33487
# Shear Modulus (GPa) = 37.13060 45.33703 41.23381
#
# Velocity S-wave (km/s) = 3.83052 4.23271 4.03662
# Velocity P-wave (km/s) = 5.88576 7.02719 6.48165
#
# Compressibility (1/GPa) = 0.02620781
#
# Stress axis : x y z
#
# Youngs Moduli (GPa) = 116.30522 157.69773 60.54870
#
# Poissons Ratio (x) = 0.16060 0.03145
# Poissons Ratio (y) = 0.11844 0.06574
# Poissons Ratio (z) = 0.06041 0.17122
#
# Static dielectric constant tensor:
#      x y z
#    x 1.954000 -0.016710 0.035960 
#    y -0.016710 1.955770 0.053480 
#    z 0.035960 0.053480 2.143320 
# 
# From -- ./inp_files/131010.got.cif
#   From: 2010.05.17/outbox.cif.g08.bks.cpg/sg2_66_cif.got.tgz:131010.got - 2010.06.03 11:33:40.
