data_PCOD9034178
_publ_section_title
;
Structure prediction by ZEFSAII (Michael W. Deem and Ramdas Pophale) SiO2 
 PCOD9034178
Probable space group: P -1
;
_chemical_formula_sum "Si O2"
_cell_formula_units_Z 14
_cell_length_a 8.535889
_cell_length_b 9.567301
_cell_length_c 12.491149
_cell_angle_alpha 64.895832
_cell_angle_beta 75.376565
_cell_angle_gamma 120.693742
_cell_volume 634.062229
_symmetry_space_group_name_H-M "P -1"
_symmetry_group_IT_number 2
_symmetry_cell_setting 'triclinic'
loop_
_space_group_symop_operation_xyz
x,y,z
-x,-y,-z
loop_
_atom_site_type_symbol
_atom_site_label
_atom_site_fract_x
_atom_site_fract_y
_atom_site_fract_z
Si Si1 0.721246 0.044388 0.959514
Si Si2 0.393545 0.697427 0.401883
Si Si3 0.123253 0.419915 0.913373
Si Si4 0.823524 0.187165 0.241362
Si Si5 0.974536 0.798690 0.579333
Si Si6 0.457097 0.391326 0.775096
Si Si7 0.072667 0.727537 0.351480
O O1 0.830914 0.090052 0.809909
O O2 0.897643 0.257668 0.932134
O O3 0.500000 0.000000 0.000000
O O4 0.664588 0.844487 0.086618
O O5 0.500693 0.618262 0.353964
O O6 0.254938 0.710379 0.334993
O O7 0.174526 0.498198 0.573199
O O8 0.597228 0.937266 0.333585
O O9 0.215901 0.656520 0.819514
O O10 0.306391 0.432127 0.823774
O O11 0.032903 0.301385 0.083896
O O12 0.888846 0.183652 0.351544
O O13 0.710063 0.582057 0.715037
O O14 0.045663 0.776701 0.459020
O O15 0.000000 0.000000 0.500000
#
# Coordination Sequence:
#
# PCOD9034178 Si02
#       7
#     2   2   2   2   2   2   2
#     4  12  22  44  76 102 135 185 238 285 340 418
#     4  10  22  44  72 100 138 185 234 282 346 417
#     4  11  26  42  73 109 138 181 234 294 347 399
#     4  11  25  47  70 102 146 183 229 286 354 417
#     4  11  28  47  68 105 144 184 230 287 352 415
#     4  11  24  46  71 102 137 181 242 283 339 412
#     4  10  24  43  71 104 138 184 234 280 348 416
#
# _framework density 22.07985
#
# number of rings (size 3 to 8) (size 9 to 14) (size 15 to 20)
#    0.000    1.143    2.857    1.286    8.000    3.429 
#    0.000    2.857    0.000    0.000    0.000    0.000 
#    0.000    0.000    0.000    0.000    0.000    0.000 
#
# Total GULP energy -78269.912379 kJ/mol
# GULP energy per Si atom -5590.708027 kJ/mol
# Density = 2.202960 g / cm^3
# Si number density = 22.079850 Si / 1000 Ang^3
#
#
#
# Elastic Constant Matrix: (Units=GPa)
#
#
# Indices 1 2 3 4 5 6 
#
# 1 52.2030 38.8028 30.2247 3.5310 -19.8549 -6.3733
# 2 38.8028 122.4674 39.2198 -9.7965 -18.5749 3.8134
# 3 30.2247 39.2198 116.0109 7.6022 -3.1020 12.2562
# 4 3.5310 -9.7965 7.6022 30.4823 4.5100 -7.2991
# 5 -19.8549 -18.5749 -3.1020 4.5100 31.6044 2.6292
# 6 -6.3733 3.8134 12.2562 -7.2991 2.6292 35.3080
#
#
#
# Elastic Compliance Matrix: (Units=1/GPa)
#
#
# Indices 1 2 3 4 5 6 
#
# 1 0.037040 -0.007374 -0.007054 -0.005877 0.018472 0.007341
# 2 -0.007374 0.011869 -0.002263 0.004781 0.001518 -0.000952
# 3 -0.007054 -0.002263 0.011972 -0.003729 -0.003581 -0.005689
# 4 -0.005877 0.004781 -0.003729 0.039065 -0.007518 0.008353
# 5 0.018472 0.001518 -0.003581 -0.007518 0.044899 -0.000484
# 6 0.007341 -0.000952 -0.005689 0.008353 -0.000484 0.033488
#
#
# Mechanical properties :
#
#
# Convention : Reuss Voigt Hill
#
# Bulk Modulus (GPa) = 36.36481 56.35288 46.35884
# Shear Modulus (GPa) = 22.63642 31.64121 27.13882
#
# Velocity S-wave (km/s) = 3.20536 3.78965 3.50969
# Velocity P-wave (km/s) = 5.49587 6.68778 6.12090
#
# Compressibility (1/GPa) = 0.02749911
#
# Stress axis : x y z
#
# Youngs Moduli (GPa) = 26.99762 84.25300 83.52520
#
# Poissons Ratio (x) = 0.62128 0.58917
# Poissons Ratio (y) = 0.19908 0.18906
# Poissons Ratio (z) = 0.19044 0.19071
#
# Static dielectric constant tensor:
#      x y z
#    x 1.806690 -0.009830 -0.005660 
#    y -0.009830 1.809300 0.027060 
#    z -0.005660 0.027060 1.825860 
# 
# From -- ./inp_files/158951.got.cif
#   From: 2010.05.17/outbox.cif.g08.bks.cpg/sg2_80_cif.got.tgz:158951.got - 2010.06.03 11:33:40.
