data_PCOD9034332
_publ_section_title
;
Structure prediction by ZEFSAII (Michael W. Deem and Ramdas Pophale) SiO2 
 PCOD9034332
Probable space group: P -1
;
_chemical_formula_sum "Si O2"
_cell_formula_units_Z 15
_cell_length_a 11.404297
_cell_length_b 10.960792
_cell_length_c 9.721115
_cell_angle_alpha 37.249456
_cell_angle_beta 75.214651
_cell_angle_gamma 98.201857
_cell_volume 573.737997
_symmetry_space_group_name_H-M "P -1"
_symmetry_group_IT_number 2
_symmetry_cell_setting 'triclinic'
loop_
_space_group_symop_operation_xyz
x,y,z
-x,-y,-z
loop_
_atom_site_type_symbol
_atom_site_label
_atom_site_fract_x
_atom_site_fract_y
_atom_site_fract_z
Si Si1 0.876936 0.240124 0.006260
Si Si2 0.598143 0.474008 0.175677
Si Si3 0.797683 0.612810 0.744440
Si Si4 0.823591 0.821865 0.250783
Si Si5 0.621363 0.929396 0.806090
Si Si6 0.500000 0.000000 0.500000
Si Si7 0.233510 0.563806 0.596347
Si Si8 0.064841 0.790388 0.691992
O O1 0.789945 0.358116 0.967762
O O2 0.056577 0.453681 0.728011
O O3 0.890145 0.113921 0.251766
O O4 0.796987 0.032605 0.097519
O O5 0.475441 0.190684 0.425051
O O6 0.725049 0.481183 0.223224
O O7 0.671369 0.580855 0.908050
O O8 0.560972 0.645812 0.107962
O O9 0.803547 0.686087 0.521598
O O10 0.944333 0.783163 0.641550
O O11 0.743347 0.606363 0.355246
O O12 0.000000 0.000000 0.000000
O O13 0.535994 0.924808 0.702703
O O14 0.652907 0.135682 0.723388
O O15 0.790077 0.068925 0.572346
O O16 0.000000 0.500000 0.000000
#
# Coordination Sequence:
#
# PCOD9034332 Si02
#       8
#     2   2   2   2   2   1   2   2
#     4  10  18  34  51  79 123 160 190 230 271 337
#     4  11  23  37  65  86 110 156 194 246 296 349
#     4  11  21  36  58  87 121 158 193 229 288 357
#     4  10  24  33  50  82 128 167 192 224 274 347
#     4  11  21  35  61  83 116 152 191 235 303 342
#     4  10  22  42  56  90 116 134 196 270 292 334
#     4  10  20  36  50  83 123 154 194 233 276 340
#     4  10  17  32  56  88 119 150 188 235 283 346
#
# _framework density 26.144338000000001
#
# number of rings (size 3 to 8) (size 9 to 14) (size 15 to 20)
#    0.000    1.600    4.000    3.600    3.733    4.267 
#    0.000    0.000    0.000    3.200    0.000   28.000 
#    0.000    0.000    0.000    0.000    0.000    0.000 
#
# Total GULP energy -83540.493434 kJ/mol
# GULP energy per Si atom -5569.366229 kJ/mol
# Density = 2.608483 g / cm^3
# Si number density = 26.144338 Si / 1000 Ang^3
#
#
#
# Elastic Constant Matrix: (Units=GPa)
#
#
# Indices 1 2 3 4 5 6 
#
# 1 77.5108 18.7124 14.2230 -11.5512 0.9810 5.0148
# 2 18.7124 214.5289 35.8031 -57.4623 10.9343 -19.6201
# 3 14.2230 35.8031 69.4751 -11.1539 10.9326 0.5424
# 4 -11.5512 -57.4623 -11.1539 56.9531 -14.8970 10.7804
# 5 0.9810 10.9343 10.9326 -14.8970 35.7261 -3.7982
# 6 5.0148 -19.6201 0.5424 10.7804 -3.7982 33.8373
#
#
#
# Elastic Compliance Matrix: (Units=1/GPa)
#
#
# Indices 1 2 3 4 5 6 
#
# 1 0.014051 -0.000392 -0.002396 0.002917 0.001360 -0.003048
# 2 -0.000392 0.007012 -0.002775 0.006447 0.001647 0.002299
# 3 -0.002396 -0.002775 0.016945 -0.000894 -0.004833 -0.001783
# 4 0.002917 0.006447 -0.000894 0.027766 0.009322 -0.004479
# 5 0.001360 0.001647 -0.004833 0.009322 0.032981 0.001563
# 6 -0.003048 0.002299 -0.001783 -0.004479 0.001563 0.032969
#
#
# Mechanical properties :
#
#
# Convention : Reuss Voigt Hill
#
# Bulk Modulus (GPa) = 37.20180 55.44354 46.32267
# Shear Modulus (GPa) = 32.93554 44.82174 38.87864
#
# Velocity S-wave (km/s) = 3.55316 4.14502 3.86045
# Velocity P-wave (km/s) = 5.57616 6.64537 6.13411
#
# Compressibility (1/GPa) = 0.02688042
#
# Stress axis : x y z
#
# Youngs Moduli (GPa) = 71.17144 142.61277 59.01367
#
# Poissons Ratio (x) = 0.05596 0.14140
# Poissons Ratio (y) = 0.02793 0.16378
# Poissons Ratio (z) = 0.17053 0.39578
#
# Static dielectric constant tensor:
#      x y z
#    x 2.085100 -0.016220 -0.043790 
#    y -0.016220 2.161750 -0.194670 
#    z -0.043790 -0.194670 2.147360 
# 
# From -- ./inp_files/302124.got.cif
#   From: 2010.05.17/outbox.cif.g08.bks.cpg/sg2_152_cif.got.tgz:302124.got - 2010.06.03 11:33:40.
