data_PCOD9034914
_publ_section_title
;
Structure prediction by ZEFSAII (Michael W. Deem and Ramdas Pophale) SiO2 
 PCOD9034914
Probable space group: P -1
;
_chemical_formula_sum "Si O2"
_cell_formula_units_Z 16
_cell_length_a 9.378216
_cell_length_b 12.779683
_cell_length_c 19.274002
_cell_angle_alpha 152.756169
_cell_angle_beta 133.368775
_cell_angle_gamma 46.537528
_cell_volume 747.663291
_symmetry_space_group_name_H-M "P -1"
_symmetry_group_IT_number 2
_symmetry_cell_setting 'triclinic'
loop_
_space_group_symop_operation_xyz
x,y,z
-x,-y,-z
loop_
_atom_site_type_symbol
_atom_site_label
_atom_site_fract_x
_atom_site_fract_y
_atom_site_fract_z
Si Si1 0.957726 0.406837 0.242190
Si Si2 0.363065 0.694775 0.118317
Si Si3 0.304836 0.674773 0.503583
Si Si4 0.068656 0.365053 0.015393
Si Si5 0.617496 0.477406 0.698979
Si Si6 0.598258 0.054849 0.183815
Si Si7 0.740282 0.051258 0.889716
Si Si8 0.565138 0.721131 0.348173
O O1 0.799064 0.603146 0.345794
O O2 0.127963 0.538961 0.353873
O O3 0.837595 0.273213 0.070168
O O4 0.083152 0.181722 0.192409
O O5 0.359719 0.919987 0.202131
O O6 0.458488 0.675809 0.214568
O O7 0.500000 0.500000 0.000000
O O8 0.131440 0.688368 0.050196
O O9 0.500000 0.500000 0.500000
O O10 0.359514 0.718375 0.468882
O O11 0.267790 0.876670 0.667676
O O12 0.168542 0.505954 0.187831
O O13 0.000000 0.500000 0.000000
O O14 0.251787 0.143006 0.926793
O O15 0.502713 0.723176 0.768304
O O16 0.500855 0.409936 0.685692
O O17 0.416851 0.971913 0.115045
O O18 0.500000 0.000000 0.500000
#
# Coordination Sequence:
#
# PCOD9034914 Si02
#       8
#     2   2   2   2   2   2   2   2
#     4  11  23  44  73 105 139 185 240 290 358 420
#     4  12  26  46  67 100 145 187 236 287 350 432
#     4  10  22  45  69 104 139 180 232 290 355 420
#     4  12  25  45  70 108 143 187 235 293 360 422
#     4  11  24  48  71 102 144 180 240 295 350 427
#     4  11  25  45  78 105 142 182 242 300 354 419
#     4  11  23  43  76 108 133 186 245 293 346 430
#     4  12  29  47  66 104 148 189 232 296 367 420
#
# _framework density 21.400009000000001
#
# number of rings (size 3 to 8) (size 9 to 14) (size 15 to 20)
#    0.000    0.750    5.000    2.625    7.000    0.000 
#    0.000    4.375    0.000    0.000    0.000    0.000 
#    0.000    0.000    0.000    0.000    0.000    0.000 
#
# Total GULP energy -89273.726542 kJ/mol
# GULP energy per Si atom -5579.607909 kJ/mol
# Density = 2.135130 g / cm^3
# Si number density = 21.400009 Si / 1000 Ang^3
#
#
#
# Elastic Constant Matrix: (Units=GPa)
#
#
# Indices 1 2 3 4 5 6 
#
# 1 152.5125 69.3570 50.3232 -7.7441 1.6913 2.3483
# 2 69.3570 122.8004 31.8730 -10.4597 -7.2201 12.5879
# 3 50.3232 31.8730 92.2940 -15.0315 -1.1154 4.1482
# 4 -7.7441 -10.4597 -15.0315 26.9789 1.1356 -15.9120
# 5 1.6913 -7.2201 -1.1154 1.1356 34.1473 -5.2872
# 6 2.3483 12.5879 4.1482 -15.9120 -5.2872 45.5749
#
#
#
# Elastic Compliance Matrix: (Units=1/GPa)
#
#
# Indices 1 2 3 4 5 6 
#
# 1 0.010051 -0.004876 -0.003963 -0.000694 -0.001516 0.000771
# 2 -0.004876 0.011625 -0.001046 0.001128 0.002286 -0.002205
# 3 -0.003963 -0.001046 0.014523 0.007647 0.000489 0.001898
# 4 -0.000694 0.001128 0.007647 0.051670 0.001474 0.017239
# 5 -0.001516 0.002286 0.000489 0.001474 0.030342 0.003437
# 6 0.000771 -0.002205 0.001898 0.017239 0.003437 0.028756
#
#
# Mechanical properties :
#
#
# Convention : Reuss Voigt Hill
#
# Bulk Modulus (GPa) = 60.86094 74.52370 67.69232
# Shear Modulus (GPa) = 29.03370 35.74381 32.38875
#
# Velocity S-wave (km/s) = 3.68736 4.09133 3.89458
# Velocity P-wave (km/s) = 6.82863 7.56428 7.20585
#
# Compressibility (1/GPa) = 0.01643090
#
# Stress axis : x y z
#
# Youngs Moduli (GPa) = 99.48893 86.02105 68.85695
#
# Poissons Ratio (x) = 0.41942 0.27286
# Poissons Ratio (y) = 0.48508 0.07200
# Poissons Ratio (z) = 0.39425 0.08995
#
# Static dielectric constant tensor:
#      x y z
#    x 1.908560 -0.014670 -0.009750 
#    y -0.014670 1.786590 0.014510 
#    z -0.009750 0.014510 1.837170 
# 
# From -- ./inp_files/560196.got.cif
#   From: 2010.05.17/outbox.cif.g08.bks.cpg/sg2_281_cif.got.tgz:560196.got - 2010.06.03 11:33:40.
