data_PCOD9034295
_publ_section_title
;
Structure prediction by ZEFSAII (Michael W. Deem and Ramdas Pophale) SiO2 
 PCOD9034295
Probable space group: P -1
;
_chemical_formula_sum "Si O2"
_cell_formula_units_Z 16
_cell_length_a 25.716848
_cell_length_b 16.390161
_cell_length_c 19.181429
_cell_angle_alpha 27.324717
_cell_angle_beta 17.856749
_cell_angle_gamma 17.167016
_cell_volume 711.777317
_symmetry_space_group_name_H-M "P -1"
_symmetry_group_IT_number 2
_symmetry_cell_setting 'triclinic'
loop_
_space_group_symop_operation_xyz
x,y,z
-x,-y,-z
loop_
_atom_site_type_symbol
_atom_site_label
_atom_site_fract_x
_atom_site_fract_y
_atom_site_fract_z
Si Si1 0.658754 0.748702 0.933397
Si Si2 0.209720 0.449653 0.672982
Si Si3 0.633924 0.412928 0.167092
Si Si4 0.218964 0.830690 0.087871
Si Si5 0.816792 0.762673 0.258103
Si Si6 0.810759 0.912305 0.944458
Si Si7 0.294070 0.213908 0.312449
Si Si8 0.938825 0.920299 0.247417
O O1 0.692653 0.814429 0.765554
O O2 0.957318 0.447304 0.810449
O O3 0.496878 0.701403 0.153672
O O4 0.500000 0.000000 0.000000
O O5 0.457295 0.385192 0.392660
O O6 0.109842 0.460251 0.718050
O O7 0.218027 0.249111 0.853157
O O8 0.011491 0.721503 0.769328
O O9 0.834204 0.305531 0.929761
O O10 0.815749 0.199004 0.161928
O O11 0.199604 0.030850 0.915543
O O12 0.111372 0.990067 0.178498
O O13 0.500000 0.500000 0.000000
O O14 0.059269 0.834024 0.236483
O O15 0.500000 0.000000 0.500000
O O16 0.513256 0.169643 0.096196
O O17 0.000000 0.500000 0.500000
O O18 0.318471 0.999721 0.478510
#
# Coordination Sequence:
#
# PCOD9034295 Si02
#       8
#     2   2   2   2   2   2   2   2
#     4  12  28  48  72 106 148 193 241 296 368 432
#     4  10  22  44  72  98 139 189 231 294 366 430
#     4  11  23  45  72 101 139 187 243 298 359 423
#     4  11  24  41  67 103 142 176 234 297 353 418
#     4  11  25  45  71 101 143 187 237 295 356 427
#     4  10  23  43  67 103 142 183 234 292 366 428
#     4  12  24  43  72 102 140 185 238 294 352 425
#     4  11  23  42  71 105 138 180 246 300 353 418
#
# _framework density 22.478942
#
# number of rings (size 3 to 8) (size 9 to 14) (size 15 to 20)
#    0.000    1.000    3.750    2.250    7.000    1.000 
#    0.000    2.500    0.000    0.000    0.000    0.000 
#    0.000    0.000    0.000    0.000    0.000    0.000 
#
# Total GULP energy -89101.213693 kJ/mol
# GULP energy per Si atom -5568.825856 kJ/mol
# Density = 2.242778 g / cm^3
# Si number density = 22.478942 Si / 1000 Ang^3
#
#
#
# Elastic Constant Matrix: (Units=GPa)
#
#
# Indices 1 2 3 4 5 6 
#
# 1 103.8433 3.4433 31.2675 -5.0416 0.9813 16.4295
# 2 3.4433 61.4361 1.8661 -10.5884 11.6480 13.3809
# 3 31.2675 1.8661 54.6194 -6.8373 6.6596 -0.6881
# 4 -5.0416 -10.5884 -6.8373 23.5404 1.7292 -3.9244
# 5 0.9813 11.6480 6.6596 1.7292 33.0491 -0.2436
# 6 16.4295 13.3809 -0.6881 -3.9244 -0.2436 44.3529
#
#
#
# Elastic Compliance Matrix: (Units=1/GPa)
#
#
# Indices 1 2 3 4 5 6 
#
# 1 0.012616 0.000375 -0.007437 -0.000179 0.000965 -0.004912
# 2 0.000375 0.020556 0.001159 0.009328 -0.008018 -0.005541
# 3 -0.007437 0.001159 0.024085 0.006879 -0.005376 0.003358
# 4 -0.000179 0.009328 0.006879 0.049450 -0.007243 0.001695
# 5 0.000965 -0.008018 -0.005376 -0.007243 0.034529 0.001527
# 6 -0.004912 -0.005541 0.003358 0.001695 0.001527 0.026248
#
#
# Mechanical properties :
#
#
# Convention : Reuss Voigt Hill
#
# Bulk Modulus (GPa) = 22.00236 32.56143 27.28189
# Shear Modulus (GPa) = 25.71473 32.40993 29.06233
#
# Velocity S-wave (km/s) = 3.38590 3.80121 3.59955
# Velocity P-wave (km/s) = 5.00949 5.81226 5.42574
#
# Compressibility (1/GPa) = 0.04544967
#
# Stress axis : x y z
#
# Youngs Moduli (GPa) = 79.26320 48.64859 41.51924
#
# Poissons Ratio (x) = -0.01824 0.30878
# Poissons Ratio (y) = -0.02971 -0.04810
# Poissons Ratio (z) = 0.58949 -0.05636
#
# Static dielectric constant tensor:
#      x y z
#    x 1.847040 -0.012440 -0.029160 
#    y -0.012440 1.970900 -0.093460 
#    z -0.029160 -0.093460 1.925470 
# 
# From -- ./inp_files/579306.got.cif
#   From: 2010.05.17/outbox.cif.g08.bks.cpg/sg2_290_cif.got.tgz:579306.got - 2010.06.03 11:33:40.
