data_PCOD9034200
_publ_section_title
;
Structure prediction by ZEFSAII (Michael W. Deem and Ramdas Pophale) SiO2 
 PCOD9034200
Probable space group: P -1
;
_chemical_formula_sum "Si O2"
_cell_formula_units_Z 12
_cell_length_a 9.107256
_cell_length_b 4.996628
_cell_length_c 14.395459
_cell_angle_alpha 112.907784
_cell_angle_beta 112.028908
_cell_angle_gamma 47.758399
_cell_volume 440.494492
_symmetry_space_group_name_H-M "P -1"
_symmetry_group_IT_number 2
_symmetry_cell_setting 'triclinic'
loop_
_space_group_symop_operation_xyz
x,y,z
-x,-y,-z
loop_
_atom_site_type_symbol
_atom_site_label
_atom_site_fract_x
_atom_site_fract_y
_atom_site_fract_z
Si Si1 0.264542 0.753495 0.282530
Si Si2 0.765179 0.244630 0.503046
Si Si3 0.505879 0.015991 0.117439
Si Si4 0.415387 0.179577 0.619553
Si Si5 0.849256 0.937293 0.995129
Si Si6 0.804874 0.124494 0.203888
O O1 0.267545 0.698864 0.387244
O O2 0.396387 0.405673 0.198768
O O3 0.357395 0.972239 0.324955
O O4 0.038516 0.929142 0.229303
O O5 0.649848 0.623512 0.470226
O O6 0.672285 0.042546 0.420604
O O7 0.000000 0.000000 0.500000
O O8 0.339606 0.957560 0.095858
O O9 0.733610 0.873374 0.175876
O O10 0.500000 0.000000 0.000000
O O11 0.288748 0.531021 0.705623
O O12 0.000000 0.500000 0.000000
O O13 0.742408 0.217733 0.094605
O O14 0.000000 0.000000 0.000000
#
# Coordination Sequence:
#
# PCOD9034200 Si02
#       6
#     2   2   2   2   2   2
#     4  11  22  43  73 100 140 184 230 284 345 406
#     4  12  25  46  71 101 143 182 228 285 343 408
#     4   9  21  43  69 102 139 179 231 283 342 410
#     4  11  26  47  67 104 140 183 229 282 341 413
#     4  11  23  44  69  99 135 179 225 280 342 403
#     4  10  22  44  72 102 137 184 230 282 345 409
#
# _framework density 27.242111999999999
#
# number of rings (size 3 to 8) (size 9 to 14) (size 15 to 20)
#    0.000    1.333    3.333    1.500    0.000    2.667 
#    6.000    7.500    0.000    0.000    0.000    0.000 
#    0.000    0.000    0.000    0.000    0.000    0.000 
#
# Total GULP energy -67078.891616 kJ/mol
# GULP energy per Si atom -5589.907635 kJ/mol
# Density = 2.718011 g / cm^3
# Si number density = 27.242112 Si / 1000 Ang^3
#
#
#
# Elastic Constant Matrix: (Units=GPa)
#
#
# Indices 1 2 3 4 5 6 
#
# 1 246.8401 64.7807 46.5394 3.3858 63.8725 -8.7517
# 2 64.7807 80.3815 21.1000 5.5770 21.0757 7.5429
# 3 46.5394 21.1000 179.1101 30.7020 10.6198 12.5844
# 4 3.3858 5.5770 30.7020 42.9153 -3.9460 8.0860
# 5 63.8725 21.0757 10.6198 -3.9460 74.3092 -2.7590
# 6 -8.7517 7.5429 12.5844 8.0860 -2.7590 59.7216
#
#
#
# Elastic Compliance Matrix: (Units=1/GPa)
#
#
# Indices 1 2 3 4 5 6 
#
# 1 0.006422 -0.003939 -0.001079 0.000117 -0.004189 0.001457
# 2 -0.003939 0.016401 -0.000458 -0.001154 -0.001353 -0.002459
# 3 -0.001079 -0.000458 0.006772 -0.004544 -0.000186 -0.000921
# 4 0.000117 -0.001154 -0.004544 0.027366 0.002237 -0.002481
# 5 -0.004189 -0.001353 -0.000186 0.002237 0.017591 0.000106
# 6 0.001457 -0.002459 -0.000921 -0.002481 0.000106 0.017803
#
#
# Mechanical properties :
#
#
# Convention : Reuss Voigt Hill
#
# Bulk Modulus (GPa) = 53.63743 85.68575 69.66159
# Shear Modulus (GPa) = 45.65309 60.31665 52.98487
#
# Velocity S-wave (km/s) = 4.09813 4.71052 4.41496
# Velocity P-wave (km/s) = 6.49036 7.81710 7.18442
#
# Compressibility (1/GPa) = 0.01864370
#
# Stress axis : x y z
#
# Youngs Moduli (GPa) = 155.70801 60.97175 147.66703
#
# Poissons Ratio (x) = 0.24018 0.15930
# Poissons Ratio (y) = 0.61337 0.06759
# Poissons Ratio (z) = 0.16798 0.02791
#
# Static dielectric constant tensor:
#      x y z
#    x 2.164290 0.113630 -0.120260 
#    y 0.113630 2.572810 -0.123360 
#    z -0.120260 -0.123360 2.206450 
# 
# From -- ./inp_files/488708.got.cif
#   From: 2010.05.17/outbox.cif.g08.bks.cpg/sg2_245_cif.got.tgz:488708.got - 2010.06.03 11:33:40.
