data_PCOD9034642
_publ_section_title
;
Structure prediction by ZEFSAII (Michael W. Deem and Ramdas Pophale) SiO2 
 PCOD9034642
Probable space group: P -1
;
_chemical_formula_sum "Si O2"
_cell_formula_units_Z 16
_cell_length_a 14.091589
_cell_length_b 15.001787
_cell_length_c 9.117169
_cell_angle_alpha 93.030138
_cell_angle_beta 123.374302
_cell_angle_gamma 134.769299
_cell_volume 765.278273
_symmetry_space_group_name_H-M "P -1"
_symmetry_group_IT_number 2
_symmetry_cell_setting 'triclinic'
loop_
_space_group_symop_operation_xyz
x,y,z
-x,-y,-z
loop_
_atom_site_type_symbol
_atom_site_label
_atom_site_fract_x
_atom_site_fract_y
_atom_site_fract_z
Si Si1 0.100415 0.941541 0.508496
Si Si2 0.278820 0.868968 0.598048
Si Si3 0.902450 0.733822 0.607646
Si Si4 0.770428 0.783419 0.747630
Si Si5 0.616984 0.608546 0.916473
Si Si6 0.166486 0.737756 0.821610
Si Si7 0.524625 0.341296 0.762814
Si Si8 0.017988 0.469171 0.851923
O O1 0.166317 0.890123 0.490829
O O2 0.072678 0.903471 0.653762
O O3 0.308797 0.151925 0.657867
O O4 0.843705 0.796215 0.218582
O O5 0.184751 0.762252 0.663198
O O6 0.196356 0.745945 0.389351
O O7 0.562819 0.074776 0.872286
O O8 0.844885 0.756974 0.696750
O O9 0.650393 0.541582 0.293493
O O10 0.025683 0.727422 0.755869
O O11 0.668719 0.671995 0.799172
O O12 0.580014 0.711965 0.492723
O O13 0.000000 0.000000 0.000000
O O14 0.601307 0.490564 0.901393
O O15 0.037671 0.561199 0.756473
O O16 0.743033 0.424708 0.949710
O O17 0.000000 0.500000 0.000000
#
# Coordination Sequence:
#
# PCOD9034642 Si02
#       8
#     2   2   2   2   2   2   2   2
#     4  11  21  43  68  95 128 165 217 270 317 379
#     4  10  22  45  66  93 131 173 209 269 330 374
#     4  10  24  41  65  98 127 166 218 265 315 386
#     4  11  24  43  65  90 131 177 204 264 324 383
#     4  11  23  43  68  89 134 169 209 265 325 382
#     4  10  23  44  67  94 132 165 217 271 321 382
#     4  11  23  42  66  94 130 167 214 267 325 374
#     4  12  26  39  67  99 129 173 220 262 319 394
#
# _framework density 20.907426999999998
#
# number of rings (size 3 to 8) (size 9 to 14) (size 15 to 20)
#    0.000    1.250    3.750    2.250    3.500    3.500 
#    2.250    0.000    0.000    0.000    0.000    0.000 
#    0.000    0.000    0.000    0.000    0.000    0.000 
#
# Total GULP energy -89513.578641 kJ/mol
# GULP energy per Si atom -5594.598665 kJ/mol
# Density = 2.085984 g / cm^3
# Si number density = 20.907427 Si / 1000 Ang^3
#
#
#
# Elastic Constant Matrix: (Units=GPa)
#
#
# Indices 1 2 3 4 5 6 
#
# 1 50.5391 20.2920 15.7763 -2.7765 4.8433 -5.0193
# 2 20.2920 120.5962 -0.0908 4.6824 0.9108 -6.3314
# 3 15.7763 -0.0908 64.1279 8.1903 6.2778 -8.3882
# 4 -2.7765 4.6824 8.1903 35.1196 -4.2540 2.4196
# 5 4.8433 0.9108 6.2778 -4.2540 35.1647 -3.5821
# 6 -5.0193 -6.3314 -8.3882 2.4196 -3.5821 21.5849
#
#
#
# Elastic Compliance Matrix: (Units=1/GPa)
#
#
# Indices 1 2 3 4 5 6 
#
# 1 0.023756 -0.004056 -0.005973 0.003532 -0.001535 0.001363
# 2 -0.004056 0.009195 0.001618 -0.002099 0.000045 0.002626
# 3 -0.005973 0.001618 0.018948 -0.005885 -0.002634 0.006672
# 4 0.003532 -0.002099 -0.005885 0.031217 0.003892 -0.004935
# 5 -0.001535 0.000045 -0.002634 0.003892 0.029911 0.003160
# 6 0.001363 0.002626 0.006672 -0.004935 0.003160 0.051086
#
#
# Mechanical properties :
#
#
# Convention : Reuss Voigt Hill
#
# Bulk Modulus (GPa) = 28.50826 34.13537 31.32182
# Shear Modulus (GPa) = 25.95699 31.65954 28.80827
#
# Velocity S-wave (km/s) = 3.52734 3.89559 3.71603
# Velocity P-wave (km/s) = 5.50042 6.04950 5.78148
#
# Compressibility (1/GPa) = 0.03507755
#
# Stress axis : x y z
#
# Youngs Moduli (GPa) = 42.09466 108.75705 52.77680
#
# Poissons Ratio (x) = 0.44109 0.31522
# Poissons Ratio (y) = 0.17073 -0.08539
# Poissons Ratio (z) = 0.25142 -0.17596
#
# Static dielectric constant tensor:
#      x y z
#    x 1.727930 0.000120 -0.010780 
#    y 0.000120 1.736310 -0.002660 
#    z -0.010780 -0.002660 1.755500 
# 
# From -- ./inp_files/315156.got.cif
#   From: 2010.05.17/outbox.cif.g08.bks.cpg/sg2_158_cif.got.tgz:315156.got - 2010.06.03 11:33:40.
