data_PCOD9034566
_publ_section_title
;
Structure prediction by ZEFSAII (Michael W. Deem and Ramdas Pophale) SiO2 
 PCOD9034566
Probable space group: P -1
;
_chemical_formula_sum "Si O2"
_cell_formula_units_Z 16
_cell_length_a 27.594785
_cell_length_b 14.511813
_cell_length_c 9.229405
_cell_angle_alpha 47.923946
_cell_angle_beta 41.002959
_cell_angle_gamma 18.173472
_cell_volume 736.166208
_symmetry_space_group_name_H-M "P -1"
_symmetry_group_IT_number 2
_symmetry_cell_setting 'triclinic'
loop_
_space_group_symop_operation_xyz
x,y,z
-x,-y,-z
loop_
_atom_site_type_symbol
_atom_site_label
_atom_site_fract_x
_atom_site_fract_y
_atom_site_fract_z
Si Si1 0.964185 0.948278 0.749532
Si Si2 0.667754 0.367995 0.419246
Si Si3 0.628787 0.919758 0.183591
Si Si4 0.738526 0.610992 0.511539
Si Si5 0.962217 0.301493 0.605818
Si Si6 0.288888 0.830593 0.783065
Si Si7 0.980142 0.508024 0.708575
Si Si8 0.788062 0.454639 0.121999
O O1 0.091793 0.650436 0.703628
O O2 0.051732 0.839480 0.823670
O O3 0.000000 0.000000 0.500000
O O4 0.770209 0.186607 0.955783
O O5 0.469090 0.625683 0.638310
O O6 0.690873 0.270102 0.311295
O O7 0.686995 0.487993 0.254259
O O8 0.832996 0.062501 0.465355
O O9 0.648442 0.869126 0.366176
O O10 0.670220 0.731009 0.192110
O O11 0.413527 0.262633 0.291145
O O12 0.777427 0.784861 0.925740
O O13 0.823098 0.463521 0.632099
O O14 0.968251 0.436590 0.407688
O O15 0.877683 0.396155 0.852467
O O16 0.122733 0.182506 0.772004
O O17 0.000000 0.500000 0.500000
#
# Coordination Sequence:
#
# PCOD9034566 Si02
#       8
#     2   2   2   2   2   2   2   2
#     4  11  22  44  67  91 133 181 212 267 337 393
#     4  11  24  41  67  99 133 168 224 278 323 384
#     4  10  22  45  64  96 134 174 214 269 333 399
#     4  10  24  41  65  96 130 170 225 261 331 394
#     4  12  24  40  68 103 128 174 225 272 325 390
#     4  11  24  44  64  97 138 175 212 275 336 385
#     4  12  21  43  67  95 138 172 213 275 332 386
#     4  11  22  42  67  97 134 164 225 279 316 388
#
# _framework density 21.734221000000002
#
# number of rings (size 3 to 8) (size 9 to 14) (size 15 to 20)
#    0.000    1.000    6.250    1.125    3.500    3.000 
#    0.000    2.500    0.000    0.000    0.000    0.000 
#    0.000    0.000    0.000    0.000    0.000    0.000 
#
# Total GULP energy -89153.128397 kJ/mol
# GULP energy per Si atom -5572.070525 kJ/mol
# Density = 2.168475 g / cm^3
# Si number density = 21.734221 Si / 1000 Ang^3
#
#
#
# Elastic Constant Matrix: (Units=GPa)
#
#
# Indices 1 2 3 4 5 6 
#
# 1 40.1827 12.7571 25.2254 -12.3216 -9.1821 -10.7572
# 2 12.7571 45.6867 42.0613 -6.4667 1.5577 -13.1510
# 3 25.2254 42.0613 187.5409 7.1033 -13.3678 -19.0388
# 4 -12.3216 -6.4667 7.1033 32.4464 -2.2433 -4.7761
# 5 -9.1821 1.5577 -13.3678 -2.2433 36.0187 -10.9352
# 6 -10.7572 -13.1510 -19.0388 -4.7761 -10.9352 33.7198
#
#
#
# Elastic Compliance Matrix: (Units=1/GPa)
#
#
# Indices 1 2 3 4 5 6 
#
# 1 0.042852 -0.000986 -0.003065 0.020898 0.017235 0.020105
# 2 -0.000986 0.032175 -0.006480 0.008836 -0.000570 0.009642
# 3 -0.003065 -0.006480 0.007619 -0.003804 0.002405 0.001038
# 4 0.020898 0.008836 -0.003804 0.044841 0.011838 0.018156
# 5 0.017235 -0.000570 0.002405 0.011838 0.040302 0.021380
# 6 0.020105 0.009642 0.001038 0.018156 0.021380 0.049921
#
#
# Mechanical properties :
#
#
# Convention : Reuss Voigt Hill
#
# Bulk Modulus (GPa) = 16.23816 48.16646 32.20231
# Shear Modulus (GPa) = 19.28266 33.32810 26.30538
#
# Velocity S-wave (km/s) = 2.98183 3.92016 3.48274
# Velocity P-wave (km/s) = 4.39801 6.53452 5.56967
#
# Compressibility (1/GPa) = 0.06158333
#
# Stress axis : x y z
#
# Youngs Moduli (GPa) = 23.33607 31.08003 131.25895
#
# Poissons Ratio (x) = 0.03066 0.40228
# Poissons Ratio (y) = 0.02302 0.85056
# Poissons Ratio (z) = 0.07152 0.20140
#
# Static dielectric constant tensor:
#      x y z
#    x 1.889410 0.036230 -0.020240 
#    y 0.036230 2.007360 -0.032650 
#    z -0.020240 -0.032650 1.790300 
# 
# From -- ./inp_files/357373.got.cif
#   From: 2010.05.17/outbox.cif.g08.bks.cpg/sg2_179_cif.got.tgz:357373.got - 2010.06.03 11:33:40.
