data_PCOD9034540
_publ_section_title
;
Structure prediction by ZEFSAII (Michael W. Deem and Ramdas Pophale) SiO2 
 PCOD9034540
Probable space group: P -1
;
_chemical_formula_sum "Si O2"
_cell_formula_units_Z 14
_cell_length_a 9.443119
_cell_length_b 11.921040
_cell_length_c 17.902963
_cell_angle_alpha 30.214484
_cell_angle_beta 143.216004
_cell_angle_gamma 144.138537
_cell_volume 558.517659
_symmetry_space_group_name_H-M "P -1"
_symmetry_group_IT_number 2
_symmetry_cell_setting 'triclinic'
loop_
_space_group_symop_operation_xyz
x,y,z
-x,-y,-z
loop_
_atom_site_type_symbol
_atom_site_label
_atom_site_fract_x
_atom_site_fract_y
_atom_site_fract_z
Si Si1 0.180779 0.867324 0.075780
Si Si2 0.180864 0.621148 0.792860
Si Si3 0.670082 0.302218 0.030944
Si Si4 0.542050 0.364128 0.777284
Si Si5 0.702957 0.914447 0.777690
Si Si6 0.704418 0.897319 0.492275
Si Si7 0.996126 0.000978 0.292464
O O1 0.319533 0.809012 0.094932
O O2 0.048572 0.605698 0.209573
O O3 0.419628 0.086693 0.084554
O O4 0.948689 0.947452 0.912990
O O5 0.201260 0.540412 0.932985
O O6 0.444788 0.684281 0.823223
O O7 0.169793 0.887870 0.639270
O O8 0.873374 0.195097 0.149157
O O9 0.576485 0.393027 0.864575
O O10 0.672572 0.620940 0.642697
O O11 0.245949 0.232776 0.703624
O O12 0.589691 0.121340 0.618102
O O13 0.797252 0.911409 0.735824
O O14 0.859843 0.029349 0.555752
#
# Coordination Sequence:
#
# PCOD9034540 Si02
#       7
#     2   2   2   2   2   2   2
#     4  11  21  44  69  91 129 168 221 257 310 381
#     4  10  26  42  63  98 133 167 206 262 329 376
#     4  11  23  41  71  97 121 169 220 266 307 372
#     4  11  23  41  71  97 121 169 220 266 307 372
#     4  10  22  45  62  96 131 167 210 261 319 381
#     4  10  26  42  63  98 133 167 206 262 329 376
#     4  11  21  44  69  91 129 168 221 257 310 381
#
# _framework density 25.066351000000001
#
# number of rings (size 3 to 8) (size 9 to 14) (size 15 to 20)
#    0.857    0.571    2.857    2.571    2.000    5.714 
#    0.000    2.857    0.000    0.000    0.000    0.000 
#    0.000    0.000    0.000    0.000    0.000    0.000 
#
# Total GULP energy -78232.347928 kJ/mol
# GULP energy per Si atom -5588.024852 kJ/mol
# Density = 2.500930 g / cm^3
# Si number density = 25.066351 Si / 1000 Ang^3
#
#
#
# Elastic Constant Matrix: (Units=GPa)
#
#
# Indices 1 2 3 4 5 6 
#
# 1 74.1950 21.4078 5.5333 -1.3152 -12.3379 22.8136
# 2 21.4078 133.0305 23.6536 7.0674 -5.6427 22.8874
# 3 5.5333 23.6536 108.5287 1.0871 6.2338 -3.8897
# 4 -1.3152 7.0674 1.0871 34.0509 2.0527 2.5304
# 5 -12.3379 -5.6427 6.2338 2.0527 39.4490 0.5241
# 6 22.8136 22.8874 -3.8897 2.5304 0.5241 32.2399
#
#
#
# Elastic Compliance Matrix: (Units=1/GPa)
#
#
# Indices 1 2 3 4 5 6 
#
# 1 0.018954 -0.000182 -0.001794 0.001467 0.006291 -0.013717
# 2 -0.000182 0.009258 -0.002335 -0.001469 0.001801 -0.006639
# 3 -0.001794 -0.002335 0.010112 -0.000066 -0.002545 0.004194
# 4 0.001467 -0.001469 -0.000066 0.029982 -0.001270 -0.002336
# 5 0.006291 0.001801 -0.002545 -0.001270 0.028128 -0.006395
# 6 -0.013717 -0.006639 0.004194 -0.002336 -0.006395 0.046230
#
#
# Mechanical properties :
#
#
# Convention : Reuss Voigt Hill
#
# Bulk Modulus (GPa) = 33.66922 46.32708 39.99815
# Shear Modulus (GPa) = 31.01961 38.82525 34.92243
#
# Velocity S-wave (km/s) = 3.52163 3.93988 3.73661
# Velocity P-wave (km/s) = 5.47695 6.26249 5.88285
#
# Compressibility (1/GPa) = 0.02970072
#
# Stress axis : x y z
#
# Youngs Moduli (GPa) = 52.75831 108.01066 98.89456
#
# Poissons Ratio (x) = 0.01969 0.17745
# Poissons Ratio (y) = 0.00962 0.23094
# Poissons Ratio (z) = 0.09467 0.25223
#
# Static dielectric constant tensor:
#      x y z
#    x 2.020440 0.004320 0.064680 
#    y 0.004320 1.965090 -0.060800 
#    z 0.064680 -0.060800 2.037300 
# 
# From -- ./inp_files/438466.got.cif
#   From: 2010.05.17/outbox.cif.g08.bks.cpg/sg2_220_cif.got.tgz:438466.got - 2010.06.03 11:33:40.
