data_PCOD9035822
_publ_section_title
;
Structure prediction by ZEFSAII (Michael W. Deem and Ramdas Pophale) SiO2 
 PCOD9035822
Probable space group: P -1
;
_chemical_formula_sum "Si O2"
_cell_formula_units_Z 14
_cell_length_a 10.524243
_cell_length_b 8.167057
_cell_length_c 10.515878
_cell_angle_alpha 125.818604
_cell_angle_beta 56.076723
_cell_angle_gamma 93.125495
_cell_volume 556.225710
_symmetry_space_group_name_H-M "P -1"
_symmetry_group_IT_number 2
_symmetry_cell_setting 'triclinic'
loop_
_space_group_symop_operation_xyz
x,y,z
-x,-y,-z
loop_
_atom_site_type_symbol
_atom_site_label
_atom_site_fract_x
_atom_site_fract_y
_atom_site_fract_z
Si Si1 0.482765 0.859018 0.563009
Si Si2 0.031230 0.624937 0.157574
Si Si3 0.772090 0.758850 0.557801
Si Si4 0.379878 0.590094 0.869366
Si Si5 0.702383 0.573432 0.771450
Si Si6 0.986254 0.103086 0.359885
Si Si7 0.776525 0.969726 0.015020
O O1 0.613809 0.860738 0.599636
O O2 0.540353 0.612618 0.365022
O O3 0.500000 0.000000 0.500000
O O4 0.296262 0.951845 0.768635
O O5 0.928765 0.586552 0.313187
O O6 0.227396 0.567088 0.019163
O O7 0.949623 0.889589 0.305537
O O8 0.000000 0.500000 0.000000
O O9 0.720900 0.641049 0.646617
O O10 0.852535 0.911835 0.652147
O O11 0.517306 0.588622 0.891097
O O12 0.317639 0.811705 0.919860
O O13 0.839051 0.324968 0.591396
O O14 0.729607 0.762055 0.920705
O O15 0.038521 0.107887 0.185256
#
# Coordination Sequence:
#
# PCOD9035822 Si02
#       7
#     2   2   2   2   2   2   2
#     4  12  27  42  68 105 145 182 235 290 349 412
#     4  11  24  45  70 104 147 190 221 282 360 420
#     4  11  23  46  72  97 148 181 229 291 351 408
#     4  11  24  43  71 103 139 186 231 283 355 410
#     4  11  24  45  77 106 132 179 244 293 340 414
#     4  10  25  45  76 105 135 185 239 285 349 415
#     4  10  22  46  72  99 139 185 233 286 351 418
#
# _framework density 25.169637999999999
#
# number of rings (size 3 to 8) (size 9 to 14) (size 15 to 20)
#    0.000    1.143    2.857    3.000    6.000    2.286 
#    0.000    2.857    0.000    0.000    0.000    0.000 
#    0.000    0.000    0.000    0.000    0.000    0.000 
#
# Total GULP energy -78395.976040 kJ/mol
# GULP energy per Si atom -5599.712574 kJ/mol
# Density = 2.511235 g / cm^3
# Si number density = 25.169638 Si / 1000 Ang^3
#
#
#
# Elastic Constant Matrix: (Units=GPa)
#
#
# Indices 1 2 3 4 5 6 
#
# 1 69.8664 37.6643 -6.8283 7.7844 -16.3795 12.0019
# 2 37.6643 98.8189 35.7343 16.7400 7.1406 -0.7276
# 3 -6.8283 35.7343 149.4256 -6.6609 4.6046 6.5871
# 4 7.7844 16.7400 -6.6609 65.1223 7.0465 3.5081
# 5 -16.3795 7.1406 4.6046 7.0465 29.8979 -12.4116
# 6 12.0019 -0.7276 6.5871 3.5081 -12.4116 31.9767
#
#
#
# Elastic Compliance Matrix: (Units=1/GPa)
#
#
# Indices 1 2 3 4 5 6 
#
# 1 0.025468 -0.011999 0.003768 -0.000867 0.014398 -0.004925
# 2 -0.011999 0.017496 -0.004744 -0.002838 -0.008086 0.003052
# 3 0.003768 -0.004744 0.008223 0.001779 0.000114 -0.003367
# 4 -0.000867 -0.002838 0.001779 0.017242 -0.005918 -0.004294
# 5 0.014398 -0.008086 0.000114 -0.005918 0.050763 0.014741
# 6 -0.004925 0.003052 -0.003367 -0.004294 0.014741 0.040077
#
#
# Mechanical properties :
#
#
# Convention : Reuss Voigt Hill
#
# Bulk Modulus (GPa) = 39.62521 50.13906 44.88214
# Shear Modulus (GPa) = 25.82194 42.16876 33.99535
#
# Velocity S-wave (km/s) = 3.20647 4.09758 3.67910
# Velocity P-wave (km/s) = 5.43010 6.50774 5.99319
#
# Compressibility (1/GPa) = 0.02523646
#
# Stress axis : x y z
#
# Youngs Moduli (GPa) = 39.26460 57.15534 121.60547
#
# Poissons Ratio (x) = 0.68584 -0.45823
# Poissons Ratio (y) = 0.47116 0.57694
# Poissons Ratio (z) = -0.14796 0.27116
#
# Static dielectric constant tensor:
#      x y z
#    x 2.039910 -0.041300 -0.026260 
#    y -0.041300 1.964030 -0.025990 
#    z -0.026260 -0.025990 1.995550 
# 
# From -- ./inp_files/397685.got.cif
#   From: 2010.05.17/outbox.cif.g08.bks.cpg/sg2_199_cif.got.tgz:397685.got - 2010.06.03 11:33:40.
