data_PCOD9035032
_publ_section_title
;
Structure prediction by ZEFSAII (Michael W. Deem and Ramdas Pophale) SiO2 
 PCOD9035032
Probable space group: P -1
;
_chemical_formula_sum "Si O2"
_cell_formula_units_Z 16
_cell_length_a 11.512865
_cell_length_b 13.949819
_cell_length_c 9.087033
_cell_angle_alpha 111.938102
_cell_angle_beta 111.061214
_cell_angle_gamma 126.386804
_cell_volume 684.603719
_symmetry_space_group_name_H-M "P -1"
_symmetry_group_IT_number 2
_symmetry_cell_setting 'triclinic'
loop_
_space_group_symop_operation_xyz
x,y,z
-x,-y,-z
loop_
_atom_site_type_symbol
_atom_site_label
_atom_site_fract_x
_atom_site_fract_y
_atom_site_fract_z
Si Si1 0.019345 0.587812 0.415326
Si Si2 0.304866 0.952239 0.895290
Si Si3 0.384003 0.614694 0.096816
Si Si4 0.162713 0.555514 0.216468
Si Si5 0.015472 0.786103 0.964303
Si Si6 0.438567 0.481275 0.250298
Si Si7 0.888029 0.933408 0.746878
Si Si8 0.332904 0.190941 0.926168
O O1 0.108933 0.762905 0.598532
O O2 0.198507 0.652009 0.428345
O O3 0.000000 0.500000 0.500000
O O4 0.794143 0.455297 0.137846
O O5 0.169710 0.883733 0.944948
O O6 0.500000 0.000000 0.000000
O O7 0.402979 0.128192 0.982725
O O8 0.373910 0.670241 0.276903
O O9 0.325952 0.458876 0.040914
O O10 0.617889 0.772740 0.203512
O O11 0.016961 0.353375 0.078481
O O12 0.000000 0.500000 0.000000
O O13 0.744448 0.631478 0.765135
O O14 0.133773 0.957866 0.213181
O O15 0.469062 0.382243 0.171084
O O16 0.667759 0.706873 0.507740
O O17 0.073786 0.026324 0.766207
O O18 0.000000 0.000000 0.000000
#
# Coordination Sequence:
#
# PCOD9035032 Si02
#       8
#     2   2   2   2   2   2   2   2
#     4  11  22  42  76 101 142 197 241 298 355 426
#     4  12  26  43  66 111 148 182 244 304 363 429
#     4  10  23  45  71 106 140 195 240 292 371 433
#     4   9  20  42  71  96 140 189 236 282 359 427
#     4  10  22  45  70 104 147 184 241 297 364 432
#     4  10  25  47  75  98 148 195 237 301 365 436
#     4  11  24  45  70 112 141 186 245 301 367 425
#     4  11  25  45  70 105 145 190 246 294 366 437
#
# _framework density 23.371182000000001
#
# number of rings (size 3 to 8) (size 9 to 14) (size 15 to 20)
#    0.000    1.500    2.500    1.125    3.500    5.500 
#   11.250    0.625    0.000    0.000    0.000    0.000 
#    0.000    0.000    0.000    0.000    0.000    0.000 
#
# Total GULP energy -89261.656367 kJ/mol
# GULP energy per Si atom -5578.853523 kJ/mol
# Density = 2.331799 g / cm^3
# Si number density = 23.371182 Si / 1000 Ang^3
#
#
#
# Elastic Constant Matrix: (Units=GPa)
#
#
# Indices 1 2 3 4 5 6 
#
# 1 176.0260 83.3938 34.7121 10.2422 -27.7480 12.6292
# 2 83.3938 144.0942 34.9907 7.9258 -7.7395 25.8455
# 3 34.7121 34.9907 84.5307 24.4021 -2.5893 4.4628
# 4 10.2422 7.9258 24.4021 41.0814 -2.9314 -0.4287
# 5 -27.7480 -7.7395 -2.5893 -2.9314 23.3289 4.0154
# 6 12.6292 25.8455 4.4628 -0.4287 4.0154 66.6814
#
#
#
# Elastic Compliance Matrix: (Units=1/GPa)
#
#
# Indices 1 2 3 4 5 6 
#
# 1 0.009859 -0.004623 -0.001871 0.000261 0.010114 -0.000558
# 2 -0.004623 0.010650 -0.002535 0.000453 -0.001677 -0.002979
# 3 -0.001871 -0.002535 0.016086 -0.008770 -0.002444 0.000351
# 4 0.000261 0.000453 -0.008770 0.029627 0.003148 0.000363
# 5 0.010114 -0.001677 -0.002444 0.003148 0.055222 -0.004407
# 6 -0.000558 -0.002979 0.000351 0.000363 -0.004407 0.016501
#
#
# Mechanical properties :
#
#
# Convention : Reuss Voigt Hill
#
# Bulk Modulus (GPa) = 53.94458 78.98266 66.46362
# Shear Modulus (GPa) = 30.82929 42.98862 36.90895
#
# Velocity S-wave (km/s) = 3.63590 4.29346 3.97829
# Velocity P-wave (km/s) = 6.38421 7.64504 7.04290
#
# Compressibility (1/GPa) = 0.01853754
#
# Stress axis : x y z
#
# Youngs Moduli (GPa) = 101.42800 93.89507 62.16511
#
# Poissons Ratio (x) = 0.43404 0.11633
# Poissons Ratio (y) = 0.46887 0.15759
# Poissons Ratio (z) = 0.18980 0.23803
#
# Static dielectric constant tensor:
#      x y z
#    x 1.954570 0.001430 0.062370 
#    y 0.001430 1.852910 -0.025060 
#    z 0.062370 -0.025060 1.942940 
# 
# From -- ./inp_files/273856.got.cif
#   From: 2010.05.17/outbox.cif.g08.bks.cpg/sg2_137_cif.got.tgz:273856.got - 2010.06.03 11:33:40.
