data_PCOD9035789
_publ_section_title
;
Structure prediction by ZEFSAII (Michael W. Deem and Ramdas Pophale) SiO2 
 PCOD9035789
Probable space group: P -1
;
_chemical_formula_sum "Si O2"
_cell_formula_units_Z 14
_cell_length_a 8.132530
_cell_length_b 8.172306
_cell_length_c 9.786097
_cell_angle_alpha 116.033154
_cell_angle_beta 88.303803
_cell_angle_gamma 87.552757
_cell_volume 583.029476
_symmetry_space_group_name_H-M "P -1"
_symmetry_group_IT_number 2
_symmetry_cell_setting 'triclinic'
loop_
_space_group_symop_operation_xyz
x,y,z
-x,-y,-z
loop_
_atom_site_type_symbol
_atom_site_label
_atom_site_fract_x
_atom_site_fract_y
_atom_site_fract_z
Si Si1 0.174327 0.414639 0.011435
Si Si2 0.862636 0.892919 0.542788
Si Si3 0.137321 0.679177 0.618061
Si Si4 0.651244 0.542246 0.695370
Si Si5 0.293102 0.417640 0.719464
Si Si6 0.643278 0.982363 0.817109
Si Si7 0.729990 0.984508 0.114161
O O1 0.253964 0.483847 0.172928
O O2 0.292525 0.438855 0.888561
O O3 0.157046 0.198933 0.950143
O O4 0.000000 0.500000 0.000000
O O5 0.752181 0.782724 0.401373
O O6 0.746118 0.016969 0.691765
O O7 0.961898 0.744776 0.583897
O O8 0.000000 0.000000 0.500000
O O9 0.246406 0.572399 0.462601
O O10 0.149629 0.552191 0.704769
O O11 0.214374 0.863491 0.730936
O O12 0.467888 0.473248 0.679897
O O13 0.636417 0.760559 0.746831
O O14 0.455444 0.060071 0.856168
O O15 0.723847 0.047308 0.979321
#
# Coordination Sequence:
#
# PCOD9035789 Si02
#       7
#     2   2   2   2   2   2   2
#     4  11  26  46  71 108 152 189 234 300 370 437
#     4  12  27  44  69 107 152 194 239 303 366 431
#     4  12  24  43  74 108 140 190 242 300 362 423
#     4  11  23  46  77 104 144 195 242 297 358 434
#     4  12  24  45  73 104 143 192 249 292 362 434
#     4  10  22  46  72 105 142 187 244 293 364 437
#     4  10  23  45  74 104 140 187 242 301 358 432
#
# _framework density 24.012508
#
# number of rings (size 3 to 8) (size 9 to 14) (size 15 to 20)
#    0.000    0.857    2.857    3.857    4.000    1.714 
#    5.143    2.857    0.000    0.000    0.000    0.000 
#    0.000    0.000    0.000    0.000    0.000    0.000 
#
# Total GULP energy -78487.723667 kJ/mol
# GULP energy per Si atom -5606.265976 kJ/mol
# Density = 2.395785 g / cm^3
# Si number density = 24.012508 Si / 1000 Ang^3
#
#
#
# Elastic Constant Matrix: (Units=GPa)
#
#
# Indices 1 2 3 4 5 6 
#
# 1 92.7473 35.0504 45.2305 -2.1869 2.3075 0.3738
# 2 35.0504 60.8147 39.5461 2.3793 14.8045 1.1974
# 3 45.2305 39.5461 161.2953 -0.0145 9.0707 5.1163
# 4 -2.1869 2.3793 -0.0145 25.1344 -0.0953 -13.1448
# 5 2.3075 14.8045 9.0707 -0.0953 36.1016 -8.1357
# 6 0.3738 1.1974 5.1163 -13.1448 -8.1357 40.5541
#
#
#
# Elastic Compliance Matrix: (Units=1/GPa)
#
#
# Indices 1 2 3 4 5 6 
#
# 1 0.015022 -0.008039 -0.002504 0.003202 0.003458 0.002146
# 2 -0.008039 0.026096 -0.003440 -0.005326 -0.010249 -0.004045
# 3 -0.002504 -0.003440 0.007819 -0.000493 -0.000655 -0.001153
# 4 0.003202 -0.005326 -0.000493 0.049779 0.006194 0.017567
# 5 0.003458 -0.010249 -0.000655 0.006194 0.033928 0.009167
# 6 0.002146 -0.004045 -0.001153 0.017567 0.009167 0.032437
#
#
# Mechanical properties :
#
#
# Convention : Reuss Voigt Hill
#
# Bulk Modulus (GPa) = 47.68264 61.61237 54.64751
# Shear Modulus (GPa) = 24.99539 33.36005 29.17772
#
# Velocity S-wave (km/s) = 3.22985 3.73135 3.48962
# Velocity P-wave (km/s) = 5.81462 6.65418 6.24851
#
# Compressibility (1/GPa) = 0.02097199
#
# Stress axis : x y z
#
# Youngs Moduli (GPa) = 66.56986 38.31946 127.89982
#
# Poissons Ratio (x) = 0.30805 0.32022
# Poissons Ratio (y) = 0.53515 0.43995
# Poissons Ratio (z) = 0.16667 0.13181
#
# Static dielectric constant tensor:
#      x y z
#    x 1.882140 0.008090 -0.008600 
#    y 0.008090 1.959870 -0.019030 
#    z -0.008600 -0.019030 1.890340 
# 
# From -- ./inp_files/160157.got.cif
#   From: 2010.05.17/outbox.cif.g08.bks.cpg/sg2_81_cif.got.tgz:160157.got - 2010.06.03 11:33:40.
