data_PCOD9035489
_publ_section_title
;
Structure prediction by ZEFSAII (Michael W. Deem and Ramdas Pophale) SiO2 
 PCOD9035489
Probable space group: P -1
;
_chemical_formula_sum "Si O2"
_cell_formula_units_Z 13
_cell_length_a 5.534767
_cell_length_b 18.992556
_cell_length_c 8.934364
_cell_angle_alpha 51.887456
_cell_angle_beta 57.572501
_cell_angle_gamma 86.504669
_cell_volume 569.846631
_symmetry_space_group_name_H-M "P -1"
_symmetry_group_IT_number 2
_symmetry_cell_setting 'triclinic'
loop_
_space_group_symop_operation_xyz
x,y,z
-x,-y,-z
loop_
_atom_site_type_symbol
_atom_site_label
_atom_site_fract_x
_atom_site_fract_y
_atom_site_fract_z
Si Si1 0.326141 0.716120 0.383343
Si Si2 0.429485 0.212974 0.475802
Si Si3 0.672213 0.918345 0.902211
Si Si4 0.641079 0.608418 0.882301
Si Si5 0.363286 0.557888 0.359805
Si Si6 0.000000 0.000000 0.000000
Si Si7 0.287193 0.928945 0.531954
O O1 0.538284 0.743768 0.424348
O O2 0.389552 0.650609 0.325502
O O3 0.990904 0.656820 0.642687
O O4 0.377234 0.817189 0.152710
O O5 0.471487 0.306275 0.238092
O O6 0.131666 0.108774 0.719576
O O7 0.678957 0.170735 0.386877
O O8 0.930186 0.907675 0.718843
O O9 0.585363 0.002549 0.747846
O O10 0.832913 0.946008 0.972279
O O11 0.500000 0.500000 0.000000
O O12 0.582599 0.590108 0.100359
O O13 0.500000 0.500000 0.500000
O O14 0.000000 0.500000 0.500000
O O15 0.500000 0.000000 0.500000
#
# Coordination Sequence:
#
# PCOD9035489 Si02
#       7
#     2   2   2   2   2   1   2
#     4  11  28  46  75 111 152 208 257 327 396 480
#     4  11  27  44  75 111 149 207 253 324 394 477
#     4  10  25  44  70 109 152 201 257 313 402 473
#     4  12  28  51  77 108 155 202 267 329 401 470
#     4  12  29  53  82 113 155 209 270 340 403 477
#     4  10  22  46  66 108 148 196 250 314 388 474
#     4  11  24  44  71 105 156 198 257 321 386 482
#
# _framework density 22.813158000000001
#
# number of rings (size 3 to 8) (size 9 to 14) (size 15 to 20)
#    0.000    0.923    3.077    0.923   10.769    2.462 
#    0.000    0.000    0.000    0.000    0.000    0.000 
#    0.000    0.000    0.000    0.000    0.000    0.000 
#
# Total GULP energy -72407.652843 kJ/mol
# GULP energy per Si atom -5569.819449 kJ/mol
# Density = 2.276123 g / cm^3
# Si number density = 22.813158 Si / 1000 Ang^3
#
#
#
# Elastic Constant Matrix: (Units=GPa)
#
#
# Indices 1 2 3 4 5 6 
#
# 1 57.1247 40.5646 54.7928 -19.7945 25.8530 1.9872
# 2 40.5646 178.7047 73.8473 -2.8548 16.3145 0.8016
# 3 54.7928 73.8473 208.3252 -12.3334 19.1103 -4.8682
# 4 -19.7945 -2.8548 -12.3334 52.2635 2.4355 2.9367
# 5 25.8530 16.3145 19.1103 2.4355 54.9984 -3.1182
# 6 1.9872 0.8016 -4.8682 2.9367 -3.1182 28.6834
#
#
#
# Elastic Compliance Matrix: (Units=1/GPa)
#
#
# Indices 1 2 3 4 5 6 
#
# 1 0.039468 -0.004501 -0.006641 0.014267 -0.015935 -0.006929
# 2 -0.004501 0.007158 -0.001507 -0.001702 0.000597 0.000095
# 3 -0.006641 -0.001507 0.006938 -0.001130 0.001318 0.001939
# 4 0.014267 -0.001702 -0.001130 0.024761 -0.007157 -0.004446
# 5 -0.015935 0.000597 0.001318 -0.007157 0.025629 0.004830
# 6 -0.006929 0.000095 0.001939 -0.004446 0.004830 0.036650
#
#
# Mechanical properties :
#
#
# Convention : Reuss Voigt Hill
#
# Bulk Modulus (GPa) = 35.37675 86.95157 61.16416
# Shear Modulus (GPa) = 28.51874 45.51904 37.01889
#
# Velocity S-wave (km/s) = 3.53951 4.47172 4.03264
# Velocity P-wave (km/s) = 5.67847 8.05352 6.96793
#
# Compressibility (1/GPa) = 0.02826715
#
# Stress axis : x y z
#
# Youngs Moduli (GPa) = 25.33722 139.70171 144.12428
#
# Poissons Ratio (x) = 0.62880 0.95708
# Poissons Ratio (y) = 0.11404 0.21718
# Poissons Ratio (z) = 0.16826 0.21052
#
# Static dielectric constant tensor:
#      x y z
#    x 1.922830 -0.089080 -0.080740 
#    y -0.089080 1.805810 0.031980 
#    z -0.080740 0.031980 1.858800 
# 
# From -- ./inp_files/28041.got.cif
#   From: 2010.05.17/outbox.cif.g08.bks.cpg/sg2_15_cif.got.tgz:28041.got - 2010.06.03 11:33:40.
