data_PCOD9035222
_publ_section_title
;
Structure prediction by ZEFSAII (Michael W. Deem and Ramdas Pophale) SiO2 
 PCOD9035222
Probable space group: P -1
;
_chemical_formula_sum "Si O2"
_cell_formula_units_Z 14
_cell_length_a 14.087123
_cell_length_b 11.005191
_cell_length_c 5.951480
_cell_angle_alpha 62.280572
_cell_angle_beta 57.471442
_cell_angle_gamma 49.873233
_cell_volume 584.664032
_symmetry_space_group_name_H-M "P -1"
_symmetry_group_IT_number 2
_symmetry_cell_setting 'triclinic'
loop_
_space_group_symop_operation_xyz
x,y,z
-x,-y,-z
loop_
_atom_site_type_symbol
_atom_site_label
_atom_site_fract_x
_atom_site_fract_y
_atom_site_fract_z
Si Si1 0.070526 0.432417 0.219368
Si Si2 0.130614 0.835387 0.745018
Si Si3 0.418689 0.646472 0.307895
Si Si4 0.543727 0.062798 0.593497
Si Si5 0.724883 0.161077 0.049063
Si Si6 0.364887 0.262297 0.988858
Si Si7 0.904745 0.879085 0.729102
O O1 0.107821 0.248803 0.289441
O O2 0.000000 0.500000 0.500000
O O3 0.215821 0.410217 0.075977
O O4 0.000000 0.500000 0.000000
O O5 0.273972 0.732315 0.535676
O O6 0.160354 0.834285 0.968779
O O7 0.027556 0.790265 0.824338
O O8 0.072799 0.014568 0.568422
O O9 0.500000 0.500000 0.500000
O O10 0.513953 0.719581 0.098691
O O11 0.369780 0.666190 0.095790
O O12 0.643476 0.119990 0.360366
O O13 0.406846 0.218639 0.715579
O O14 0.500000 0.000000 0.500000
O O15 0.612981 0.905709 0.799781
O O16 0.783191 0.013998 0.920540
#
# Coordination Sequence:
#
# PCOD9035222 Si02
#       7
#     2   2   2   2   2   2   2
#     4  12  31  51  74 109 152 204 249 314 389 455
#     4  10  22  45  72 105 143 194 249 304 371 435
#     4  11  25  43  64 104 150 191 242 298 374 452
#     4  11  21  39  75 105 137 180 246 314 366 436
#     4  11  21  41  74 114 139 195 248 308 380 440
#     4  11  25  45  69 106 143 187 244 311 375 440
#     4  10  24  45  73 105 148 189 255 311 364 454
#
# _framework density 23.945376
#
# number of rings (size 3 to 8) (size 9 to 14) (size 15 to 20)
#    0.000    1.143    2.857    2.143   12.000    0.571 
#    0.000    0.000    0.000    0.000    0.000    0.000 
#    0.000    0.000    0.000    0.000    0.000    0.000 
#
# Total GULP energy -77974.905716 kJ/mol
# GULP energy per Si atom -5569.636123 kJ/mol
# Density = 2.389088 g / cm^3
# Si number density = 23.945376 Si / 1000 Ang^3
#
#
#
# Elastic Constant Matrix: (Units=GPa)
#
#
# Indices 1 2 3 4 5 6 
#
# 1 113.5291 32.1647 24.3775 7.0342 16.3155 -18.7305
# 2 32.1647 77.1192 36.0342 9.2301 2.0397 -30.6243
# 3 24.3775 36.0342 97.2512 7.0312 -0.7151 -28.0884
# 4 7.0342 9.2301 7.0312 48.3861 -9.7886 -3.7564
# 5 16.3155 2.0397 -0.7151 -9.7886 41.3371 5.6993
# 6 -18.7305 -30.6243 -28.0884 -3.7564 5.6993 43.6616
#
#
#
# Elastic Compliance Matrix: (Units=1/GPa)
#
#
# Indices 1 2 3 4 5 6 
#
# 1 0.011068 -0.002777 -0.000860 -0.001761 -0.005043 0.002754
# 2 -0.002777 0.020501 -0.003569 -0.002562 -0.002093 0.010945
# 3 -0.000860 -0.003569 0.013552 -0.000759 -0.000231 0.005811
# 4 -0.001761 -0.002562 -0.000759 0.022676 0.006444 -0.001931
# 5 -0.005043 -0.002093 -0.000231 0.006444 0.028770 -0.006981
# 6 0.002754 0.010945 0.005811 -0.001931 -0.006981 0.036245
#
#
# Mechanical properties :
#
#
# Convention : Reuss Voigt Hill
#
# Bulk Modulus (GPa) = 32.56284 52.56137 42.56210
# Shear Modulus (GPa) = 31.75423 39.69850 35.72637
#
# Velocity S-wave (km/s) = 3.64553 4.07612 3.86682
# Velocity P-wave (km/s) = 5.59895 6.64464 6.14408
#
# Compressibility (1/GPa) = 0.03070985
#
# Stress axis : x y z
#
# Youngs Moduli (GPa) = 90.35210 48.77814 73.78892
#
# Poissons Ratio (x) = 0.13544 0.06345
# Poissons Ratio (y) = 0.25087 0.26336
# Poissons Ratio (z) = 0.07769 0.17410
#
# Static dielectric constant tensor:
#      x y z
#    x 1.976640 0.021860 0.048940 
#    y 0.021860 1.980530 -0.035670 
#    z 0.048940 -0.035670 2.015120 
# 
# From -- ./inp_files/93125.got.cif
#   From: 2010.05.17/outbox.cif.g08.bks.cpg/sg2_47_cif.got.tgz:93125.got - 2010.06.03 11:33:40.
