data_PCOD9035045
_publ_section_title
;
Structure prediction by ZEFSAII (Michael W. Deem and Ramdas Pophale) SiO2 
 PCOD9035045
Probable space group: P -1
;
_chemical_formula_sum "Si O2"
_cell_formula_units_Z 14
_cell_length_a 8.480788
_cell_length_b 13.044063
_cell_length_c 9.221431
_cell_angle_alpha 81.563209
_cell_angle_beta 117.684920
_cell_angle_gamma 135.660480
_cell_volume 602.291264
_symmetry_space_group_name_H-M "P -1"
_symmetry_group_IT_number 2
_symmetry_cell_setting 'triclinic'
loop_
_space_group_symop_operation_xyz
x,y,z
-x,-y,-z
loop_
_atom_site_type_symbol
_atom_site_label
_atom_site_fract_x
_atom_site_fract_y
_atom_site_fract_z
Si Si1 0.720757 0.527714 0.502493
Si Si2 0.676702 0.487342 0.155875
Si Si3 0.773171 0.915463 0.301991
Si Si4 0.268742 0.882620 0.147911
Si Si5 0.825061 0.840031 0.036889
Si Si6 0.228208 0.837010 0.808746
Si Si7 0.269382 0.685145 0.313165
O O1 0.500000 0.500000 0.500000
O O2 0.728519 0.547919 0.329519
O O3 0.688983 0.390088 0.542012
O O4 0.992758 0.679754 0.661023
O O5 0.951913 0.564928 0.186279
O O6 0.500000 0.500000 0.000000
O O7 0.472373 0.303615 0.112068
O O8 0.834919 0.872271 0.201105
O O9 0.485328 0.752354 0.267105
O O10 0.788129 0.043916 0.237348
O O11 0.000000 0.000000 0.500000
O O12 0.353038 0.842735 0.323153
O O13 0.989173 0.807526 0.083035
O O14 0.493350 0.063234 0.172103
O O15 0.233703 0.814770 0.987064
O O16 0.000000 0.000000 0.000000
#
# Coordination Sequence:
#
# PCOD9035045 Si02
#       7
#     2   2   2   2   2   2   2
#     4  12  28  47  75 110 151 193 247 314 373 441
#     4  12  29  51  73 109 154 197 251 304 378 447
#     4  11  26  45  74 107 147 193 250 306 370 437
#     4  10  22  45  70 111 144 194 244 303 367 448
#     4  12  26  45  77 104 146 195 246 304 367 441
#     4  10  23  43  70 106 149 189 247 298 374 436
#     4  11  27  47  75 106 154 193 246 307 376 442
#
# _framework density 23.244568000000001
#
# number of rings (size 3 to 8) (size 9 to 14) (size 15 to 20)
#    0.000    0.857    2.857    2.143    8.000    2.286 
#    0.000    2.857    0.000    0.000    0.000    0.000 
#    0.000    0.000    0.000    0.000    0.000    0.000 
#
# Total GULP energy -78089.519479 kJ/mol
# GULP energy per Si atom -5577.822820 kJ/mol
# Density = 2.319166 g / cm^3
# Si number density = 23.244568 Si / 1000 Ang^3
#
#
#
# Elastic Constant Matrix: (Units=GPa)
#
#
# Indices 1 2 3 4 5 6 
#
# 1 93.2502 57.9602 53.8028 0.1518 13.6801 39.0578
# 2 57.9602 113.1905 47.5014 2.0261 0.7577 27.6986
# 3 53.8028 47.5014 135.7423 1.8378 -4.6852 12.2595
# 4 0.1518 2.0261 1.8378 41.9087 -13.2644 15.7280
# 5 13.6801 0.7577 -4.6852 -13.2644 33.0152 -1.5738
# 6 39.0578 27.6986 12.2595 15.7280 -1.5738 51.6549
#
#
#
# Elastic Compliance Matrix: (Units=1/GPa)
#
#
# Indices 1 2 3 4 5 6 
#
# 1 0.028812 -0.007188 -0.007803 0.003193 -0.012429 -0.017431
# 2 -0.007188 0.013588 -0.001675 0.000924 0.002721 -0.001652
# 3 -0.007803 -0.001675 0.010808 -0.000552 0.004800 0.004547
# 4 0.003193 0.000924 -0.000552 0.031791 0.010772 -0.012130
# 5 -0.012429 0.002721 0.004800 0.010772 0.040612 0.004757
# 6 -0.017431 -0.001652 0.004547 -0.012130 0.004757 0.036184
#
#
# Mechanical properties :
#
#
# Convention : Reuss Voigt Hill
#
# Bulk Modulus (GPa) = 50.30974 73.41244 61.86109
# Shear Modulus (GPa) = 24.78271 37.51035 31.14653
#
# Velocity S-wave (km/s) = 3.26877 4.02148 3.66450
# Velocity P-wave (km/s) = 5.99476 7.29481 6.67650
#
# Compressibility (1/GPa) = 0.01987687
#
# Stress axis : x y z
#
# Youngs Moduli (GPa) = 34.70728 73.59569 92.52087
#
# Poissons Ratio (x) = 0.52898 0.72193
# Poissons Ratio (y) = 0.24946 0.15501
# Poissons Ratio (z) = 0.27082 0.12330
#
# Static dielectric constant tensor:
#      x y z
#    x 1.940340 -0.008610 0.096910 
#    y -0.008610 1.937110 -0.029190 
#    z 0.096910 -0.029190 1.877170 
# 
# From -- ./inp_files/207141.got.cif
#   From: 2010.05.17/outbox.cif.g08.bks.cpg/sg2_104_cif.got.tgz:207141.got - 2010.06.03 11:33:40.
