data_PCOD9035864
_publ_section_title
;
Structure prediction by ZEFSAII (Michael W. Deem and Ramdas Pophale) SiO2 
 PCOD9035864
Probable space group: P -1
;
_chemical_formula_sum "Si O2"
_cell_formula_units_Z 12
_cell_length_a 9.336029
_cell_length_b 9.212379
_cell_length_c 9.576035
_cell_angle_alpha 138.571086
_cell_angle_beta 127.912709
_cell_angle_gamma 67.628710
_cell_volume 424.863286
_symmetry_space_group_name_H-M "P -1"
_symmetry_group_IT_number 2
_symmetry_cell_setting 'triclinic'
loop_
_space_group_symop_operation_xyz
x,y,z
-x,-y,-z
loop_
_atom_site_type_symbol
_atom_site_label
_atom_site_fract_x
_atom_site_fract_y
_atom_site_fract_z
Si Si1 0.989314 0.200886 0.475579
Si Si2 0.174958 0.613262 0.266175
Si Si3 0.831586 0.991087 0.786475
Si Si4 0.344541 0.319849 0.344505
Si Si5 0.634565 0.543135 0.980627
Si Si6 0.332321 0.817477 0.941901
O O1 0.852124 0.171064 0.504612
O O2 0.850828 0.271785 0.322506
O O3 0.082934 0.012627 0.316441
O O4 0.169341 0.351301 0.757461
O O5 0.181004 0.425410 0.254047
O O6 0.328105 0.623604 0.244259
O O7 0.000000 0.500000 0.000000
O O8 0.709484 0.752436 0.580227
O O9 0.720366 0.173670 0.916408
O O10 0.000000 0.000000 0.000000
O O11 0.500000 0.500000 0.500000
O O12 0.368708 0.081192 0.124583
O O13 0.500000 0.500000 0.000000
O O14 0.514535 0.712187 0.951169
#
# Coordination Sequence:
#
# PCOD9035864 Si02
#       6
#     2   2   2   2   2   2
#     4  10  22  46  74 103 147 198 233 308 372 434
#     4  10  25  45  65 107 145 189 248 300 364 447
#     4   8  19  41  71 107 138 189 245 294 365 445
#     4  10  23  44  70 108 146 187 245 302 370 432
#     4  11  26  44  73 111 146 192 251 306 368 441
#     4   9  23  46  72 108 145 193 248 301 364 449
#
# _framework density 28.24438
#
# number of rings (size 3 to 8) (size 9 to 14) (size 15 to 20)
#    1.000    1.333    0.000    0.000    4.667    8.000 
#    3.000    1.667    0.000    0.000    0.000    0.000 
#    0.000    0.000    0.000    0.000    0.000    0.000 
#
# Total GULP energy -66842.942012 kJ/mol
# GULP energy per Si atom -5570.245168 kJ/mol
# Density = 2.818009 g / cm^3
# Si number density = 28.244380 Si / 1000 Ang^3
#
#
#
# Elastic Constant Matrix: (Units=GPa)
#
#
# Indices 1 2 3 4 5 6 
#
# 1 195.2110 60.1555 99.2017 9.2095 -46.8907 -20.7468
# 2 60.1555 79.3929 29.4712 -0.4697 -12.5694 -5.6789
# 3 99.2017 29.4712 130.5584 6.7670 -47.5492 -7.4514
# 4 9.2095 -0.4697 6.7670 36.0355 2.7412 -6.4969
# 5 -46.8907 -12.5694 -47.5492 2.7412 92.2015 -1.6711
# 6 -20.7468 -5.6789 -7.4514 -6.4969 -1.6711 51.1240
#
#
#
# Elastic Compliance Matrix: (Units=1/GPa)
#
#
# Indices 1 2 3 4 5 6 
#
# 1 0.010553 -0.005324 -0.006001 -0.001276 0.001633 0.002708
# 2 -0.005324 0.016535 0.000049 0.001579 -0.000477 -0.000131
# 3 -0.006001 0.000049 0.013740 -0.001442 0.004075 -0.000477
# 4 -0.001276 0.001579 -0.001442 0.029074 -0.001985 0.003077
# 5 0.001633 -0.000477 0.004075 -0.001985 0.013797 0.001402
# 6 0.002708 -0.000131 -0.000477 0.003077 0.001402 0.021012
#
#
# Mechanical properties :
#
#
# Convention : Reuss Voigt Hill
#
# Bulk Modulus (GPa) = 54.71376 86.97987 70.84682
# Shear Modulus (GPa) = 37.49400 50.29447 43.89423
#
# Velocity S-wave (km/s) = 3.64742 4.22440 3.94647
# Velocity P-wave (km/s) = 6.09523 7.39300 6.77526
#
# Compressibility (1/GPa) = 0.01827694
#
# Stress axis : x y z
#
# Youngs Moduli (GPa) = 94.75759 60.47641 72.78172
#
# Poissons Ratio (x) = 0.32195 0.43679
# Poissons Ratio (y) = 0.50446 -0.00359
# Poissons Ratio (z) = 0.56868 -0.00298
#
# Static dielectric constant tensor:
#      x y z
#    x 2.326080 -0.100610 0.055310 
#    y -0.100610 2.301570 -0.056560 
#    z 0.055310 -0.056560 2.328910 
# 
# From -- ./inp_files/166673.got.cif
#   From: 2010.05.17/outbox.cif.g08.bks.cpg/sg2_84_cif.got.tgz:166673.got - 2010.06.03 11:33:40.
