data_PCOD9035590
_publ_section_title
;
Structure prediction by ZEFSAII (Michael W. Deem and Ramdas Pophale) SiO2 
 PCOD9035590
Probable space group: P -1
;
_chemical_formula_sum "Si O2"
_cell_formula_units_Z 14
_cell_length_a 9.238747
_cell_length_b 9.287982
_cell_length_c 9.084004
_cell_angle_alpha 130.439075
_cell_angle_beta 100.590273
_cell_angle_gamma 92.349803
_cell_volume 569.634547
_symmetry_space_group_name_H-M "P -1"
_symmetry_group_IT_number 2
_symmetry_cell_setting 'triclinic'
loop_
_space_group_symop_operation_xyz
x,y,z
-x,-y,-z
loop_
_atom_site_type_symbol
_atom_site_label
_atom_site_fract_x
_atom_site_fract_y
_atom_site_fract_z
Si Si1 0.235127 0.499610 0.966127
Si Si2 0.483718 0.685515 0.339760
Si Si3 0.592157 0.812146 0.742185
Si Si4 0.838654 0.992102 0.105349
Si Si5 0.666620 0.243066 0.100052
Si Si6 0.298034 0.012858 0.603781
Si Si7 0.044369 0.823565 0.217826
O O1 0.361921 0.517307 0.128010
O O2 0.311161 0.567678 0.869085
O O3 0.141825 0.670237 0.084378
O O4 0.109185 0.305419 0.828758
O O5 0.568362 0.679181 0.506450
O O6 0.599153 0.791385 0.308665
O O7 0.383262 0.840875 0.471136
O O8 0.606920 0.043568 0.862736
O O9 0.747481 0.826829 0.870282
O O10 0.454876 0.759489 0.796138
O O11 0.742096 0.984175 0.231686
O O12 0.995314 0.947644 0.157485
O O13 0.819688 0.195388 0.165919
O O14 0.146487 0.958328 0.443228
#
# Coordination Sequence:
#
# PCOD9035590 Si02
#       7
#     2   2   2   2   2   2   2
#     4  10  21  37  55  78 107 148 177 211 269 326
#     4  10  17  32  59  82  99 141 189 216 248 320
#     4   9  16  31  56  83 105 131 182 227 259 298
#     4  10  19  33  55  82 109 136 177 227 263 307
#     4   9  17  32  55  80 105 134 184 217 262 306
#     4  10  18  33  58  80 103 140 186 218 255 315
#     4  10  22  36  54  77 116 141 173 217 273 318
#
# _framework density 24.577164
#
# number of rings (size 3 to 8) (size 9 to 14) (size 15 to 20)
#    0.857    1.429    1.429    3.857    0.000    0.571 
#    0.000    4.286    0.000    0.000    0.000    0.000 
#    0.000    0.000    0.000    0.000    0.000    0.000 
#
# Total GULP energy -78284.422006 kJ/mol
# GULP energy per Si atom -5591.744429 kJ/mol
# Density = 2.452123 g / cm^3
# Si number density = 24.577164 Si / 1000 Ang^3
#
#
#
# Elastic Constant Matrix: (Units=GPa)
#
#
# Indices 1 2 3 4 5 6 
#
# 1 77.3060 8.9056 39.7932 -5.7984 27.7569 7.7455
# 2 8.9056 93.9441 30.9652 0.6008 8.7509 -0.6897
# 3 39.7932 30.9652 131.8432 -11.0667 24.8356 4.3219
# 4 -5.7984 0.6008 -11.0667 37.8255 -4.5871 -1.2109
# 5 27.7569 8.7509 24.8356 -4.5871 51.7264 -11.4905
# 6 7.7455 -0.6897 4.3219 -1.2109 -11.4905 44.4030
#
#
#
# Elastic Compliance Matrix: (Units=1/GPa)
#
#
# Indices 1 2 3 4 5 6 
#
# 1 0.018809 0.000293 -0.003743 0.000461 -0.009494 -0.005356
# 2 0.000293 0.011610 -0.002745 -0.001043 -0.000864 0.000144
# 3 -0.003743 -0.002745 0.010007 0.002083 -0.002350 -0.000915
# 4 0.000461 -0.001043 0.002083 0.027348 0.001542 0.000846
# 5 -0.009494 -0.000864 -0.002350 0.001542 0.027866 0.009125
# 6 -0.005356 0.000144 -0.000915 0.000846 0.009125 0.025931
#
#
# Mechanical properties :
#
#
# Convention : Reuss Voigt Hill
#
# Bulk Modulus (GPa) = 35.66878 51.38013 43.52446
# Shear Modulus (GPa) = 34.89078 41.68625 38.28852
#
# Velocity S-wave (km/s) = 3.77190 4.12289 3.95129
# Velocity P-wave (km/s) = 5.78914 6.60419 6.21005
#
# Compressibility (1/GPa) = 0.02803572
#
# Stress axis : x y z
#
# Youngs Moduli (GPa) = 53.16669 86.13466 99.93342
#
# Poissons Ratio (x) = -0.02522 0.37404
# Poissons Ratio (y) = -0.01557 0.27428
# Poissons Ratio (z) = 0.19900 0.23641
#
# Static dielectric constant tensor:
#      x y z
#    x 2.029080 -0.073200 -0.067840 
#    y -0.073200 1.970670 -0.001910 
#    z -0.067840 -0.001910 1.951440 
# 
# From -- ./inp_files/172798.got.cif
#   From: 2010.05.17/outbox.cif.g08.bks.cpg/sg2_87_cif.got.tgz:172798.got - 2010.06.03 11:33:40.
