data_PCOD9035969
_publ_section_title
;
Structure prediction by ZEFSAII (Michael W. Deem and Ramdas Pophale) SiO2 
 PCOD9035969
Probable space group: P -1
;
_chemical_formula_sum "Si O2"
_cell_formula_units_Z 12
_cell_length_a 9.422583
_cell_length_b 9.345258
_cell_length_c 9.879604
_cell_angle_alpha 133.413821
_cell_angle_beta 133.961607
_cell_angle_gamma 56.384681
_cell_volume 449.980976
_symmetry_space_group_name_H-M "P -1"
_symmetry_group_IT_number 2
_symmetry_cell_setting 'triclinic'
loop_
_space_group_symop_operation_xyz
x,y,z
-x,-y,-z
loop_
_atom_site_type_symbol
_atom_site_label
_atom_site_fract_x
_atom_site_fract_y
_atom_site_fract_z
Si Si1 0.689142 0.839041 0.557343
Si Si2 0.056045 0.691787 0.245303
Si Si3 0.346771 0.563264 0.598283
Si Si4 0.271821 0.529316 0.818998
Si Si5 0.674594 0.822940 0.978955
Si Si6 0.045222 0.850393 0.070634
O O1 0.863317 0.959127 0.797617
O O2 0.500000 0.000000 0.500000
O O3 0.632921 0.673314 0.517281
O O4 0.769748 0.690264 0.391210
O O5 0.191946 0.644471 0.433356
O O6 0.146286 0.813751 0.265539
O O7 0.870837 0.344208 0.087672
O O8 0.000000 0.500000 0.000000
O O9 0.267519 0.642081 0.745077
O O10 0.560210 0.633114 0.762715
O O11 0.168793 0.197278 0.806037
O O12 0.500000 0.500000 0.000000
O O13 0.817877 0.862183 0.975896
O O14 0.500000 0.000000 0.000000
#
# Coordination Sequence:
#
# PCOD9035969 Si02
#       6
#     2   2   2   2   2   2
#     4  10  22  46  89 129 179 235 299 359 455 535
#     4  10  26  52  88 121 176 231 299 362 453 527
#     4  10  25  53  90 126 174 240 294 371 455 525
#     4  10  22  46  86 130 177 230 300 361 449 528
#     4  10  26  55  89 125 174 237 300 363 451 535
#     4  10  23  52  89 122 181 229 302 371 442 540
#
# _framework density 26.667793
#
# number of rings (size 3 to 8) (size 9 to 14) (size 15 to 20)
#    2.000    0.000    1.667    0.000    4.667    1.333 
#    9.000    5.000    7.333    2.000    0.000    0.000 
#    0.000    0.000    0.000    0.000    0.000    0.000 
#
# Total GULP energy -67164.715847 kJ/mol
# GULP energy per Si atom -5597.059654 kJ/mol
# Density = 2.660710 g / cm^3
# Si number density = 26.667793 Si / 1000 Ang^3
#
#
#
# Elastic Constant Matrix: (Units=GPa)
#
#
# Indices 1 2 3 4 5 6 
#
# 1 221.2885 96.4844 96.6921 -4.9990 16.3690 -6.6374
# 2 96.4844 133.3572 52.4147 5.1279 8.0742 -5.0632
# 3 96.6921 52.4147 167.0914 6.0026 19.4467 -4.2459
# 4 -4.9990 5.1279 6.0026 71.9646 8.6998 4.2938
# 5 16.3690 8.0742 19.4467 8.6998 47.5865 -1.2577
# 6 -6.6374 -5.0632 -4.2459 4.2938 -1.2577 58.3043
#
#
#
# Elastic Compliance Matrix: (Units=1/GPa)
#
#
# Indices 1 2 3 4 5 6 
#
# 1 0.007949 -0.004511 -0.003118 0.001234 -0.000916 0.000175
# 2 -0.004511 0.011147 -0.000861 -0.001091 0.000224 0.000477
# 3 -0.003118 -0.000861 0.008326 -0.000610 -0.002068 0.000177
# 4 0.001234 -0.001091 -0.000610 0.014500 -0.002670 -0.001124
# 5 -0.000916 0.000224 -0.002068 -0.002670 0.022636 0.000450
# 6 0.000175 0.000477 0.000177 -0.001124 0.000450 0.017318
#
#
# Mechanical properties :
#
#
# Convention : Reuss Voigt Hill
#
# Bulk Modulus (GPa) = 95.76633 112.54663 104.15648
# Shear Modulus (GPa) = 48.85707 53.98082 51.41894
#
# Velocity S-wave (km/s) = 4.28490 4.50399 4.39581
# Velocity P-wave (km/s) = 7.77620 8.32723 8.05643
#
# Compressibility (1/GPa) = 0.01044208
#
# Stress axis : x y z
#
# Youngs Moduli (GPa) = 125.79755 89.70710 120.09933
#
# Poissons Ratio (x) = 0.40467 0.37451
# Poissons Ratio (y) = 0.56748 0.10342
# Poissons Ratio (z) = 0.39228 0.07725
#
# Static dielectric constant tensor:
#      x y z
#    x 2.113710 0.038310 -0.094390 
#    y 0.038310 2.335650 -0.114180 
#    z -0.094390 -0.114180 2.187760 
# 
# From -- ./inp_files/418329.got.cif
#   From: 2010.05.17/outbox.cif.g08.bks.cpg/sg2_210_cif.got.tgz:418329.got - 2010.06.03 11:33:40.
