data_PCOD9035621
_publ_section_title
;
Structure prediction by ZEFSAII (Michael W. Deem and Ramdas Pophale) SiO2 
 PCOD9035621
Probable space group: P -1
;
_chemical_formula_sum "Si O2"
_cell_formula_units_Z 8
_cell_length_a 7.547825
_cell_length_b 5.134294
_cell_length_c 9.528993
_cell_angle_alpha 121.819381
_cell_angle_beta 71.516396
_cell_angle_gamma 93.330222
_cell_volume 294.853786
_symmetry_space_group_name_H-M "P -1"
_symmetry_group_IT_number 2
_symmetry_cell_setting 'triclinic'
loop_
_space_group_symop_operation_xyz
x,y,z
-x,-y,-z
loop_
_atom_site_type_symbol
_atom_site_label
_atom_site_fract_x
_atom_site_fract_y
_atom_site_fract_z
Si Si1 0.276612 0.219062 0.175909
Si Si2 0.837671 0.381800 0.097830
Si Si3 0.289977 0.391158 0.522647
Si Si4 0.552816 0.217391 0.771235
O O1 0.202184 0.387653 0.388083
O O2 0.324009 0.507376 0.155958
O O3 0.448650 0.998974 0.152628
O O4 0.177877 0.966284 0.047148
O O5 0.842333 0.423966 0.276865
O O6 0.644694 0.614057 0.182540
O O7 0.000000 0.500000 0.000000
O O8 0.500000 0.500000 0.500000
O O9 0.338530 0.022416 0.434815
#
# Coordination Sequence:
#
# PCOD9035621 Si02
#       4
#     2   2   2   2
#     4  10  24  43  72  94 131 176 231 260 321 406
#     4  12  24  42  68 104 135 168 219 285 334 375
#     4  10  23  42  74  92 131 177 230 257 328 400
#     4  10  22  46  69  94 130 179 226 264 318 407
#
# _framework density 27.132090999999999
#
# number of rings (size 3 to 8) (size 9 to 14) (size 15 to 20)
#    1.500    0.000    2.500    2.250    0.000    1.000 
#    0.000   12.500    0.000    0.000    0.000    0.000 
#    0.000    0.000    0.000    0.000    0.000    0.000 
#
# Total GULP energy -44709.728854 kJ/mol
# GULP energy per Si atom -5588.716107 kJ/mol
# Density = 2.707034 g / cm^3
# Si number density = 27.132091 Si / 1000 Ang^3
#
#
#
# Elastic Constant Matrix: (Units=GPa)
#
#
# Indices 1 2 3 4 5 6 
#
# 1 71.4062 33.9936 63.4829 6.7408 6.1040 7.0203
# 2 33.9936 164.5596 74.2710 18.1811 3.9670 25.3302
# 3 63.4829 74.2710 250.4097 4.1067 25.9659 26.1702
# 4 6.7408 18.1811 4.1067 61.6136 -6.2235 9.0800
# 5 6.1040 3.9670 25.9659 -6.2235 58.5559 1.6803
# 6 7.0203 25.3302 26.1702 9.0800 1.6803 55.7148
#
#
#
# Elastic Compliance Matrix: (Units=1/GPa)
#
#
# Indices 1 2 3 4 5 6 
#
# 1 0.018737 -0.001928 -0.004220 -0.001317 -0.000112 0.000716
# 2 -0.001928 0.007698 -0.001558 -0.001595 0.000266 -0.002273
# 3 -0.004220 -0.001558 0.005882 0.000561 -0.001959 -0.001555
# 4 -0.001317 -0.001595 0.000561 0.017332 0.001903 -0.002254
# 5 -0.000112 0.000266 -0.001959 0.001903 0.018143 -0.000044
# 6 0.000716 -0.002273 -0.001555 -0.002254 -0.000044 0.019991
#
#
# Mechanical properties :
#
#
# Convention : Reuss Voigt Hill
#
# Bulk Modulus (GPa) = 59.15524 92.20780 75.68152
# Shear Modulus (GPa) = 45.94260 56.15207 51.04734
#
# Velocity S-wave (km/s) = 4.11943 4.55420 4.34226
# Velocity P-wave (km/s) = 6.66905 7.85575 7.28660
#
# Compressibility (1/GPa) = 0.01690467
#
# Stress axis : x y z
#
# Youngs Moduli (GPa) = 53.36899 129.90192 170.01321
#
# Poissons Ratio (x) = 0.25046 0.71746
# Poissons Ratio (y) = 0.10290 0.26494
# Poissons Ratio (z) = 0.22522 0.20243
#
# Static dielectric constant tensor:
#      x y z
#    x 2.163870 -0.035970 0.031900 
#    y -0.035970 2.084240 -0.118140 
#    z 0.031900 -0.118140 2.301040 
# 
# From -- ./inp_files/16717.got.cif
#   From: 2010.05.17/outbox.cif.g08.bks.cpg/sg2_9_cif.got.tgz:16717.got - 2010.06.03 11:33:40.
