data_PCOD9035894
_publ_section_title
;
Structure prediction by ZEFSAII (Michael W. Deem and Ramdas Pophale) SiO2 
 PCOD9035894
Probable space group: P -1
;
_chemical_formula_sum "Si O2"
_cell_formula_units_Z 16
_cell_length_a 8.188146
_cell_length_b 13.543986
_cell_length_c 6.676153
_cell_angle_alpha 101.912411
_cell_angle_beta 70.348177
_cell_angle_gamma 81.453364
_cell_volume 662.872309
_symmetry_space_group_name_H-M "P -1"
_symmetry_group_IT_number 2
_symmetry_cell_setting 'triclinic'
loop_
_space_group_symop_operation_xyz
x,y,z
-x,-y,-z
loop_
_atom_site_type_symbol
_atom_site_label
_atom_site_fract_x
_atom_site_fract_y
_atom_site_fract_z
Si Si1 0.900710 0.061903 0.875284
Si Si2 0.804532 0.280201 0.527925
Si Si3 0.771351 0.584572 0.157124
Si Si4 0.508573 0.885679 0.868294
Si Si5 0.625701 0.403892 0.285133
Si Si6 0.935468 0.457225 0.704903
Si Si7 0.136643 0.125910 0.473825
Si Si8 0.513111 0.278943 0.912720
O O1 0.037530 0.120510 0.727645
O O2 0.864984 0.979996 0.689940
O O3 0.700974 0.119581 0.063896
O O4 0.000000 0.000000 0.000000
O O5 0.723821 0.314051 0.358037
O O6 0.696570 0.223836 0.702318
O O7 0.794325 0.391392 0.685072
O O8 0.006478 0.214682 0.430856
O O9 0.758314 0.467954 0.165916
O O10 0.896790 0.615652 0.281596
O O11 0.588607 0.660492 0.210250
O O12 0.866374 0.562292 0.898544
O O13 0.656545 0.864084 0.620052
O O14 0.578887 0.803245 0.981349
O O15 0.500000 0.000000 0.000000
O O16 0.500000 0.500000 0.500000
O O17 0.536204 0.355909 0.118065
O O18 0.000000 0.500000 0.500000
#
# Coordination Sequence:
#
# PCOD9035894 Si02
#       8
#     2   2   2   2   2   2   2   2
#     4  10  22  46  74  99 136 177 226 296 358 420
#     4  12  24  42  68  99 140 186 236 287 352 428
#     4  11  24  41  63  96 133 187 233 289 346 419
#     4  10  24  48  70 101 142 183 233 300 357 423
#     4  12  24  40  68 101 139 190 235 287 353 422
#     4  11  24  41  62  91 142 180 230 291 350 410
#     4  10  24  43  69 101 136 177 231 288 355 424
#     4  12  25  44  69  98 143 183 244 292 352 422
#
# _framework density 24.137377999999998
#
# number of rings (size 3 to 8) (size 9 to 14) (size 15 to 20)
#    0.000    1.000    5.000    1.125    3.500    0.500 
#    4.500    0.000    0.000    0.000    0.000    0.000 
#    0.000    0.000    0.000    0.000    0.000    0.000 
#
# Total GULP energy -89236.051834 kJ/mol
# GULP energy per Si atom -5577.253240 kJ/mol
# Density = 2.408244 g / cm^3
# Si number density = 24.137378 Si / 1000 Ang^3
#
#
#
# Elastic Constant Matrix: (Units=GPa)
#
#
# Indices 1 2 3 4 5 6 
#
# 1 93.1244 12.6942 40.5960 -7.1780 -16.1861 -19.6293
# 2 12.6942 71.4092 10.7298 -8.0608 -6.8482 -2.4598
# 3 40.5960 10.7298 92.3156 -22.1431 -24.7070 -10.1345
# 4 -7.1780 -8.0608 -22.1431 42.3343 5.7870 -1.8670
# 5 -16.1861 -6.8482 -24.7070 5.7870 44.2758 3.0188
# 6 -19.6293 -2.4598 -10.1345 -1.8670 3.0188 38.2127
#
#
#
# Elastic Compliance Matrix: (Units=1/GPa)
#
#
# Indices 1 2 3 4 5 6 
#
# 1 0.014789 -0.001510 -0.005308 -0.000552 0.001880 0.005917
# 2 -0.001510 0.014683 -0.000115 0.002303 0.001344 0.000146
# 3 -0.005308 -0.000115 0.016738 0.007032 0.006357 0.001546
# 4 -0.000552 0.002303 0.007032 0.027747 0.000243 0.003066
# 5 0.001880 0.001344 0.006357 0.000243 0.026954 0.000621
# 6 0.005917 0.000146 0.001546 0.003066 0.000621 0.029729
#
#
# Mechanical properties :
#
#
# Convention : Reuss Voigt Hill
#
# Bulk Modulus (GPa) = 30.91594 42.76548 36.84071
# Shear Modulus (GPa) = 32.19840 37.81983 35.00912
#
# Velocity S-wave (km/s) = 3.65631 3.96265 3.81256
# Velocity P-wave (km/s) = 5.53723 6.22035 5.88871
#
# Compressibility (1/GPa) = 0.03234577
#
# Stress axis : x y z
#
# Youngs Moduli (GPa) = 67.61604 68.10483 59.74448
#
# Poissons Ratio (x) = 0.10282 0.31712
# Poissons Ratio (y) = 0.10208 0.00685
# Poissons Ratio (z) = 0.35891 0.00781
#
# Static dielectric constant tensor:
#      x y z
#    x 2.136480 -0.063000 -0.342600 
#    y -0.063000 1.949390 0.211020 
#    z -0.342600 0.211020 3.150620 
# 
# From -- ./inp_files/38461.got.cif
#   From: 2010.05.17/outbox.cif.g08.bks.cpg/sg2_20_cif.got.tgz:38461.got - 2010.06.03 11:33:40.
