data_PCOD9035997
_publ_section_title
;
Structure prediction by ZEFSAII (Michael W. Deem and Ramdas Pophale) SiO2 
 PCOD9035997
Probable space group: P -1
;
_chemical_formula_sum "Si O2"
_cell_formula_units_Z 16
_cell_length_a 9.276525
_cell_length_b 8.733224
_cell_length_c 15.930291
_cell_angle_alpha 130.574550
_cell_angle_beta 74.463402
_cell_angle_gamma 78.067101
_cell_volume 806.364934
_symmetry_space_group_name_H-M "P -1"
_symmetry_group_IT_number 2
_symmetry_cell_setting 'triclinic'
loop_
_space_group_symop_operation_xyz
x,y,z
-x,-y,-z
loop_
_atom_site_type_symbol
_atom_site_label
_atom_site_fract_x
_atom_site_fract_y
_atom_site_fract_z
Si Si1 0.985615 0.366761 0.739792
Si Si2 0.018702 0.865643 0.164639
Si Si3 0.459287 0.918212 0.813301
Si Si4 0.060905 0.174321 0.019111
Si Si5 0.594252 0.265158 0.958229
Si Si6 0.356864 0.773405 0.617174
Si Si7 0.651998 0.057699 0.507607
Si Si8 0.618716 0.493629 0.759056
O O1 0.984518 0.268347 0.798665
O O2 0.995245 0.599901 0.834268
O O3 0.806416 0.423791 0.743562
O O4 0.156121 0.173789 0.593707
O O5 0.198802 0.859940 0.130885
O O6 0.842508 0.125619 0.285129
O O7 0.010373 0.747979 0.036988
O O8 0.426433 0.897984 0.713241
O O9 0.578194 0.661551 0.744765
O O10 0.533853 0.085815 0.877788
O O11 0.270364 0.035527 0.929026
O O12 0.000000 0.000000 0.000000
O O13 0.500000 0.500000 0.000000
O O14 0.528284 0.354296 0.094398
O O15 0.500000 0.500000 0.500000
O O16 0.340207 0.846620 0.550441
O O17 0.615390 0.260874 0.651817
O O18 0.500000 0.000000 0.500000
#
# Coordination Sequence:
#
# PCOD9035997 Si02
#       8
#     2   2   2   2   2   2   2   2
#     4  11  24  44  65  94 136 175 218 272 333 393
#     4  10  23  40  67  96 132 169 224 266 334 385
#     4  11  24  42  67 100 132 174 217 273 337 390
#     4  11  23  39  66  98 132 172 222 274 325 388
#     4  12  24  41  68 102 136 171 220 276 336 395
#     4  10  22  47  68  91 133 172 219 275 329 392
#     4  11  27  43  70  97 127 177 228 271 328 399
#     4  12  24  44  66  94 144 172 217 271 337 398
#
# _framework density 19.842134000000001
#
# number of rings (size 3 to 8) (size 9 to 14) (size 15 to 20)
#    0.000    1.000    3.750    1.875    7.000    1.000 
#    0.000    0.625    0.000    0.000    0.000    0.000 
#    0.000    0.000    0.000    0.000    0.000    0.000 
#
# Total GULP energy -89402.452587 kJ/mol
# GULP energy per Si atom -5587.653287 kJ/mol
# Density = 1.979697 g / cm^3
# Si number density = 19.842134 Si / 1000 Ang^3
#
#
#
# Elastic Constant Matrix: (Units=GPa)
#
#
# Indices 1 2 3 4 5 6 
#
# 1 161.2801 28.6810 64.2344 22.2038 0.1287 11.9994
# 2 28.6810 34.3514 -0.0669 12.4186 5.7918 -7.8630
# 3 64.2344 -0.0669 107.8678 19.0541 14.6765 9.8851
# 4 22.2038 12.4186 19.0541 31.5220 0.0851 5.3934
# 5 0.1287 5.7918 14.6765 0.0851 36.6639 3.6651
# 6 11.9994 -7.8630 9.8851 5.3934 3.6651 32.4574
#
#
#
# Elastic Compliance Matrix: (Units=1/GPa)
#
#
# Indices 1 2 3 4 5 6 
#
# 1 0.011658 -0.013069 -0.007611 0.002588 0.005687 -0.006231
# 2 -0.013069 0.055904 0.012267 -0.023672 -0.015674 0.020342
# 3 -0.007611 0.012267 0.016460 -0.009984 -0.008819 0.003427
# 4 0.002588 -0.023672 -0.009984 0.047381 0.008869 -0.012525
# 5 0.005687 -0.015674 -0.008819 0.008869 0.034094 -0.008537
# 6 -0.006231 0.020342 0.003427 -0.012525 -0.008537 0.040043
#
#
# Mechanical properties :
#
#
# Convention : Reuss Voigt Hill
#
# Bulk Modulus (GPa) = 14.88173 54.35512 34.61842
# Shear Modulus (GPa) = 20.42788 34.17204 27.29996
#
# Velocity S-wave (km/s) = 3.21209 4.15444 3.71328
# Velocity P-wave (km/s) = 4.61228 7.10392 5.98911
#
# Compressibility (1/GPa) = 0.06719650
#
# Stress axis : x y z
#
# Youngs Moduli (GPa) = 85.77491 17.88795 60.75437
#
# Poissons Ratio (x) = 0.23378 0.46237
# Poissons Ratio (y) = 1.12102 -0.74529
# Poissons Ratio (z) = 0.65279 -0.21944
#
# Static dielectric constant tensor:
#      x y z
#    x 1.964080 0.397280 0.215890 
#    y 0.397280 2.325000 0.334740 
#    z 0.215890 0.334740 1.896970 
# 
# From -- ./inp_files/208419.got.cif
#   From: 2010.05.17/outbox.cif.g08.bks.cpg/sg2_105_cif.got.tgz:208419.got - 2010.06.03 11:33:40.
