data_PCOD9035978
_publ_section_title
;
Structure prediction by ZEFSAII (Michael W. Deem and Ramdas Pophale) SiO2 
 PCOD9035978
Probable space group: P -1
;
_chemical_formula_sum "Si O2"
_cell_formula_units_Z 15
_cell_length_a 5.491468
_cell_length_b 9.518046
_cell_length_c 20.513601
_cell_angle_alpha 144.408280
_cell_angle_beta 86.054824
_cell_angle_gamma 104.184667
_cell_volume 588.609135
_symmetry_space_group_name_H-M "P -1"
_symmetry_group_IT_number 2
_symmetry_cell_setting 'triclinic'
loop_
_space_group_symop_operation_xyz
x,y,z
-x,-y,-z
loop_
_atom_site_type_symbol
_atom_site_label
_atom_site_fract_x
_atom_site_fract_y
_atom_site_fract_z
Si Si1 0.500000 0.500000 0.000000
Si Si2 0.498411 0.594399 0.883108
Si Si3 0.242591 0.610161 0.306812
Si Si4 0.271829 0.861402 0.642644
Si Si5 0.487719 0.051395 0.201942
Si Si6 0.216256 0.851596 0.896473
Si Si7 0.175102 0.033530 0.383858
Si Si8 0.388313 0.535768 0.415380
O O1 0.535219 0.521979 0.088337
O O2 0.390808 0.747119 0.093650
O O3 0.541337 0.416982 0.757654
O O4 0.280560 0.709567 0.904576
O O5 0.751746 0.852971 0.980658
O O6 0.331337 0.663240 0.399000
O O7 0.033490 0.331395 0.202269
O O8 0.126520 0.818186 0.358472
O O9 0.265999 0.862102 0.720825
O O10 0.581716 0.993602 0.672258
O O11 0.243427 0.603197 0.504869
O O12 0.073892 0.982100 0.659143
O O13 0.564879 0.123334 0.153129
O O14 0.332161 0.237678 0.295746
O O15 0.308881 0.313051 0.518669
#
# Coordination Sequence:
#
# PCOD9035978 Si02
#       8
#     1   2   2   2   2   2   2   2
#     4  10  24  42  80  96 142 184 248 306 372 434
#     4  10  22  47  65 103 136 188 237 309 365 437
#     4  12  23  41  72 103 145 189 245 303 365 441
#     4  10  25  45  70 104 150 197 242 300 360 435
#     4  11  22  46  69 109 141 197 240 305 363 437
#     4  10  24  40  73  97 143 186 245 296 370 433
#     4  10  26  43  70 109 148 194 246 302 361 432
#     4  10  25  42  69 107 143 200 237 302 362 440
#
# _framework density 25.483805
#
# number of rings (size 3 to 8) (size 9 to 14) (size 15 to 20)
#    0.800    0.800    1.333    2.000    5.600    2.133 
#    0.000    0.667    0.000    0.000    0.000    0.000 
#    0.000    0.000    0.000    0.000    0.000    0.000 
#
# Total GULP energy -83540.986263 kJ/mol
# GULP energy per Si atom -5569.399084 kJ/mol
# Density = 2.542580 g / cm^3
# Si number density = 25.483805 Si / 1000 Ang^3
#
#
#
# Elastic Constant Matrix: (Units=GPa)
#
#
# Indices 1 2 3 4 5 6 
#
# 1 74.6090 23.7725 -0.2888 9.5719 13.9467 -20.0740
# 2 23.7725 157.3301 12.9348 -19.7045 1.6396 -37.5414
# 3 -0.2888 12.9348 73.5325 3.6785 -9.7536 3.4178
# 4 9.5719 -19.7045 3.6785 45.2059 -19.0336 0.0563
# 5 13.9467 1.6396 -9.7536 -19.0336 28.2402 0.5281
# 6 -20.0740 -37.5414 3.4178 0.0563 0.5281 38.7064
#
#
#
# Elastic Compliance Matrix: (Units=1/GPa)
#
#
# Indices 1 2 3 4 5 6 
#
# 1 0.023087 -0.002630 -0.002127 -0.015356 -0.022519 0.009940
# 2 -0.002630 0.009633 -0.001817 0.006810 0.004551 0.008068
# 3 -0.002127 -0.001817 0.015026 0.001601 0.007505 -0.004297
# 4 -0.015356 0.006810 0.001601 0.043965 0.037412 -0.002075
# 5 -0.022519 0.004551 0.007505 0.037412 0.074243 -0.008995
# 6 0.009940 0.008068 -0.004297 -0.002075 -0.008995 0.039321
#
#
# Mechanical properties :
#
#
# Convention : Reuss Voigt Hill
#
# Bulk Modulus (GPa) = 28.90422 42.03427 35.46925
# Shear Modulus (GPa) = 21.74319 40.36737 31.05528
#
# Velocity S-wave (km/s) = 2.92415 3.98432 3.49467
# Velocity P-wave (km/s) = 4.77155 6.13976 5.49838
#
# Compressibility (1/GPa) = 0.03459702
#
# Stress axis : x y z
#
# Youngs Moduli (GPa) = 43.31442 103.80495 66.55200
#
# Poissons Ratio (x) = 0.27303 0.14159
# Poissons Ratio (y) = 0.11393 0.12092
# Poissons Ratio (z) = 0.09215 0.18860
#
# Static dielectric constant tensor:
#      x y z
#    x 1.994900 0.084530 -0.000030 
#    y 0.084530 2.022130 0.034610 
#    z -0.000030 0.034610 2.063800 
# 
# From -- ./inp_files/582126.got.cif
#   From: 2010.05.17/outbox.cif.g08.bks.cpg/sg2_292_cif.got.tgz:582126.got - 2010.06.03 11:33:40.
