data_PCOD9035081
_publ_section_title
;
Structure prediction by ZEFSAII (Michael W. Deem and Ramdas Pophale) SiO2 
 PCOD9035081
Probable space group: P -1
;
_chemical_formula_sum "Si O2"
_cell_formula_units_Z 14
_cell_length_a 13.585997
_cell_length_b 28.171078
_cell_length_c 11.289820
_cell_angle_alpha 21.130157
_cell_angle_beta 147.900833
_cell_angle_gamma 157.401884
_cell_volume 595.480771
_symmetry_space_group_name_H-M "P -1"
_symmetry_group_IT_number 2
_symmetry_cell_setting 'triclinic'
loop_
_space_group_symop_operation_xyz
x,y,z
-x,-y,-z
loop_
_atom_site_type_symbol
_atom_site_label
_atom_site_fract_x
_atom_site_fract_y
_atom_site_fract_z
Si Si1 0.216800 0.133390 0.813430
Si Si2 0.378494 0.497173 0.501879
Si Si3 0.462888 0.656125 0.802076
Si Si4 0.774949 0.062047 0.129819
Si Si5 0.040848 0.286518 0.117455
Si Si6 0.484511 0.962123 0.711233
Si Si7 0.827788 0.285035 0.466706
O O1 0.457554 0.305871 0.730864
O O2 0.123141 0.196769 0.480093
O O3 0.308237 0.050375 0.031249
O O4 0.000000 0.000000 0.000000
O O5 0.500000 0.500000 0.500000
O O6 0.102505 0.425201 0.358295
O O7 0.417030 0.398741 0.866639
O O8 0.260890 0.640282 0.713227
O O9 0.689769 0.867482 0.500697
O O10 0.283793 0.505200 0.867327
O O11 0.946771 0.197853 0.098172
O O12 0.876377 0.178112 0.844675
O O13 0.500000 0.000000 0.000000
O O14 0.790611 0.213410 0.106274
O O15 0.500000 0.000000 0.500000
O O16 0.588252 0.138275 0.479073
#
# Coordination Sequence:
#
# PCOD9035081 Si02
#       7
#     2   2   2   2   2   2   2
#     4  11  24  42  63  97 133 175 223 273 334 400
#     4  11  26  42  66  97 133 178 223 277 336 397
#     4  10  24  44  68 100 135 174 227 277 332 399
#     4  10  22  45  70  99 135 177 227 276 332 403
#     4  11  23  45  67  97 137 177 220 281 336 388
#     4  12  24  39  68  97 134 179 219 274 341 394
#     4  11  25  45  67 102 132 178 225 276 339 395
#
# _framework density 23.510414000000001
#
# number of rings (size 3 to 8) (size 9 to 14) (size 15 to 20)
#    0.000    1.143    4.286    1.714    8.000    3.429 
#    2.571    1.429    0.000    0.000    0.000    0.000 
#    0.000    0.000    0.000    0.000    0.000    0.000 
#
# Total GULP energy -78301.855558 kJ/mol
# GULP energy per Si atom -5592.989683 kJ/mol
# Density = 2.345690 g / cm^3
# Si number density = 23.510414 Si / 1000 Ang^3
#
#
#
# Elastic Constant Matrix: (Units=GPa)
#
#
# Indices 1 2 3 4 5 6 
#
# 1 62.5843 32.0166 5.2154 2.7638 11.0381 -11.3412
# 2 32.0166 120.2828 18.2234 -8.4500 5.9975 -21.3643
# 3 5.2154 18.2234 71.5342 -5.3102 13.8107 -10.8495
# 4 2.7638 -8.4500 -5.3102 22.9720 -4.9611 7.7752
# 5 11.0381 5.9975 13.8107 -4.9611 25.8625 6.7710
# 6 -11.3412 -21.3643 -10.8495 7.7752 6.7710 60.8844
#
#
#
# Elastic Compliance Matrix: (Units=1/GPa)
#
#
# Indices 1 2 3 4 5 6 
#
# 1 0.021945 -0.005259 0.002261 -0.008432 -0.012305 0.005091
# 2 -0.005259 0.010531 -0.001969 0.003689 0.001097 0.001772
# 3 0.002261 -0.001969 0.016952 -0.000773 -0.010769 0.004048
# 4 -0.008432 0.003689 -0.000773 0.052027 0.015434 -0.008775
# 5 -0.012305 0.001097 -0.010769 0.015434 0.055508 -0.011970
# 6 0.005091 0.001772 0.004048 -0.008775 -0.011970 0.021168
#
#
# Mechanical properties :
#
#
# Convention : Reuss Voigt Hill
#
# Bulk Modulus (GPa) = 25.31900 40.59025 32.95463
# Shear Modulus (GPa) = 24.84753 35.20685 30.02719
#
# Velocity S-wave (km/s) = 3.25449 3.87395 3.57765
# Velocity P-wave (km/s) = 4.99148 6.10838 5.57796
#
# Compressibility (1/GPa) = 0.03949603
#
# Stress axis : x y z
#
# Youngs Moduli (GPa) = 45.56795 94.95913 58.99169
#
# Poissons Ratio (x) = 0.49935 -0.13340
# Poissons Ratio (y) = 0.23962 0.11613
# Poissons Ratio (z) = -0.10305 0.18694
#
# Static dielectric constant tensor:
#      x y z
#    x 1.894390 0.185980 -0.058910 
#    y 0.185980 2.152320 -0.043040 
#    z -0.058910 -0.043040 1.968400 
# 
# From -- ./inp_files/426064.got.cif
#   From: 2010.05.17/outbox.cif.g08.bks.cpg/sg2_214_cif.got.tgz:426064.got - 2010.06.03 11:33:40.
