data_PCOD9035901
_publ_section_title
;
Structure prediction by ZEFSAII (Michael W. Deem and Ramdas Pophale) SiO2 
 PCOD9035901
Probable space group: P -1
;
_chemical_formula_sum "Si O2"
_cell_formula_units_Z 15
_cell_length_a 11.499446
_cell_length_b 8.050519
_cell_length_c 17.549841
_cell_angle_alpha 52.268600
_cell_angle_beta 30.076810
_cell_angle_gamma 41.177721
_cell_volume 532.262066
_symmetry_space_group_name_H-M "P -1"
_symmetry_group_IT_number 2
_symmetry_cell_setting 'triclinic'
loop_
_space_group_symop_operation_xyz
x,y,z
-x,-y,-z
loop_
_atom_site_type_symbol
_atom_site_label
_atom_site_fract_x
_atom_site_fract_y
_atom_site_fract_z
Si Si1 0.874112 0.769028 0.072610
Si Si2 0.663189 0.174084 0.639583
Si Si3 0.000000 0.500000 0.500000
Si Si4 0.541705 0.674054 0.603081
Si Si5 0.749719 0.704959 0.932509
Si Si6 0.731389 0.380406 0.786544
Si Si7 0.181017 0.829737 0.613425
Si Si8 0.941738 0.872961 0.180088
O O1 0.547785 0.904459 0.199768
O O2 0.069665 0.460285 0.049451
O O3 0.908319 0.800760 0.135200
O O4 0.978773 0.920583 0.927758
O O5 0.551695 0.418515 0.687080
O O6 0.642774 0.215497 0.548871
O O7 0.000000 0.000000 0.500000
O O8 0.142901 0.434243 0.521860
O O9 0.301523 0.405530 0.311890
O O10 0.401503 0.719746 0.587211
O O11 0.362812 0.955484 0.658894
O O12 0.987810 0.717863 0.747574
O O13 0.558455 0.600515 0.048491
O O14 0.500000 0.000000 0.000000
O O15 0.959023 0.129731 0.675830
O O16 0.851454 0.333623 0.817102
#
# Coordination Sequence:
#
# PCOD9035901 Si02
#       8
#     2   2   1   2   2   2   2   2
#     4  11  25  47  74 111 154 201 256 318 378 457
#     4  12  27  43  73 112 151 202 259 313 378 448
#     4  12  26  42  70 110 150 192 256 308 378 460
#     4  11  25  46  72 105 147 204 245 317 378 452
#     4  10  22  46  75 105 146 193 257 314 370 449
#     4  10  24  45  73 108 146 202 247 313 384 456
#     4  10  23  46  72 109 146 195 253 316 379 448
#     4  10  26  47  74 109 155 202 253 312 390 458
#
# _framework density 28.181605000000001
#
# number of rings (size 3 to 8) (size 9 to 14) (size 15 to 20)
#    0.000    1.333    1.333    2.000    7.467    3.200 
#    4.800    0.000    0.000    0.000    0.000    0.000 
#    0.000    0.000    0.000    0.000    0.000    0.000 
#
# Total GULP energy -83589.480016 kJ/mol
# GULP energy per Si atom -5572.632001 kJ/mol
# Density = 2.811746 g / cm^3
# Si number density = 28.181605 Si / 1000 Ang^3
#
#
#
# Elastic Constant Matrix: (Units=GPa)
#
#
# Indices 1 2 3 4 5 6 
#
# 1 108.7537 23.4195 14.5784 15.8088 -17.9226 -33.4886
# 2 23.4195 61.2386 20.5984 15.2426 -6.3414 -9.5957
# 3 14.5784 20.5984 127.2783 -12.1836 -15.3508 8.3912
# 4 15.8088 15.2426 -12.1836 44.0006 -2.5701 -0.1483
# 5 -17.9226 -6.3414 -15.3508 -2.5701 53.1936 7.1074
# 6 -33.4886 -9.5957 8.3912 -0.1483 7.1074 39.3954
#
#
#
# Elastic Compliance Matrix: (Units=1/GPa)
#
#
# Indices 1 2 3 4 5 6 
#
# 1 0.014766 -0.001280 -0.002555 -0.005401 0.002171 0.012372
# 2 -0.001280 0.021055 -0.004389 -0.008047 -0.000243 0.004989
# 3 -0.002555 -0.004389 0.010065 0.005355 0.002558 -0.005826
# 4 -0.005401 -0.008047 0.005355 0.028982 0.001209 -0.007801
# 5 0.002171 -0.000243 0.002558 0.001209 0.020629 -0.002476
# 6 0.012372 0.004989 -0.005826 -0.007801 -0.002476 0.038774
#
#
# Mechanical properties :
#
#
# Convention : Reuss Voigt Hill
#
# Bulk Modulus (GPa) = 33.97030 46.05150 40.01090
# Shear Modulus (GPa) = 31.14638 43.22953 37.18796
#
# Velocity S-wave (km/s) = 3.32807 3.92083 3.63655
# Velocity P-wave (km/s) = 5.18153 6.07237 5.64455
#
# Compressibility (1/GPa) = 0.02943748
#
# Stress axis : x y z
#
# Youngs Moduli (GPa) = 67.72363 47.49492 99.35385
#
# Poissons Ratio (x) = 0.06078 0.25385
# Poissons Ratio (y) = 0.08667 0.43611
# Poissons Ratio (z) = 0.17303 0.20848
#
# Static dielectric constant tensor:
#      x y z
#    x 2.297160 0.136400 -0.018330 
#    y 0.136400 2.820130 -0.274650 
#    z -0.018330 -0.274650 2.360010 
# 
# From -- ./inp_files/566481.got.cif
#   From: 2010.05.17/outbox.cif.g08.bks.cpg/sg2_284_cif.got.tgz:566481.got - 2010.06.03 11:33:40.
