data_PCOD9035915
_publ_section_title
;
Structure prediction by ZEFSAII (Michael W. Deem and Ramdas Pophale) SiO2 
 PCOD9035915
Probable space group: P -1
;
_chemical_formula_sum "Si O2"
_cell_formula_units_Z 16
_cell_length_a 12.344957
_cell_length_b 13.373483
_cell_length_c 9.457155
_cell_angle_alpha 99.704869
_cell_angle_beta 28.891870
_cell_angle_gamma 104.380672
_cell_volume 726.736766
_symmetry_space_group_name_H-M "P -1"
_symmetry_group_IT_number 2
_symmetry_cell_setting 'triclinic'
loop_
_space_group_symop_operation_xyz
x,y,z
-x,-y,-z
loop_
_atom_site_type_symbol
_atom_site_label
_atom_site_fract_x
_atom_site_fract_y
_atom_site_fract_z
Si Si1 0.338639 0.821341 0.226952
Si Si2 0.220232 0.459486 0.319506
Si Si3 0.095682 0.556055 0.761173
Si Si4 0.918061 0.991449 0.430372
Si Si5 0.893482 0.687556 0.822330
Si Si6 0.516953 0.241094 0.551708
Si Si7 0.398263 0.057961 0.822837
Si Si8 0.524022 0.841101 0.724289
O O1 0.236480 0.924027 0.372332
O O2 0.569148 0.863120 0.060862
O O3 0.158112 0.739081 0.500950
O O4 0.372125 0.793187 0.020611
O O5 0.175272 0.478113 0.539596
O O6 0.195572 0.351397 0.240035
O O7 0.000000 0.500000 0.500000
O O8 0.500000 0.500000 0.000000
O O9 0.296246 0.656889 0.593167
O O10 0.900981 0.598112 0.906760
O O11 0.000000 0.500000 0.000000
O O12 0.774998 0.881603 0.514637
O O13 0.000000 0.000000 0.500000
O O14 0.130005 0.026537 0.091686
O O15 0.725873 0.751768 0.099873
O O16 0.551358 0.129530 0.547443
O O17 0.496365 0.231921 0.404490
O O18 0.459066 0.948550 0.770106
#
# Coordination Sequence:
#
# PCOD9035915 Si02
#       8
#     2   2   2   2   2   2   2   2
#     4  11  21  39  65  93 123 176 231 269 321 408
#     4  10  22  46  76 103 134 183 233 290 361 433
#     4  11  26  48  70  98 138 174 222 300 365 419
#     4  11  19  38  63  89 129 178 225 273 325 390
#     4  11  24  44  69  97 132 178 232 276 346 432
#     4  12  25  43  64  99 137 173 221 282 351 408
#     4  11  21  41  66  89 137 182 219 271 331 407
#     4  11  25  37  63 102 134 175 228 275 333 401
#
# _framework density 22.016224999999999
#
# number of rings (size 3 to 8) (size 9 to 14) (size 15 to 20)
#    0.000    1.000    6.250    1.125    1.750    2.000 
#    0.000    1.250    0.000    0.000    0.000    0.000 
#    0.000    0.000    0.000    0.000    0.000    0.000 
#
# Total GULP energy -89091.797330 kJ/mol
# GULP energy per Si atom -5568.237333 kJ/mol
# Density = 2.196611 g / cm^3
# Si number density = 22.016225 Si / 1000 Ang^3
#
#
#
# Elastic Constant Matrix: (Units=GPa)
#
#
# Indices 1 2 3 4 5 6 
#
# 1 106.1260 34.2543 50.9848 1.4569 30.8937 24.7650
# 2 34.2543 44.1814 31.8580 4.2216 16.8478 17.2274
# 3 50.9848 31.8580 116.8687 -9.9789 18.2634 11.8351
# 4 1.4569 4.2216 -9.9789 33.7551 5.9012 5.9308
# 5 30.8937 16.8478 18.2634 5.9012 43.6491 3.3896
# 6 24.7650 17.2274 11.8351 5.9308 3.3896 45.2504
#
#
#
# Elastic Compliance Matrix: (Units=1/GPa)
#
#
# Indices 1 2 3 4 5 6 
#
# 1 0.016490 -0.004788 -0.003990 0.001085 -0.007857 -0.005712
# 2 -0.004788 0.037588 -0.006413 -0.003539 -0.007258 -0.009005
# 3 -0.003990 -0.006413 0.012451 0.004618 -0.000597 0.000808
# 4 0.001085 -0.003539 0.004618 0.033113 -0.005470 -0.004384
# 5 -0.007857 -0.007258 -0.000597 -0.005470 0.031831 0.005552
# 6 -0.005712 -0.009005 0.000808 -0.004384 0.005552 0.028601
#
#
# Mechanical properties :
#
#
# Convention : Reuss Voigt Hill
#
# Bulk Modulus (GPa) = 27.66547 55.70780 41.68663
# Shear Modulus (GPa) = 24.69062 34.53618 29.61340
#
# Velocity S-wave (km/s) = 3.35247 3.96494 3.67150
# Velocity P-wave (km/s) = 5.25154 6.80581 6.07856
#
# Compressibility (1/GPa) = 0.03614615
#
# Stress axis : x y z
#
# Youngs Moduli (GPa) = 60.64176 26.60421 80.31300
#
# Poissons Ratio (x) = 0.12739 0.32043
# Poissons Ratio (y) = 0.29038 0.51508
# Poissons Ratio (z) = 0.24195 0.17063
#
# Static dielectric constant tensor:
#      x y z
#    x 1.816130 0.023990 -0.069990 
#    y 0.023990 1.825650 0.001520 
#    z -0.069990 0.001520 1.848760 
# 
# From -- ./inp_files/109916.got.cif
#   From: 2010.05.17/outbox.cif.g08.bks.cpg/sg2_55_cif.got.tgz:109916.got - 2010.06.03 11:33:40.
