data_PCOD9035295
_publ_section_title
;
Structure prediction by ZEFSAII (Michael W. Deem and Ramdas Pophale) SiO2 
 PCOD9035295
Probable space group: P -1
;
_chemical_formula_sum "Si O2"
_cell_formula_units_Z 13
_cell_length_a 4.909493
_cell_length_b 10.043632
_cell_length_c 11.952114
_cell_angle_alpha 123.103240
_cell_angle_beta 95.320896
_cell_angle_gamma 85.559147
_cell_volume 491.309207
_symmetry_space_group_name_H-M "P -1"
_symmetry_group_IT_number 2
_symmetry_cell_setting 'triclinic'
loop_
_space_group_symop_operation_xyz
x,y,z
-x,-y,-z
loop_
_atom_site_type_symbol
_atom_site_label
_atom_site_fract_x
_atom_site_fract_y
_atom_site_fract_z
Si Si1 0.718822 0.586639 0.271508
Si Si2 0.212335 0.785352 0.321800
Si Si3 0.810310 0.798933 0.762550
Si Si4 0.505828 0.244157 0.043669
Si Si5 0.435846 0.744433 0.532236
Si Si6 0.989046 0.898544 0.141864
Si Si7 0.000000 0.500000 0.500000
O O1 0.502967 0.709999 0.261626
O O2 0.620665 0.415685 0.156258
O O3 0.664809 0.627487 0.421673
O O4 0.015330 0.638513 0.270840
O O5 0.286322 0.848054 0.477186
O O6 0.078301 0.891703 0.271093
O O7 0.639722 0.814901 0.876336
O O8 0.604815 0.839383 0.670770
O O9 0.903911 0.618373 0.658782
O O10 0.056001 0.919913 0.816375
O O11 0.252490 0.222244 0.939967
O O12 0.760258 0.155744 0.953590
O O13 0.223643 0.633282 0.531422
#
# Coordination Sequence:
#
# PCOD9035295 Si02
#       7
#     2   2   2   2   2   2   1
#     4  10  22  45  73 107 141 184 246 299 348 422
#     4  10  23  46  70 112 143 187 243 291 367 421
#     4  12  27  46  75 108 147 186 247 303 364 430
#     4  12  27  47  73 107 148 198 241 293 354 432
#     4  10  25  42  77 108 137 183 245 309 357 410
#     4  12  29  47  71 106 155 199 230 290 366 443
#     4  12  24  46  76 108 138 186 244 310 360 408
#
# _framework density 26.459917999999998
#
# number of rings (size 3 to 8) (size 9 to 14) (size 15 to 20)
#    0.923    0.000    1.538    4.154    6.462    4.308 
#    0.000    1.538    0.000    0.000    0.000    0.000 
#    0.000    0.000    0.000    0.000    0.000    0.000 
#
# Total GULP energy -72628.160027 kJ/mol
# GULP energy per Si atom -5586.781541 kJ/mol
# Density = 2.639969 g / cm^3
# Si number density = 26.459918 Si / 1000 Ang^3
#
#
#
# Elastic Constant Matrix: (Units=GPa)
#
#
# Indices 1 2 3 4 5 6 
#
# 1 92.3197 3.5654 33.7933 -21.9596 -0.5194 18.5952
# 2 3.5654 86.0390 33.1662 -24.9543 0.2148 21.8800
# 3 33.7933 33.1662 102.8741 -23.9651 -8.2102 -4.6086
# 4 -21.9596 -24.9543 -23.9651 28.3665 -9.7583 1.5384
# 5 -0.5194 0.2148 -8.2102 -9.7583 46.0689 -5.3699
# 6 18.5952 21.8800 -4.6086 1.5384 -5.3699 32.9103
#
#
#
# Elastic Compliance Matrix: (Units=1/GPa)
#
#
# Indices 1 2 3 4 5 6 
#
# 1 0.027988 0.020432 -0.008987 0.034541 0.002216 -0.031909
# 2 0.020432 0.037131 -0.010221 0.042922 0.002756 -0.039218
# 3 -0.008987 -0.010221 0.016741 -0.001088 0.004447 0.014994
# 4 0.034541 0.042922 -0.001088 0.107366 0.016854 -0.050473
# 5 0.002216 0.002756 0.004447 0.016854 0.026201 0.001026
# 6 -0.031909 -0.039218 0.014994 -0.050473 0.001026 0.079116
#
#
# Mechanical properties :
#
#
# Convention : Reuss Voigt Hill
#
# Bulk Modulus (GPa) = 11.86128 46.92028 29.39078
# Shear Modulus (GPa) = 15.61532 35.51632 25.56582
#
# Velocity S-wave (km/s) = 2.43194 3.66767 3.11176
# Velocity P-wave (km/s) = 3.51827 5.97552 4.90332
#
# Compressibility (1/GPa) = 0.08430792
#
# Stress axis : x y z
#
# Youngs Moduli (GPa) = 35.72921 26.93161 59.73351
#
# Poissons Ratio (x) = -0.55026 0.53684
# Poissons Ratio (y) = -0.73001 0.61052
# Poissons Ratio (z) = 0.32111 0.27526
#
# Static dielectric constant tensor:
#      x y z
#    x 1.988200 -0.052170 -0.012950 
#    y -0.052170 1.966190 -0.039360 
#    z -0.012950 -0.039360 2.041500 
# 
# From -- ./inp_files/361568.got.cif
#   From: 2010.05.17/outbox.cif.g08.bks.cpg/sg2_181_cif.got.tgz:361568.got - 2010.06.03 11:33:40.
