data_PCOD9035042
_publ_section_title
;
Structure prediction by ZEFSAII (Michael W. Deem and Ramdas Pophale) SiO2 
 PCOD9035042
Probable space group: P -1
;
_chemical_formula_sum "Si O2"
_cell_formula_units_Z 12
_cell_length_a 14.950987
_cell_length_b 12.160233
_cell_length_c 5.412057
_cell_angle_alpha 125.186038
_cell_angle_beta 43.532827
_cell_angle_gamma 138.847681
_cell_volume 444.979580
_symmetry_space_group_name_H-M "P -1"
_symmetry_group_IT_number 2
_symmetry_cell_setting 'triclinic'
loop_
_space_group_symop_operation_xyz
x,y,z
-x,-y,-z
loop_
_atom_site_type_symbol
_atom_site_label
_atom_site_fract_x
_atom_site_fract_y
_atom_site_fract_z
Si Si1 0.525309 0.863810 0.207159
Si Si2 0.619965 0.684034 0.114990
Si Si3 0.115046 0.217799 0.674196
Si Si4 0.917065 0.394133 0.778760
Si Si5 0.862300 0.070953 0.621535
Si Si6 0.654725 0.408406 0.137527
O O1 0.598059 0.816698 0.212991
O O2 0.500000 0.000000 0.500000
O O3 0.371071 0.687728 0.187487
O O4 0.670445 0.961907 0.847461
O O5 0.524706 0.646498 0.513684
O O6 0.500000 0.500000 0.000000
O O7 0.791272 0.744617 0.732362
O O8 0.221588 0.390898 0.832978
O O9 0.938424 0.148860 0.842739
O O10 0.106431 0.070673 0.645288
O O11 0.922176 0.235195 0.558407
O O12 0.000000 0.500000 0.500000
O O13 0.736465 0.347366 0.073005
O O14 0.000000 0.500000 0.000000
#
# Coordination Sequence:
#
# PCOD9035042 Si02
#       6
#     2   2   2   2   2   2
#     4  11  25  42  69 104 149 187 248 311 369 443
#     4   9  21  40  68 100 142 186 242 299 372 439
#     4   9  20  44  75 101 153 193 250 306 374 448
#     4  12  28  48  78 111 152 200 253 312 379 451
#     4  10  22  45  70 107 147 191 252 310 370 447
#     4  11  24  44  73 104 144 201 243 304 379 447
#
# _framework density 26.967531000000001
#
# number of rings (size 3 to 8) (size 9 to 14) (size 15 to 20)
#    0.000    1.667    1.667    1.000    4.667    8.667 
#    3.000    1.667    0.000    0.000    0.000    0.000 
#    0.000    0.000    0.000    0.000    0.000    0.000 
#
# Total GULP energy -67016.219845 kJ/mol
# GULP energy per Si atom -5584.684987 kJ/mol
# Density = 2.690615 g / cm^3
# Si number density = 26.967531 Si / 1000 Ang^3
#
#
#
# Elastic Constant Matrix: (Units=GPa)
#
#
# Indices 1 2 3 4 5 6 
#
# 1 99.1751 53.6171 39.5393 14.0985 -11.4972 -13.7719
# 2 53.6171 209.3557 64.0131 44.0676 6.6330 -19.9742
# 3 39.5393 64.0131 97.6177 17.2596 8.9557 4.4518
# 4 14.0985 44.0676 17.2596 57.2146 -4.2259 -9.3612
# 5 -11.4972 6.6330 8.9557 -4.2259 34.9365 6.9434
# 6 -13.7719 -19.9742 4.4518 -9.3612 6.9434 67.6245
#
#
#
# Elastic Compliance Matrix: (Units=1/GPa)
#
#
# Indices 1 2 3 4 5 6 
#
# 1 0.014190 -0.002194 -0.005041 0.000491 0.006036 0.002022
# 2 -0.002194 0.007366 -0.003093 -0.004098 -0.002138 0.001585
# 3 -0.005041 -0.003093 0.015169 -0.001736 -0.004633 -0.002703
# 4 0.000491 -0.004098 -0.001736 0.021573 0.003674 0.001613
# 5 0.006036 -0.002138 -0.004633 0.003674 0.033042 -0.001981
# 6 0.002022 0.001585 -0.002703 0.001613 -0.001981 0.016272
#
#
# Mechanical properties :
#
#
# Convention : Reuss Voigt Hill
#
# Bulk Modulus (GPa) = 62.23476 80.05417 71.14447
# Shear Modulus (GPa) = 37.41809 48.55371 42.98590
#
# Velocity S-wave (km/s) = 3.72899 4.24778 3.99681
# Velocity P-wave (km/s) = 6.45509 7.33539 6.90928
#
# Compressibility (1/GPa) = 0.01606819
#
# Stress axis : x y z
#
# Youngs Moduli (GPa) = 70.47103 135.76271 65.92176
#
# Poissons Ratio (x) = 0.29792 0.33234
# Poissons Ratio (y) = 0.15464 0.20388
# Poissons Ratio (z) = 0.35528 0.41989
#
# Static dielectric constant tensor:
#      x y z
#    x 2.119630 -0.051060 0.034640 
#    y -0.051060 2.365280 -0.136270 
#    z 0.034640 -0.136270 2.330300 
# 
# From -- ./inp_files/72525.got.cif
#   From: 2010.05.17/outbox.cif.g08.bks.cpg/sg2_37_cif.got.tgz:72525.got - 2010.06.03 11:33:40.
