data_PCOD9035744
_publ_section_title
;
Structure prediction by ZEFSAII (Michael W. Deem and Ramdas Pophale) SiO2 
 PCOD9035744
Probable space group: P -1
;
_chemical_formula_sum "Si O2"
_cell_formula_units_Z 16
_cell_length_a 10.557122
_cell_length_b 12.122328
_cell_length_c 14.828847
_cell_angle_alpha 150.789191
_cell_angle_beta 56.925126
_cell_angle_gamma 105.183104
_cell_volume 660.829617
_symmetry_space_group_name_H-M "P -1"
_symmetry_group_IT_number 2
_symmetry_cell_setting 'triclinic'
loop_
_space_group_symop_operation_xyz
x,y,z
-x,-y,-z
loop_
_atom_site_type_symbol
_atom_site_label
_atom_site_fract_x
_atom_site_fract_y
_atom_site_fract_z
Si Si1 0.136272 0.600107 0.517144
Si Si2 0.467182 0.651410 0.249041
Si Si3 0.120954 0.441392 0.754276
Si Si4 0.699234 0.843679 0.201475
Si Si5 0.411054 0.221543 0.998301
Si Si6 0.114288 0.996142 0.537397
Si Si7 0.880846 0.087351 0.870683
Si Si8 0.704547 0.772876 0.657383
O O1 0.253234 0.470792 0.468389
O O2 0.000000 0.500000 0.500000
O O3 0.249221 0.462304 0.285613
O O4 0.021577 0.914406 0.771908
O O5 0.614026 0.704501 0.191741
O O6 0.375554 0.865631 0.518906
O O7 0.306664 0.741582 0.303399
O O8 0.535696 0.345637 0.024564
O O9 0.156349 0.224193 0.660354
O O10 0.180970 0.322606 0.546968
O O11 0.910772 0.653623 0.989031
O O12 0.217237 0.602088 0.851319
O O13 0.639053 0.852861 0.128930
O O14 0.503502 0.964979 0.842287
O O15 0.992618 0.044495 0.705682
O O16 0.000000 0.000000 0.500000
O O17 0.760166 0.962571 0.819307
#
# Coordination Sequence:
#
# PCOD9035744 Si02
#       8
#     2   2   2   2   2   2   2   2
#     4  10  22  46  71  95 127 170 226 271 332 383
#     4  11  25  42  61  98 135 176 215 264 326 390
#     4  12  24  41  67  99 135 172 221 263 328 391
#     4  11  24  39  64  95 135 177 212 265 323 395
#     4  12  23  44  66  94 132 172 216 272 329 380
#     4  12  22  40  67  98 132 171 214 270 325 392
#     4  11  23  43  66  97 130 174 216 273 324 387
#     4  11  26  42  69  98 130 173 224 274 322 389
#
# _framework density 24.21199
#
# number of rings (size 3 to 8) (size 9 to 14) (size 15 to 20)
#    0.000    0.750    3.750    4.125    1.750    2.500 
#    0.000    2.500    0.000    7.500    0.000    0.000 
#    0.000    0.000    0.000    0.000    0.000    0.000 
#
# Total GULP energy -89603.159822 kJ/mol
# GULP energy per Si atom -5600.197489 kJ/mol
# Density = 2.415688 g / cm^3
# Si number density = 24.211990 Si / 1000 Ang^3
#
#
#
# Elastic Constant Matrix: (Units=GPa)
#
#
# Indices 1 2 3 4 5 6 
#
# 1 52.0805 8.5267 10.3194 0.1329 7.2122 -6.5975
# 2 8.5267 99.5400 15.2201 20.1304 5.6856 -16.2188
# 3 10.3194 15.2201 63.6567 5.9343 1.0511 -9.1406
# 4 0.1329 20.1304 5.9343 40.6789 -2.0978 -13.2862
# 5 7.2122 5.6856 1.0511 -2.0978 20.9816 4.7469
# 6 -6.5975 -16.2188 -9.1406 -13.2862 4.7469 30.6266
#
#
#
# Elastic Compliance Matrix: (Units=1/GPa)
#
#
# Indices 1 2 3 4 5 6 
#
# 1 0.021675 -0.000438 -0.002624 0.001997 -0.008315 0.005809
# 2 -0.000438 0.012283 -0.001699 -0.004550 -0.004598 0.004642
# 3 -0.002624 -0.001699 0.017092 -0.000532 -0.000329 0.003456
# 4 0.001997 -0.004550 -0.000532 0.030535 0.001153 0.010930
# 5 -0.008315 -0.004598 -0.000329 0.001153 0.054679 -0.012299
# 6 0.005809 0.004642 0.003456 0.010930 -0.012299 0.044040
#
#
# Mechanical properties :
#
#
# Convention : Reuss Voigt Hill
#
# Bulk Modulus (GPa) = 24.08001 31.48995 27.78498
# Shear Modulus (GPa) = 24.54973 30.53814 27.54394
#
# Velocity S-wave (km/s) = 3.18771 3.55531 3.37651
# Velocity P-wave (km/s) = 4.84930 5.46697 5.16737
#
# Compressibility (1/GPa) = 0.04152821
#
# Stress axis : x y z
#
# Youngs Moduli (GPa) = 46.13622 81.41577 58.50622
#
# Poissons Ratio (x) = 0.03565 0.15350
# Poissons Ratio (y) = 0.02020 0.09941
# Poissons Ratio (z) = 0.12105 0.13834
#
# Static dielectric constant tensor:
#      x y z
#    x 1.962300 -0.059180 0.001620 
#    y -0.059180 1.361780 -0.043470 
#    z 0.001620 -0.043470 1.917950 
# 
# From -- ./inp_files/306268.got.cif
#   From: 2010.05.17/outbox.cif.g08.bks.cpg/sg2_154_cif.got.tgz:306268.got - 2010.06.03 11:33:40.
