data_PCOD9035002
_publ_section_title
;
Structure prediction by ZEFSAII (Michael W. Deem and Ramdas Pophale) SiO2 
 PCOD9035002
Probable space group: P -1
;
_chemical_formula_sum "Si O2"
_cell_formula_units_Z 12
_cell_length_a 23.041948
_cell_length_b 5.163103
_cell_length_c 23.654564
_cell_angle_alpha 113.280553
_cell_angle_beta 11.460425
_cell_angle_gamma 112.947294
_cell_volume 513.568907
_symmetry_space_group_name_H-M "P -1"
_symmetry_group_IT_number 2
_symmetry_cell_setting 'triclinic'
loop_
_space_group_symop_operation_xyz
x,y,z
-x,-y,-z
loop_
_atom_site_type_symbol
_atom_site_label
_atom_site_fract_x
_atom_site_fract_y
_atom_site_fract_z
Si Si1 0.618395 0.815058 0.422108
Si Si2 0.800105 0.743385 0.691351
Si Si3 0.194846 0.252230 0.503847
Si Si4 0.792123 0.049037 0.079623
Si Si5 0.586825 0.133513 0.022649
Si Si6 0.213547 0.587803 0.996425
O O1 0.500000 0.500000 0.500000
O O2 0.501351 0.946944 0.603533
O O3 0.500000 0.000000 0.500000
O O4 0.964894 0.822794 0.099129
O O5 0.593367 0.665562 0.829543
O O6 0.000000 0.500000 0.500000
O O7 0.000000 0.000000 0.500000
O O8 0.634802 0.863618 0.914091
O O9 0.389929 0.057377 0.258981
O O10 0.473956 0.445928 0.272383
O O11 0.898690 0.281222 0.751862
O O12 0.021307 0.233168 0.727529
O O13 0.750913 0.242680 0.080922
O O14 0.883621 0.732586 0.949360
#
# Coordination Sequence:
#
# PCOD9035002 Si02
#       6
#     2   2   2   2   2   2
#     4  12  24  41  68 104 134 173 220 273 332 393
#     4  11  24  46  69 101 135 178 222 272 373 409
#     4  10  22  46  66 100 132 175 236 282 334 396
#     4  12  24  45  68  95 140 176 222 273 332 395
#     4  10  22  45  70 101 136 177 222 296 338 422
#     4  11  24  44  66  95 130 186 224 275 334 395
#
# _framework density 23.365901999999998
#
# number of rings (size 3 to 8) (size 9 to 14) (size 15 to 20)
#    0.000    1.000    1.667    5.000    0.000    2.667 
#   12.000    0.000    0.000    0.000    0.000    0.000 
#    0.000    0.000    0.000    0.000    0.000    0.000 
#
# Total GULP energy -66911.574745 kJ/mol
# GULP energy per Si atom -5575.964562 kJ/mol
# Density = 2.331272 g / cm^3
# Si number density = 23.365902 Si / 1000 Ang^3
#
#
#
# Elastic Constant Matrix: (Units=GPa)
#
#
# Indices 1 2 3 4 5 6 
#
# 1 57.5906 72.1946 32.9259 -2.1616 0.0286 26.0196
# 2 72.1946 94.8648 27.0935 0.0720 -3.4367 -23.8566
# 3 32.9259 27.0935 140.3325 -3.9295 0.1461 7.7888
# 4 -2.1616 0.0720 -3.9295 32.4788 11.1243 -5.0742
# 5 0.0286 -3.4367 0.1461 11.1243 34.8353 1.7998
# 6 26.0196 -23.8566 7.7888 -5.0742 1.7998 21.5367
#
#
#
# Elastic Compliance Matrix: (Units=1/GPa)
#
#
# Indices 1 2 3 4 5 6 
#
# 1 -0.007366 0.012077 -0.001830 0.003360 -0.001099 0.023823
# 2 0.012077 -0.002663 -0.001408 -0.002652 0.001499 -0.017782
# 3 -0.001830 -0.001408 0.007959 0.000611 -0.000259 -0.002061
# 4 0.003360 -0.002652 0.000611 0.035425 -0.011688 0.002105
# 5 -0.001099 0.001499 -0.000259 -0.011688 0.032713 -0.002406
# 6 0.023823 -0.017782 -0.002061 0.002105 -0.002406 -0.000604
#
#
# Mechanical properties :
#
#
# Convention : Reuss Voigt Hill
#
# Bulk Modulus (GPa) = 64.07465 61.91288 62.99377
# Shear Modulus (GPa) = 94.35932 28.47508 61.41720
#
# Velocity S-wave (km/s) = 6.36168 3.49472 5.13245
# Velocity P-wave (km/s) = 9.02459 6.54513 7.88295
#
# Compressibility (1/GPa) = 0.01560680
#
# Stress axis : x y z
#
# Youngs Moduli (GPa) = -135.75480 -375.49832 125.64208
#
# Poissons Ratio (x) = 4.53502 0.22998
# Poissons Ratio (y) = 1.63956 0.17695
# Poissons Ratio (z) = -0.24849 -0.52885
#
# Static dielectric constant tensor:
#      x y z
#    x 1.890940 0.033200 0.001430 
#    y 0.033200 1.892300 0.000090 
#    z 0.001430 0.000090 1.898050 
# 
# From -- ./inp_files/613918.got.cif
#   From: 2010.05.17/outbox.cif.g08.bks.cpg/sg2_307_cif.got.tgz:613918.got - 2010.06.03 11:33:40.
