data_PCOD9035073
_publ_section_title
;
Structure prediction by ZEFSAII (Michael W. Deem and Ramdas Pophale) SiO2 
 PCOD9035073
Probable space group: P -1
;
_chemical_formula_sum "Si O2"
_cell_formula_units_Z 16
_cell_length_a 12.118605
_cell_length_b 14.526783
_cell_length_c 8.182149
_cell_angle_alpha 105.439850
_cell_angle_beta 145.968669
_cell_angle_gamma 90.653663
_cell_volume 701.476229
_symmetry_space_group_name_H-M "P -1"
_symmetry_group_IT_number 2
_symmetry_cell_setting 'triclinic'
loop_
_space_group_symop_operation_xyz
x,y,z
-x,-y,-z
loop_
_atom_site_type_symbol
_atom_site_label
_atom_site_fract_x
_atom_site_fract_y
_atom_site_fract_z
Si Si1 0.985079 0.475631 0.775154
Si Si2 0.056622 0.802411 0.773745
Si Si3 0.712846 0.592606 0.376824
Si Si4 0.468089 0.588517 0.392006
Si Si5 0.272157 0.772239 0.704087
Si Si6 0.726626 0.887096 0.489187
Si Si7 0.381481 0.932266 0.664071
Si Si8 0.521464 0.191417 0.516745
O O1 0.874643 0.542268 0.591212
O O2 0.844349 0.353050 0.509502
O O3 0.000000 0.500000 0.000000
O O4 0.220639 0.518845 0.001941
O O5 0.838895 0.692821 0.466645
O O6 0.955393 0.884484 0.728499
O O7 0.166255 0.813481 0.737384
O O8 0.240092 0.795534 0.117361
O O9 0.639339 0.622309 0.472111
O O10 0.500000 0.500000 0.000000
O O11 0.500000 0.500000 0.500000
O O12 0.470592 0.701050 0.504358
O O13 0.234433 0.819153 0.509851
O O14 0.527940 0.814313 0.087308
O O15 0.636399 0.841487 0.535941
O O16 0.731879 0.002801 0.531823
O O17 0.540956 0.906493 0.729552
O O18 0.500000 0.000000 0.000000
#
# Coordination Sequence:
#
# PCOD9035073 Si02
#       8
#     2   2   2   2   2   2   2   2
#     4  12  24  42  65  97 141 177 224 279 336 406
#     4  11  23  42  67  99 131 176 224 275 333 398
#     4  12  25  40  66  98 137 181 226 274 332 404
#     4  12  25  42  66 102 133 179 224 268 340 404
#     4  10  24  42  67  96 136 174 220 281 335 397
#     4  10  22  45  70  98 127 172 227 276 340 395
#     4  10  23  45  69  96 133 175 219 283 343 390
#     4  11  23  44  72  97 135 173 224 280 332 406
#
# _framework density 22.809041000000001
#
# number of rings (size 3 to 8) (size 9 to 14) (size 15 to 20)
#    0.000    1.000    3.750    2.625    1.750    2.000 
#    2.250    0.000    0.000    0.000    0.000    0.000 
#    0.000    0.000    0.000    0.000    0.000    0.000 
#
# Total GULP energy -89404.376246 kJ/mol
# GULP energy per Si atom -5587.773515 kJ/mol
# Density = 2.275713 g / cm^3
# Si number density = 22.809041 Si / 1000 Ang^3
#
#
#
# Elastic Constant Matrix: (Units=GPa)
#
#
# Indices 1 2 3 4 5 6 
#
# 1 78.7902 37.7255 19.8785 -20.2952 6.9406 -7.4599
# 2 37.7255 157.7375 13.8782 -28.9226 -1.7582 -18.8588
# 3 19.8785 13.8782 62.8193 -16.2805 11.1793 -14.5873
# 4 -20.2952 -28.9226 -16.2805 35.3898 -9.0139 2.1550
# 5 6.9406 -1.7582 11.1793 -9.0139 33.9847 -0.6639
# 6 -7.4599 -18.8588 -14.5873 2.1550 -0.6639 40.3104
#
#
#
# Elastic Compliance Matrix: (Units=1/GPa)
#
#
# Indices 1 2 3 4 5 6 
#
# 1 0.016208 -0.002552 -0.002818 0.005626 -0.001014 0.000468
# 2 -0.002552 0.008469 0.000967 0.006293 0.002380 0.003542
# 3 -0.002818 0.000967 0.020855 0.007279 -0.004167 0.007020
# 4 0.005626 0.006293 0.007279 0.041721 0.007936 0.004520
# 5 -0.001014 0.002380 -0.004167 0.007936 0.033222 -0.000459
# 6 0.000468 0.003542 0.007020 0.004520 -0.000459 0.028843
#
#
# Mechanical properties :
#
#
# Convention : Reuss Voigt Hill
#
# Bulk Modulus (GPa) = 27.22959 49.14573 38.18766
# Shear Modulus (GPa) = 29.34886 37.12799 33.23842
#
# Velocity S-wave (km/s) = 3.59098 4.03895 3.82153
# Velocity P-wave (km/s) = 5.39977 6.58363 6.02087
#
# Compressibility (1/GPa) = 0.03672475
#
# Stress axis : x y z
#
# Youngs Moduli (GPa) = 61.69937 118.07975 47.95041
#
# Poissons Ratio (x) = 0.30136 0.13511
# Poissons Ratio (y) = 0.15747 -0.04635
# Poissons Ratio (z) = 0.17385 -0.11413
#
# Static dielectric constant tensor:
#      x y z
#    x 1.873440 -0.005430 -0.037380 
#    y -0.005430 1.886410 0.014500 
#    z -0.037380 0.014500 1.834090 
# 
# From -- ./inp_files/273100.got.cif
#   From: 2010.05.17/outbox.cif.g08.bks.cpg/sg2_137_cif.got.tgz:273100.got - 2010.06.03 11:33:40.
