data_PCOD9035233
_publ_section_title
;
Structure prediction by ZEFSAII (Michael W. Deem and Ramdas Pophale) SiO2 
 PCOD9035233
Probable space group: P -1
;
_chemical_formula_sum "Si O2"
_cell_formula_units_Z 13
_cell_length_a 20.130876
_cell_length_b 13.374524
_cell_length_c 9.074141
_cell_angle_alpha 43.514997
_cell_angle_beta 142.930689
_cell_angle_gamma 159.118328
_cell_volume 522.568374
_symmetry_space_group_name_H-M "P -1"
_symmetry_group_IT_number 2
_symmetry_cell_setting 'triclinic'
loop_
_space_group_symop_operation_xyz
x,y,z
-x,-y,-z
loop_
_atom_site_type_symbol
_atom_site_label
_atom_site_fract_x
_atom_site_fract_y
_atom_site_fract_z
Si Si1 0.454925 0.598475 0.228621
Si Si2 0.894389 0.341543 0.641051
Si Si3 0.500000 0.000000 0.500000
Si Si4 0.904851 0.727215 0.601801
Si Si5 0.028061 0.187276 0.052538
Si Si6 0.643155 0.552366 0.106732
Si Si7 0.777304 0.155531 0.090351
O O1 0.500000 0.500000 0.500000
O O2 0.212159 0.372644 0.063766
O O3 0.623830 0.917069 0.203505
O O4 0.478303 0.604316 0.089842
O O5 0.000000 0.500000 0.500000
O O6 0.064130 0.566265 0.831204
O O7 0.679399 0.172508 0.499703
O O8 0.866997 0.137111 0.798819
O O9 0.339638 0.898765 0.195895
O O10 0.843741 0.634157 0.761210
O O11 0.700902 0.484904 0.389521
O O12 0.079880 0.815777 0.754625
O O13 0.000000 0.000000 0.500000
O O14 0.876526 0.877190 0.131304
O O15 0.500000 0.500000 0.000000
#
# Coordination Sequence:
#
# PCOD9035233 Si02
#       7
#     2   2   1   2   2   2   2
#     4  12  26  45  74 112 155 205 255 332 408 466
#     4  12  30  51  78 115 158 213 267 333 386 478
#     4  12  28  54  82 112 158 222 266 324 404 462
#     4  10  22  45  72 108 149 188 255 322 382 468
#     4  11  24  45  69 106 150 196 260 315 391 469
#     4  11  24  42  74 110 149 204 250 323 397 470
#     4  12  28  51  78 115 159 207 270 324 400 484
#
# _framework density 24.877127000000002
#
# number of rings (size 3 to 8) (size 9 to 14) (size 15 to 20)
#    0.000    0.615    1.538    6.462    6.462    2.462 
#    0.000    0.000    0.000    0.000    0.000    0.000 
#    0.000    0.000    0.000    0.000    0.000    0.000 
#
# Total GULP energy -72434.066304 kJ/mol
# GULP energy per Si atom -5571.851254 kJ/mol
# Density = 2.482051 g / cm^3
# Si number density = 24.877127 Si / 1000 Ang^3
#
#
#
# Elastic Constant Matrix: (Units=GPa)
#
#
# Indices 1 2 3 4 5 6 
#
# 1 125.8856 11.8723 46.6800 4.7726 6.8690 31.0946
# 2 11.8723 84.5035 10.8887 2.3332 5.2631 26.8407
# 3 46.6800 10.8887 158.3413 6.4389 0.7655 6.6994
# 4 4.7726 2.3332 6.4389 38.9559 6.3877 4.9635
# 5 6.8690 5.2631 0.7655 6.3877 45.5257 5.8537
# 6 31.0946 26.8407 6.6994 4.9635 5.8537 42.3118
#
#
#
# Elastic Compliance Matrix: (Units=1/GPa)
#
#
# Indices 1 2 3 4 5 6 
#
# 1 0.011065 0.001605 -0.003016 0.000263 -0.000735 -0.008601
# 2 0.001605 0.015136 -0.001085 0.000537 -0.000689 -0.010576
# 3 -0.003016 -0.001085 0.007243 -0.001057 0.000372 0.001830
# 4 0.000263 0.000537 -0.001057 0.026731 -0.003446 -0.003026
# 5 -0.000735 -0.000689 0.000372 -0.003446 0.022870 -0.001841
# 6 -0.008601 -0.010576 0.001830 -0.003026 -0.001841 0.036984
#
#
# Mechanical properties :
#
#
# Convention : Reuss Voigt Hill
#
# Bulk Modulus (GPa) = 35.14714 56.40137 45.77426
# Shear Modulus (GPa) = 37.17330 45.31132 41.24231
#
# Velocity S-wave (km/s) = 3.86978 4.27242 4.07608
# Velocity P-wave (km/s) = 5.84174 6.85998 6.37123
#
# Compressibility (1/GPa) = 0.02845181
#
# Stress axis : x y z
#
# Youngs Moduli (GPa) = 90.37175 66.06917 138.06675
#
# Poissons Ratio (x) = -0.10601 0.41637
# Poissons Ratio (y) = -0.14500 0.14978
# Poissons Ratio (z) = 0.27254 0.07168
#
# Static dielectric constant tensor:
#      x y z
#    x 1.994320 -0.167870 -0.098040 
#    y -0.167870 2.200090 0.017400 
#    z -0.098040 0.017400 2.076010 
# 
# From -- ./inp_files/26113.got.cif
#   From: 2010.05.17/outbox.cif.g08.bks.cpg/sg2_14_cif.got.tgz:26113.got - 2010.06.03 11:33:40.
