data_PCOD9035663
_publ_section_title
;
Structure prediction by ZEFSAII (Michael W. Deem and Ramdas Pophale) SiO2 
 PCOD9035663
Probable space group: P -1
;
_chemical_formula_sum "Si O2"
_cell_formula_units_Z 13
_cell_length_a 6.887572
_cell_length_b 18.242073
_cell_length_c 8.940378
_cell_angle_alpha 53.487356
_cell_angle_beta 97.551990
_cell_angle_gamma 132.650434
_cell_volume 589.734461
_symmetry_space_group_name_H-M "P -1"
_symmetry_group_IT_number 2
_symmetry_cell_setting 'triclinic'
loop_
_space_group_symop_operation_xyz
x,y,z
-x,-y,-z
loop_
_atom_site_type_symbol
_atom_site_label
_atom_site_fract_x
_atom_site_fract_y
_atom_site_fract_z
Si Si1 0.239664 0.872807 0.523032
Si Si2 0.938101 0.472753 0.204249
Si Si3 0.980030 0.693410 0.992945
Si Si4 0.281706 0.234648 0.540000
Si Si5 0.677245 0.030095 0.126865
Si Si6 0.369881 0.469879 0.357910
Si Si7 0.000000 0.000000 0.000000
O O1 0.047586 0.739748 0.770359
O O2 0.027542 0.882268 0.440552
O O3 0.500000 0.000000 0.500000
O O4 0.427068 0.901001 0.368291
O O5 0.587102 0.334174 0.362088
O O6 0.120820 0.458440 0.324126
O O7 0.026110 0.601631 0.128022
O O8 0.000000 0.500000 0.000000
O O9 0.178848 0.830951 0.946826
O O10 0.640429 0.591420 0.128021
O O11 0.253430 0.329912 0.470546
O O12 0.255794 0.159136 0.768355
O O13 0.917491 0.043197 0.076705
O O14 0.500000 0.000000 0.000000
O O15 0.500000 0.500000 0.500000
#
# Coordination Sequence:
#
# PCOD9035663 Si02
#       7
#     2   2   2   2   2   2   1
#     4  10  22  46  70 104 148 192 236 314 368 429
#     4  11  25  46  79 107 145 199 246 301 377 446
#     4  10  24  45  71 110 147 185 249 306 366 443
#     4  11  25  44  70 106 145 188 247 298 367 438
#     4  11  24  44  70 102 149 194 242 301 365 436
#     4  11  25  45  72 107 150 190 241 312 371 436
#     4  12  26  40  70 108 136 198 240 288 366 438
#
# _framework density 22.043821999999999
#
# number of rings (size 3 to 8) (size 9 to 14) (size 15 to 20)
#    0.000    1.231    1.538    2.769    4.308    7.385 
#    0.000    1.538    0.000    0.000    0.000    0.000 
#    0.000    0.000    0.000    0.000    0.000    0.000 
#
# Total GULP energy -72375.525590 kJ/mol
# GULP energy per Si atom -5567.348122 kJ/mol
# Density = 2.199365 g / cm^3
# Si number density = 22.043822 Si / 1000 Ang^3
#
#
#
# Elastic Constant Matrix: (Units=GPa)
#
#
# Indices 1 2 3 4 5 6 
#
# 1 131.9600 48.3816 45.1499 1.1646 -15.9713 -10.4463
# 2 48.3816 87.9015 21.9973 1.4676 -3.0501 -7.7892
# 3 45.1499 21.9973 137.0336 -2.8507 -49.3321 -15.9451
# 4 1.1646 1.4676 -2.8507 36.9982 -1.9056 2.7310
# 5 -15.9713 -3.0501 -49.3321 -1.9056 40.9777 -2.6906
# 6 -10.4463 -7.7892 -15.9451 2.7310 -2.6906 26.9532
#
#
#
# Elastic Compliance Matrix: (Units=1/GPa)
#
#
# Indices 1 2 3 4 5 6 
#
# 1 0.010386 -0.005041 -0.001897 -0.000317 0.001481 0.001626
# 2 -0.005041 0.014554 -0.001514 -0.000759 -0.002662 0.001168
# 3 -0.001897 -0.001514 0.016558 0.001647 0.019843 0.010437
# 4 -0.000317 -0.000759 0.001647 0.027485 0.002959 -0.001857
# 5 0.001481 -0.002662 0.019843 0.002959 0.049874 0.016222
# 6 0.001626 0.001168 0.010437 -0.001857 0.016222 0.046051
#
#
# Mechanical properties :
#
#
# Convention : Reuss Voigt Hill
#
# Bulk Modulus (GPa) = 40.66014 65.32808 52.99411
# Shear Modulus (GPa) = 26.31460 37.07690 31.69575
#
# Velocity S-wave (km/s) = 3.45880 4.10562 3.79602
# Velocity P-wave (km/s) = 5.86824 7.22321 6.58069
#
# Compressibility (1/GPa) = 0.02459411
#
# Stress axis : x y z
#
# Youngs Moduli (GPa) = 96.28191 68.71164 60.39497
#
# Poissons Ratio (x) = 0.34638 0.11457
# Poissons Ratio (y) = 0.48537 0.09141
# Poissons Ratio (z) = 0.18264 0.10400
#
# Static dielectric constant tensor:
#      x y z
#    x 1.799730 0.037320 0.031920 
#    y 0.037320 1.921940 0.007220 
#    z 0.031920 0.007220 1.828850 
# 
# From -- ./inp_files/138605.got.cif
#   From: 2010.05.17/outbox.cif.g08.bks.cpg/sg2_70_cif.got.tgz:138605.got - 2010.06.03 11:33:40.
