data_PCOD9035480
_publ_section_title
;
Structure prediction by ZEFSAII (Michael W. Deem and Ramdas Pophale) SiO2 
 PCOD9035480
Probable space group: P -1
;
_chemical_formula_sum "Si O2"
_cell_formula_units_Z 15
_cell_length_a 14.405991
_cell_length_b 13.226124
_cell_length_c 7.582884
_cell_angle_alpha 124.999908
_cell_angle_beta 47.640361
_cell_angle_gamma 146.446919
_cell_volume 589.821761
_symmetry_space_group_name_H-M "P -1"
_symmetry_group_IT_number 2
_symmetry_cell_setting 'triclinic'
loop_
_space_group_symop_operation_xyz
x,y,z
-x,-y,-z
loop_
_atom_site_type_symbol
_atom_site_label
_atom_site_fract_x
_atom_site_fract_y
_atom_site_fract_z
Si Si1 0.974808 0.715502 0.909051
Si Si2 0.125481 0.750830 0.108657
Si Si3 0.537302 0.813487 0.945178
Si Si4 0.664108 0.717405 0.983284
Si Si5 0.601539 0.280023 0.326483
Si Si6 0.164748 0.400243 0.389880
Si Si7 0.000000 0.000000 0.000000
Si Si8 0.351357 0.901377 0.435489
O O1 0.159139 0.786995 0.661931
O O2 0.826906 0.572319 0.802716
O O3 0.990222 0.873908 0.025504
O O4 0.976713 0.672869 0.065041
O O5 0.019669 0.683199 0.362268
O O6 0.283505 0.969893 0.106820
O O7 0.229962 0.697027 0.892762
O O8 0.602896 0.768770 0.967284
O O9 0.457596 0.694912 0.751415
O O10 0.378924 0.795878 0.188781
O O11 0.839064 0.752523 0.739769
O O12 0.767156 0.847186 0.149980
O O13 0.500000 0.500000 0.000000
O O14 0.667038 0.415399 0.535751
O O15 0.428200 0.067938 0.386654
O O16 0.500000 0.000000 0.500000
#
# Coordination Sequence:
#
# PCOD9035480 Si02
#       8
#     2   2   2   2   2   2   1   2
#     4  11  22  43  71  96 136 183 230 281 349 418
#     4  11  22  45  68  99 140 181 233 283 351 418
#     4  11  23  44  69 100 137 183 232 291 343 419
#     4  11  26  46  73 104 140 184 240 290 348 423
#     4  11  24  41  66 101 142 172 229 298 338 423
#     4  11  27  42  64 106 136 186 229 282 360 413
#     4  10  22  46  66 100 140 180 226 294 338 412
#     4  11  20  40  72  99 126 184 235 275 355 410
#
# _framework density 25.431408999999999
#
# number of rings (size 3 to 8) (size 9 to 14) (size 15 to 20)
#    0.000    1.067    4.000    3.600    3.733    3.733 
#    2.400    0.000    0.000    0.000    0.000    0.000 
#    0.000    0.000    0.000    0.000    0.000    0.000 
#
# Total GULP energy -83733.843231 kJ/mol
# GULP energy per Si atom -5582.256215 kJ/mol
# Density = 2.537353 g / cm^3
# Si number density = 25.431409 Si / 1000 Ang^3
#
#
#
# Elastic Constant Matrix: (Units=GPa)
#
#
# Indices 1 2 3 4 5 6 
#
# 1 175.5059 22.2259 25.1035 16.4949 16.5901 16.3598
# 2 22.2259 64.9608 -11.8659 -4.1189 -7.0194 -4.9250
# 3 25.1035 -11.8659 65.7667 14.0344 0.1292 -2.8016
# 4 16.4949 -4.1189 14.0344 22.6899 6.7358 -1.8115
# 5 16.5901 -7.0194 0.1292 6.7358 42.9294 5.0344
# 6 16.3598 -4.9250 -2.8016 -1.8115 5.0344 42.8448
#
#
#
# Elastic Compliance Matrix: (Units=1/GPa)
#
#
# Indices 1 2 3 4 5 6 
#
# 1 0.007520 -0.003874 -0.002873 -0.003914 -0.002521 -0.003374
# 2 -0.003874 0.018350 0.004370 0.002644 0.003652 0.003557
# 3 -0.002873 0.004370 0.019258 -0.009770 0.003055 0.002086
# 4 -0.003914 0.002644 -0.009770 0.055965 -0.007321 0.004386
# 5 -0.002521 0.003652 0.003055 -0.007321 0.026217 -0.001808
# 6 -0.003374 0.003557 0.002086 0.004386 -0.001808 0.025572
#
#
# Mechanical properties :
#
#
# Convention : Reuss Voigt Hill
#
# Bulk Modulus (GPa) = 24.76930 41.90671 33.33801
# Shear Modulus (GPa) = 29.22379 39.74415 34.48397
#
# Velocity S-wave (km/s) = 3.39355 3.95751 3.68633
# Velocity P-wave (km/s) = 5.01155 6.11528 5.59072
#
# Compressibility (1/GPa) = 0.04037256
#
# Stress axis : x y z
#
# Youngs Moduli (GPa) = 132.97815 54.49732 51.92624
#
# Poissons Ratio (x) = 0.21113 0.14918
# Poissons Ratio (y) = 0.51517 -0.22689
# Poissons Ratio (z) = 0.38204 -0.23813
#
# Static dielectric constant tensor:
#      x y z
#    x 1.876420 -0.127790 -0.194370 
#    y -0.127790 1.785640 -0.344080 
#    z -0.194370 -0.344080 1.822380 
# 
# From -- ./inp_files/315827.got.cif
#   From: 2010.05.17/outbox.cif.g08.bks.cpg/sg2_158_cif.got.tgz:315827.got - 2010.06.03 11:33:40.
