data_PCOD9035270
_publ_section_title
;
Structure prediction by ZEFSAII (Michael W. Deem and Ramdas Pophale) SiO2 
 PCOD9035270
Probable space group: P -1
;
_chemical_formula_sum "Si O2"
_cell_formula_units_Z 16
_cell_length_a 8.929708
_cell_length_b 13.997380
_cell_length_c 8.846053
_cell_angle_alpha 136.761037
_cell_angle_beta 75.520439
_cell_angle_gamma 98.300882
_cell_volume 732.195700
_symmetry_space_group_name_H-M "P -1"
_symmetry_group_IT_number 2
_symmetry_cell_setting 'triclinic'
loop_
_space_group_symop_operation_xyz
x,y,z
-x,-y,-z
loop_
_atom_site_type_symbol
_atom_site_label
_atom_site_fract_x
_atom_site_fract_y
_atom_site_fract_z
Si Si1 0.441758 0.094562 0.979375
Si Si2 0.366698 0.081154 0.498902
Si Si3 0.932921 0.405419 0.279902
Si Si4 0.102890 0.391918 0.754858
Si Si5 0.148590 0.123250 0.895805
Si Si6 0.414186 0.638553 0.615901
Si Si7 0.544595 0.628834 0.240911
Si Si8 0.054671 0.079557 0.424711
O O1 0.502064 0.241172 0.180667
O O2 0.258977 0.111852 0.002176
O O3 0.500000 0.000000 0.000000
O O4 0.520985 0.040370 0.739548
O O5 0.259988 0.084251 0.678443
O O6 0.468197 0.216074 0.646462
O O7 0.238960 0.082563 0.397735
O O8 0.889584 0.524964 0.306031
O O9 0.768965 0.344589 0.291204
O O10 0.000000 0.500000 0.500000
O O11 0.059302 0.275841 0.067075
O O12 0.274059 0.381891 0.771683
O O13 0.018311 0.245617 0.609503
O O14 0.000000 0.500000 0.000000
O O15 0.018952 0.008890 0.790585
O O16 0.500000 0.500000 0.500000
O O17 0.445756 0.636089 0.426627
O O18 0.500000 0.500000 0.000000
O O19 0.000000 0.000000 0.500000
#
# Coordination Sequence:
#
# PCOD9035270 Si02
#       8
#     2   2   2   2   2   2   2   2
#     4  12  26  46  73 103 146 188 239 296 369 432
#     4  10  22  45  73 102 142 185 237 299 352 430
#     4  12  27  45  71 105 147 194 237 299 366 431
#     4  11  24  43  71 105 147 187 243 299 358 424
#     4  11  25  45  73 107 140 188 246 294 360 437
#     4  12  26  49  71 103 151 192 235 303 368 428
#     4  11  25  43  73 106 141 191 245 293 352 436
#     4   9  20  42  70 102 141 177 233 298 353 411
#
# _framework density 21.852080999999998
#
# number of rings (size 3 to 8) (size 9 to 14) (size 15 to 20)
#    0.000    1.000    2.500    4.125    5.250    3.000 
#    0.000    1.875    0.000    0.000    0.000    0.000 
#    0.000    0.000    0.000    0.000    0.000    0.000 
#
# Total GULP energy -89201.746233 kJ/mol
# GULP energy per Si atom -5575.109140 kJ/mol
# Density = 2.180234 g / cm^3
# Si number density = 21.852081 Si / 1000 Ang^3
#
#
#
# Elastic Constant Matrix: (Units=GPa)
#
#
# Indices 1 2 3 4 5 6 
#
# 1 134.4773 46.5061 63.9539 16.4969 31.6484 -4.8102
# 2 46.5061 91.3685 51.1529 22.6728 10.2258 9.5372
# 3 63.9539 51.1529 146.2623 30.1330 21.0855 6.4223
# 4 16.4969 22.6728 30.1330 46.7152 13.0172 0.2954
# 5 31.6484 10.2258 21.0855 13.0172 47.8562 11.6619
# 6 -4.8102 9.5372 6.4223 0.2954 11.6619 27.1285
#
#
#
# Elastic Compliance Matrix: (Units=1/GPa)
#
#
# Indices 1 2 3 4 5 6 
#
# 1 0.012945 -0.005202 -0.003496 0.002585 -0.008725 0.008674
# 2 -0.005202 0.016909 -0.002745 -0.005831 0.004604 -0.008133
# 3 -0.003496 -0.002745 0.010248 -0.004022 -0.000029 -0.002025
# 4 0.002585 -0.005831 -0.004022 0.028086 -0.007931 0.006564
# 5 -0.008725 0.004604 -0.000029 -0.007931 0.031948 -0.016806
# 6 0.008674 -0.008133 -0.002025 0.006564 -0.016806 0.048891
#
#
# Mechanical properties :
#
#
# Convention : Reuss Voigt Hill
#
# Bulk Modulus (GPa) = 58.08549 77.25932 67.67241
# Shear Modulus (GPa) = 28.14505 38.37301 33.25903
#
# Velocity S-wave (km/s) = 3.59274 4.19505 3.90552
# Velocity P-wave (km/s) = 6.62188 7.67444 7.16750
#
# Compressibility (1/GPa) = 0.01721600
#
# Stress axis : x y z
#
# Youngs Moduli (GPa) = 77.25276 59.13840 97.58425
#
# Poissons Ratio (x) = 0.30761 0.34120
# Poissons Ratio (y) = 0.40184 0.26784
# Poissons Ratio (z) = 0.27011 0.16232
#
# Static dielectric constant tensor:
#      x y z
#    x 1.822920 -0.052490 -0.019590 
#    y -0.052490 1.848060 -0.030080 
#    z -0.019590 -0.030080 1.790550 
# 
# From -- ./inp_files/209182.got.cif
#   From: 2010.05.17/outbox.cif.g08.bks.cpg/sg2_105_cif.got.tgz:209182.got - 2010.06.03 11:33:40.
