data_PCOD9035846
_publ_section_title
;
Structure prediction by ZEFSAII (Michael W. Deem and Ramdas Pophale) SiO2 
 PCOD9035846
Probable space group: P -1
;
_chemical_formula_sum "Si O2"
_cell_formula_units_Z 16
_cell_length_a 8.159528
_cell_length_b 12.274007
_cell_length_c 15.571129
_cell_angle_alpha 33.849213
_cell_angle_beta 86.312070
_cell_angle_gamma 101.143661
_cell_volume 776.787507
_symmetry_space_group_name_H-M "P -1"
_symmetry_group_IT_number 2
_symmetry_cell_setting 'triclinic'
loop_
_space_group_symop_operation_xyz
x,y,z
-x,-y,-z
loop_
_atom_site_type_symbol
_atom_site_label
_atom_site_fract_x
_atom_site_fract_y
_atom_site_fract_z
Si Si1 0.078806 0.433027 0.308567
Si Si2 0.493626 0.782995 0.095673
Si Si3 0.356420 0.958559 0.772657
Si Si4 0.755516 0.887439 0.150592
Si Si5 0.035077 0.717725 0.252170
Si Si6 0.987411 0.016544 0.326179
Si Si7 0.113595 0.475115 0.090959
Si Si8 0.271722 0.944806 0.243911
O O1 0.291453 0.601111 0.205377
O O2 0.978604 0.496645 0.346489
O O3 0.025672 0.468851 0.191269
O O4 0.056245 0.191797 0.477410
O O5 0.598064 0.713852 0.209402
O O6 0.609008 0.859174 0.954840
O O7 0.500000 0.000000 0.000000
O O8 0.578275 0.075655 0.684815
O O9 0.206140 0.993931 0.695413
O O10 0.315139 0.022744 0.826773
O O11 0.298087 0.699707 0.937248
O O12 0.874943 0.771268 0.255880
O O13 0.869454 0.091744 0.948953
O O14 0.169984 0.748938 0.306853
O O15 0.105297 0.241223 0.225841
O O16 0.120032 0.998407 0.259820
O O17 0.000000 0.500000 0.000000
#
# Coordination Sequence:
#
# PCOD9035846 Si02
#       8
#     2   2   2   2   2   2   2   2
#     4  12  21  43  62  93 131 162 200 269 323 362
#     4  11  18  35  63  91 120 169 211 250 306 378
#     4  11  19  41  64  89 125 164 216 255 298 374
#     4  10  17  32  59  94 120 159 211 255 291 375
#     4  10  19  32  63  93 125 159 205 250 313 371
#     4  11  27  39  62  94 132 166 206 262 322 362
#     4  10  22  41  71  89 114 172 222 256 306 371
#     4  11  20  39  65  92 127 163 215 248 307 381
#
# _framework density 20.597652
#
# number of rings (size 3 to 8) (size 9 to 14) (size 15 to 20)
#    0.000    1.250    7.500    0.375    0.000    1.000 
#    2.250    1.250    0.000    2.250    0.000    0.000 
#    0.000    0.000    0.000    0.000    0.000    0.000 
#
# Total GULP energy -89155.108390 kJ/mol
# GULP energy per Si atom -5572.194274 kJ/mol
# Density = 2.055077 g / cm^3
# Si number density = 20.597652 Si / 1000 Ang^3
#
#
#
# Elastic Constant Matrix: (Units=GPa)
#
#
# Indices 1 2 3 4 5 6 
#
# 1 94.7413 31.1294 17.5332 -6.4441 5.2084 13.7639
# 2 31.1294 114.7632 25.9947 -4.9198 3.9923 6.9941
# 3 17.5332 25.9947 58.2770 -9.6651 5.8759 2.2103
# 4 -6.4441 -4.9198 -9.6651 23.5510 -5.0488 6.7669
# 5 5.2084 3.9923 5.8759 -5.0488 20.0651 2.0940
# 6 13.7639 6.9941 2.2103 6.7669 2.0940 30.7612
#
#
#
# Elastic Compliance Matrix: (Units=1/GPa)
#
#
# Indices 1 2 3 4 5 6 
#
# 1 0.012868 -0.002536 -0.001821 0.003758 -0.000749 -0.005826
# 2 -0.002536 0.010325 -0.003763 0.000164 -0.000152 -0.000968
# 3 -0.001821 -0.003763 0.020891 0.006975 -0.003020 -0.001160
# 4 0.003758 0.000164 0.006975 0.053159 0.011862 -0.014721
# 5 -0.000749 -0.000152 -0.003020 0.011862 0.054530 -0.005735
# 6 -0.005826 -0.000968 -0.001160 -0.014721 -0.005735 0.039048
#
#
# Mechanical properties :
#
#
# Convention : Reuss Voigt Hill
#
# Bulk Modulus (GPa) = 35.91350 46.34403 41.12876
# Shear Modulus (GPa) = 23.11147 27.75040 25.43094
#
# Velocity S-wave (km/s) = 3.35333 3.67449 3.51757
# Velocity P-wave (km/s) = 5.69795 6.36797 6.04225
#
# Compressibility (1/GPa) = 0.02784468
#
# Stress axis : x y z
#
# Youngs Moduli (GPa) = 77.70972 96.85013 47.86711
#
# Poissons Ratio (x) = 0.24560 0.08715
# Poissons Ratio (y) = 0.19707 0.18014
# Poissons Ratio (z) = 0.14149 0.36449
#
# Static dielectric constant tensor:
#      x y z
#    x 1.827690 0.033990 0.015870 
#    y 0.033990 1.756900 0.000290 
#    z 0.015870 0.000290 1.784750 
# 
# From -- ./inp_files/499891.got.cif
#   From: 2010.05.17/outbox.cif.g08.bks.cpg/sg2_250_cif.got.tgz:499891.got - 2010.06.03 11:33:40.
