data_PCOD9035664
_publ_section_title
;
Structure prediction by ZEFSAII (Michael W. Deem and Ramdas Pophale) SiO2 
 PCOD9035664
Probable space group: P -1
;
_chemical_formula_sum "Si O2"
_cell_formula_units_Z 14
_cell_length_a 18.943388
_cell_length_b 12.286371
_cell_length_c 9.187478
_cell_angle_alpha 141.056532
_cell_angle_beta 139.972262
_cell_angle_gamma 25.814337
_cell_volume 568.232774
_symmetry_space_group_name_H-M "P -1"
_symmetry_group_IT_number 2
_symmetry_cell_setting 'triclinic'
loop_
_space_group_symop_operation_xyz
x,y,z
-x,-y,-z
loop_
_atom_site_type_symbol
_atom_site_label
_atom_site_fract_x
_atom_site_fract_y
_atom_site_fract_z
Si Si1 0.934877 0.157018 0.412172
Si Si2 0.720344 0.083184 0.998646
Si Si3 0.841993 0.193838 0.847267
Si Si4 0.228443 0.300431 0.172349
Si Si5 0.301150 0.264055 0.922276
Si Si6 0.439961 0.920899 0.530564
Si Si7 0.501877 0.517723 0.347955
O O1 0.849372 0.440345 0.602900
O O2 0.810397 0.151201 0.158205
O O3 0.000000 0.000000 0.500000
O O4 0.092804 0.984527 0.376694
O O5 0.622194 0.107843 0.738089
O O6 0.836061 0.796681 0.953593
O O7 0.607455 0.270096 0.153567
O O8 0.691281 0.281487 0.781744
O O9 0.770114 0.464688 0.959629
O O10 0.000000 0.000000 0.000000
O O11 0.429141 0.081293 0.294735
O O12 0.214652 0.314454 0.989854
O O13 0.292217 0.159514 0.652103
O O14 0.500000 0.000000 0.000000
O O15 0.549440 0.654077 0.519667
O O16 0.500000 0.500000 0.500000
#
# Coordination Sequence:
#
# PCOD9035664 Si02
#       7
#     2   2   2   2   2   2   2
#     4  12  26  49  71 104 152 191 246 309 375 445
#     4  12  26  44  77 109 140 196 254 305 372 440
#     4  12  27  44  71 109 153 189 239 318 384 429
#     4  11  23  45  74 103 145 195 242 303 366 448
#     4  10  22  46  70 105 144 197 249 295 359 456
#     4  11  23  42  74 108 145 178 257 317 347 438
#     4  12  23  45  74 105 141 203 253 293 370 457
#
# _framework density 24.637791
#
# number of rings (size 3 to 8) (size 9 to 14) (size 15 to 20)
#    0.000    0.571    2.857    6.857    4.000    0.571 
#    2.571    1.429    0.000    0.000    0.000    0.000 
#    0.000    0.000    0.000    0.000    0.000    0.000 
#
# Total GULP energy -78302.769319 kJ/mol
# GULP energy per Si atom -5593.054951 kJ/mol
# Density = 2.458171 g / cm^3
# Si number density = 24.637791 Si / 1000 Ang^3
#
#
#
# Elastic Constant Matrix: (Units=GPa)
#
#
# Indices 1 2 3 4 5 6 
#
# 1 94.5241 38.1673 46.1418 15.8725 -11.9323 8.8637
# 2 38.1673 97.6356 43.3249 13.3883 -6.6931 -0.6042
# 3 46.1418 43.3249 159.7334 25.6506 -23.7059 1.6761
# 4 15.8725 13.3883 25.6506 62.7576 4.6517 2.6232
# 5 -11.9323 -6.6931 -23.7059 4.6517 43.0375 -2.3707
# 6 8.8637 -0.6042 1.6761 2.6232 -2.3707 38.3838
#
#
#
# Elastic Compliance Matrix: (Units=1/GPa)
#
#
# Indices 1 2 3 4 5 6 
#
# 1 0.014250 -0.004154 -0.002373 -0.001772 0.002024 -0.003006
# 2 -0.004154 0.012963 -0.002223 -0.000846 -0.000197 0.001306
# 3 -0.002373 -0.002223 0.008588 -0.002761 0.004057 0.000577
# 4 -0.001772 -0.000846 -0.002761 0.018039 -0.004147 -0.000973
# 5 0.002024 -0.000197 0.004057 -0.004147 0.026519 0.001274
# 6 -0.003006 0.001306 0.000577 -0.000973 0.001274 0.026887
#
#
# Mechanical properties :
#
#
# Convention : Reuss Voigt Hill
#
# Bulk Modulus (GPa) = 54.64320 67.46234 61.05277
# Shear Modulus (GPa) = 38.21199 43.78639 40.99919
#
# Velocity S-wave (km/s) = 3.94248 4.22026 4.08374
# Velocity P-wave (km/s) = 6.55370 7.15462 6.86074
#
# Compressibility (1/GPa) = 0.01830054
#
# Stress axis : x y z
#
# Youngs Moduli (GPa) = 70.17448 77.14114 116.43780
#
# Poissons Ratio (x) = 0.32048 0.27632
# Poissons Ratio (y) = 0.29153 0.25884
# Poissons Ratio (z) = 0.16653 0.17149
#
# Static dielectric constant tensor:
#      x y z
#    x 1.906060 -0.063490 0.182530 
#    y -0.063490 1.965620 0.029110 
#    z 0.182530 0.029110 1.865370 
# 
# From -- ./inp_files/333936.got.cif
#   From: 2010.05.17/outbox.cif.g08.bks.cpg/sg2_167_cif.got.tgz:333936.got - 2010.06.03 11:33:40.
