data_PCOD9035699
_publ_section_title
;
Structure prediction by ZEFSAII (Michael W. Deem and Ramdas Pophale) SiO2 
 PCOD9035699
Probable space group: P -1
;
_chemical_formula_sum "Si O2"
_cell_formula_units_Z 15
_cell_length_a 11.803958
_cell_length_b 6.792818
_cell_length_c 12.369742
_cell_angle_alpha 116.770320
_cell_angle_beta 54.882738
_cell_angle_gamma 88.761251
_cell_volume 668.690335
_symmetry_space_group_name_H-M "P -1"
_symmetry_group_IT_number 2
_symmetry_cell_setting 'triclinic'
loop_
_space_group_symop_operation_xyz
x,y,z
-x,-y,-z
loop_
_atom_site_type_symbol
_atom_site_label
_atom_site_fract_x
_atom_site_fract_y
_atom_site_fract_z
Si Si1 0.642956 0.256409 0.357033
Si Si2 0.817381 0.553240 0.842519
Si Si3 0.028432 0.818108 0.840772
Si Si4 0.714616 0.610846 0.673860
Si Si5 0.017976 0.977086 0.319250
Si Si6 0.324611 0.868671 0.451838
Si Si7 0.534790 0.966601 0.187106
Si Si8 0.000000 0.500000 0.500000
O O1 0.500000 0.500000 0.500000
O O2 0.792003 0.310983 0.287360
O O3 0.647887 0.117086 0.432139
O O4 0.628512 0.107791 0.224685
O O5 0.821191 0.583854 0.716340
O O6 0.860298 0.277836 0.776498
O O7 0.932636 0.652661 0.858003
O O8 0.650393 0.723437 0.012219
O O9 0.975808 0.977658 0.800872
O O10 0.000000 0.000000 0.000000
O O11 0.649622 0.407230 0.656321
O O12 0.858039 0.531297 0.498226
O O13 0.584308 0.862859 0.790790
O O14 0.034229 0.203634 0.421545
O O15 0.851254 0.987906 0.437310
O O16 0.434045 0.933739 0.330859
#
# Coordination Sequence:
#
# PCOD9035699 Si02
#       8
#     2   2   2   2   2   2   2   1
#     4  11  23  45  71 100 137 187 236 290 350 406
#     4  12  27  45  72 105 141 189 232 293 348 424
#     4  11  24  48  70 101 140 186 235 289 352 411
#     4  11  25  43  71 104 136 186 231 287 359 410
#     4  10  25  44  73 103 137 180 239 287 350 413
#     4  10  25  43  68 104 134 183 236 289 347 421
#     4  12  26  45  69 101 148 183 231 289 354 417
#     4  10  22  46  70  98 140 176 228 290 342 410
#
# _framework density 22.431908
#
# number of rings (size 3 to 8) (size 9 to 14) (size 15 to 20)
#    0.000    1.067    4.000    0.800    5.600    4.267 
#    0.000    0.000    0.000    0.000    0.000    0.000 
#    0.000    0.000    0.000    0.000    0.000    0.000 
#
# Total GULP energy -83723.215961 kJ/mol
# GULP energy per Si atom -5581.547731 kJ/mol
# Density = 2.238085 g / cm^3
# Si number density = 22.431908 Si / 1000 Ang^3
#
#
#
# Elastic Constant Matrix: (Units=GPa)
#
#
# Indices 1 2 3 4 5 6 
#
# 1 115.7609 44.8492 29.2266 21.0744 3.7817 -1.4107
# 2 44.8492 82.0889 31.7708 37.7837 -9.2506 -14.5169
# 3 29.2266 31.7708 96.1249 33.1012 -1.9542 -16.1321
# 4 21.0744 37.7837 33.1012 41.4577 -9.2944 -8.8723
# 5 3.7817 -9.2506 -1.9542 -9.2944 39.6331 7.6312
# 6 -1.4107 -14.5169 -16.1321 -8.8723 7.6312 35.0129
#
#
#
# Elastic Compliance Matrix: (Units=1/GPa)
#
#
# Indices 1 2 3 4 5 6 
#
# 1 0.011611 -0.006559 -0.002087 0.000725 -0.002076 -0.002577
# 2 -0.006559 0.025257 0.001249 -0.019245 0.000973 0.005694
# 3 -0.002087 0.001249 0.015554 -0.011969 -0.002535 0.005120
# 4 0.000725 -0.019245 -0.011969 0.052112 0.007432 -0.001879
# 5 -0.002076 0.000973 -0.002535 0.007432 0.028261 -0.005125
# 6 -0.002577 0.005694 0.005120 -0.001879 -0.005125 0.033818
#
#
# Mechanical properties :
#
#
# Convention : Reuss Voigt Hill
#
# Bulk Modulus (GPa) = 26.57619 56.18532 41.38076
# Shear Modulus (GPa) = 25.77989 35.76261 30.77125
#
# Velocity S-wave (km/s) = 3.39374 3.99717 3.70775
# Velocity P-wave (km/s) = 5.21822 6.81209 6.06772
#
# Compressibility (1/GPa) = 0.03762767
#
# Stress axis : x y z
#
# Youngs Moduli (GPa) = 86.12479 39.59339 64.29162
#
# Poissons Ratio (x) = 0.25971 0.13416
# Poissons Ratio (y) = 0.56493 -0.08030
# Poissons Ratio (z) = 0.17972 -0.04945
#
# Static dielectric constant tensor:
#      x y z
#    x 1.893780 0.045650 -0.149070 
#    y 0.045650 1.882820 -0.208700 
#    z -0.149070 -0.208700 2.339460 
# 
# From -- ./inp_files/67402.got.cif
#   From: 2010.05.17/outbox.cif.g08.bks.cpg/sg2_34_cif.got.tgz:67402.got - 2010.06.03 11:33:40.
