data_PCOD9035201
_publ_section_title
;
Structure prediction by ZEFSAII (Michael W. Deem and Ramdas Pophale) SiO2 
 PCOD9035201
Probable space group: P -1
;
_chemical_formula_sum "Si O2"
_cell_formula_units_Z 16
_cell_length_a 11.155070
_cell_length_b 11.615082
_cell_length_c 12.496824
_cell_angle_alpha 67.685248
_cell_angle_beta 141.843045
_cell_angle_gamma 83.356364
_cell_volume 637.599260
_symmetry_space_group_name_H-M "P -1"
_symmetry_group_IT_number 2
_symmetry_cell_setting 'triclinic'
loop_
_space_group_symop_operation_xyz
x,y,z
-x,-y,-z
loop_
_atom_site_type_symbol
_atom_site_label
_atom_site_fract_x
_atom_site_fract_y
_atom_site_fract_z
Si Si1 0.832675 0.382800 0.072417
Si Si2 0.308740 0.479419 0.423350
Si Si3 0.685484 0.840867 0.919957
Si Si4 0.371377 0.804663 0.584529
Si Si5 0.818843 0.924304 0.191656
Si Si6 0.811749 0.408622 0.279351
Si Si7 0.525205 0.682123 0.163458
Si Si8 0.606841 0.811650 0.543568
O O1 0.936179 0.386133 0.259507
O O2 0.075366 0.285622 0.191200
O O3 0.563075 0.592074 0.782464
O O4 0.745416 0.280792 0.061955
O O5 0.500000 0.500000 0.500000
O O6 0.385340 0.405528 0.625129
O O7 0.363876 0.335911 0.438139
O O8 0.980457 0.667587 0.133307
O O9 0.742371 0.856669 0.074805
O O10 0.465535 0.829943 0.750922
O O11 0.560848 0.019185 0.710870
O O12 0.055072 0.906933 0.314707
O O13 0.457065 0.861177 0.533163
O O14 0.983777 0.787177 0.454962
O O15 0.559524 0.134842 0.961041
O O16 0.745990 0.542258 0.275355
O O17 0.500000 0.500000 0.000000
#
# Coordination Sequence:
#
# PCOD9035201 Si02
#       8
#     2   2   2   2   2   2   2   2
#     4  11  23  46  71 100 138 186 234 289 356 406
#     4  12  25  41  70 100 140 189 228 287 350 414
#     4  12  26  45  70 104 146 181 235 283 348 420
#     4  12  25  45  73 103 147 183 230 293 346 420
#     4  12  24  46  73 106 138 187 235 284 352 416
#     4  10  22  45  72 101 137 183 239 289 347 413
#     4  11  23  43  72 100 138 184 237 286 349 416
#     4  12  26  45  67 104 142 182 232 286 351 420
#
# _framework density 25.094131000000001
#
# number of rings (size 3 to 8) (size 9 to 14) (size 15 to 20)
#    0.000    0.500    6.250    3.000    3.500    3.000 
#    2.250    3.125    0.000    0.000    0.000    0.000 
#    0.000    0.000    0.000    0.000    0.000    0.000 
#
# Total GULP energy -89746.452413 kJ/mol
# GULP energy per Si atom -5609.153276 kJ/mol
# Density = 2.503702 g / cm^3
# Si number density = 25.094131 Si / 1000 Ang^3
#
#
#
# Elastic Constant Matrix: (Units=GPa)
#
#
# Indices 1 2 3 4 5 6 
#
# 1 94.7191 18.1259 16.9716 13.9453 7.6597 -6.7151
# 2 18.1259 131.1941 42.9022 -0.8346 7.5304 -1.2284
# 3 16.9716 42.9022 87.8600 -9.8935 -8.0295 0.2563
# 4 13.9453 -0.8346 -9.8935 55.9746 9.2075 -0.8579
# 5 7.6597 7.5304 -8.0295 9.2075 38.6019 9.7877
# 6 -6.7151 -1.2284 0.2563 -0.8579 9.7877 28.6144
#
#
#
# Elastic Compliance Matrix: (Units=1/GPa)
#
#
# Indices 1 2 3 4 5 6 
#
# 1 0.012104 -0.000604 -0.002668 -0.002926 -0.003108 0.003814
# 2 -0.000604 0.009460 -0.004789 -0.000031 -0.003057 0.001352
# 3 -0.002668 -0.004789 0.014939 0.002436 0.004617 -0.002471
# 4 -0.002926 -0.000031 0.002436 0.019686 -0.003911 0.001218
# 5 -0.003108 -0.003057 0.004617 -0.003911 0.032050 -0.011982
# 6 0.003814 0.001352 -0.002471 0.001218 -0.011982 0.040057
#
#
# Mechanical properties :
#
#
# Convention : Reuss Voigt Hill
#
# Bulk Modulus (GPa) = 49.06766 52.19696 50.63231
# Shear Modulus (GPa) = 33.06606 40.35641 36.71124
#
# Velocity S-wave (km/s) = 3.63393 4.01459 3.82899
# Velocity P-wave (km/s) = 6.09944 6.50652 6.30627
#
# Compressibility (1/GPa) = 0.02038002
#
# Stress axis : x y z
#
# Youngs Moduli (GPa) = 82.61950 105.70904 66.93826
#
# Poissons Ratio (x) = 0.06390 0.17856
# Poissons Ratio (y) = 0.04994 0.32059
# Poissons Ratio (z) = 0.22039 0.50628
#
# Static dielectric constant tensor:
#      x y z
#    x 1.989740 -0.006660 0.011540 
#    y -0.006660 1.984790 0.031310 
#    z 0.011540 0.031310 1.965840 
# 
# From -- ./inp_files/428047.got.cif
#   From: 2010.05.17/outbox.cif.g08.bks.cpg/sg2_215_cif.got.tgz:428047.got - 2010.06.03 11:33:40.
