data_PCOD9035362
_publ_section_title
;
Structure prediction by ZEFSAII (Michael W. Deem and Ramdas Pophale) SiO2 
 PCOD9035362
Probable space group: P -1
;
_chemical_formula_sum "Si O2"
_cell_formula_units_Z 14
_cell_length_a 13.256044
_cell_length_b 14.920450
_cell_length_c 7.994931
_cell_angle_alpha 136.496882
_cell_angle_beta 49.812252
_cell_angle_gamma 150.121140
_cell_volume 541.661663
_symmetry_space_group_name_H-M "P -1"
_symmetry_group_IT_number 2
_symmetry_cell_setting 'triclinic'
loop_
_space_group_symop_operation_xyz
x,y,z
-x,-y,-z
loop_
_atom_site_type_symbol
_atom_site_label
_atom_site_fract_x
_atom_site_fract_y
_atom_site_fract_z
Si Si1 0.237532 0.406454 0.640287
Si Si2 0.750255 0.107536 0.368280
Si Si3 0.663047 0.077851 0.069165
Si Si4 0.696943 0.809418 0.591317
Si Si5 0.052558 0.502441 0.137911
Si Si6 0.818042 0.660877 0.772285
Si Si7 0.396931 0.249321 0.772688
O O1 0.475640 0.616309 0.648335
O O2 0.178131 0.215315 0.496912
O O3 0.158706 0.369055 0.485311
O O4 0.164505 0.449946 0.918685
O O5 0.822554 0.295304 0.627168
O O6 0.960098 0.195687 0.197131
O O7 0.395132 0.981034 0.754878
O O8 0.657604 0.935220 0.362546
O O9 0.840554 0.316282 0.201814
O O10 0.500000 0.000000 0.000000
O O11 0.741109 0.993436 0.819095
O O12 0.675489 0.774181 0.369054
O O13 0.000000 0.500000 0.000000
O O14 0.638445 0.452881 0.781541
O O15 0.726326 0.738527 0.967621
#
# Coordination Sequence:
#
# PCOD9035362 Si02
#       7
#     2   2   2   2   2   2   2
#     4  10  22  45  75 108 154 190 247 307 376 447
#     4  12  26  50  76 112 153 202 253 318 379 455
#     4  12  29  51  74 106 152 201 261 315 381 453
#     4  10  23  45  74 109 144 199 248 310 370 451
#     4  12  25  49  75 111 152 200 245 313 382 457
#     4  10  22  45  74 115 155 193 257 309 378 455
#     4  10  23  44  79 114 150 202 248 316 383 450
#
# _framework density 25.846391000000001
#
# number of rings (size 3 to 8) (size 9 to 14) (size 15 to 20)
#    0.000    1.143    1.429    3.429    4.000    1.714 
#    2.571    4.286    0.000    0.000    0.000    0.000 
#    0.000    0.000    0.000    0.000    0.000    0.000 
#
# Total GULP energy -78480.915518 kJ/mol
# GULP energy per Si atom -5605.779680 kJ/mol
# Density = 2.578756 g / cm^3
# Si number density = 25.846391 Si / 1000 Ang^3
#
#
#
# Elastic Constant Matrix: (Units=GPa)
#
#
# Indices 1 2 3 4 5 6 
#
# 1 121.9541 51.8091 45.8622 0.6804 -4.0243 -6.2571
# 2 51.8091 129.9655 24.4773 16.2333 -15.2276 -9.0072
# 3 45.8622 24.4773 129.0141 17.1322 -11.5314 -9.7007
# 4 0.6804 16.2333 17.1322 39.8986 -5.8477 -6.2133
# 5 -4.0243 -15.2276 -11.5314 -5.8477 33.5219 -0.2560
# 6 -6.2571 -9.0072 -9.7007 -6.2133 -0.2560 33.0430
#
#
#
# Elastic Compliance Matrix: (Units=1/GPa)
#
#
# Indices 1 2 3 4 5 6 
#
# 1 0.011411 -0.004357 -0.003722 0.003047 -0.001355 0.000443
# 2 -0.004357 0.010321 0.000510 -0.003564 0.003730 0.001497
# 3 -0.003722 0.000510 0.009822 -0.003737 0.002524 0.001635
# 4 0.003047 -0.003564 -0.003737 0.029064 0.002562 0.003993
# 5 -0.001355 0.003730 0.002524 0.002562 0.032695 0.002236
# 6 0.000443 0.001497 0.001635 0.003993 0.002236 0.032004
#
#
# Mechanical properties :
#
#
# Convention : Reuss Voigt Hill
#
# Bulk Modulus (GPa) = 60.91417 69.47010 65.19213
# Shear Modulus (GPa) = 34.26349 38.54504 36.40427
#
# Velocity S-wave (km/s) = 3.64491 3.86594 3.75705
# Velocity P-wave (km/s) = 6.42906 6.84571 6.64065
#
# Compressibility (1/GPa) = 0.01641654
#
# Stress axis : x y z
#
# Youngs Moduli (GPa) = 87.63136 96.88977 101.80823
#
# Poissons Ratio (x) = 0.42210 0.37897
# Poissons Ratio (y) = 0.38177 -0.05190
# Poissons Ratio (z) = 0.32620 -0.04939
#
# Static dielectric constant tensor:
#      x y z
#    x 2.041420 0.028640 -0.051950 
#    y 0.028640 2.016110 -0.050340 
#    z -0.051950 -0.050340 2.059830 
# 
# From -- ./inp_files/316063.got.cif
#   From: 2010.05.17/outbox.cif.g08.bks.cpg/sg2_159_cif.got.tgz:316063.got - 2010.06.03 11:33:40.
