data_PCOD9035502
_publ_section_title
;
Structure prediction by ZEFSAII (Michael W. Deem and Ramdas Pophale) SiO2 
 PCOD9035502
Probable space group: P -1
;
_chemical_formula_sum "Si O2"
_cell_formula_units_Z 16
_cell_length_a 9.899518
_cell_length_b 13.652770
_cell_length_c 7.306074
_cell_angle_alpha 76.060148
_cell_angle_beta 87.697131
_cell_angle_gamma 133.149660
_cell_volume 669.277570
_symmetry_space_group_name_H-M "P -1"
_symmetry_group_IT_number 2
_symmetry_cell_setting 'triclinic'
loop_
_space_group_symop_operation_xyz
x,y,z
-x,-y,-z
loop_
_atom_site_type_symbol
_atom_site_label
_atom_site_fract_x
_atom_site_fract_y
_atom_site_fract_z
Si Si1 0.677068 0.156466 0.845165
Si Si2 0.765015 0.507587 0.515057
Si Si3 0.051330 0.160323 0.226949
Si Si4 0.656556 0.511917 0.890653
Si Si5 0.966393 0.791536 0.193198
Si Si6 0.643349 0.281718 0.100645
Si Si7 0.786576 0.962733 0.624544
Si Si8 0.188908 0.680476 0.575378
O O1 0.674720 0.261366 0.901859
O O2 0.867502 0.199101 0.874413
O O3 0.684057 0.176146 0.618945
O O4 0.500000 0.000000 0.000000
O O5 0.618208 0.456617 0.708736
O O6 0.733816 0.390691 0.449691
O O7 0.796696 0.627101 0.344096
O O8 0.972130 0.588360 0.562068
O O9 0.148657 0.318153 0.199472
O O10 0.174243 0.135919 0.322666
O O11 0.841866 0.034787 0.389042
O O12 0.067096 0.160365 0.006942
O O13 0.500000 0.500000 0.000000
O O14 0.671926 0.416358 0.042574
O O15 0.059681 0.904526 0.303225
O O16 0.429499 0.137709 0.246820
O O17 0.789287 0.302824 0.217758
#
# Coordination Sequence:
#
# PCOD9035502 Si02
#       8
#     2   2   2   2   2   2   2   2
#     4  11  24  40  62 100 137 164 216 275 327 398
#     4  10  22  46  66  97 138 170 227 280 323 400
#     4  11  25  44  69  94 130 182 223 266 335 394
#     4  12  24  45  68  97 134 175 225 281 322 390
#     4  11  23  42  69  96 128 180 217 268 335 397
#     4  12  25  42  69 101 135 175 217 278 340 385
#     4  11  24  44  64  98 139 170 221 276 320 405
#     4  10  24  43  68  97 134 177 219 275 336 392
#
# _framework density 23.906374
#
# number of rings (size 3 to 8) (size 9 to 14) (size 15 to 20)
#    0.000    1.000    5.000    1.125    3.500    1.000 
#    0.000    5.000    0.000    0.000    0.000    0.000 
#    0.000    0.000    0.000    0.000    0.000    0.000 
#
# Total GULP energy -89505.701231 kJ/mol
# GULP energy per Si atom -5594.106327 kJ/mol
# Density = 2.385196 g / cm^3
# Si number density = 23.906374 Si / 1000 Ang^3
#
#
#
# Elastic Constant Matrix: (Units=GPa)
#
#
# Indices 1 2 3 4 5 6 
#
# 1 65.8494 4.9279 19.6182 -8.2935 -10.4879 -18.7805
# 2 4.9279 63.4134 14.7965 -16.9912 10.8934 -26.3032
# 3 19.6182 14.7965 138.5781 -18.7181 9.5077 -5.4127
# 4 -8.2935 -16.9912 -18.7181 39.4571 -7.6336 -3.3567
# 5 -10.4879 10.8934 9.5077 -7.6336 35.6212 2.5987
# 6 -18.7805 -26.3032 -5.4127 -3.3567 2.5987 26.9470
#
#
#
# Elastic Compliance Matrix: (Units=1/GPa)
#
#
# Indices 1 2 3 4 5 6 
#
# 1 0.028386 0.018195 -0.002477 0.016736 0.004216 0.038724
# 2 0.018195 0.052576 -0.000823 0.030151 -0.009035 0.068462
# 3 -0.002477 -0.000823 0.008126 0.002546 -0.002073 -0.000381
# 4 0.016736 0.030151 0.002546 0.047417 0.001735 0.047345
# 5 0.004216 -0.009035 -0.002073 0.001735 0.033683 -0.009329
# 6 0.038724 0.068462 -0.000381 0.047345 -0.009329 0.137646
#
#
# Mechanical properties :
#
#
# Convention : Reuss Voigt Hill
#
# Bulk Modulus (GPa) = 8.41209 38.50288 23.45748
# Shear Modulus (GPa) = 15.73954 35.63829 25.68891
#
# Velocity S-wave (km/s) = 2.56868 3.86520 3.28161
# Velocity P-wave (km/s) = 3.51054 6.00503 4.91855
#
# Compressibility (1/GPa) = 0.11887659
#
# Stress axis : x y z
#
# Youngs Moduli (GPa) = 35.22818 19.02017 123.06096
#
# Poissons Ratio (x) = -0.34607 0.30488
# Poissons Ratio (y) = -0.64097 0.10129
# Poissons Ratio (z) = 0.08728 0.01565
#
# Static dielectric constant tensor:
#      x y z
#    x 1.912510 -0.029990 -0.012240 
#    y -0.029990 2.041030 -0.029050 
#    z -0.012240 -0.029050 1.944570 
# 
# From -- ./inp_files/77391.got.cif
#   From: 2010.05.17/outbox.cif.g08.bks.cpg/sg2_39_cif.got.tgz:77391.got - 2010.06.03 11:33:40.
