data_PCOD9035030
_publ_section_title
;
Structure prediction by ZEFSAII (Michael W. Deem and Ramdas Pophale) SiO2 
 PCOD9035030
Probable space group: P -1
;
_chemical_formula_sum "Si O2"
_cell_formula_units_Z 16
_cell_length_a 9.558125
_cell_length_b 18.718811
_cell_length_c 8.568907
_cell_angle_alpha 50.899668
_cell_angle_beta 116.855275
_cell_angle_gamma 149.070461
_cell_volume 596.012736
_symmetry_space_group_name_H-M "P -1"
_symmetry_group_IT_number 2
_symmetry_cell_setting 'triclinic'
loop_
_space_group_symop_operation_xyz
x,y,z
-x,-y,-z
loop_
_atom_site_type_symbol
_atom_site_label
_atom_site_fract_x
_atom_site_fract_y
_atom_site_fract_z
Si Si1 0.958511 0.599042 0.782468
Si Si2 0.966737 0.067889 0.049047
Si Si3 0.544822 0.305228 0.723665
Si Si4 0.224554 0.311852 0.569330
Si Si5 0.653334 0.016711 0.243474
Si Si6 0.634910 0.463871 0.134498
Si Si7 0.827595 0.270032 0.810138
Si Si8 0.563973 0.816578 0.702464
O O1 0.739034 0.442399 0.768827
O O2 0.975067 0.713199 0.579249
O O3 0.260647 0.697945 0.783516
O O4 0.817718 0.536175 0.968102
O O5 0.090998 0.198624 0.807409
O O6 0.156118 0.423900 0.770181
O O7 0.849428 0.065083 0.144141
O O8 0.296333 0.113354 0.904583
O O9 0.360661 0.295054 0.563063
O O10 0.745529 0.336002 0.688502
O O11 0.206235 0.115585 0.162771
O O12 0.500000 0.500000 0.500000
O O13 0.335632 0.848544 0.256050
O O14 0.679381 0.966402 0.476773
O O15 0.719630 0.156273 0.060775
O O16 0.475033 0.288100 0.295141
O O17 0.500000 0.500000 0.000000
#
# Coordination Sequence:
#
# PCOD9035030 Si02
#       8
#     2   2   2   2   2   2   2   2
#     4  11  26  48  76 111 152 190 258 309 375 443
#     4  11  24  45  76 107 157 198 249 304 380 441
#     4  10  22  45  70 104 146 197 246 301 369 447
#     4  10  23  42  71 106 143 193 244 303 369 436
#     4  10  25  46  71 106 159 196 250 305 382 445
#     4  12  27  48  76 107 154 196 247 313 382 443
#     4  10  23  44  71 105 148 196 254 301 376 440
#     4  12  25  46  79 112 149 198 250 321 364 440
#
# _framework density 26.845064000000001
#
# number of rings (size 3 to 8) (size 9 to 14) (size 15 to 20)
#    0.000    1.250    1.250    3.375    7.000    3.500 
#    2.250    1.250    0.000    0.000    0.000    0.000 
#    0.000    0.000    0.000    0.000    0.000    0.000 
#
# Total GULP energy -89586.682392 kJ/mol
# GULP energy per Si atom -5599.167650 kJ/mol
# Density = 2.678396 g / cm^3
# Si number density = 26.845064 Si / 1000 Ang^3
#
#
#
# Elastic Constant Matrix: (Units=GPa)
#
#
# Indices 1 2 3 4 5 6 
#
# 1 196.0698 37.8116 61.2971 0.6049 32.4438 17.1341
# 2 37.8116 113.5425 11.1229 -13.9475 2.3302 12.3251
# 3 61.2971 11.1229 158.4020 -15.0138 27.2284 12.1224
# 4 0.6049 -13.9475 -15.0138 34.6706 7.0717 12.6677
# 5 32.4438 2.3302 27.2284 7.0717 58.4416 1.5160
# 6 17.1341 12.3251 12.1224 12.6677 1.5160 45.4424
#
#
#
# Elastic Compliance Matrix: (Units=1/GPa)
#
#
# Indices 1 2 3 4 5 6 
#
# 1 0.006614 -0.001935 -0.001977 -0.000818 -0.002545 -0.001128
# 2 -0.001935 0.010596 0.001008 0.006353 -0.000479 -0.004168
# 3 -0.001977 0.001008 0.008440 0.006034 -0.003518 -0.003344
# 4 -0.000818 0.006353 0.006034 0.040645 -0.007162 -0.014116
# 5 -0.002545 -0.000479 -0.003518 -0.007162 0.020963 0.003325
# 6 -0.001128 -0.004168 -0.003344 -0.014116 0.003325 0.028278
#
#
# Mechanical properties :
#
#
# Convention : Reuss Voigt Hill
#
# Bulk Modulus (GPa) = 50.39837 76.49749 63.44793
# Shear Modulus (GPa) = 39.07594 51.56311 45.31952
#
# Velocity S-wave (km/s) = 3.81938 4.38741 4.11321
# Velocity P-wave (km/s) = 6.18586 7.36367 6.80031
#
# Compressibility (1/GPa) = 0.01984191
#
# Stress axis : x y z
#
# Youngs Moduli (GPa) = 151.20133 94.37941 118.48253
#
# Poissons Ratio (x) = 0.18259 0.23427
# Poissons Ratio (y) = 0.29251 -0.11945
# Poissons Ratio (z) = 0.29896 -0.09515
#
# Static dielectric constant tensor:
#      x y z
#    x 2.136650 -0.032100 -0.039140 
#    y -0.032100 2.107260 -0.034960 
#    z -0.039140 -0.034960 2.161610 
# 
# From -- ./inp_files/214512.got.cif
#   From: 2010.05.17/outbox.cif.g08.bks.cpg/sg2_108_cif.got.tgz:214512.got - 2010.06.03 11:33:40.
