data_PCOD9035396
_publ_section_title
;
Structure prediction by ZEFSAII (Michael W. Deem and Ramdas Pophale) SiO2 
 PCOD9035396
Probable space group: P -1
;
_chemical_formula_sum "Si O2"
_cell_formula_units_Z 16
_cell_length_a 18.573364
_cell_length_b 10.045738
_cell_length_c 12.549604
_cell_angle_alpha 33.633739
_cell_angle_beta 36.271222
_cell_angle_gamma 34.148392
_cell_volume 674.335610
_symmetry_space_group_name_H-M "P -1"
_symmetry_group_IT_number 2
_symmetry_cell_setting 'triclinic'
loop_
_space_group_symop_operation_xyz
x,y,z
-x,-y,-z
loop_
_atom_site_type_symbol
_atom_site_label
_atom_site_fract_x
_atom_site_fract_y
_atom_site_fract_z
Si Si1 0.545444 0.179959 0.153282
Si Si2 0.090226 0.635822 0.901007
Si Si3 0.260339 0.264773 0.467136
Si Si4 0.798465 0.187844 0.529038
Si Si5 0.238927 0.753329 0.833839
Si Si6 0.482398 0.789490 0.083970
Si Si7 0.183443 0.852003 0.069257
Si Si8 0.967138 0.350689 0.363625
O O1 0.423302 0.147257 0.379360
O O2 0.500000 0.500000 0.000000
O O3 0.541984 0.116956 0.073481
O O4 0.697312 0.063511 0.101113
O O5 0.193621 0.605663 0.703167
O O6 0.168270 0.640735 0.911847
O O7 0.954960 0.929032 0.855356
O O8 0.031910 0.427117 0.133531
O O9 0.226008 0.541071 0.259202
O O10 0.139709 0.387026 0.618347
O O11 0.252190 0.007241 0.598012
O O12 0.649252 0.234462 0.702975
O O13 0.870121 0.224962 0.524498
O O14 0.899026 0.873998 0.584400
O O15 0.384944 0.506603 0.862723
O O16 0.156738 0.859492 0.970820
O O17 0.500000 0.000000 0.000000
#
# Coordination Sequence:
#
# PCOD9035396 Si02
#       8
#     2   2   2   2   2   2   2   2
#     4  10  22  45  76 101 137 188 238 292 352 414
#     4  12  26  45  68 106 145 189 237 291 357 428
#     4  11  23  43  76 105 131 183 240 296 359 404
#     4  11  26  46  72  98 151 192 231 289 364 429
#     4  12  27  45  70 104 142 184 242 292 361 420
#     4  12  27  50  74 105 151 187 234 297 362 434
#     4  11  23  46  72 103 144 179 242 306 345 416
#     4  11  24  45  73 108 137 187 246 293 351 425
#
# _framework density 23.727058
#
# number of rings (size 3 to 8) (size 9 to 14) (size 15 to 20)
#    0.000    0.750    5.000    3.000    3.500    3.500 
#    4.500    0.000    0.000    0.000    0.000    0.000 
#    0.000    0.000    0.000    0.000    0.000    0.000 
#
# Total GULP energy -89434.244195 kJ/mol
# GULP energy per Si atom -5589.640262 kJ/mol
# Density = 2.367305 g / cm^3
# Si number density = 23.727058 Si / 1000 Ang^3
#
#
#
# Elastic Constant Matrix: (Units=GPa)
#
#
# Indices 1 2 3 4 5 6 
#
# 1 81.0077 7.7551 -2.6861 1.2761 4.5205 2.3436
# 2 7.7551 55.9469 21.8526 7.3657 -2.0919 -1.1728
# 3 -2.6861 21.8526 96.2009 1.0450 -1.1876 -7.8964
# 4 1.2761 7.3657 1.0450 43.7110 0.4826 -5.9238
# 5 4.5205 -2.0919 -1.1876 0.4826 31.8038 0.7184
# 6 2.3436 -1.1728 -7.8964 -5.9238 0.7184 35.0761
#
#
#
# Elastic Compliance Matrix: (Units=1/GPa)
#
#
# Indices 1 2 3 4 5 6 
#
# 1 0.012702 -0.002128 0.000756 -0.000108 -0.001899 -0.000729
# 2 -0.002128 0.020506 -0.004731 -0.003412 0.001545 -0.000845
# 3 0.000756 -0.004731 0.011692 0.000844 -0.000053 0.002567
# 4 -0.000108 -0.003412 0.000844 0.024005 -0.000636 0.004150
# 5 -0.001899 0.001545 -0.000053 -0.000636 0.031835 -0.000593
# 6 -0.000729 -0.000845 0.002567 0.004150 -0.000593 0.029821
#
#
# Mechanical properties :
#
#
# Convention : Reuss Voigt Hill
#
# Bulk Modulus (GPa) = 30.58655 31.88874 31.23765
# Shear Modulus (GPa) = 32.53843 35.86711 34.20277
#
# Velocity S-wave (km/s) = 3.70721 3.89222 3.80084
# Velocity P-wave (km/s) = 5.58959 5.80243 5.69700
#
# Compressibility (1/GPa) = 0.03269411
#
# Stress axis : x y z
#
# Youngs Moduli (GPa) = 78.72740 48.76591 85.53217
#
# Poissons Ratio (x) = 0.10377 -0.06466
# Poissons Ratio (y) = 0.16753 0.40463
# Poissons Ratio (z) = -0.05951 0.23070
#
# Static dielectric constant tensor:
#      x y z
#    x 1.894270 0.000410 0.051480 
#    y 0.000410 1.958420 -0.008220 
#    z 0.051480 -0.008220 1.937500 
# 
# From -- ./inp_files/461793.got.cif
#   From: 2010.05.17/outbox.cif.g08.bks.cpg/sg2_231_cif.got.tgz:461793.got - 2010.06.03 11:33:40.
