data_PCOD9035268
_publ_section_title
;
Structure prediction by ZEFSAII (Michael W. Deem and Ramdas Pophale) SiO2 
 PCOD9035268
Probable space group: P -1
;
_chemical_formula_sum "Si O2"
_cell_formula_units_Z 16
_cell_length_a 9.129164
_cell_length_b 17.937765
_cell_length_c 5.315755
_cell_angle_alpha 106.727227
_cell_angle_beta 56.181565
_cell_angle_gamma 114.138113
_cell_volume 657.888112
_symmetry_space_group_name_H-M "P -1"
_symmetry_group_IT_number 2
_symmetry_cell_setting 'triclinic'
loop_
_space_group_symop_operation_xyz
x,y,z
-x,-y,-z
loop_
_atom_site_type_symbol
_atom_site_label
_atom_site_fract_x
_atom_site_fract_y
_atom_site_fract_z
Si Si1 0.527048 0.224207 0.934056
Si Si2 0.187814 0.492061 0.695078
Si Si3 0.442344 0.428059 0.775916
Si Si4 0.926220 0.112797 0.948998
Si Si5 0.254368 0.743430 0.746733
Si Si6 0.886691 0.807846 0.655801
Si Si7 0.904410 0.655519 0.726581
Si Si8 0.580181 0.971404 0.146043
O O1 0.608622 0.255672 0.614926
O O2 0.481506 0.125944 0.886920
O O3 0.665473 0.262338 0.063716
O O4 0.331073 0.233901 0.199537
O O5 0.309563 0.452703 0.723639
O O6 0.358151 0.571814 0.520288
O O7 0.119277 0.429303 0.469492
O O8 0.000000 0.500000 0.000000
O O9 0.500000 0.500000 0.000000
O O10 0.295422 0.350239 0.969073
O O11 0.035590 0.139176 0.611306
O O12 0.790405 0.169705 0.143106
O O13 0.056941 0.138915 0.092301
O O14 0.799688 0.019073 0.982061
O O15 0.059837 0.675208 0.809409
O O16 0.965168 0.731752 0.550763
O O17 0.500000 0.000000 0.500000
O O18 0.500000 0.000000 0.000000
#
# Coordination Sequence:
#
# PCOD9035268 Si02
#       8
#     2   2   2   2   2   2   2   2
#     4  12  24  44  63 103 132 176 234 294 330 417
#     4  10  22  45  73 102 135 176 230 281 336 417
#     4   9  21  44  67  98 139 171 220 278 342 404
#     4  11  22  42  67  93 131 184 219 286 350 412
#     4  11  23  42  67  95 133 175 235 273 339 411
#     4  11  26  42  65  97 143 171 226 285 351 408
#     4  10  24  43  66  95 134 187 213 279 349 406
#     4  12  22  39  69  95 129 178 233 290 350 393
#
# _framework density 24.320246000000001
#
# number of rings (size 3 to 8) (size 9 to 14) (size 15 to 20)
#    0.000    1.250    2.500    3.000    5.250    3.000 
#    9.000    0.000    0.000    0.000    0.000    0.000 
#    0.000    0.000    0.000    0.000    0.000    0.000 
#
# Total GULP energy -89586.870767 kJ/mol
# GULP energy per Si atom -5599.179423 kJ/mol
# Density = 2.426489 g / cm^3
# Si number density = 24.320246 Si / 1000 Ang^3
#
#
#
# Elastic Constant Matrix: (Units=GPa)
#
#
# Indices 1 2 3 4 5 6 
#
# 1 118.1143 38.4201 66.7956 6.1837 -4.3692 35.1984
# 2 38.4201 102.4259 43.9464 -17.1170 0.3616 27.1594
# 3 66.7956 43.9464 166.2501 -26.3667 -0.9833 14.8388
# 4 6.1837 -17.1170 -26.3667 38.2679 6.3212 0.2332
# 5 -4.3692 0.3616 -0.9833 6.3212 43.6201 -2.9136
# 6 35.1984 27.1594 14.8388 0.2332 -2.9136 44.0373
#
#
#
# Elastic Compliance Matrix: (Units=1/GPa)
#
#
# Indices 1 2 3 4 5 6 
#
# 1 0.015977 -0.002265 -0.006303 -0.008223 0.002063 -0.009069
# 2 -0.002265 0.013873 -0.001231 0.006040 -0.001677 -0.006473
# 3 -0.006303 -0.001231 0.009836 0.007449 -0.001321 0.002356
# 4 -0.008223 0.006040 0.007449 0.036283 -0.005981 -0.000250
# 5 0.002063 -0.001677 -0.001321 -0.005981 0.024080 0.001456
# 6 -0.009069 -0.006473 0.002356 -0.000250 0.001456 0.033253
#
#
# Mechanical properties :
#
#
# Convention : Reuss Voigt Hill
#
# Bulk Modulus (GPa) = 49.78357 76.12381 62.95369
# Shear Modulus (GPa) = 31.32881 41.02694 36.17788
#
# Velocity S-wave (km/s) = 3.59301 4.11170 3.86108
# Velocity P-wave (km/s) = 6.14227 7.34234 6.76895
#
# Compressibility (1/GPa) = 0.02008695
#
# Stress axis : x y z
#
# Youngs Moduli (GPa) = 62.58909 72.08322 101.66595
#
# Poissons Ratio (x) = 0.16330 0.64079
# Poissons Ratio (y) = 0.14179 0.12517
# Poissons Ratio (z) = 0.39450 0.08875
#
# Static dielectric constant tensor:
#      x y z
#    x 1.961660 -0.061260 -0.018550 
#    y -0.061260 1.962770 -0.020340 
#    z -0.018550 -0.020340 1.962810 
# 
# From -- ./inp_files/51619.got.cif
#   From: 2010.05.17/outbox.cif.g08.bks.cpg/sg2_26_cif.got.tgz:51619.got - 2010.06.03 11:33:40.
