data_PCOD9035008
_publ_section_title
;
Structure prediction by ZEFSAII (Michael W. Deem and Ramdas Pophale) SiO2 
 PCOD9035008
Probable space group: P -1
;
_chemical_formula_sum "Si O2"
_cell_formula_units_Z 13
_cell_length_a 9.098358
_cell_length_b 11.987115
_cell_length_c 9.204218
_cell_angle_alpha 144.600994
_cell_angle_beta 120.126398
_cell_angle_gamma 78.384583
_cell_volume 457.652883
_symmetry_space_group_name_H-M "P -1"
_symmetry_group_IT_number 2
_symmetry_cell_setting 'triclinic'
loop_
_space_group_symop_operation_xyz
x,y,z
-x,-y,-z
loop_
_atom_site_type_symbol
_atom_site_label
_atom_site_fract_x
_atom_site_fract_y
_atom_site_fract_z
Si Si1 0.153798 0.042766 0.909798
Si Si2 0.500000 0.500000 0.500000
Si Si3 0.747559 0.048679 0.445705
Si Si4 0.501442 0.715428 0.501019
Si Si5 0.880117 0.404413 0.119453
Si Si6 0.246904 0.223071 0.581941
Si Si7 0.734742 0.298447 0.242405
O O1 0.150030 0.991324 0.684547
O O2 0.228704 0.893475 0.875550
O O3 0.941397 0.976519 0.781085
O O4 0.328018 0.264683 0.273677
O O5 0.362644 0.513928 0.303329
O O6 0.561400 0.327266 0.252638
O O7 0.585541 0.115574 0.377966
O O8 0.692288 0.862053 0.336819
O O9 0.868105 0.254750 0.821120
O O10 0.593582 0.705807 0.385075
O O11 0.823680 0.592155 0.238901
O O12 0.740764 0.290404 0.062489
O O13 0.080688 0.500891 0.397869
#
# Coordination Sequence:
#
# PCOD9035008 Si02
#       7
#     2   1   2   2   2   2   2
#     4  11  25  47  72 100 135 188 236 279 340 416
#     4  12  24  42  74 102 136 186 230 288 342 400
#     4  12  26  45  68 109 142 181 223 294 345 406
#     4  12  26  47  68 104 140 182 235 280 348 414
#     4  10  24  46  71 101 141 179 239 277 345 419
#     4  11  25  46  74 100 138 186 227 288 351 401
#     4  10  22  45  70 102 131 187 231 286 339 409
#
# _framework density 28.405808
#
# number of rings (size 3 to 8) (size 9 to 14) (size 15 to 20)
#    0.000    0.923    3.077    2.769    2.154    4.308 
#    0.000    0.000    0.000    0.000    0.000    0.000 
#    0.000    0.000    0.000    0.000    0.000    0.000 
#
# Total GULP energy -72793.586089 kJ/mol
# GULP energy per Si atom -5599.506622 kJ/mol
# Density = 2.834116 g / cm^3
# Si number density = 28.405808 Si / 1000 Ang^3
#
#
#
# Elastic Constant Matrix: (Units=GPa)
#
#
# Indices 1 2 3 4 5 6 
#
# 1 114.3763 54.8628 12.2725 -2.1181 -14.5640 -0.7581
# 2 54.8628 264.4700 15.0037 1.8075 -19.8870 0.7724
# 3 12.2725 15.0037 115.6679 -15.0965 -7.9873 4.9126
# 4 -2.1181 1.8075 -15.0965 47.8015 -7.8550 -6.2891
# 5 -14.5640 -19.8870 -7.9873 -7.8550 46.9447 -1.2482
# 6 -0.7581 0.7724 4.9126 -6.2891 -1.2482 54.2020
#
#
#
# Elastic Compliance Matrix: (Units=1/GPa)
#
#
# Indices 1 2 3 4 5 6 
#
# 1 0.010021 -0.001875 -0.000572 0.000769 0.002355 0.000362
# 2 -0.001875 0.004275 -0.000294 -0.000155 0.001152 -0.000052
# 3 -0.000572 -0.000294 0.009300 0.003160 0.001797 -0.000439
# 4 0.000769 -0.000155 0.003160 0.023049 0.004634 0.002508
# 5 0.002355 0.001152 0.001797 0.004634 0.023626 0.000935
# 6 0.000362 -0.000052 -0.000439 0.002508 0.000935 0.018808
#
#
# Mechanical properties :
#
#
# Convention : Reuss Voigt Hill
#
# Bulk Modulus (GPa) = 55.21444 73.19913 64.20678
# Shear Modulus (GPa) = 49.70251 57.28133 53.49192
#
# Velocity S-wave (km/s) = 4.18752 4.49546 4.34422
# Velocity P-wave (km/s) = 6.54678 7.26433 6.91487
#
# Compressibility (1/GPa) = 0.01811120
#
# Stress axis : x y z
#
# Youngs Moduli (GPa) = 99.79430 233.93495 107.53251
#
# Poissons Ratio (x) = 0.43874 0.06154
# Poissons Ratio (y) = 0.18716 0.03162
# Poissons Ratio (z) = 0.05712 0.06878
#
# Static dielectric constant tensor:
#      x y z
#    x 2.179640 0.088360 0.216330 
#    y 0.088360 2.219110 0.094590 
#    z 0.216330 0.094590 2.718180 
# 
# From -- ./inp_files/155908.got.cif
#   From: 2010.05.17/outbox.cif.g08.bks.cpg/sg2_78_cif.got.tgz:155908.got - 2010.06.03 11:33:40.
