data_PCOD9035397
_publ_section_title
;
Structure prediction by ZEFSAII (Michael W. Deem and Ramdas Pophale) SiO2 
 PCOD9035397
Probable space group: P -1
;
_chemical_formula_sum "Si O2"
_cell_formula_units_Z 14
_cell_length_a 14.198858
_cell_length_b 9.127563
_cell_length_c 8.847453
_cell_angle_alpha 80.299916
_cell_angle_beta 138.627451
_cell_angle_gamma 118.972095
_cell_volume 624.189153
_symmetry_space_group_name_H-M "P -1"
_symmetry_group_IT_number 2
_symmetry_cell_setting 'triclinic'
loop_
_space_group_symop_operation_xyz
x,y,z
-x,-y,-z
loop_
_atom_site_type_symbol
_atom_site_label
_atom_site_fract_x
_atom_site_fract_y
_atom_site_fract_z
Si Si1 0.280929 0.092569 0.965247
Si Si2 0.578737 0.200142 0.511138
Si Si3 0.127231 0.707264 0.725969
Si Si4 0.483183 0.811919 0.044271
Si Si5 0.571648 0.415837 0.716481
Si Si6 0.094574 0.260043 0.803224
Si Si7 0.063375 0.609201 0.213477
O O1 0.122886 0.107434 0.811830
O O2 0.216085 0.886904 0.901838
O O3 0.417155 0.186642 0.245940
O O4 0.397311 0.191128 0.940093
O O5 0.647627 0.335722 0.709327
O O6 0.732293 0.269337 0.567527
O O7 0.500000 0.000000 0.500000
O O8 0.276768 0.695323 0.830348
O O9 0.014553 0.726272 0.462582
O O10 0.010900 0.539035 0.720204
O O11 0.538610 0.753594 0.273844
O O12 0.500000 0.000000 0.000000
O O13 0.500000 0.500000 0.500000
O O14 0.713143 0.573059 0.964493
O O15 0.002008 0.262298 0.845468
O O16 0.000000 0.500000 0.000000
#
# Coordination Sequence:
#
# PCOD9035397 Si02
#       7
#     2   2   2   2   2   2   2
#     4  11  25  45  71 104 144 186 238 297 363 427
#     4  12  25  46  73 100 139 195 247 292 358 443
#     4  11  24  47  72 105 140 189 245 295 355 435
#     4  10  22  45  76 102 139 195 244 289 349 441
#     4  12  25  46  69 109 150 186 244 305 363 423
#     4  12  25  44  70 106 147 181 237 305 361 421
#     4  12  24  45  72 102 140 186 242 299 358 428
#
# _framework density 22.429096999999999
#
# number of rings (size 3 to 8) (size 9 to 14) (size 15 to 20)
#    0.000    0.571    4.286    4.286    2.000    2.857 
#    0.000    4.286    0.000    0.000    0.000    0.000 
#    0.000    0.000    0.000    0.000    0.000    0.000 
#
# Total GULP energy -78046.075466 kJ/mol
# GULP energy per Si atom -5574.719676 kJ/mol
# Density = 2.237805 g / cm^3
# Si number density = 22.429097 Si / 1000 Ang^3
#
#
#
# Elastic Constant Matrix: (Units=GPa)
#
#
# Indices 1 2 3 4 5 6 
#
# 1 114.9276 46.1959 4.6320 -6.7509 10.5110 -13.6943
# 2 46.1959 95.6218 27.3920 -9.0996 12.2713 3.8080
# 3 4.6320 27.3920 81.9746 -11.5357 8.9036 -3.3401
# 4 -6.7509 -9.0996 -11.5357 43.3892 -3.9456 -1.2839
# 5 10.5110 12.2713 8.9036 -3.9456 34.7182 1.9680
# 6 -13.6943 3.8080 -3.3401 -1.2839 1.9680 46.0312
#
#
#
# Elastic Compliance Matrix: (Units=1/GPa)
#
#
# Indices 1 2 3 4 5 6 
#
# 1 0.011818 -0.006064 0.001897 0.001012 -0.002048 0.004271
# 2 -0.006064 0.015152 -0.004522 0.000745 -0.002090 -0.003275
# 3 0.001897 -0.004522 0.014381 0.003012 -0.002445 0.002171
# 4 0.001012 0.000745 0.003012 0.024317 0.001360 0.001078
# 5 -0.002048 -0.002090 -0.002445 0.001360 0.031052 -0.001903
# 6 0.004271 -0.003275 0.002171 0.001078 -0.001903 0.023535
#
#
# Mechanical properties :
#
#
# Convention : Reuss Voigt Hill
#
# Bulk Modulus (GPa) = 41.71300 49.88488 45.79894
# Shear Modulus (GPa) = 34.33537 39.11466 36.72501
#
# Velocity S-wave (km/s) = 3.91684 4.18056 4.05085
# Velocity P-wave (km/s) = 6.25249 6.75220 6.50714
#
# Compressibility (1/GPa) = 0.02397334
#
# Stress axis : x y z
#
# Youngs Moduli (GPa) = 84.61928 65.99685 69.53808
#
# Poissons Ratio (x) = 0.40018 -0.13193
# Poissons Ratio (y) = 0.51310 0.31446
# Poissons Ratio (z) = -0.16054 0.29845
#
# Static dielectric constant tensor:
#      x y z
#    x 1.836040 -0.045820 -0.040800 
#    y -0.045820 1.823470 -0.094750 
#    z -0.040800 -0.094750 1.824850 
# 
# From -- ./inp_files/158987.got.cif
#   From: 2010.05.17/outbox.cif.g08.bks.cpg/sg2_80_cif.got.tgz:158987.got - 2010.06.03 11:33:40.
