data_PCOD9035751
_publ_section_title
;
Structure prediction by ZEFSAII (Michael W. Deem and Ramdas Pophale) SiO2 
 PCOD9035751
Probable space group: P -1
;
_chemical_formula_sum "Si O2"
_cell_formula_units_Z 14
_cell_length_a 19.290274
_cell_length_b 8.089160
_cell_length_c 7.786560
_cell_angle_alpha 56.300751
_cell_angle_beta 140.078229
_cell_angle_gamma 133.912250
_cell_volume 561.032275
_symmetry_space_group_name_H-M "P -1"
_symmetry_group_IT_number 2
_symmetry_cell_setting 'triclinic'
loop_
_space_group_symop_operation_xyz
x,y,z
-x,-y,-z
loop_
_atom_site_type_symbol
_atom_site_label
_atom_site_fract_x
_atom_site_fract_y
_atom_site_fract_z
Si Si1 0.290213 0.165958 0.079354
Si Si2 0.126348 0.035654 0.136139
Si Si3 0.866494 0.402613 0.507152
Si Si4 0.494790 0.081768 0.637878
Si Si5 0.383278 0.618326 0.826542
Si Si6 0.296227 0.493353 0.354630
Si Si7 0.856175 0.276814 0.159679
O O1 0.387994 0.421595 0.056067
O O2 0.233498 0.983316 0.921871
O O3 0.172622 0.145703 0.972348
O O4 0.367805 0.090191 0.394094
O O5 0.234711 0.228365 0.348062
O O6 0.118663 0.793445 0.256519
O O7 0.000000 0.000000 0.000000
O O8 0.746218 0.403071 0.346392
O O9 0.849608 0.328272 0.317852
O O10 0.998693 0.634613 0.649494
O O11 0.611225 0.337832 0.715000
O O12 0.500000 0.000000 0.500000
O O13 0.487354 0.887501 0.862867
O O14 0.364279 0.543043 0.635844
O O15 0.190824 0.568887 0.118020
#
# Coordination Sequence:
#
# PCOD9035751 Si02
#       7
#     2   2   2   2   2   2   2
#     4  12  25  45  72 101 137 177 230 271 344 398
#     4  12  25  43  68 102 136 181 222 279 336 407
#     4  11  24  43  66  99 141 173 231 275 342 397
#     4  10  22  46  71  97 136 176 229 280 331 398
#     4  11  24  44  70 101 134 181 221 280 336 404
#     4  11  23  44  70  97 140 173 226 279 337 391
#     4  11  23  42  68  99 135 180 220 287 329 406
#
# _framework density 24.954003
#
# number of rings (size 3 to 8) (size 9 to 14) (size 15 to 20)
#    0.000    0.857    5.714    1.714    4.000    4.571 
#    2.571    1.429    0.000    0.000    0.000    0.000 
#    0.000    0.000    0.000    0.000    0.000    0.000 
#
# Total GULP energy -78352.985196 kJ/mol
# GULP energy per Si atom -5596.641800 kJ/mol
# Density = 2.489721 g / cm^3
# Si number density = 24.954003 Si / 1000 Ang^3
#
#
#
# Elastic Constant Matrix: (Units=GPa)
#
#
# Indices 1 2 3 4 5 6 
#
# 1 98.0963 22.8000 10.7998 6.9424 17.7062 9.4855
# 2 22.8000 112.1161 8.8226 -1.3974 -6.7352 11.7582
# 3 10.7998 8.8226 36.2090 -7.0822 0.3653 4.1937
# 4 6.9424 -1.3974 -7.0822 41.5094 5.2256 -3.5343
# 5 17.7062 -6.7352 0.3653 5.2256 41.5043 5.5196
# 6 9.4855 11.7582 4.1937 -3.5343 5.5196 29.1482
#
#
#
# Elastic Compliance Matrix: (Units=1/GPa)
#
#
# Indices 1 2 3 4 5 6 
#
# 1 0.012373 -0.002395 -0.003272 -0.002227 -0.005106 -0.001893
# 2 -0.002395 0.010095 -0.001389 -0.000216 0.003195 -0.003724
# 3 -0.003272 -0.001389 0.030236 0.005410 0.000511 -0.002166
# 4 -0.002227 -0.000216 0.005410 0.026065 -0.002913 0.003745
# 5 -0.005106 0.003195 0.000511 -0.002913 0.027862 -0.005330
# 6 -0.001893 -0.003724 -0.002166 0.003745 -0.005330 0.038201
#
#
# Mechanical properties :
#
#
# Convention : Reuss Voigt Hill
#
# Bulk Modulus (GPa) = 25.91084 36.80735 31.35909
# Shear Modulus (GPa) = 29.10259 36.03232 32.56746
#
# Velocity S-wave (km/s) = 3.41874 3.80406 3.61654
# Velocity P-wave (km/s) = 5.09801 5.83751 5.48025
#
# Compressibility (1/GPa) = 0.03859389
#
# Stress axis : x y z
#
# Youngs Moduli (GPa) = 80.82027 99.05486 33.07368
#
# Poissons Ratio (x) = 0.23721 0.10821
# Poissons Ratio (y) = 0.19354 0.04593
# Poissons Ratio (z) = 0.26442 0.13755
#
# Static dielectric constant tensor:
#      x y z
#    x 2.002950 0.023210 0.000610 
#    y 0.023210 1.975710 -0.031930 
#    z 0.000610 -0.031930 1.977610 
# 
# From -- ./inp_files/233312.got.cif
#   From: 2010.05.17/outbox.cif.g08.bks.cpg/sg2_117_cif.got.tgz:233312.got - 2010.06.03 11:33:40.
