data_PCOD9035191
_publ_section_title
;
Structure prediction by ZEFSAII (Michael W. Deem and Ramdas Pophale) SiO2 
 PCOD9035191
Probable space group: P -1
;
_chemical_formula_sum "Si O2"
_cell_formula_units_Z 14
_cell_length_a 14.760063
_cell_length_b 9.831488
_cell_length_c 5.688292
_cell_angle_alpha 99.703663
_cell_angle_beta 112.517814
_cell_angle_gamma 50.411050
_cell_volume 584.307488
_symmetry_space_group_name_H-M "P -1"
_symmetry_group_IT_number 2
_symmetry_cell_setting 'triclinic'
loop_
_space_group_symop_operation_xyz
x,y,z
-x,-y,-z
loop_
_atom_site_type_symbol
_atom_site_label
_atom_site_fract_x
_atom_site_fract_y
_atom_site_fract_z
Si Si1 0.299711 0.103122 0.293748
Si Si2 0.376740 0.511820 0.098023
Si Si3 0.471449 0.136967 0.206161
Si Si4 0.764839 0.039546 0.188122
Si Si5 0.058405 0.896131 0.783937
Si Si6 0.354496 0.610216 0.602453
Si Si7 0.945963 0.699225 0.578365
O O1 0.351481 0.199657 0.264960
O O2 0.157890 0.227798 0.293525
O O3 0.401886 0.973389 0.550339
O O4 0.319204 0.975267 0.070207
O O5 0.440138 0.308132 0.111435
O O6 0.308317 0.588432 0.305097
O O7 0.492895 0.518160 0.251033
O O8 0.316188 0.569605 0.795458
O O9 0.500000 0.000000 0.000000
O O10 0.863429 0.842082 0.330274
O O11 0.820777 0.110100 0.100024
O O12 0.702209 0.186042 0.372350
O O13 0.044052 0.740715 0.734457
O O14 0.000000 0.000000 0.500000
O O15 0.000000 0.000000 0.000000
O O16 0.000000 0.500000 0.500000
#
# Coordination Sequence:
#
# PCOD9035191 Si02
#       7
#     2   2   2   2   2   2   2
#     4  11  24  42  73  97 145 192 242 294 380 435
#     4  10  23  40  62 100 139 180 243 288 351 432
#     4  11  25  43  68 103 148 193 239 299 374 449
#     4  11  24  45  72 102 139 196 243 301 374 436
#     4  10  22  45  72 100 138 183 240 297 359 434
#     4  10  23  38  68  97 136 184 233 300 350 430
#     4  11  25  46  74 108 146 190 248 311 370 439
#
# _framework density 23.959986000000001
#
# number of rings (size 3 to 8) (size 9 to 14) (size 15 to 20)
#    0.000    1.429    1.429    2.571   12.000    1.714 
#    2.571    0.000    0.000    0.000    0.000    0.000 
#    0.000    0.000    0.000    0.000    0.000    0.000 
#
# Total GULP energy -78026.612947 kJ/mol
# GULP energy per Si atom -5573.329496 kJ/mol
# Density = 2.390545 g / cm^3
# Si number density = 23.959986 Si / 1000 Ang^3
#
#
#
# Elastic Constant Matrix: (Units=GPa)
#
#
# Indices 1 2 3 4 5 6 
#
# 1 127.4683 24.5943 -2.9742 7.5312 -17.0084 11.4379
# 2 24.5943 142.9688 57.6247 27.5177 -11.4968 20.1974
# 3 -2.9742 57.6247 154.3491 15.1765 -15.8659 6.0748
# 4 7.5312 27.5177 15.1765 36.5866 1.5416 -6.0313
# 5 -17.0084 -11.4968 -15.8659 1.5416 40.5327 1.9631
# 6 11.4379 20.1974 6.0748 -6.0313 1.9631 29.4303
#
#
#
# Elastic Compliance Matrix: (Units=1/GPa)
#
#
# Indices 1 2 3 4 5 6 
#
# 1 0.009147 -0.000567 0.001307 -0.002902 0.004509 -0.004331
# 2 -0.000567 0.011422 -0.002763 -0.008935 0.002699 -0.009059
# 3 0.001307 -0.002763 0.008057 -0.001800 0.003028 -0.000846
# 4 -0.002902 -0.008935 -0.001800 0.038305 -0.006685 0.015928
# 5 0.004509 0.002699 0.003028 -0.006685 0.029134 -0.007543
# 6 -0.004331 -0.009059 -0.000846 0.015928 -0.007543 0.045821
#
#
# Mechanical properties :
#
#
# Convention : Reuss Voigt Hill
#
# Bulk Modulus (GPa) = 40.68213 64.80843 52.74528
# Shear Modulus (GPa) = 32.44117 44.34601 38.39359
#
# Velocity S-wave (km/s) = 3.68363 4.30680 4.00735
# Velocity P-wave (km/s) = 5.92522 7.19991 6.59344
#
# Compressibility (1/GPa) = 0.02458082
#
# Stress axis : x y z
#
# Youngs Moduli (GPa) = 109.32736 87.54727 124.11437
#
# Poissons Ratio (x) = 0.04967 -0.16227
# Poissons Ratio (y) = 0.06203 0.34290
# Poissons Ratio (z) = -0.14294 0.24188
#
# Static dielectric constant tensor:
#      x y z
#    x 2.165950 -0.169810 -0.080180 
#    y -0.169810 2.011070 0.024730 
#    z -0.080180 0.024730 1.988850 
# 
# From -- ./inp_files/91040.got.cif
#   From: 2010.05.17/outbox.cif.g08.bks.cpg/sg2_46_cif.got.tgz:91040.got - 2010.06.03 11:33:40.
