data_PCOD9035528
_publ_section_title
;
Structure prediction by ZEFSAII (Michael W. Deem and Ramdas Pophale) SiO2 
 PCOD9035528
Probable space group: P -1
;
_chemical_formula_sum "Si O2"
_cell_formula_units_Z 16
_cell_length_a 19.053803
_cell_length_b 6.677357
_cell_length_c 21.811126
_cell_angle_alpha 60.821693
_cell_angle_beta 161.010382
_cell_angle_gamma 123.235472
_cell_volume 750.446634
_symmetry_space_group_name_H-M "P -1"
_symmetry_group_IT_number 2
_symmetry_cell_setting 'triclinic'
loop_
_space_group_symop_operation_xyz
x,y,z
-x,-y,-z
loop_
_atom_site_type_symbol
_atom_site_label
_atom_site_fract_x
_atom_site_fract_y
_atom_site_fract_z
Si Si1 0.523555 0.271693 0.716494
Si Si2 0.564874 0.945956 0.898191
Si Si3 0.532917 0.219474 0.948617
Si Si4 0.786183 0.559243 0.290532
Si Si5 0.901547 0.696388 0.228636
Si Si6 0.256023 0.650924 0.439343
Si Si7 0.311195 0.943990 0.230083
Si Si8 0.062182 0.321360 0.940982
O O1 0.336183 0.411898 0.541150
O O2 0.593004 0.209343 0.715831
O O3 0.457213 0.024903 0.737610
O O4 0.745359 0.446366 0.908321
O O5 0.410463 0.696402 0.838183
O O6 0.579571 0.146705 0.930821
O O7 0.805114 0.902368 0.090773
O O8 0.306098 0.292897 0.758078
O O9 0.737361 0.442264 0.106911
O O10 0.500000 0.000000 0.000000
O O11 0.856439 0.694269 0.264211
O O12 0.000000 0.500000 0.500000
O O13 0.144262 0.700384 0.403511
O O14 0.071453 0.640876 0.235538
O O15 0.484651 0.876004 0.589088
O O16 0.126088 0.776182 0.147355
O O17 0.188988 0.117146 0.068158
#
# Coordination Sequence:
#
# PCOD9035528 Si02
#       8
#     2   2   2   2   2   2   2   2
#     4  11  25  40  64  99 127 164 212 259 310 375
#     4  11  23  42  62  85 123 164 208 253 308 366
#     4  11  20  41  63  82 111 163 214 249 306 364
#     4  11  25  38  59  89 121 161 206 257 306 362
#     4  11  23  41  61  87 122 164 207 254 310 365
#     4  11  25  40  64  99 129 162 211 261 310 373
#     4  10  23  43  70  93 128 167 206 254 315 382
#     4  10  22  46  67  94 128 167 205 255 318 375
#
# _framework density 21.320637999999999
#
# number of rings (size 3 to 8) (size 9 to 14) (size 15 to 20)
#    0.000    1.250    2.500    3.000    3.500    7.000 
#    0.000    0.000    0.000    0.000    0.000    0.000 
#    0.000    0.000    0.000    0.000    0.000    0.000 
#
# Total GULP energy -89421.103102 kJ/mol
# GULP energy per Si atom -5588.818944 kJ/mol
# Density = 2.127211 g / cm^3
# Si number density = 21.320638 Si / 1000 Ang^3
#
#
#
# Elastic Constant Matrix: (Units=GPa)
#
#
# Indices 1 2 3 4 5 6 
#
# 1 71.2417 25.9170 15.1766 -14.5778 9.0144 -8.8305
# 2 25.9170 63.2012 26.6045 -23.2734 5.4688 -12.4927
# 3 15.1766 26.6045 111.5199 -20.9595 1.7980 -3.9348
# 4 -14.5778 -23.2734 -20.9595 29.3176 -7.6588 4.2680
# 5 9.0144 5.4688 1.7980 -7.6588 35.7932 -7.3366
# 6 -8.8305 -12.4927 -3.9348 4.2680 -7.3366 33.3140
#
#
#
# Elastic Compliance Matrix: (Units=1/GPa)
#
#
# Indices 1 2 3 4 5 6 
#
# 1 0.017177 -0.005126 -0.000397 0.003304 -0.002485 0.001613
# 2 -0.005126 0.025865 -0.002274 0.015987 0.002208 0.006510
# 3 -0.000397 -0.002274 0.010655 0.005943 0.001141 -0.000210
# 4 0.003304 0.015987 0.005943 0.054581 0.008613 0.002477
# 5 -0.002485 0.002208 0.001141 0.008613 0.031260 0.006085
# 6 0.001613 0.006510 -0.000210 0.002477 0.006085 0.033884
#
#
# Mechanical properties :
#
#
# Convention : Reuss Voigt Hill
#
# Bulk Modulus (GPa) = 26.24517 42.37323 34.30920
# Shear Modulus (GPa) = 24.78740 31.56927 28.17834
#
# Velocity S-wave (km/s) = 3.41339 3.85215 3.63939
# Velocity P-wave (km/s) = 5.27934 6.30102 5.81267
#
# Compressibility (1/GPa) = 0.03810225
#
# Stress axis : x y z
#
# Youngs Moduli (GPa) = 58.21901 38.66292 93.85533
#
# Poissons Ratio (x) = 0.19819 0.03723
# Poissons Ratio (y) = 0.29843 0.21343
# Poissons Ratio (z) = 0.02310 0.08792
#
# Static dielectric constant tensor:
#      x y z
#    x 1.775850 0.021040 0.013490 
#    y 0.021040 1.782810 0.004730 
#    z 0.013490 0.004730 1.788330 
# 
# From -- ./inp_files/47589.got.cif
#   From: 2010.05.17/outbox.cif.g08.bks.cpg/sg2_24_cif.got.tgz:47589.got - 2010.06.03 11:33:40.
