data_PCOD9035298
_publ_section_title
;
Structure prediction by ZEFSAII (Michael W. Deem and Ramdas Pophale) SiO2 
 PCOD9035298
Probable space group: P -1
;
_chemical_formula_sum "Si O2"
_cell_formula_units_Z 15
_cell_length_a 6.584487
_cell_length_b 18.548661
_cell_length_c 5.329087
_cell_angle_alpha 58.613071
_cell_angle_beta 76.571214
_cell_angle_gamma 81.309693
_cell_volume 540.071896
_symmetry_space_group_name_H-M "P -1"
_symmetry_group_IT_number 2
_symmetry_cell_setting 'triclinic'
loop_
_space_group_symop_operation_xyz
x,y,z
-x,-y,-z
loop_
_atom_site_type_symbol
_atom_site_label
_atom_site_fract_x
_atom_site_fract_y
_atom_site_fract_z
Si Si1 0.503599 0.628579 0.182288
Si Si2 0.805772 0.273924 0.223042
Si Si3 0.534947 0.128236 0.746780
Si Si4 0.101304 0.209857 0.889506
Si Si5 0.500000 0.000000 0.500000
Si Si6 0.853788 0.046133 0.156939
Si Si7 0.933402 0.625660 0.742520
Si Si8 0.678160 0.524479 0.712758
O O1 0.358162 0.706432 0.990616
O O2 0.596950 0.614892 0.454989
O O3 0.347135 0.550086 0.344064
O O4 0.715107 0.624587 0.961773
O O5 0.035283 0.243524 0.119827
O O6 0.706308 0.198861 0.538630
O O7 0.855752 0.362521 0.181327
O O8 0.327968 0.173375 0.827869
O O9 0.502281 0.082154 0.574344
O O10 0.618272 0.066166 0.066011
O O11 0.059190 0.289422 0.577648
O O12 0.946481 0.133452 0.038424
O O13 0.237747 0.013610 0.499309
O O14 0.000000 0.000000 0.000000
O O15 0.903079 0.544521 0.722047
O O16 0.500000 0.500000 0.000000
#
# Coordination Sequence:
#
# PCOD9035298 Si02
#       8
#     2   2   2   2   1   2   2   2
#     4  10  22  45  73 108 148 199 248 304 369 434
#     4  12  26  44  76 109 144 198 250 299 376 438
#     4  12  27  49  71 109 144 189 243 305 366 437
#     4  12  26  44  70 108 146 190 243 305 365 444
#     4  12  26  48  74 102 142 192 232 302 360 436
#     4  12  27  47  73 107 143 190 240 295 373 441
#     4  11  23  45  69 109 148 194 247 309 365 436
#     4   9  21  43  73 106 154 195 245 309 362 435
#
# _framework density 27.774083000000001
#
# number of rings (size 3 to 8) (size 9 to 14) (size 15 to 20)
#    0.000    0.800    5.333    1.200    0.000    7.467 
#    0.000    9.333    0.000    0.000    0.000    0.000 
#    0.000    0.000    0.000    0.000    0.000    0.000 
#
# Total GULP energy -83800.749190 kJ/mol
# GULP energy per Si atom -5586.716613 kJ/mol
# Density = 2.771087 g / cm^3
# Si number density = 27.774083 Si / 1000 Ang^3
#
#
#
# Elastic Constant Matrix: (Units=GPa)
#
#
# Indices 1 2 3 4 5 6 
#
# 1 106.2808 34.0135 44.7305 0.8614 -34.6115 13.4318
# 2 34.0135 102.4555 28.6418 -12.8039 -21.1232 35.9828
# 3 44.7305 28.6418 127.8740 -12.1299 -23.3410 14.3942
# 4 0.8614 -12.8039 -12.1299 42.0104 -4.1320 -16.9719
# 5 -34.6115 -21.1232 -23.3410 -4.1320 70.3097 -0.3227
# 6 13.4318 35.9828 14.3942 -16.9719 -0.3227 66.1911
#
#
#
# Elastic Compliance Matrix: (Units=1/GPa)
#
#
# Indices 1 2 3 4 5 6 
#
# 1 0.013210 -0.002353 -0.003314 -0.001964 0.004575 -0.001162
# 2 -0.002353 0.013817 -0.000886 0.001693 0.002769 -0.006393
# 3 -0.003314 -0.000886 0.009731 0.002642 0.001487 -0.000277
# 4 -0.001964 0.001693 0.002642 0.027764 0.002078 0.006033
# 5 0.004575 0.002769 0.001487 0.002078 0.017913 -0.002137
# 6 -0.001162 -0.006393 -0.000277 0.006033 -0.002137 0.020416
#
#
# Mechanical properties :
#
#
# Convention : Reuss Voigt Hill
#
# Bulk Modulus (GPa) = 42.28120 61.26464 51.77292
# Shear Modulus (GPa) = 40.37445 50.98388 45.67917
#
# Velocity S-wave (km/s) = 3.81684 4.28911 4.05985
# Velocity P-wave (km/s) = 5.88903 6.82896 6.37634
#
# Compressibility (1/GPa) = 0.02365117
#
# Stress axis : x y z
#
# Youngs Moduli (GPa) = 75.70296 72.37455 102.76261
#
# Poissons Ratio (x) = 0.17030 0.34057
# Poissons Ratio (y) = 0.17813 0.09105
# Poissons Ratio (z) = 0.25089 0.06413
#
# Static dielectric constant tensor:
#      x y z
#    x 2.168690 0.044450 -0.026630 
#    y 0.044450 2.270770 0.056870 
#    z -0.026630 0.056870 2.820010 
# 
# From -- ./inp_files/10214.got.cif
#   From: 2010.05.17/outbox.cif.g08.bks.cpg/sg2_6_cif.got.tgz:10214.got - 2010.06.03 11:33:40.
