data_PCOD9035628
_publ_section_title
;
Structure prediction by ZEFSAII (Michael W. Deem and Ramdas Pophale) SiO2 
 PCOD9035628
Probable space group: P -1
;
_chemical_formula_sum "Si O2"
_cell_formula_units_Z 12
_cell_length_a 20.750556
_cell_length_b 7.623381
_cell_length_c 5.565930
_cell_angle_alpha 134.207079
_cell_angle_beta 63.767414
_cell_angle_gamma 131.728780
_cell_volume 470.623320
_symmetry_space_group_name_H-M "P -1"
_symmetry_group_IT_number 2
_symmetry_cell_setting 'triclinic'
loop_
_space_group_symop_operation_xyz
x,y,z
-x,-y,-z
loop_
_atom_site_type_symbol
_atom_site_label
_atom_site_fract_x
_atom_site_fract_y
_atom_site_fract_z
Si Si1 0.464504 0.828458 0.643778
Si Si2 0.776542 0.276929 0.352278
Si Si3 0.902541 0.319076 0.585607
Si Si4 0.903370 0.809812 0.370608
Si Si5 0.616684 0.802927 0.372114
Si Si6 0.678034 0.718807 0.701666
O O1 0.516189 0.669984 0.407172
O O2 0.359895 0.623820 0.625657
O O3 0.500000 0.000000 0.500000
O O4 0.500000 0.000000 0.000000
O O5 0.836900 0.244355 0.406496
O O6 0.827827 0.614290 0.503453
O O7 0.684890 0.145692 0.509963
O O8 0.758015 0.046207 0.949168
O O9 0.000000 0.500000 0.500000
O O10 0.887952 0.028289 0.457041
O O11 0.899820 0.557878 0.978749
O O12 0.000000 0.000000 0.500000
O O13 0.646232 0.778186 0.561340
O O14 0.633605 0.656099 0.979716
#
# Coordination Sequence:
#
# PCOD9035628 Si02
#       6
#     2   2   2   2   2   2
#     4  12  24  42  70 108 144 196 259 312 391 471
#     4  10  26  45  74 108 152 206 264 331 390 470
#     4  12  26  49  78 112 154 208 268 326 397 475
#     4  12  26  49  78 112 154 208 268 326 397 475
#     4  10  22  46  69  97 145 197 252 312 391 457
#     4  10  22  46  69  97 145 197 252 312 391 457
#
# _framework density 25.498096
#
# number of rings (size 3 to 8) (size 9 to 14) (size 15 to 20)
#    1.000    0.000    1.667    5.000    0.000    0.000 
#   12.000    0.000    0.000    0.000    0.000    0.000 
#    0.000    0.000    0.000    0.000    0.000    0.000 
#
# Total GULP energy -66852.895155 kJ/mol
# GULP energy per Si atom -5571.074596 kJ/mol
# Density = 2.544006 g / cm^3
# Si number density = 25.498096 Si / 1000 Ang^3
#
#
#
# Elastic Constant Matrix: (Units=GPa)
#
#
# Indices 1 2 3 4 5 6 
#
# 1 90.8312 59.8306 35.0034 8.2874 37.2563 -31.3936
# 2 59.8306 216.1654 42.2058 32.7815 12.3474 -24.9161
# 3 35.0034 42.2058 136.2565 1.8634 30.1158 -14.6685
# 4 8.2874 32.7815 1.8634 41.0944 3.3696 2.0323
# 5 37.2563 12.3474 30.1158 3.3696 60.6162 -1.2038
# 6 -31.3936 -24.9161 -14.6685 2.0323 -1.2038 58.6355
#
#
#
# Elastic Compliance Matrix: (Units=1/GPa)
#
#
# Indices 1 2 3 4 5 6 
#
# 1 0.022645 -0.004172 -0.000684 -0.000676 -0.012494 0.009947
# 2 -0.004172 0.006678 -0.001357 -0.004624 0.002144 0.000469
# 3 -0.000684 -0.001357 0.008874 0.001068 -0.003749 0.001163
# 4 -0.000676 -0.004624 0.001068 0.028328 -0.000809 -0.003058
# 5 -0.012494 0.002144 -0.003749 -0.000809 0.025524 -0.006164
# 6 0.009947 0.000469 0.001163 -0.003058 -0.006164 0.022850
#
#
# Mechanical properties :
#
#
# Convention : Reuss Voigt Hill
#
# Bulk Modulus (GPa) = 38.80055 79.70364 59.25209
# Shear Modulus (GPa) = 36.78741 52.48344 44.63542
#
# Velocity S-wave (km/s) = 3.80248 4.54180 4.18848
# Velocity P-wave (km/s) = 5.87610 7.67010 6.83224
#
# Compressibility (1/GPa) = 0.02577283
#
# Stress axis : x y z
#
# Youngs Moduli (GPa) = 44.15997 149.73478 112.68519
#
# Poissons Ratio (x) = 0.62462 0.07704
# Poissons Ratio (y) = 0.18422 0.15294
# Poissons Ratio (z) = 0.03019 0.20322
#
# Static dielectric constant tensor:
#      x y z
#    x 1.978300 -0.104280 -0.019600 
#    y -0.104280 1.750170 0.279310 
#    z -0.019600 0.279310 2.031040 
# 
# From -- ./inp_files/128138.got.cif
#   From: 2010.05.17/outbox.cif.g08.bks.cpg/sg2_65_cif.got.tgz:128138.got - 2010.06.03 11:33:40.
