data_PCOD9035112
_publ_section_title
;
Structure prediction by ZEFSAII (Michael W. Deem and Ramdas Pophale) SiO2 
 PCOD9035112
Probable space group: P -1
;
_chemical_formula_sum "Si O2"
_cell_formula_units_Z 14
_cell_length_a 8.237142
_cell_length_b 6.893296
_cell_length_c 11.325218
_cell_angle_alpha 105.374892
_cell_angle_beta 103.644730
_cell_angle_gamma 99.768024
_cell_volume 583.749145
_symmetry_space_group_name_H-M "P -1"
_symmetry_group_IT_number 2
_symmetry_cell_setting 'triclinic'
loop_
_space_group_symop_operation_xyz
x,y,z
-x,-y,-z
loop_
_atom_site_type_symbol
_atom_site_label
_atom_site_fract_x
_atom_site_fract_y
_atom_site_fract_z
Si Si1 0.342275 0.420016 0.301099
Si Si2 0.741349 0.194856 0.079280
Si Si3 0.084248 0.056960 0.792854
Si Si4 0.036307 0.559028 0.149964
Si Si5 0.457406 0.021861 0.200641
Si Si6 0.342145 0.230989 0.677769
Si Si7 0.106928 0.330736 0.458528
O O1 0.198127 0.483895 0.208423
O O2 0.351315 0.184087 0.247942
O O3 0.520375 0.565931 0.309819
O O4 0.272632 0.440393 0.424453
O O5 0.599527 0.141485 0.149271
O O6 0.867706 0.416890 0.161107
O O7 0.856326 0.026953 0.088746
O O8 0.654181 0.163333 0.930435
O O9 0.255924 0.204970 0.788151
O O10 0.951355 0.199444 0.794355
O O11 0.013892 0.853703 0.668438
O O12 0.000000 0.500000 0.000000
O O13 0.548232 0.943113 0.315755
O O14 0.181512 0.220632 0.561359
O O15 0.000000 0.500000 0.500000
#
# Coordination Sequence:
#
# PCOD9035112 Si02
#       7
#     2   2   2   2   2   2   2
#     4  12  26  44  71 105 146 177 237 294 345 410
#     4  10  22  45  71 103 146 183 229 288 346 425
#     4  11  25  48  73 100 140 188 234 286 350 417
#     4  12  25  41  73 108 144 182 234 282 352 425
#     4  10  24  44  72 106 142 188 227 287 357 410
#     4  11  26  46  72 103 138 186 240 286 345 421
#     4  12  28  50  73  99 139 191 238 292 347 407
#
# _framework density 23.982906
#
# number of rings (size 3 to 8) (size 9 to 14) (size 15 to 20)
#    0.000    0.857    1.429    4.286    8.000    1.714 
#    0.000    5.714    0.000    0.000    0.000    0.000 
#    0.000    0.000    0.000    0.000    0.000    0.000 
#
# Total GULP energy -78282.721843 kJ/mol
# GULP energy per Si atom -5591.622989 kJ/mol
# Density = 2.392832 g / cm^3
# Si number density = 23.982906 Si / 1000 Ang^3
#
#
#
# Elastic Constant Matrix: (Units=GPa)
#
#
# Indices 1 2 3 4 5 6 
#
# 1 92.2183 58.4414 25.6803 15.4199 9.5969 -15.8056
# 2 58.4414 130.4016 40.3665 4.3112 -4.2938 -27.7740
# 3 25.6803 40.3665 70.9168 -9.7516 8.8505 -26.9474
# 4 15.4199 4.3112 -9.7516 39.2706 -5.6883 5.7255
# 5 9.5969 -4.2938 8.8505 -5.6883 35.4501 -8.3815
# 6 -15.8056 -27.7740 -26.9474 5.7255 -8.3815 78.0409
#
#
#
# Elastic Compliance Matrix: (Units=1/GPa)
#
#
# Indices 1 2 3 4 5 6 
#
# 1 0.018206 -0.007243 -0.002746 -0.007969 -0.006385 0.000060
# 2 -0.007243 0.012890 -0.004472 0.000776 0.005256 0.002084
# 3 -0.002746 -0.004472 0.020361 0.005585 -0.003004 0.004151
# 4 -0.007969 0.000776 0.005585 0.030857 0.005554 -0.001077
# 5 -0.006385 0.005256 -0.003004 0.005554 0.032844 0.002660
# 6 0.000060 0.002084 0.004151 -0.001077 0.002660 0.015366
#
#
# Mechanical properties :
#
#
# Convention : Reuss Voigt Hill
#
# Bulk Modulus (GPa) = 44.37459 60.27924 52.32691
# Shear Modulus (GPa) = 29.94791 41.82222 35.88506
#
# Velocity S-wave (km/s) = 3.53756 4.18045 3.87237
# Velocity P-wave (km/s) = 5.93536 6.96351 6.46989
#
# Compressibility (1/GPa) = 0.02253542
#
# Stress axis : x y z
#
# Youngs Moduli (GPa) = 54.92671 77.57771 49.11418
#
# Poissons Ratio (x) = 0.56192 0.13486
# Poissons Ratio (y) = 0.39785 0.21962
# Poissons Ratio (z) = 0.15082 0.34690
#
# Static dielectric constant tensor:
#      x y z
#    x 2.030260 0.003080 0.026570 
#    y 0.003080 1.988600 -0.074710 
#    z 0.026570 -0.074710 1.944440 
# 
# From -- ./inp_files/53491.got.cif
#   From: 2010.05.17/outbox.cif.g08.bks.cpg/sg2_27_cif.got.tgz:53491.got - 2010.06.03 11:33:40.
