data_PCOD9035335
_publ_section_title
;
Structure prediction by ZEFSAII (Michael W. Deem and Ramdas Pophale) SiO2 
 PCOD9035335
Probable space group: P -1
;
_chemical_formula_sum "Si O2"
_cell_formula_units_Z 16
_cell_length_a 13.730797
_cell_length_b 9.140703
_cell_length_c 13.208620
_cell_angle_alpha 97.033675
_cell_angle_beta 31.202500
_cell_angle_gamma 118.396705
_cell_volume 590.437990
_symmetry_space_group_name_H-M "P -1"
_symmetry_group_IT_number 2
_symmetry_cell_setting 'triclinic'
loop_
_space_group_symop_operation_xyz
x,y,z
-x,-y,-z
loop_
_atom_site_type_symbol
_atom_site_label
_atom_site_fract_x
_atom_site_fract_y
_atom_site_fract_z
Si Si1 0.455362 0.314311 0.269782
Si Si2 0.963275 0.665584 0.173286
Si Si3 0.898771 0.875167 0.688778
Si Si4 0.101041 0.670157 0.511681
Si Si5 0.623376 0.265518 0.313933
Si Si6 0.387964 0.878543 0.981869
Si Si7 0.497734 0.667481 0.193586
Si Si8 0.932767 0.965479 0.172998
O O1 0.630890 0.384107 0.220426
O O2 0.593990 0.287685 0.058990
O O3 0.000000 0.000000 0.500000
O O4 0.156212 0.082305 0.539549
O O5 0.756961 0.418289 0.305738
O O6 0.825597 0.742497 0.279242
O O7 0.113826 0.763558 0.156526
O O8 0.203652 0.771349 0.886608
O O9 0.615425 0.764651 0.982444
O O10 0.899444 0.697451 0.685786
O O11 0.572816 0.541290 0.739256
O O12 0.000000 0.500000 0.500000
O O13 0.246576 0.627059 0.447605
O O14 0.373878 0.921358 0.280387
O O15 0.308838 0.055825 0.594846
O O16 0.500000 0.000000 0.000000
O O17 0.776449 0.846339 0.020074
O O18 0.000000 0.000000 0.000000
#
# Coordination Sequence:
#
# PCOD9035335 Si02
#       8
#     2   2   2   2   2   2   2   2
#     4  10  23  45  72 104 146 198 244 300 383 438
#     4  10  22  45  74 102 143 198 244 306 387 438
#     4  11  26  46  72 103 147 201 247 305 371 441
#     4  11  26  45  67 102 142 188 251 300 360 439
#     4  10  22  47  74 104 146 191 249 309 374 459
#     4  10  23  44  70 103 146 191 242 306 372 444
#     4  12  26  46  73 106 150 191 245 313 370 449
#     4  12  25  43  71 109 149 190 248 312 381 447
#
# _framework density 27.098524999999999
#
# number of rings (size 3 to 8) (size 9 to 14) (size 15 to 20)
#    0.000    1.250    2.500    1.875    5.250    1.500 
#    4.500    1.250    0.000    0.000    0.000    0.000 
#    0.000    0.000    0.000    0.000    0.000    0.000 
#
# Total GULP energy -89269.387094 kJ/mol
# GULP energy per Si atom -5579.336693 kJ/mol
# Density = 2.703685 g / cm^3
# Si number density = 27.098525 Si / 1000 Ang^3
#
#
#
# Elastic Constant Matrix: (Units=GPa)
#
#
# Indices 1 2 3 4 5 6 
#
# 1 109.5240 47.1182 27.1382 2.1253 -4.7542 12.8802
# 2 47.1182 131.5175 22.0104 8.1573 -12.3493 0.7626
# 3 27.1382 22.0104 106.3168 12.3065 -15.0845 9.7007
# 4 2.1253 8.1573 12.3065 54.5887 -2.1797 -17.7604
# 5 -4.7542 -12.3493 -15.0845 -2.1797 34.9167 -5.2810
# 6 12.8802 0.7626 9.7007 -17.7604 -5.2810 61.6829
#
#
#
# Elastic Compliance Matrix: (Units=1/GPa)
#
#
# Indices 1 2 3 4 5 6 
#
# 1 0.011514 -0.003853 -0.002073 -0.000150 -0.001027 -0.002162
# 2 -0.003853 0.009367 -0.000568 -0.000763 0.002614 0.000782
# 3 -0.002073 -0.000568 0.011080 -0.002752 0.003865 -0.001764
# 4 -0.000150 -0.000763 -0.002752 0.021263 0.000857 0.006669
# 5 -0.001027 0.002614 0.003865 0.000857 0.031529 0.002520
# 6 -0.002162 0.000782 -0.001764 0.006669 0.002520 0.019067
#
#
# Mechanical properties :
#
#
# Convention : Reuss Voigt Hill
#
# Bulk Modulus (GPa) = 52.70116 59.98799 56.34458
# Shear Modulus (GPa) = 40.60680 46.97710 43.79195
#
# Velocity S-wave (km/s) = 3.87523 4.16813 4.02435
# Velocity P-wave (km/s) = 6.28597 6.73420 6.51394
#
# Compressibility (1/GPa) = 0.01897491
#
# Stress axis : x y z
#
# Youngs Moduli (GPa) = 86.85067 106.75625 90.24931
#
# Poissons Ratio (x) = 0.41131 0.18704
# Poissons Ratio (y) = 0.33462 0.05126
# Poissons Ratio (z) = 0.18000 0.06064
#
# Static dielectric constant tensor:
#      x y z
#    x 1.906580 0.092970 0.313000 
#    y 0.092970 2.224650 0.061830 
#    z 0.313000 0.061830 1.934020 
# 
# From -- ./inp_files/532547.got.cif
#   From: 2010.05.17/outbox.cif.g08.bks.cpg/sg2_267_cif.got.tgz:532547.got - 2010.06.03 11:33:40.
