data_PCOD9035608
_publ_section_title
;
Structure prediction by ZEFSAII (Michael W. Deem and Ramdas Pophale) SiO2 
 PCOD9035608
Probable space group: P -1
;
_chemical_formula_sum "Si O2"
_cell_formula_units_Z 15
_cell_length_a 11.951522
_cell_length_b 11.953335
_cell_length_c 11.009732
_cell_angle_alpha 108.193391
_cell_angle_beta 81.867512
_cell_angle_gamma 36.663075
_cell_volume 645.028413
_symmetry_space_group_name_H-M "P -1"
_symmetry_group_IT_number 2
_symmetry_cell_setting 'triclinic'
loop_
_space_group_symop_operation_xyz
x,y,z
-x,-y,-z
loop_
_atom_site_type_symbol
_atom_site_label
_atom_site_fract_x
_atom_site_fract_y
_atom_site_fract_z
Si Si1 0.000000 0.500000 0.500000
Si Si2 0.143228 0.617127 0.417998
Si Si3 0.724716 0.693189 0.360590
Si Si4 0.652164 0.517665 0.905191
Si Si5 0.940236 0.362523 0.010215
Si Si6 0.955544 0.058131 0.348222
Si Si7 0.068815 0.049489 0.083602
Si Si8 0.596146 0.179120 0.392412
O O1 0.006172 0.352349 0.491145
O O2 0.926644 0.530478 0.381694
O O3 0.202193 0.544335 0.242843
O O4 0.026757 0.858168 0.524860
O O5 0.412096 0.371339 0.369192
O O6 0.857732 0.556125 0.161663
O O7 0.565936 0.727403 0.443177
O O8 0.500000 0.000000 0.500000
O O9 0.695269 0.542734 0.034020
O O10 0.363497 0.777598 0.990322
O O11 0.788065 0.262657 0.808244
O O12 0.009328 0.213533 0.062212
O O13 0.180199 0.118357 0.797635
O O14 0.730156 0.172473 0.416294
O O15 0.916293 0.175176 0.274189
O O16 0.000000 0.000000 0.000000
#
# Coordination Sequence:
#
# PCOD9035608 Si02
#       8
#     1   2   2   2   2   2   2   2
#     4  10  26  48  70 100 140 188 242 286 354 430
#     4  11  22  45  69 100 146 185 241 296 349 432
#     4  11  27  49  74 102 141 189 242 299 354 430
#     4  11  24  41  67 108 141 185 237 294 368 423
#     4  11  25  45  72 102 140 189 236 299 358 421
#     4  11  23  39  71 105 141 188 232 301 361 419
#     4  12  21  42  65 100 152 181 231 290 354 443
#     4  10  22  46  69 106 139 186 241 289 370 421
#
# _framework density 23.254788999999999
#
# number of rings (size 3 to 8) (size 9 to 14) (size 15 to 20)
#    0.000    1.067    4.000    2.800    3.733    3.733 
#    0.000    1.333    0.000    0.000    0.000    0.000 
#    0.000    0.000    0.000    0.000    0.000    0.000 
#
# Total GULP energy -83559.362168 kJ/mol
# GULP energy per Si atom -5570.624145 kJ/mol
# Density = 2.320186 g / cm^3
# Si number density = 23.254789 Si / 1000 Ang^3
#
#
#
# Elastic Constant Matrix: (Units=GPa)
#
#
# Indices 1 2 3 4 5 6 
#
# 1 96.1884 25.4798 29.2181 -1.0181 19.7611 -2.5788
# 2 25.4798 116.1444 15.5900 -8.6384 7.2730 -14.8680
# 3 29.2181 15.5900 88.6703 -9.4958 18.1728 -14.0472
# 4 -1.0181 -8.6384 -9.4958 29.5118 4.8274 2.9294
# 5 19.7611 7.2730 18.1728 4.8274 27.2840 -7.5851
# 6 -2.5788 -14.8680 -14.0472 2.9294 -7.5851 46.9560
#
#
#
# Elastic Compliance Matrix: (Units=1/GPa)
#
#
# Indices 1 2 3 4 5 6 
#
# 1 0.013408 -0.002322 -0.002660 0.000443 -0.007986 -0.002112
# 2 -0.002322 0.009700 -0.000141 0.002535 -0.000519 0.002660
# 3 -0.002660 -0.000141 0.014896 0.005756 -0.008260 0.002572
# 4 0.000443 0.002535 0.005756 0.038668 -0.012181 -0.001831
# 5 -0.007986 -0.000519 -0.008260 -0.012181 0.051919 0.006073
# 6 -0.002112 0.002660 0.002572 -0.001831 0.006073 0.023887
#
#
# Mechanical properties :
#
#
# Convention : Reuss Voigt Hill
#
# Bulk Modulus (GPa) = 36.02691 49.06431 42.54561
# Shear Modulus (GPa) = 29.07353 36.13137 32.60245
#
# Velocity S-wave (km/s) = 3.53968 3.94600 3.74835
# Velocity P-wave (km/s) = 5.67729 6.47345 6.08840
#
# Compressibility (1/GPa) = 0.02775703
#
# Stress axis : x y z
#
# Youngs Moduli (GPa) = 74.58177 103.09541 67.13188
#
# Poissons Ratio (x) = 0.23936 0.17860
# Poissons Ratio (y) = 0.17316 0.00948
# Poissons Ratio (z) = 0.19842 0.01456
#
# Static dielectric constant tensor:
#      x y z
#    x 1.822730 0.086280 -0.011960 
#    y 0.086280 1.812980 0.029750 
#    z -0.011960 0.029750 1.970320 
# 
# From -- ./inp_files/426331.got.cif
#   From: 2010.05.17/outbox.cif.g08.bks.cpg/sg2_214_cif.got.tgz:426331.got - 2010.06.03 11:33:40.
