data_PCOD9035623
_publ_section_title
;
Structure prediction by ZEFSAII (Michael W. Deem and Ramdas Pophale) SiO2 
 PCOD9035623
Probable space group: P -1
;
_chemical_formula_sum "Si O2"
_cell_formula_units_Z 16
_cell_length_a 21.901424
_cell_length_b 11.645962
_cell_length_c 19.002338
_cell_angle_alpha 30.033672
_cell_angle_beta 17.677358
_cell_angle_gamma 28.404968
_cell_volume 687.164389
_symmetry_space_group_name_H-M "P -1"
_symmetry_group_IT_number 2
_symmetry_cell_setting 'triclinic'
loop_
_space_group_symop_operation_xyz
x,y,z
-x,-y,-z
loop_
_atom_site_type_symbol
_atom_site_label
_atom_site_fract_x
_atom_site_fract_y
_atom_site_fract_z
Si Si1 0.117635 0.143238 0.341388
Si Si2 0.255428 0.582808 0.284888
Si Si3 0.225119 0.835418 0.507885
Si Si4 0.959363 0.588256 0.848735
Si Si5 0.376381 0.642691 0.653175
Si Si6 0.689431 0.194025 0.033661
Si Si7 0.588692 0.810336 0.441268
Si Si8 0.841248 0.855905 0.447249
O O1 0.935506 0.311789 0.505585
O O2 0.177549 0.287956 0.135985
O O3 0.000000 0.000000 0.500000
O O4 0.288133 0.944730 0.309177
O O5 0.295138 0.774687 0.084649
O O6 0.208846 0.382750 0.391800
O O7 0.479003 0.429291 0.159757
O O8 0.024298 0.757098 0.744436
O O9 0.404602 0.593094 0.471949
O O10 0.171816 0.056700 0.504304
O O11 0.194323 0.410560 0.659083
O O12 0.821612 0.435981 0.110374
O O13 0.408441 0.710999 0.662671
O O14 0.326780 0.902741 0.532158
O O15 0.913988 0.192640 0.818869
O O16 0.658567 0.952795 0.225650
O O17 0.500000 0.000000 0.500000
#
# Coordination Sequence:
#
# PCOD9035623 Si02
#       8
#     2   2   2   2   2   2   2   2
#     4  10  22  46  69  95 137 178 223 279 329 401
#     4  11  24  43  68 102 134 172 228 278 337 398
#     4  10  24  43  65  97 137 175 224 283 331 395
#     4  10  23  42  66  93 130 181 227 267 342 393
#     4  11  24  43  65  98 132 179 230 274 332 404
#     4  11  23  41  68 100 131 179 216 277 345 387
#     4  11  23  43  65  97 138 173 222 279 331 400
#     4  12  23  43  68 102 137 170 226 281 335 401
#
# _framework density 23.284095000000001
#
# number of rings (size 3 to 8) (size 9 to 14) (size 15 to 20)
#    0.000    1.250    3.750    1.500    0.000    3.500 
#    2.250    0.000    0.000    0.000    0.000    0.000 
#    0.000    0.000    0.000    0.000    0.000    0.000 
#
# Total GULP energy -89262.878973 kJ/mol
# GULP energy per Si atom -5578.929936 kJ/mol
# Density = 2.323110 g / cm^3
# Si number density = 23.284095 Si / 1000 Ang^3
#
#
#
# Elastic Constant Matrix: (Units=GPa)
#
#
# Indices 1 2 3 4 5 6 
#
# 1 108.3872 48.5299 38.5975 3.8295 -24.1637 13.3245
# 2 48.5299 116.4090 13.9513 4.2647 -4.9475 2.8131
# 3 38.5975 13.9513 49.8684 -9.4825 -16.6662 4.8594
# 4 3.8295 4.2647 -9.4825 31.1473 -6.5922 -4.8045
# 5 -24.1637 -4.9475 -16.6662 -6.5922 20.7935 -2.5657
# 6 13.3245 2.8131 4.8594 -4.8045 -2.5657 60.1492
#
#
#
# Elastic Compliance Matrix: (Units=1/GPa)
#
#
# Indices 1 2 3 4 5 6 
#
# 1 0.017781 -0.005785 -0.008335 -0.001866 0.011689 -0.002646
# 2 -0.005785 0.010939 -0.000835 -0.002118 -0.005406 0.000438
# 3 -0.008335 -0.000835 0.039771 0.019467 0.028341 0.001436
# 4 -0.001866 -0.002118 0.019467 0.044975 0.027648 0.003711
# 5 0.011689 -0.005406 0.028341 0.027648 0.092056 0.001509
# 6 -0.002646 0.000438 0.001436 0.003711 0.001509 0.017436
#
#
# Mechanical properties :
#
#
# Convention : Reuss Voigt Hill
#
# Bulk Modulus (GPa) = 25.91876 52.98022 39.44949
# Shear Modulus (GPa) = 18.81615 33.99041 26.40328
#
# Velocity S-wave (km/s) = 2.84581 3.82489 3.37109
# Velocity P-wave (km/s) = 4.68550 6.50459 5.66849
#
# Compressibility (1/GPa) = 0.03858209
#
# Stress axis : x y z
#
# Youngs Moduli (GPa) = 56.23846 91.41265 25.14399
#
# Poissons Ratio (x) = 0.52882 0.20957
# Poissons Ratio (y) = 0.32534 0.02100
# Poissons Ratio (z) = 0.46874 0.07634
#
# Static dielectric constant tensor:
#      x y z
#    x 1.914900 -0.067190 0.037260 
#    y -0.067190 1.953450 -0.030750 
#    z 0.037260 -0.030750 1.909120 
# 
# From -- ./inp_files/472709.got.cif
#   From: 2010.05.17/outbox.cif.g08.bks.cpg/sg2_237_cif.got.tgz:472709.got - 2010.06.03 11:33:40.
