data_PCOD9035170
_publ_section_title
;
Structure prediction by ZEFSAII (Michael W. Deem and Ramdas Pophale) SiO2 
 PCOD9035170
Probable space group: P -1
;
_chemical_formula_sum "Si O2"
_cell_formula_units_Z 16
_cell_length_a 10.560767
_cell_length_b 10.989397
_cell_length_c 19.951476
_cell_angle_alpha 147.532079
_cell_angle_beta 31.783674
_cell_angle_gamma 137.745734
_cell_volume 652.548421
_symmetry_space_group_name_H-M "P -1"
_symmetry_group_IT_number 2
_symmetry_cell_setting 'triclinic'
loop_
_space_group_symop_operation_xyz
x,y,z
-x,-y,-z
loop_
_atom_site_type_symbol
_atom_site_label
_atom_site_fract_x
_atom_site_fract_y
_atom_site_fract_z
Si Si1 0.819120 0.506974 0.798159
Si Si2 0.564808 0.053578 0.643734
Si Si3 0.921066 0.469230 0.443128
Si Si4 0.068439 0.320994 0.725359
Si Si5 0.286112 0.036092 0.889432
Si Si6 0.843384 0.981833 0.267640
Si Si7 0.713085 0.226539 0.102088
Si Si8 0.786925 0.944218 0.745087
O O1 0.693245 0.264940 0.723471
O O2 0.906207 0.589970 0.723303
O O3 0.012855 0.454253 0.743933
O O4 0.668687 0.700619 0.987710
O O5 0.379380 0.962987 0.742455
O O6 0.411102 0.153233 0.697910
O O7 0.752567 0.873351 0.458812
O O8 0.835216 0.713684 0.576352
O O9 0.000000 0.500000 0.500000
O O10 0.756779 0.234875 0.411785
O O11 0.193720 0.509364 0.807687
O O12 0.821208 0.179029 0.796575
O O13 0.364410 0.876990 0.838983
O O14 0.000000 0.000000 0.000000
O O15 0.983078 0.000541 0.283227
O O16 0.054459 0.890071 0.084044
O O17 0.455670 0.145791 0.146054
#
# Coordination Sequence:
#
# PCOD9035170 Si02
#       8
#     2   2   2   2   2   2   2   2
#     4  12  23  45  71 102 142 178 232 288 350 417
#     4  12  25  42  70 105 138 186 229 294 350 414
#     4  10  22  45  71  98 134 182 234 281 339 418
#     4  12  27  45  70 109 144 179 234 290 356 418
#     4  12  23  44  68  98 141 178 234 286 342 421
#     4  11  24  48  70  99 139 187 242 280 348 420
#     4  12  25  45  72 102 139 189 234 289 352 411
#     4  11  26  48  70 103 143 185 234 294 347 416
#
# _framework density 24.519252999999999
#
# number of rings (size 3 to 8) (size 9 to 14) (size 15 to 20)
#    0.000    0.500    5.000    2.625    1.750    2.500 
#    4.500    0.000    0.000    0.000    0.000    0.000 
#    0.000    0.000    0.000    0.000    0.000    0.000 
#
# Total GULP energy -89175.584343 kJ/mol
# GULP energy per Si atom -5573.474021 kJ/mol
# Density = 2.446345 g / cm^3
# Si number density = 24.519253 Si / 1000 Ang^3
#
#
#
# Elastic Constant Matrix: (Units=GPa)
#
#
# Indices 1 2 3 4 5 6 
#
# 1 78.3892 0.7389 41.0598 6.5537 -2.8167 4.6634
# 2 0.7389 90.2121 49.0805 19.3059 0.2520 7.9041
# 3 41.0598 49.0805 131.6133 26.4633 5.5881 19.2777
# 4 6.5537 19.3059 26.4633 32.6730 6.2461 -1.8961
# 5 -2.8167 0.2520 5.5881 6.2461 34.7836 -1.0373
# 6 4.6634 7.9041 19.2777 -1.8961 -1.0373 22.8631
#
#
#
# Elastic Compliance Matrix: (Units=1/GPa)
#
#
# Indices 1 2 3 4 5 6 
#
# 1 0.016181 0.003381 -0.006493 -0.000386 0.002431 0.001084
# 2 0.003381 0.015434 -0.005446 -0.005882 0.002039 -0.001829
# 3 -0.006493 -0.005446 0.014718 -0.007636 -0.001775 -0.009916
# 4 -0.000386 -0.005882 -0.007636 0.042172 -0.005984 0.011777
# 5 0.002431 0.002039 -0.001775 -0.005984 0.030326 0.001176
# 6 0.001084 -0.001829 -0.009916 0.011777 0.001176 0.053541
#
#
# Mechanical properties :
#
#
# Convention : Reuss Voigt Hill
#
# Bulk Modulus (GPa) = 34.22768 53.55255 43.89011
# Shear Modulus (GPa) = 25.09690 32.01962 28.55826
#
# Velocity S-wave (km/s) = 3.20278 3.61764 3.41651
# Velocity P-wave (km/s) = 5.25993 6.27202 5.78814
#
# Compressibility (1/GPa) = 0.02921612
#
# Stress axis : x y z
#
# Youngs Moduli (GPa) = 61.79986 64.79312 67.94401
#
# Poissons Ratio (x) = -0.21907 0.44118
# Poissons Ratio (y) = -0.20895 0.37004
# Poissons Ratio (z) = 0.40128 0.35288
#
# Static dielectric constant tensor:
#      x y z
#    x 2.257310 0.062420 -0.060850 
#    y 0.062420 2.079030 -0.045610 
#    z -0.060850 -0.045610 1.912660 
# 
# From -- ./inp_files/594023.got.cif
#   From: 2010.05.17/outbox.cif.g08.bks.cpg/sg2_298_cif.got.tgz:594023.got - 2010.06.03 11:33:40.
