data_PCOD9035052
_publ_section_title
;
Structure prediction by ZEFSAII (Michael W. Deem and Ramdas Pophale) SiO2 
 PCOD9035052
Probable space group: P -1
;
_chemical_formula_sum "Si O2"
_cell_formula_units_Z 12
_cell_length_a 8.795773
_cell_length_b 12.695770
_cell_length_c 5.164900
_cell_angle_alpha 95.962358
_cell_angle_beta 59.363255
_cell_angle_gamma 113.414617
_cell_volume 451.821349
_symmetry_space_group_name_H-M "P -1"
_symmetry_group_IT_number 2
_symmetry_cell_setting 'triclinic'
loop_
_space_group_symop_operation_xyz
x,y,z
-x,-y,-z
loop_
_atom_site_type_symbol
_atom_site_label
_atom_site_fract_x
_atom_site_fract_y
_atom_site_fract_z
Si Si1 0.324324 0.875039 0.694417
Si Si2 0.451268 0.865698 0.074567
Si Si3 0.332399 0.250816 0.816486
Si Si4 0.016223 0.077617 0.756389
Si Si5 0.121724 0.405422 0.174366
Si Si6 0.750160 0.443947 0.389583
O O1 0.282245 0.828531 0.426908
O O2 0.090954 0.611838 0.745167
O O3 0.500000 0.000000 0.500000
O O4 0.403956 0.810063 0.817347
O O5 0.613993 0.836479 0.070029
O O6 0.500000 0.000000 0.000000
O O7 0.220877 0.184252 0.640520
O O8 0.182419 0.298093 0.079695
O O9 0.535669 0.357809 0.628581
O O10 0.846143 0.117688 0.984721
O O11 0.000000 0.000000 0.500000
O O12 0.000000 0.000000 0.000000
O O13 0.249399 0.500715 0.876382
O O14 0.167254 0.457223 0.435524
#
# Coordination Sequence:
#
# PCOD9035052 Si02
#       6
#     2   2   2   2   2   2
#     4  10  22  45  70  93 145 203 255 318 379 423
#     4  10  23  43  69 106 148 204 257 315 375 445
#     4  12  27  46  84 112 155 208 269 305 400 469
#     4  12  28  48  69 109 156 205 267 321 370 457
#     4  10  24  49  79 119 152 193 251 331 402 472
#     4  10  24  49  80 115 158 188 251 334 403 468
#
# _framework density 26.559172
#
# number of rings (size 3 to 8) (size 9 to 14) (size 15 to 20)
#    0.000    1.333    0.000    4.000    2.333   10.667 
#    6.000    0.000    0.000    0.000    0.000    0.000 
#    0.000    0.000    0.000    0.000    0.000    0.000 
#
# Total GULP energy -67117.341244 kJ/mol
# GULP energy per Si atom -5593.111770 kJ/mol
# Density = 2.649872 g / cm^3
# Si number density = 26.559172 Si / 1000 Ang^3
#
#
#
# Elastic Constant Matrix: (Units=GPa)
#
#
# Indices 1 2 3 4 5 6 
#
# 1 193.7288 43.2528 40.1391 15.9118 -18.6988 -16.6198
# 2 43.2528 75.7070 9.1385 -5.2135 -4.3072 -16.2620
# 3 40.1391 9.1385 192.0008 -3.3997 -8.2239 -12.9330
# 4 15.9118 -5.2135 -3.3997 33.8264 -7.1744 1.9003
# 5 -18.6988 -4.3072 -8.2239 -7.1744 36.5445 2.9699
# 6 -16.6198 -16.2620 -12.9330 1.9003 2.9699 62.6727
#
#
#
# Elastic Compliance Matrix: (Units=1/GPa)
#
#
# Indices 1 2 3 4 5 6 
#
# 1 0.006768 -0.003721 -0.001172 -0.003478 0.002029 0.000597
# 2 -0.003721 0.016304 0.000318 0.004261 0.000670 0.003148
# 3 -0.001172 0.000318 0.005555 0.001297 0.000874 0.000837
# 4 -0.003478 0.004261 0.001297 0.033220 0.005603 -0.000822
# 5 0.002029 0.000670 0.000874 0.005603 0.029834 -0.000691
# 6 0.000597 0.003148 0.000837 -0.000822 -0.000691 0.017162
#
#
# Mechanical properties :
#
#
# Convention : Reuss Voigt Hill
#
# Bulk Modulus (GPa) = 51.34330 71.83304 61.58817
# Shear Modulus (GPa) = 40.16487 51.20247 45.68367
#
# Velocity S-wave (km/s) = 3.89302 4.39551 4.15187
# Velocity P-wave (km/s) = 6.29135 7.27089 6.79878
#
# Compressibility (1/GPa) = 0.01947674
#
# Stress axis : x y z
#
# Youngs Moduli (GPa) = 147.74684 61.33370 180.01580
#
# Poissons Ratio (x) = 0.22824 0.21104
# Poissons Ratio (y) = 0.54981 -0.05727
# Poissons Ratio (z) = 0.17321 -0.01951
#
# Static dielectric constant tensor:
#      x y z
#    x 1.952210 0.201860 -0.043010 
#    y 0.201860 2.168550 0.188520 
#    z -0.043010 0.188520 2.084670 
# 
# From -- ./inp_files/94815.got.cif
#   From: 2010.05.17/outbox.cif.g08.bks.cpg/sg2_48_cif.got.tgz:94815.got - 2010.06.03 11:33:40.
