data_PCOD9035829
_publ_section_title
;
Structure prediction by ZEFSAII (Michael W. Deem and Ramdas Pophale) SiO2 
 PCOD9035829
Probable space group: P -1
;
_chemical_formula_sum "Si O2"
_cell_formula_units_Z 13
_cell_length_a 10.900283
_cell_length_b 8.350660
_cell_length_c 9.168825
_cell_angle_alpha 68.657294
_cell_angle_beta 115.769018
_cell_angle_gamma 64.780254
_cell_volume 502.247723
_symmetry_space_group_name_H-M "P -1"
_symmetry_group_IT_number 2
_symmetry_cell_setting 'triclinic'
loop_
_space_group_symop_operation_xyz
x,y,z
-x,-y,-z
loop_
_atom_site_type_symbol
_atom_site_label
_atom_site_fract_x
_atom_site_fract_y
_atom_site_fract_z
Si Si1 0.033587 0.747722 0.938922
Si Si2 0.390779 0.241047 0.278022
Si Si3 0.608111 0.748111 0.067754
Si Si4 0.249259 0.862876 0.837944
Si Si5 0.712419 0.193161 0.469534
Si Si6 0.000000 0.500000 0.500000
Si Si7 0.933252 0.298750 0.698920
O O1 0.169328 0.465685 0.108188
O O2 0.996472 0.813334 0.069214
O O3 0.154530 0.792557 0.903567
O O4 0.841205 0.926639 0.691216
O O5 0.499109 0.323736 0.345692
O O6 0.500000 0.000000 0.500000
O O7 0.412931 0.202468 0.130488
O O8 0.825570 0.557296 0.290348
O O9 0.467993 0.709258 0.040059
O O10 0.500000 0.000000 0.000000
O O11 0.240628 0.837523 0.668806
O O12 0.111881 0.146212 0.722506
O O13 0.782170 0.297648 0.560491
O O14 0.880968 0.541930 0.573425
#
# Coordination Sequence:
#
# PCOD9035829 Si02
#       7
#     2   2   2   2   2   1   2
#     4  11  25  44  71 102 142 187 222 292 351 406
#     4  11  29  45  68 105 141 182 239 288 346 417
#     4  11  26  46  72  97 142 181 234 293 341 414
#     4  10  22  46  73 104 137 181 239 286 344 415
#     4  10  24  45  72 103 139 181 235 291 339 416
#     4  12  28  42  74 106 134 190 234 280 356 410
#     4  11  24  43  71 103 142 181 232 278 347 415
#
# _framework density 25.883641000000001
#
# number of rings (size 3 to 8) (size 9 to 14) (size 15 to 20)
#    0.000    1.231    1.538    3.692   10.769    3.692 
#    0.000    0.000    0.000    0.000    0.000    0.000 
#    0.000    0.000    0.000    0.000    0.000    0.000 
#
# Total GULP energy -72523.791665 kJ/mol
# GULP energy per Si atom -5578.753205 kJ/mol
# Density = 2.582473 g / cm^3
# Si number density = 25.883641 Si / 1000 Ang^3
#
#
#
# Elastic Constant Matrix: (Units=GPa)
#
#
# Indices 1 2 3 4 5 6 
#
# 1 117.7865 10.1762 76.1230 11.4858 16.9696 19.5701
# 2 10.1762 46.4193 6.4884 -5.0628 8.4916 -4.1209
# 3 76.1230 6.4884 150.3699 -6.6026 16.2666 5.8094
# 4 11.4858 -5.0628 -6.6026 33.7572 -2.1896 1.4185
# 5 16.9696 8.4916 16.2666 -2.1896 62.9260 -0.3928
# 6 19.5701 -4.1209 5.8094 1.4185 -0.3928 28.3004
#
#
#
# Elastic Compliance Matrix: (Units=1/GPa)
#
#
# Indices 1 2 3 4 5 6 
#
# 1 0.016748 -0.003867 -0.008008 -0.007564 -0.002251 -0.010153
# 2 -0.003867 0.023651 0.001171 0.004710 -0.002252 0.005610
# 3 -0.008008 0.001171 0.010806 0.004839 -0.000603 0.003239
# 4 -0.007564 0.004710 0.004839 0.033801 0.001350 0.003248
# 5 -0.002251 -0.002252 -0.000603 0.001350 0.017015 0.001521
# 6 -0.010153 0.005610 0.003239 0.003248 0.001521 0.042366
#
#
# Mechanical properties :
#
#
# Convention : Reuss Voigt Hill
#
# Bulk Modulus (GPa) = 33.56054 55.57233 44.56644
# Shear Modulus (GPa) = 28.45293 39.78260 34.11776
#
# Velocity S-wave (km/s) = 3.31911 3.92468 3.63453
# Velocity P-wave (km/s) = 5.26144 6.48492 5.90495
#
# Compressibility (1/GPa) = 0.02979689
#
# Stress axis : x y z
#
# Youngs Moduli (GPa) = 59.70706 42.28225 92.53783
#
# Poissons Ratio (x) = 0.16350 0.74106
# Poissons Ratio (y) = 0.23088 -0.10834
# Poissons Ratio (z) = 0.47815 -0.04950
#
# Static dielectric constant tensor:
#      x y z
#    x 1.960520 -0.117700 0.128100 
#    y -0.117700 1.900460 0.268000 
#    z 0.128100 0.268000 1.711530 
# 
# From -- ./inp_files/243161.got.cif
#   From: 2010.05.17/outbox.cif.g08.bks.cpg/sg2_122_cif.got.tgz:243161.got - 2010.06.03 11:33:40.
