data_PCOD9035021
_publ_section_title
;
Structure prediction by ZEFSAII (Michael W. Deem and Ramdas Pophale) SiO2 
 PCOD9035021
Probable space group: P -1
;
_chemical_formula_sum "Si O2"
_cell_formula_units_Z 16
_cell_length_a 8.660199
_cell_length_b 8.420456
_cell_length_c 21.508421
_cell_angle_alpha 33.401301
_cell_angle_beta 112.567462
_cell_angle_gamma 125.450089
_cell_volume 685.506948
_symmetry_space_group_name_H-M "P -1"
_symmetry_group_IT_number 2
_symmetry_cell_setting 'triclinic'
loop_
_space_group_symop_operation_xyz
x,y,z
-x,-y,-z
loop_
_atom_site_type_symbol
_atom_site_label
_atom_site_fract_x
_atom_site_fract_y
_atom_site_fract_z
Si Si1 0.480818 0.141532 0.103980
Si Si2 0.556114 0.840244 0.431983
Si Si3 0.313244 0.183195 0.308881
Si Si4 0.370082 0.056525 0.912485
Si Si5 0.105259 0.801043 0.065695
Si Si6 0.148902 0.968769 0.486887
Si Si7 0.742224 0.069748 0.261931
Si Si8 0.945849 0.683619 0.376485
O O1 0.545318 0.029356 0.213346
O O2 0.648156 0.162855 0.077673
O O3 0.279512 0.905910 0.110449
O O4 0.500000 0.500000 0.000000
O O5 0.500000 0.500000 0.500000
O O6 0.399128 0.940763 0.390983
O O7 0.648123 0.833785 0.512541
O O8 0.712946 0.092410 0.323880
O O9 0.498553 0.552767 0.212388
O O10 0.194542 0.129253 0.372544
O O11 0.142322 0.040197 0.277938
O O12 0.500000 0.000000 0.000000
O O13 0.182743 0.932194 0.965246
O O14 0.940190 0.413469 0.165162
O O15 0.000000 0.000000 0.000000
O O16 0.103363 0.586383 0.596935
O O17 0.000000 0.000000 0.500000
O O18 0.785914 0.776817 0.342960
O O19 0.000000 0.500000 0.500000
#
# Coordination Sequence:
#
# PCOD9035021 Si02
#       8
#     2   2   2   2   2   2   2   2
#     4  11  25  46  73 106 147 192 248 300 366 434
#     4  12  26  44  70 104 144 187 245 300 363 438
#     4  11  23  44  72 102 143 188 235 305 370 429
#     4  10  24  43  71 102 144 186 236 298 366 433
#     4  11  23  50  74 105 151 188 245 307 361 442
#     4  11  24  44  71 102 143 189 243 300 362 436
#     4  12  26  48  75 107 147 199 240 302 374 433
#     4  10  22  45  70 103 144 185 242 301 356 440
#
# _framework density 23.340392000000001
#
# number of rings (size 3 to 8) (size 9 to 14) (size 15 to 20)
#    0.000    1.000    1.250    6.375    5.250    0.500 
#    2.250    0.000    0.000    0.000    0.000    0.000 
#    0.000    0.000    0.000    0.000    0.000    0.000 
#
# Total GULP energy -89205.148869 kJ/mol
# GULP energy per Si atom -5575.321804 kJ/mol
# Density = 2.328727 g / cm^3
# Si number density = 23.340392 Si / 1000 Ang^3
#
#
#
# Elastic Constant Matrix: (Units=GPa)
#
#
# Indices 1 2 3 4 5 6 
#
# 1 149.7260 17.1891 56.0620 -33.3647 11.0129 -9.8283
# 2 17.1891 108.5079 31.1980 -18.9568 7.1899 -2.0376
# 3 56.0620 31.1980 100.1875 -23.5449 8.6906 -6.0906
# 4 -33.3647 -18.9568 -23.5449 31.2801 4.4916 11.3848
# 5 11.0129 7.1899 8.6906 4.4916 58.0829 -0.7870
# 6 -9.8283 -2.0376 -6.0906 11.3848 -0.7870 40.3858
#
#
#
# Elastic Compliance Matrix: (Units=1/GPa)
#
#
# Indices 1 2 3 4 5 6 
#
# 1 0.010123 0.001227 -0.003700 0.009337 -0.002249 -0.000709
# 2 0.001227 0.011026 -0.002416 0.006982 -0.001797 -0.001512
# 3 -0.003700 -0.002416 0.014258 0.005738 -0.001584 -0.000521
# 4 0.009337 0.006982 0.005738 0.056179 -0.008007 -0.012503
# 5 -0.002249 -0.001797 -0.001584 -0.008007 0.018745 0.001746
# 6 -0.000709 -0.001512 -0.000521 -0.012503 0.001746 0.027993
#
#
# Mechanical properties :
#
#
# Convention : Reuss Voigt Hill
#
# Bulk Modulus (GPa) = 39.01651 63.03552 51.02602
# Shear Modulus (GPa) = 31.91905 42.88124 37.40015
#
# Velocity S-wave (km/s) = 3.70205 4.29092 4.00731
# Velocity P-wave (km/s) = 5.91829 7.18436 6.58184
#
# Compressibility (1/GPa) = 0.02563017
#
# Stress axis : x y z
#
# Youngs Moduli (GPa) = 98.78384 90.69145 70.13381
#
# Poissons Ratio (x) = -0.11130 0.25953
# Poissons Ratio (y) = -0.12123 0.16942
# Poissons Ratio (z) = 0.36554 0.21908
#
# Static dielectric constant tensor:
#      x y z
#    x 2.074240 -0.289780 -0.208880 
#    y -0.289780 2.285610 0.170010 
#    z -0.208880 0.170010 2.092360 
# 
# From -- ./inp_files/606570.got.cif
#   From: 2010.05.17/outbox.cif.g08.bks.cpg/sg2_304_cif.got.tgz:606570.got - 2010.06.03 11:33:40.
