data_PCOD9035092
_publ_section_title
;
Structure prediction by ZEFSAII (Michael W. Deem and Ramdas Pophale) SiO2 
 PCOD9035092
Probable space group: P -1
;
_chemical_formula_sum "Si O2"
_cell_formula_units_Z 15
_cell_length_a 26.811029
_cell_length_b 14.583209
_cell_length_c 6.215982
_cell_angle_alpha 123.733420
_cell_angle_beta 56.224856
_cell_angle_gamma 161.174103
_cell_volume 648.049823
_symmetry_space_group_name_H-M "P -1"
_symmetry_group_IT_number 2
_symmetry_cell_setting 'triclinic'
loop_
_space_group_symop_operation_xyz
x,y,z
-x,-y,-z
loop_
_atom_site_type_symbol
_atom_site_label
_atom_site_fract_x
_atom_site_fract_y
_atom_site_fract_z
Si Si1 0.634238 0.309887 0.145057
Si Si2 0.381524 0.431337 0.079920
Si Si3 0.065175 0.492234 0.405993
Si Si4 0.887657 0.041406 0.552600
Si Si5 0.187479 0.257332 0.035756
Si Si6 0.500000 0.500000 0.500000
Si Si7 0.086401 0.311154 0.815471
Si Si8 0.416697 0.150387 0.513746
O O1 0.749433 0.527135 0.949486
O O2 0.740421 0.439461 0.246542
O O3 0.544765 0.270440 0.360389
O O4 0.500000 0.000000 0.000000
O O5 0.545097 0.726169 0.189906
O O6 0.260068 0.188358 0.239419
O O7 0.311161 0.420362 0.122271
O O8 0.393907 0.363682 0.775981
O O9 0.000000 0.500000 0.500000
O O10 0.952816 0.258369 0.559259
O O11 0.242903 0.810591 0.468748
O O12 0.065586 0.392654 0.099703
O O13 0.023331 0.224483 0.616497
O O14 0.835793 0.867711 0.268809
O O15 0.024925 0.970014 0.175256
O O16 0.456455 0.297796 0.411691
#
# Coordination Sequence:
#
# PCOD9035092 Si02
#       8
#     2   2   2   2   2   1   2   2
#     4  12  23  46  70 106 154 191 246 306 367 430
#     4  11  23  47  75 106 139 190 250 305 366 438
#     4  11  27  47  71 107 149 192 242 306 369 440
#     4  10  23  46  73 106 139 191 247 296 371 440
#     4  10  22  45  71 100 144 188 242 301 357 434
#     4  12  26  46  74 104 146 184 248 308 364 432
#     4  10  24  45  73 101 144 199 242 299 368 434
#     4  12  27  46  74 109 148 194 244 307 374 434
#
# _framework density 23.146370000000001
#
# number of rings (size 3 to 8) (size 9 to 14) (size 15 to 20)
#    0.000    1.067    4.000    0.800    7.467    3.200 
#    4.800    1.333    0.000    0.000    0.000    0.000 
#    0.000    0.000    0.000    0.000    0.000    0.000 
#
# Total GULP energy -83723.540400 kJ/mol
# GULP energy per Si atom -5581.569360 kJ/mol
# Density = 2.309369 g / cm^3
# Si number density = 23.146370 Si / 1000 Ang^3
#
#
#
# Elastic Constant Matrix: (Units=GPa)
#
#
# Indices 1 2 3 4 5 6 
#
# 1 97.0106 52.2571 48.2205 20.4603 1.1962 -21.8942
# 2 52.2571 109.9415 38.9140 29.8070 18.2539 -9.6174
# 3 48.2205 38.9140 80.8490 -13.7214 4.8668 0.2091
# 4 20.4603 29.8070 -13.7214 22.0031 4.7224 9.6771
# 5 1.1962 18.2539 4.8668 4.7224 38.6460 -3.0289
# 6 -21.8942 -9.6174 0.2091 9.6771 -3.0289 39.1938
#
#
#
# Elastic Compliance Matrix: (Units=1/GPa)
#
#
# Indices 1 2 3 4 5 6 
#
# 1 -0.000537 -0.018810 0.016737 0.043244 0.000282 -0.015660
# 2 -0.018810 0.006606 0.012903 0.025401 -0.008512 -0.015884
# 3 0.016737 0.012903 -0.013193 -0.053520 0.003633 0.026081
# 4 0.043244 0.025401 -0.053520 -0.087607 0.008258 0.052944
# 5 0.000282 -0.008512 0.003633 0.008258 0.028280 -0.001804
# 6 -0.015660 -0.015884 0.026081 0.052944 -0.001804 -0.000482
#
#
# Mechanical properties :
#
#
# Convention : Reuss Voigt Hill
#
# Bulk Modulus (GPa) = 68.79393 62.95382 65.87388
# Shear Modulus (GPa) = -59.70211 29.86255 -14.91978
#
# Velocity S-wave (km/s) = -5.08422 3.59578 -2.54162
# Velocity P-wave (km/s) = 2.16332 6.67058 4.46188
#
# Compressibility (1/GPa) = 0.01453617
#
# Stress axis : x y z
#
# Youngs Moduli (GPa) = -1861.70303 151.37205 -75.79583
#
# Poissons Ratio (x) = 2.84725 1.26856
# Poissons Ratio (y) = -35.01787 0.97801
# Poissons Ratio (z) = 31.15845 -1.95319
#
# Static dielectric constant tensor:
#      x y z
#    x 2.175600 -0.025650 -0.128700 
#    y -0.025650 1.865780 0.027000 
#    z -0.128700 0.027000 1.961240 
# 
# From -- ./inp_files/127213.got.cif
#   From: 2010.05.17/outbox.cif.g08.bks.cpg/sg2_64_cif.got.tgz:127213.got - 2010.06.03 11:33:40.
