data_PCOD9035040
_publ_section_title
;
Structure prediction by ZEFSAII (Michael W. Deem and Ramdas Pophale) SiO2 
 PCOD9035040
Probable space group: P -1
;
_chemical_formula_sum "Si O2"
_cell_formula_units_Z 14
_cell_length_a 17.526916
_cell_length_b 6.193384
_cell_length_c 9.232733
_cell_angle_alpha 100.546286
_cell_angle_beta 115.672370
_cell_angle_gamma 43.737826
_cell_volume 610.759143
_symmetry_space_group_name_H-M "P -1"
_symmetry_group_IT_number 2
_symmetry_cell_setting 'triclinic'
loop_
_space_group_symop_operation_xyz
x,y,z
-x,-y,-z
loop_
_atom_site_type_symbol
_atom_site_label
_atom_site_fract_x
_atom_site_fract_y
_atom_site_fract_z
Si Si1 0.018731 0.737254 0.902557
Si Si2 0.981909 0.805391 0.558030
Si Si3 0.494084 0.054723 0.828954
Si Si4 0.717207 0.216771 0.329452
Si Si5 0.367017 0.800526 0.012632
Si Si6 0.594627 0.156743 0.463993
Si Si7 0.214290 0.103948 0.176316
O O1 0.046211 0.720094 0.753888
O O2 0.888703 0.851248 0.824581
O O3 0.128244 0.406844 0.035323
O O4 0.000000 0.000000 0.000000
O O5 0.000000 0.500000 0.500000
O O6 0.835998 0.083071 0.485800
O O7 0.000000 0.000000 0.500000
O O8 0.368376 0.422591 0.742963
O O9 0.608317 0.999842 0.890711
O O10 0.481448 0.896469 0.676402
O O11 0.500000 0.000000 0.000000
O O12 0.651203 0.174626 0.375949
O O13 0.733876 0.053473 0.174012
O O14 0.313112 0.792324 0.113140
O O15 0.500000 0.500000 0.000000
O O16 0.500000 0.500000 0.500000
O O17 0.705267 0.915808 0.640547
#
# Coordination Sequence:
#
# PCOD9035040 Si02
#       7
#     2   2   2   2   2   2   2
#     4  11  28  49  77 113 155 213 267 331 411 484
#     4  12  30  52  83 119 158 210 278 334 400 478
#     4  11  25  43  71 103 148 201 258 321 398 472
#     4  11  25  44  74 106 152 196 259 326 389 474
#     4  10  22  45  70 106 147 196 256 315 394 476
#     4  12  26  45  73 108 152 199 255 326 400 477
#     4  11  26  47  75 106 166 198 264 331 412 481
#
# _framework density 22.922295999999999
#
# number of rings (size 3 to 8) (size 9 to 14) (size 15 to 20)
#    0.000    0.857    2.857    2.571   12.000    4.571 
#    0.000    0.000    0.000    0.000    0.000    0.000 
#    0.000    0.000    0.000    0.000    0.000    0.000 
#
# Total GULP energy -77963.766304 kJ/mol
# GULP energy per Si atom -5568.840450 kJ/mol
# Density = 2.287012 g / cm^3
# Si number density = 22.922296 Si / 1000 Ang^3
#
#
#
# Elastic Constant Matrix: (Units=GPa)
#
#
# Indices 1 2 3 4 5 6 
#
# 1 55.6383 16.6769 18.0810 4.6793 -6.4854 14.7534
# 2 16.6769 72.4500 54.6227 11.8815 -1.9897 16.7552
# 3 18.0810 54.6227 187.0164 6.7625 -8.1836 22.2203
# 4 4.6793 11.8815 6.7625 46.5423 6.9256 2.1147
# 5 -6.4854 -1.9897 -8.1836 6.9256 48.4795 0.5661
# 6 14.7534 16.7552 22.2203 2.1147 0.5661 26.0785
#
#
#
# Elastic Compliance Matrix: (Units=1/GPa)
#
#
# Indices 1 2 3 4 5 6 
#
# 1 0.022061 -0.002181 0.000015 -0.001643 0.003228 -0.011029
# 2 -0.002181 0.020194 -0.004637 -0.003984 0.000411 -0.007476
# 3 0.000015 -0.004637 0.007111 0.000138 0.001029 -0.003122
# 4 -0.001643 -0.003984 0.000138 0.023124 -0.003682 0.001576
# 5 0.003228 0.000411 0.001029 -0.003682 0.021812 -0.003141
# 6 -0.011029 -0.007476 -0.003122 0.001576 -0.003141 0.051989
#
#
# Mechanical properties :
#
#
# Convention : Reuss Voigt Hill
#
# Bulk Modulus (GPa) = 27.96386 54.87399 41.41893
# Shear Modulus (GPa) = 29.10077 39.26832 34.18454
#
# Velocity S-wave (km/s) = 3.56693 4.14346 3.86595
# Velocity P-wave (km/s) = 5.40276 6.84705 6.16733
#
# Compressibility (1/GPa) = 0.03576044
#
# Stress axis : x y z
#
# Youngs Moduli (GPa) = 45.32910 49.51926 140.62746
#
# Poissons Ratio (x) = 0.10799 -0.00213
# Poissons Ratio (y) = 0.09885 0.65210
# Poissons Ratio (z) = -0.00069 0.22963
#
# Static dielectric constant tensor:
#      x y z
#    x 1.933080 0.050170 -0.004100 
#    y 0.050170 2.020080 0.063830 
#    z -0.004100 0.063830 1.909030 
# 
# From -- ./inp_files/323901.got.cif
#   From: 2010.05.17/outbox.cif.g08.bks.cpg/sg2_162_cif.got.tgz:323901.got - 2010.06.03 11:33:40.
