data_PCOD9035207
_publ_section_title
;
Structure prediction by ZEFSAII (Michael W. Deem and Ramdas Pophale) SiO2 
 PCOD9035207
Probable space group: P -1
;
_chemical_formula_sum "Si O2"
_cell_formula_units_Z 13
_cell_length_a 5.202341
_cell_length_b 15.726922
_cell_length_c 12.528337
_cell_angle_alpha 26.934226
_cell_angle_beta 102.057592
_cell_angle_gamma 106.797417
_cell_volume 441.676435
_symmetry_space_group_name_H-M "P -1"
_symmetry_group_IT_number 2
_symmetry_cell_setting 'triclinic'
loop_
_space_group_symop_operation_xyz
x,y,z
-x,-y,-z
loop_
_atom_site_type_symbol
_atom_site_label
_atom_site_fract_x
_atom_site_fract_y
_atom_site_fract_z
Si Si1 0.000000 0.500000 0.500000
Si Si2 0.285093 0.750828 0.651599
Si Si3 0.609423 0.877192 0.344584
Si Si4 0.105174 0.213479 0.732436
Si Si5 0.195869 0.576734 0.064765
Si Si6 0.089118 0.096507 0.285435
Si Si7 0.482394 0.724173 0.136901
O O1 0.905442 0.350859 0.550130
O O2 0.229098 0.652462 0.271556
O O3 0.470175 0.736153 0.583901
O O4 0.332722 0.658160 0.872728
O O5 0.320712 0.982835 0.405464
O O6 0.978266 0.640288 0.721338
O O7 0.699450 0.787254 0.346860
O O8 0.877517 0.015583 0.264238
O O9 0.446982 0.042863 0.119050
O O10 0.258355 0.332781 0.718213
O O11 0.000000 0.000000 0.000000
O O12 0.955186 0.690195 0.940024
O O13 0.407149 0.634979 0.114110
O O14 0.000000 0.000000 0.500000
#
# Coordination Sequence:
#
# PCOD9035207 Si02
#       7
#     1   2   2   2   2   2   2
#     4  12  28  50  72 104 140 186 246 296 352 422
#     4  10  22  45  72 101 146 185 226 295 351 419
#     4  11  25  44  74 106 136 192 233 287 360 419
#     4  12  28  51  71 103 145 186 242 293 359 419
#     4   9  22  45  70 106 143 181 238 285 353 420
#     4   9  21  42  66 102 141 182 230 283 344 418
#     4  11  26  45  73 108 136 189 235 298 348 420
#
# _framework density 29.433312999999998
#
# number of rings (size 3 to 8) (size 9 to 14) (size 15 to 20)
#    0.000    1.538    1.538    0.923    6.462    5.538 
#    2.769    6.923    0.000    0.000    0.000    0.000 
#    0.000    0.000    0.000    0.000    0.000    0.000 
#
# Total GULP energy -72713.915795 kJ/mol
# GULP energy per Si atom -5593.378138 kJ/mol
# Density = 2.936632 g / cm^3
# Si number density = 29.433313 Si / 1000 Ang^3
#
#
#
# Elastic Constant Matrix: (Units=GPa)
#
#
# Indices 1 2 3 4 5 6 
#
# 1 121.7989 75.3214 41.3540 31.4129 -9.6379 -19.0336
# 2 75.3214 212.4069 61.9804 24.1455 -4.4845 -18.4103
# 3 41.3540 61.9804 167.4265 -10.3689 -16.2046 -28.1875
# 4 31.4129 24.1455 -10.3689 67.5143 -15.8856 5.1884
# 5 -9.6379 -4.4845 -16.2046 -15.8856 51.9943 15.8390
# 6 -19.0336 -18.4103 -28.1875 5.1884 15.8390 69.1595
#
#
#
# Elastic Compliance Matrix: (Units=1/GPa)
#
#
# Indices 1 2 3 4 5 6 
#
# 1 0.012464 -0.003035 -0.001974 -0.005434 -0.000973 0.002448
# 2 -0.003035 0.006494 -0.001768 -0.001503 -0.001182 0.000556
# 3 -0.001974 -0.001768 0.007782 0.003226 0.002482 0.001347
# 4 -0.005434 -0.001503 0.003226 0.020366 0.007238 -0.003766
# 5 -0.000973 -0.001182 0.002482 0.007238 0.023618 -0.005523
# 6 0.002448 0.000556 0.001347 -0.003766 -0.005523 0.017378
#
#
# Mechanical properties :
#
#
# Convention : Reuss Voigt Hill
#
# Bulk Modulus (GPa) = 75.83358 95.43822 85.63590
# Shear Modulus (GPa) = 47.14727 59.26538 53.20633
#
# Velocity S-wave (km/s) = 4.00663 4.49213 4.25631
# Velocity P-wave (km/s) = 6.87202 7.70722 7.30157
#
# Compressibility (1/GPa) = 0.01318677
#
# Stress axis : x y z
#
# Youngs Moduli (GPa) = 80.23007 153.98369 128.50491
#
# Poissons Ratio (x) = 0.46727 0.25363
# Poissons Ratio (y) = 0.24346 0.22725
# Poissons Ratio (z) = 0.15835 0.27231
#
# Static dielectric constant tensor:
#      x y z
#    x 2.720570 0.000190 0.234420 
#    y 0.000190 2.357500 -0.099570 
#    z 0.234420 -0.099570 2.388670 
# 
# From -- ./inp_files/204620.got.cif
#   From: 2010.05.17/outbox.cif.g08.bks.cpg/sg2_103_cif.got.tgz:204620.got - 2010.06.03 11:33:40.
