data_PCOD9035671
_publ_section_title
;
Structure prediction by ZEFSAII (Michael W. Deem and Ramdas Pophale) SiO2 
 PCOD9035671
Probable space group: P -1
;
_chemical_formula_sum "Si O2"
_cell_formula_units_Z 15
_cell_length_a 9.090336
_cell_length_b 8.007671
_cell_length_c 7.736157
_cell_angle_alpha 81.398403
_cell_angle_beta 104.542733
_cell_angle_gamma 91.511206
_cell_volume 538.923281
_symmetry_space_group_name_H-M "P -1"
_symmetry_group_IT_number 2
_symmetry_cell_setting 'triclinic'
loop_
_space_group_symop_operation_xyz
x,y,z
-x,-y,-z
loop_
_atom_site_type_symbol
_atom_site_label
_atom_site_fract_x
_atom_site_fract_y
_atom_site_fract_z
Si Si1 0.038482 0.881629 0.328541
Si Si2 0.647567 0.887755 0.006809
Si Si3 0.114990 0.585613 0.156146
Si Si4 0.000000 0.000000 0.000000
Si Si5 0.425503 0.653040 0.055344
Si Si6 0.561356 0.814172 0.599849
Si Si7 0.269090 0.699958 0.660902
Si Si8 0.193287 0.363388 0.536707
O O1 0.065834 0.782114 0.161401
O O2 0.167224 0.840169 0.511991
O O3 0.900627 0.788760 0.387553
O O4 0.043939 0.059374 0.209395
O O5 0.585642 0.740454 0.139552
O O6 0.621260 0.827725 0.811063
O O7 0.500000 0.000000 0.000000
O O8 0.817533 0.955909 0.033982
O O9 0.110828 0.475992 0.344597
O O10 0.292933 0.600643 0.154801
O O11 0.000000 0.500000 0.000000
O O12 0.320907 0.743822 0.861340
O O13 0.500000 0.500000 0.000000
O O14 0.417443 0.693437 0.586622
O O15 0.674947 0.728436 0.516290
O O16 0.500000 0.000000 0.500000
O O17 0.207134 0.512337 0.659658
#
# Coordination Sequence:
#
# PCOD9035671 Si02
#       8
#     2   2   2   1   2   2   2   2
#     4  11  25  45  70 104 144 202 247 312 380 451
#     4  11  27  50  71 106 150 198 253 312 380 452
#     4  11  22  41  72 110 150 188 248 312 377 453
#     4  12  28  48  76 104 148 202 264 304 390 464
#     4  11  24  42  76 115 145 192 249 316 380 457
#     4  11  25  44  71 105 147 193 246 303 380 460
#     4  10  22  46  70 107 150 190 243 312 382 449
#     4  11  24  44  72 109 148 193 248 310 384 457
#
# _framework density 27.833275
#
# number of rings (size 3 to 8) (size 9 to 14) (size 15 to 20)
#    0.000    1.067    0.000    6.800    7.467    2.133 
#    4.800    1.333    0.000    0.000    0.000    0.000 
#    0.000    0.000    0.000    0.000    0.000    0.000 
#
# Total GULP energy -83594.816957 kJ/mol
# GULP energy per Si atom -5572.987797 kJ/mol
# Density = 2.776993 g / cm^3
# Si number density = 27.833275 Si / 1000 Ang^3
#
#
#
# Elastic Constant Matrix: (Units=GPa)
#
#
# Indices 1 2 3 4 5 6 
#
# 1 233.1835 57.1069 22.0617 -11.6638 -45.5959 39.6354
# 2 57.1069 76.1958 14.8404 1.1910 -6.1238 -3.8882
# 3 22.0617 14.8404 161.0767 -21.7083 -6.8144 22.9435
# 4 -11.6638 1.1910 -21.7083 50.3727 3.5587 -5.0736
# 5 -45.5959 -6.1238 -6.8144 3.5587 44.2528 -4.0524
# 6 39.6354 -3.8882 22.9435 -5.0736 -4.0524 37.1546
#
#
#
# Elastic Compliance Matrix: (Units=1/GPa)
#
#
# Indices 1 2 3 4 5 6 
#
# 1 0.009254 -0.007140 0.001382 0.001310 0.007697 -0.010453
# 2 -0.007140 0.019261 -0.002740 -0.001938 -0.003984 0.010625
# 3 0.001382 -0.002740 0.007567 0.002953 0.001434 -0.005873
# 4 0.001310 -0.001938 0.002953 0.021438 -0.000235 -0.000522
# 5 0.007697 -0.003984 0.001434 -0.000235 0.029638 -0.006313
# 6 -0.010453 0.010625 -0.005873 -0.000522 -0.006313 0.042045
#
#
# Mechanical properties :
#
#
# Convention : Reuss Voigt Hill
#
# Bulk Modulus (GPa) = 52.39637 73.16377 62.78007
# Shear Modulus (GPa) = 32.77405 51.45248 42.11327
#
# Velocity S-wave (km/s) = 3.43521 4.30419 3.89402
# Velocity P-wave (km/s) = 5.88219 7.14458 6.54390
#
# Compressibility (1/GPa) = 0.01908529
#
# Stress axis : x y z
#
# Youngs Moduli (GPa) = 108.06577 51.91821 132.15950
#
# Poissons Ratio (x) = 0.37069 -0.18258
# Poissons Ratio (y) = 0.77157 0.36209
# Poissons Ratio (z) = -0.14930 0.14224
#
# Static dielectric constant tensor:
#      x y z
#    x 2.218440 -0.071200 0.156010 
#    y -0.071200 3.161480 -0.694420 
#    z 0.156010 -0.694420 2.733000 
# 
# From -- ./inp_files/154370.got.cif
#   From: 2010.05.17/outbox.cif.g08.bks.cpg/sg2_78_cif.got.tgz:154370.got - 2010.06.03 11:33:40.
