data_PCOD9035656
_publ_section_title
;
Structure prediction by ZEFSAII (Michael W. Deem and Ramdas Pophale) SiO2 
 PCOD9035656
Probable space group: P -1
;
_chemical_formula_sum "Si O2"
_cell_formula_units_Z 10
_cell_length_a 5.561426
_cell_length_b 11.154610
_cell_length_c 15.119992
_cell_angle_alpha 155.198280
_cell_angle_beta 114.802288
_cell_angle_gamma 70.269839
_cell_volume 354.862660
_symmetry_space_group_name_H-M "P -1"
_symmetry_group_IT_number 2
_symmetry_cell_setting 'triclinic'
loop_
_space_group_symop_operation_xyz
x,y,z
-x,-y,-z
loop_
_atom_site_type_symbol
_atom_site_label
_atom_site_fract_x
_atom_site_fract_y
_atom_site_fract_z
Si Si1 0.147085 0.221799 0.860530
Si Si2 0.414857 0.660018 0.858640
Si Si3 0.919560 0.678811 0.691182
Si Si4 0.522112 0.210638 0.422651
Si Si5 0.216922 0.122439 0.542141
O O1 0.373246 0.098306 0.750508
O O2 0.298104 0.219840 0.976358
O O3 0.911527 0.976542 0.638763
O O4 0.000000 0.500000 0.000000
O O5 0.476289 0.413173 0.633233
O O6 0.267022 0.465662 0.783723
O O7 0.190306 0.811998 0.872129
O O8 0.743301 0.438697 0.560866
O O9 0.710387 0.864965 0.736814
O O10 0.000000 0.500000 0.500000
O O11 0.500000 0.000000 0.500000
O O12 0.000000 0.000000 0.500000
#
# Coordination Sequence:
#
# PCOD9035656 Si02
#       5
#     2   2   2   2   2
#     4  12  26  43  72 109 139 197 244 294 373 446
#     4  11  24  46  71 104 144 191 245 304 367 434
#     4   9  20  43  75  98 139 192 236 308 367 423
#     4  10  22  46  70 102 147 186 243 305 364 435
#     4  12  26  49  70 103 154 196 246 308 362 445
#
# _framework density 28.179914
#
# number of rings (size 3 to 8) (size 9 to 14) (size 15 to 20)
#    0.000    1.200    4.000    1.200    0.000    1.600 
#   10.800    9.000    0.000    0.000    0.000    0.000 
#    0.000    0.000    0.000    0.000    0.000    0.000 
#
# Total GULP energy -55794.699224 kJ/mol
# GULP energy per Si atom -5579.469922 kJ/mol
# Density = 2.811577 g / cm^3
# Si number density = 28.179914 Si / 1000 Ang^3
#
#
#
# Elastic Constant Matrix: (Units=GPa)
#
#
# Indices 1 2 3 4 5 6 
#
# 1 133.2952 66.6002 36.3517 -15.3645 8.9662 -27.4426
# 2 66.6002 162.8285 49.3417 -30.1575 15.6564 -67.3841
# 3 36.3517 49.3417 157.7044 -62.8890 36.4929 -30.8267
# 4 -15.3645 -30.1575 -62.8890 74.8185 -25.7016 16.5014
# 5 8.9662 15.6564 36.4929 -25.7016 48.2947 -2.5973
# 6 -27.4426 -67.3841 -30.8267 16.5014 -2.5973 96.0790
#
#
#
# Elastic Compliance Matrix: (Units=1/GPa)
#
#
# Indices 1 2 3 4 5 6 
#
# 1 0.009615 -0.003724 -0.001347 -0.000572 0.000124 -0.000196
# 2 -0.003724 0.010670 -0.000441 0.001365 -0.001385 0.006006
# 3 -0.001347 -0.000441 0.010742 0.006885 -0.003981 0.001462
# 4 -0.000572 0.001365 0.006885 0.021781 0.006022 -0.000575
# 5 0.000124 -0.001385 -0.003981 0.006022 0.027210 -0.002512
# 6 -0.000196 0.006006 0.001462 -0.000575 -0.002512 0.015065
#
#
# Mechanical properties :
#
#
# Convention : Reuss Voigt Hill
#
# Bulk Modulus (GPa) = 49.99025 84.26837 67.12931
# Shear Modulus (GPa) = 44.33657 63.94073 54.13865
#
# Velocity S-wave (km/s) = 3.97084 4.76859 4.38788
# Velocity P-wave (km/s) = 6.22909 7.76453 7.03880
#
# Compressibility (1/GPa) = 0.02000390
#
# Stress axis : x y z
#
# Youngs Moduli (GPa) = 104.00086 93.72367 93.09234
#
# Poissons Ratio (x) = 0.34900 0.12536
# Poissons Ratio (y) = 0.38727 0.04107
# Poissons Ratio (z) = 0.14005 0.04135
#
# Static dielectric constant tensor:
#      x y z
#    x 2.457200 -0.077100 -0.127920 
#    y -0.077100 2.340070 -0.027720 
#    z -0.127920 -0.027720 2.189610 
# 
# From -- ./inp_files/481337.got.cif
#   From: 2010.05.17/outbox.cif.g08.bks.cpg/sg2_241_cif.got.tgz:481337.got - 2010.06.03 11:33:40.
