data_PCOD9035187
_publ_section_title
;
Structure prediction by ZEFSAII (Michael W. Deem and Ramdas Pophale) SiO2 
 PCOD9035187
Probable space group: P -1
;
_chemical_formula_sum "Si O2"
_cell_formula_units_Z 11
_cell_length_a 4.986084
_cell_length_b 8.988958
_cell_length_c 16.382205
_cell_angle_alpha 134.371307
_cell_angle_beta 67.624030
_cell_angle_gamma 82.959052
_cell_volume 392.504159
_symmetry_space_group_name_H-M "P -1"
_symmetry_group_IT_number 2
_symmetry_cell_setting 'triclinic'
loop_
_space_group_symop_operation_xyz
x,y,z
-x,-y,-z
loop_
_atom_site_type_symbol
_atom_site_label
_atom_site_fract_x
_atom_site_fract_y
_atom_site_fract_z
Si Si1 0.929409 0.193189 0.678816
Si Si2 0.169780 0.667361 0.439836
Si Si3 0.477940 0.289822 0.375935
Si Si4 0.673588 0.786692 0.162478
Si Si5 0.000000 0.000000 0.000000
Si Si6 0.400765 0.259929 0.024942
O O1 0.578000 0.197551 0.731956
O O2 0.840842 0.427950 0.833848
O O3 0.944676 0.277964 0.618842
O O4 0.231519 0.885807 0.537401
O O5 0.865078 0.693471 0.542622
O O6 0.482537 0.368453 0.310748
O O7 0.500000 0.500000 0.500000
O O8 0.764868 0.989602 0.240464
O O9 0.469743 0.861976 0.127234
O O10 0.000000 0.500000 0.000000
O O11 0.292145 0.829660 0.978427
O O12 0.854284 0.820634 0.950190
#
# Coordination Sequence:
#
# PCOD9035187 Si02
#       6
#     2   2   2   2   1   2
#     4  10  22  45  71  99 147 194 249 316 372 454
#     4   9  22  46  68 101 136 196 255 301 373 448
#     4  10  23  45  74 101 144 196 248 314 372 455
#     4  11  25  45  72 113 154 197 249 316 388 456
#     4  10  26  44  68 108 144 200 246 308 380 458
#     4  11  24  46  72 109 152 196 250 319 387 451
#
# _framework density 28.025182000000001
#
# number of rings (size 3 to 8) (size 9 to 14) (size 15 to 20)
#    0.000    1.818    0.000    1.636    7.636    1.455 
#    9.818    2.727    0.000    0.000    0.000    0.000 
#    0.000    0.000    0.000    0.000    0.000    0.000 
#
# Total GULP energy -61311.741413 kJ/mol
# GULP energy per Si atom -5573.794674 kJ/mol
# Density = 2.796139 g / cm^3
# Si number density = 28.025182 Si / 1000 Ang^3
#
#
#
# Elastic Constant Matrix: (Units=GPa)
#
#
# Indices 1 2 3 4 5 6 
#
# 1 134.8369 40.5434 22.2129 5.5397 13.2286 -0.5083
# 2 40.5434 203.7775 61.8190 29.9991 5.5402 19.0881
# 3 22.2129 61.8190 90.4013 19.8970 29.9030 9.7189
# 4 5.5397 29.9991 19.8970 80.2548 8.7347 16.6332
# 5 13.2286 5.5402 29.9030 8.7347 50.5141 -3.5409
# 6 -0.5083 19.0881 9.7189 16.6332 -3.5409 44.1903
#
#
#
# Elastic Compliance Matrix: (Units=1/GPa)
#
#
# Indices 1 2 3 4 5 6 
#
# 1 0.008109 -0.001491 -0.000546 0.000172 -0.001620 0.000663
# 2 -0.001491 0.006896 -0.004790 -0.001315 0.002610 -0.001238
# 3 -0.000546 -0.004790 0.018331 -0.001122 -0.010155 -0.002360
# 4 0.000172 -0.001315 -0.001122 0.014434 -0.002068 -0.004782
# 5 -0.001620 0.002610 -0.010155 -0.002068 0.026583 0.003996
# 6 0.000663 -0.001238 -0.002360 -0.004782 0.003996 0.025811
#
#
# Mechanical properties :
#
#
# Convention : Reuss Voigt Hill
#
# Bulk Modulus (GPa) = 50.80921 75.35181 63.08051
# Shear Modulus (GPa) = 41.53532 55.28785 48.41159
#
# Velocity S-wave (km/s) = 3.85394 4.44643 4.16075
# Velocity P-wave (km/s) = 6.16223 7.30113 6.75572
#
# Compressibility (1/GPa) = 0.01968147
#
# Stress axis : x y z
#
# Youngs Moduli (GPa) = 123.31910 145.01892 54.55176
#
# Poissons Ratio (x) = 0.21623 0.02979
# Poissons Ratio (y) = 0.18388 0.26131
# Poissons Ratio (z) = 0.06735 0.69465
#
# Static dielectric constant tensor:
#      x y z
#    x 2.118790 -0.063700 -0.227440 
#    y -0.063700 1.979930 0.290880 
#    z -0.227440 0.290880 2.226640 
# 
# From -- ./inp_files/547540.got.cif
#   From: 2010.05.17/outbox.cif.g08.bks.cpg/sg2_274_cif.got.tgz:547540.got - 2010.06.03 11:33:40.
