data_PCOD9035745
_publ_section_title
;
Structure prediction by ZEFSAII (Michael W. Deem and Ramdas Pophale) SiO2 
 PCOD9035745
Probable space group: P -1
;
_chemical_formula_sum "Si O2"
_cell_formula_units_Z 16
_cell_length_a 6.457532
_cell_length_b 17.763946
_cell_length_c 9.656099
_cell_angle_alpha 58.475960
_cell_angle_beta 114.105980
_cell_angle_gamma 124.140603
_cell_volume 771.026420
_symmetry_space_group_name_H-M "P -1"
_symmetry_group_IT_number 2
_symmetry_cell_setting 'triclinic'
loop_
_space_group_symop_operation_xyz
x,y,z
-x,-y,-z
loop_
_atom_site_type_symbol
_atom_site_label
_atom_site_fract_x
_atom_site_fract_y
_atom_site_fract_z
Si Si1 0.925157 0.393001 0.909976
Si Si2 0.082885 0.910993 0.603024
Si Si3 0.256206 0.036989 0.949894
Si Si4 0.518700 0.939542 0.278245
Si Si5 0.188853 0.618880 0.781494
Si Si6 0.931338 0.218799 0.541520
Si Si7 0.768727 0.734515 0.896162
Si Si8 0.376879 0.244426 0.852211
O O1 0.646062 0.339659 0.817834
O O2 0.076818 0.507605 0.802061
O O3 0.879065 0.387253 0.068406
O O4 0.085781 0.332934 0.984476
O O5 0.060276 0.851210 0.513558
O O6 0.929899 0.830080 0.755412
O O7 0.376439 0.970933 0.671312
O O8 0.000000 0.000000 0.500000
O O9 0.251144 0.046605 0.774091
O O10 0.426371 0.148970 0.935509
O O11 0.344798 0.957253 0.101127
O O12 0.000000 0.000000 0.000000
O O13 0.342546 0.839353 0.401952
O O14 0.066774 0.682586 0.613728
O O15 0.494374 0.674123 0.807123
O O16 0.160010 0.237950 0.691901
O O17 0.719889 0.760773 0.012507
#
# Coordination Sequence:
#
# PCOD9035745 Si02
#       8
#     2   2   2   2   2   2   2   2
#     4  10  22  46  71  95 129 178 231 274 334 406
#     4  12  25  41  66  97 137 180 221 271 334 396
#     4  11  22  42  65  95 131 183 219 266 319 402
#     4  11  25  39  66  92 134 177 227 265 322 394
#     4  10  23  44  71  98 130 174 225 286 336 393
#     4  12  25  44  63 105 142 172 220 287 339 392
#     4  11  23  44  70  98 127 181 229 270 332 410
#     4  11  25  39  69  98 138 170 226 273 337 402
#
# _framework density 20.751560000000001
#
# number of rings (size 3 to 8) (size 9 to 14) (size 15 to 20)
#    0.000    1.000    2.500    3.750    7.000    0.500 
#    0.000    0.625    0.000    0.000    0.000    0.000 
#    0.000    0.000    0.000    0.000    0.000    0.000 
#
# Total GULP energy -89324.260525 kJ/mol
# GULP energy per Si atom -5582.766283 kJ/mol
# Density = 2.070433 g / cm^3
# Si number density = 20.751560 Si / 1000 Ang^3
#
#
#
# Elastic Constant Matrix: (Units=GPa)
#
#
# Indices 1 2 3 4 5 6 
#
# 1 62.1349 31.0283 41.0302 -2.3726 -2.7706 -7.0085
# 2 31.0283 139.4456 64.7318 -12.1028 -2.3430 0.6698
# 3 41.0302 64.7318 101.1909 -13.2781 5.9471 -0.0489
# 4 -2.3726 -12.1028 -13.2781 40.6757 -5.2325 3.5319
# 5 -2.7706 -2.3430 5.9471 -5.2325 20.8374 0.0823
# 6 -7.0085 0.6698 -0.0489 3.5319 0.0823 32.6854
#
#
#
# Elastic Compliance Matrix: (Units=1/GPa)
#
#
# Indices 1 2 3 4 5 6 
#
# 1 0.023601 -0.000923 -0.009521 -0.001782 0.005284 0.005245
# 2 -0.000923 0.010507 -0.006345 0.001469 0.003241 -0.000590
# 3 -0.009521 -0.006345 0.018574 0.002971 -0.006526 -0.002188
# 4 -0.001782 0.001469 0.002971 0.026930 0.005856 -0.003332
# 5 0.005284 0.003241 -0.006526 0.005856 0.052389 0.000292
# 6 0.005245 -0.000590 -0.002188 -0.003332 0.000292 0.032087
#
#
# Mechanical properties :
#
#
# Convention : Reuss Voigt Hill
#
# Bulk Modulus (GPa) = 52.34458 64.03910 58.19184
# Shear Modulus (GPa) = 24.50560 29.90509 27.20535
#
# Velocity S-wave (km/s) = 3.44016 3.80030 3.62470
# Velocity P-wave (km/s) = 6.40771 7.08402 6.75433
#
# Compressibility (1/GPa) = 0.01910417
#
# Stress axis : x y z
#
# Youngs Moduli (GPa) = 42.37082 95.17660 53.83866
#
# Poissons Ratio (x) = 0.08783 0.51260
# Poissons Ratio (y) = 0.03910 0.34160
# Poissons Ratio (z) = 0.40342 0.60389
#
# Static dielectric constant tensor:
#      x y z
#    x 1.967370 -0.022980 0.021090 
#    y -0.022980 1.770260 0.041530 
#    z 0.021090 0.041530 1.774740 
# 
# From -- ./inp_files/124659.got.cif
#   From: 2010.05.17/outbox.cif.g08.bks.cpg/sg2_63_cif.got.tgz:124659.got - 2010.06.03 11:33:40.
