data_PCOD9035486
_publ_section_title
;
Structure prediction by ZEFSAII (Michael W. Deem and Ramdas Pophale) SiO2 
 PCOD9035486
Probable space group: P -1
;
_chemical_formula_sum "Si O2"
_cell_formula_units_Z 15
_cell_length_a 11.788825
_cell_length_b 11.544052
_cell_length_c 6.869062
_cell_angle_alpha 55.679344
_cell_angle_beta 119.610682
_cell_angle_gamma 125.210999
_cell_volume 610.693369
_symmetry_space_group_name_H-M "P -1"
_symmetry_group_IT_number 2
_symmetry_cell_setting 'triclinic'
loop_
_space_group_symop_operation_xyz
x,y,z
-x,-y,-z
loop_
_atom_site_type_symbol
_atom_site_label
_atom_site_fract_x
_atom_site_fract_y
_atom_site_fract_z
Si Si1 0.801702 0.274281 0.543527
Si Si2 0.164697 0.245710 0.385133
Si Si3 0.360978 0.022798 0.814680
Si Si4 0.500000 0.500000 0.500000
Si Si5 0.502791 0.720415 0.639100
Si Si6 0.041437 0.447329 0.884486
Si Si7 0.115652 0.914038 0.484038
Si Si8 0.602215 0.718633 0.147681
O O1 0.639280 0.254743 0.450223
O O2 0.873590 0.408046 0.317719
O O3 0.828633 0.127620 0.628602
O O4 0.896749 0.338950 0.753359
O O5 0.317607 0.334803 0.546253
O O6 0.048706 0.196426 0.507698
O O7 0.134644 0.086390 0.396061
O O8 0.135662 0.353950 0.106139
O O9 0.405751 0.137032 0.557658
O O10 0.330108 0.103877 0.899380
O O11 0.217078 0.883874 0.758972
O O12 0.500000 0.000000 0.000000
O O13 0.473137 0.567186 0.636038
O O14 0.451957 0.627042 0.213334
O O15 0.589461 0.713315 0.913055
O O16 0.000000 0.500000 0.000000
#
# Coordination Sequence:
#
# PCOD9035486 Si02
#       8
#     2   2   2   1   2   2   2   2
#     4  11  26  43  73 107 137 184 240 287 355 418
#     4  10  23  45  73  95 146 184 229 291 346 419
#     4  10  23  43  68  98 141 178 229 290 352 410
#     4  10  24  44  66  98 136 190 226 284 354 404
#     4  11  25  45  69 104 139 183 235 293 345 427
#     4  11  25  46  68 106 143 186 230 293 353 415
#     4  10  22  46  66 106 131 184 236 282 350 412
#     4  10  23  42  67 101 133 180 231 285 352 413
#
# _framework density 24.562244
#
# number of rings (size 3 to 8) (size 9 to 14) (size 15 to 20)
#    0.000    1.600    1.333    1.200    5.600    3.733 
#   14.400    0.000    0.000    0.000    0.000    0.000 
#    0.000    0.000    0.000    0.000    0.000    0.000 
#
# Total GULP energy -83558.112942 kJ/mol
# GULP energy per Si atom -5570.540863 kJ/mol
# Density = 2.450634 g / cm^3
# Si number density = 24.562244 Si / 1000 Ang^3
#
#
#
# Elastic Constant Matrix: (Units=GPa)
#
#
# Indices 1 2 3 4 5 6 
#
# 1 120.9202 36.5147 33.1865 12.8771 -5.7798 -2.3978
# 2 36.5147 100.5202 56.2732 27.4498 -11.1971 -12.0988
# 3 33.1865 56.2732 164.0756 4.9431 -14.7336 -7.3896
# 4 12.8771 27.4498 4.9431 43.0185 -5.4994 -12.5201
# 5 -5.7798 -11.1971 -14.7336 -5.4994 44.2492 7.9742
# 6 -2.3978 -12.0988 -7.3896 -12.5201 7.9742 36.9933
#
#
#
# Elastic Compliance Matrix: (Units=1/GPa)
#
#
# Indices 1 2 3 4 5 6 
#
# 1 0.009463 -0.002609 -0.001000 -0.001292 0.000250 -0.000931
# 2 -0.002609 0.016004 -0.004573 -0.008471 0.000938 0.001083
# 3 -0.001000 -0.004573 0.007954 0.002679 0.001587 0.000593
# 4 -0.001292 -0.008471 0.002679 0.031193 0.001011 0.008020
# 5 0.000250 0.000938 0.001587 0.001011 0.024290 -0.004254
# 6 -0.000931 0.001083 0.000593 0.008020 -0.004254 0.031075
#
#
# Mechanical properties :
#
#
# Convention : Reuss Voigt Hill
#
# Bulk Modulus (GPa) = 58.62627 70.82942 64.72785
# Shear Modulus (GPa) = 35.20398 42.15497 38.67948
#
# Velocity S-wave (km/s) = 3.78994 4.14726 3.97262
# Velocity P-wave (km/s) = 6.56291 7.19947 6.88855
#
# Compressibility (1/GPa) = 0.01705720
#
# Stress axis : x y z
#
# Youngs Moduli (GPa) = 105.67128 62.48402 125.72574
#
# Poissons Ratio (x) = 0.16305 0.12569
# Poissons Ratio (y) = 0.27574 0.57494
# Poissons Ratio (z) = 0.10564 0.28574
#
# Static dielectric constant tensor:
#      x y z
#    x 2.019140 0.033040 0.048680 
#    y 0.033040 2.320570 -0.161350 
#    z 0.048680 -0.161350 1.997480 
# 
# From -- ./inp_files/69468.got.cif
#   From: 2010.05.17/outbox.cif.g08.bks.cpg/sg2_35_cif.got.tgz:69468.got - 2010.06.03 11:33:40.
