data_PCOD9035234
_publ_section_title
;
Structure prediction by ZEFSAII (Michael W. Deem and Ramdas Pophale) SiO2 
 PCOD9035234
Probable space group: P -1
;
_chemical_formula_sum "Si O2"
_cell_formula_units_Z 15
_cell_length_a 11.565301
_cell_length_b 24.227850
_cell_length_c 5.878346
_cell_angle_alpha 47.445223
_cell_angle_beta 132.268860
_cell_angle_gamma 148.777403
_cell_volume 609.475562
_symmetry_space_group_name_H-M "P -1"
_symmetry_group_IT_number 2
_symmetry_cell_setting 'triclinic'
loop_
_space_group_symop_operation_xyz
x,y,z
-x,-y,-z
loop_
_atom_site_type_symbol
_atom_site_label
_atom_site_fract_x
_atom_site_fract_y
_atom_site_fract_z
Si Si1 0.915920 0.634462 0.892907
Si Si2 0.325189 0.279342 0.416291
Si Si3 0.469613 0.909150 0.324969
Si Si4 0.500000 0.500000 0.000000
Si Si5 0.404609 0.752891 0.368854
Si Si6 0.125055 0.535385 0.823918
Si Si7 0.078319 0.942556 0.220718
Si Si8 0.014200 0.215078 0.785978
O O1 0.903450 0.703486 0.535554
O O2 0.773155 0.587999 0.063996
O O3 0.798048 0.523467 0.918717
O O4 0.180962 0.710227 0.076157
O O5 0.483648 0.405159 0.348763
O O6 0.466868 0.253709 0.623215
O O7 0.096062 0.169756 0.546339
O O8 0.228486 0.277388 0.057012
O O9 0.527733 0.863910 0.349989
O O10 0.203588 0.817333 0.306079
O O11 0.655721 0.969304 0.602413
O O12 0.500000 0.000000 0.000000
O O13 0.321141 0.666374 0.696669
O O14 0.000000 0.500000 0.500000
O O15 0.000000 0.500000 0.000000
O O16 0.058384 0.893681 0.089018
O O17 0.000000 0.000000 0.000000
#
# Coordination Sequence:
#
# PCOD9035234 Si02
#       8
#     2   2   2   1   2   2   2   2
#     4  11  24  47  75 112 147 199 255 313 389 467
#     4  12  27  50  75 108 152 191 253 313 383 461
#     4  12  25  46  75 103 148 196 245 311 381 447
#     4  12  24  50  76 110 152 194 246 320 384 454
#     4  11  25  47  73 108 147 199 249 314 378 462
#     4  10  22  45  72 108 149 198 255 317 381 466
#     4  12  28  48  73 111 145 196 251 313 377 462
#     4  12  26  49  73 110 145 195 249 314 382 458
#
# _framework density 24.611322000000001
#
# number of rings (size 3 to 8) (size 9 to 14) (size 15 to 20)
#    0.000    0.533    4.000    3.600    3.733    2.667 
#    9.600    0.000    0.000    0.000    0.000    0.000 
#    0.000    0.000    0.000    0.000    0.000    0.000 
#
# Total GULP energy -83573.728230 kJ/mol
# GULP energy per Si atom -5571.581882 kJ/mol
# Density = 2.455531 g / cm^3
# Si number density = 24.611322 Si / 1000 Ang^3
#
#
#
# Elastic Constant Matrix: (Units=GPa)
#
#
# Indices 1 2 3 4 5 6 
#
# 1 91.2969 16.1685 16.9011 5.4247 23.5458 -4.5563
# 2 16.1685 73.3692 37.1295 -20.0127 2.0900 -6.2395
# 3 16.9011 37.1295 67.8074 -11.8354 7.6732 -3.5641
# 4 5.4247 -20.0127 -11.8354 48.3253 0.0631 15.5891
# 5 23.5458 2.0900 7.6732 0.0631 31.6076 -14.0826
# 6 -4.5563 -6.2395 -3.5641 15.5891 -14.0826 63.6278
#
#
#
# Elastic Compliance Matrix: (Units=1/GPa)
#
#
# Indices 1 2 3 4 5 6 
#
# 1 0.014672 -0.003174 -0.001254 -0.002926 -0.010864 -0.001018
# 2 -0.003174 0.021105 -0.010017 0.006480 0.003607 0.000492
# 3 -0.001254 -0.010017 0.021220 0.001573 -0.004080 -0.001172
# 4 -0.002926 0.006480 0.001573 0.026092 -0.001444 -0.006198
# 5 -0.010864 0.003607 -0.004080 -0.001444 0.044767 0.009609
# 6 -0.001018 0.000492 -0.001172 -0.006198 0.009609 0.019271
#
#
# Mechanical properties :
#
#
# Convention : Reuss Voigt Hill
#
# Bulk Modulus (GPa) = 35.57751 41.43020 38.50386
# Shear Modulus (GPa) = 26.97091 39.53043 33.25067
#
# Velocity S-wave (km/s) = 3.31399 4.01208 3.67963
# Velocity P-wave (km/s) = 5.39727 6.19134 5.80789
#
# Compressibility (1/GPa) = 0.02810765
#
# Stress axis : x y z
#
# Youngs Moduli (GPa) = 68.15547 47.38286 47.12613
#
# Poissons Ratio (x) = 0.15039 0.05910
# Poissons Ratio (y) = 0.21633 0.47204
# Poissons Ratio (z) = 0.08547 0.47461
#
# Static dielectric constant tensor:
#      x y z
#    x 1.841670 -0.201820 -0.126250 
#    y -0.201820 1.942580 -0.067490 
#    z -0.126250 -0.067490 1.911280 
# 
# From -- ./inp_files/84173.got.cif
#   From: 2010.05.17/outbox.cif.g08.bks.cpg/sg2_43_cif.got.tgz:84173.got - 2010.06.03 11:33:40.
