data_PCOD9035178
_publ_section_title
;
Structure prediction by ZEFSAII (Michael W. Deem and Ramdas Pophale) SiO2 
 PCOD9035178
Probable space group: P -1
;
_chemical_formula_sum "Si O2"
_cell_formula_units_Z 14
_cell_length_a 12.321941
_cell_length_b 9.107679
_cell_length_c 6.966181
_cell_angle_alpha 73.502963
_cell_angle_beta 59.790242
_cell_angle_gamma 95.876496
_cell_volume 618.761616
_symmetry_space_group_name_H-M "P -1"
_symmetry_group_IT_number 2
_symmetry_cell_setting 'triclinic'
loop_
_space_group_symop_operation_xyz
x,y,z
-x,-y,-z
loop_
_atom_site_type_symbol
_atom_site_label
_atom_site_fract_x
_atom_site_fract_y
_atom_site_fract_z
Si Si1 0.003134 0.137290 0.133764
Si Si2 0.112703 0.455736 0.036771
Si Si3 0.237856 0.652020 0.212510
Si Si4 0.782726 0.635571 0.372072
Si Si5 0.718256 0.922970 0.506503
Si Si6 0.456240 0.946136 0.841519
Si Si7 0.209802 0.984659 0.163811
O O1 0.041393 0.270817 0.218046
O O2 0.086074 0.020248 0.166396
O O3 0.073576 0.238288 0.848265
O O4 0.850738 0.055748 0.272385
O O5 0.158024 0.573389 0.126778
O O6 0.234387 0.446528 0.794407
O O7 0.000000 0.500000 0.000000
O O8 0.226805 0.508285 0.421518
O O9 0.189893 0.796507 0.287797
O O10 0.385313 0.754550 0.980758
O O11 0.704957 0.752686 0.481583
O O12 0.588390 0.980874 0.589825
O O13 0.748680 0.917794 0.711534
O O14 0.336424 0.023136 0.892508
O O15 0.500000 0.000000 0.000000
#
# Coordination Sequence:
#
# PCOD9035178 Si02
#       7
#     2   2   2   2   2   2   2
#     4  10  23  41  65 105 136 175 234 287 341 412
#     4  10  25  41  66 102 144 178 228 287 346 411
#     4  10  22  45  71  99 135 184 232 285 349 401
#     4  10  25  39  68 105 138 177 226 296 345 405
#     4  11  20  41  68 102 137 183 232 289 338 415
#     4   8  20  40  74 100 131 184 238 279 342 421
#     4   9  21  40  71 101 128 184 234 277 344 412
#
# _framework density 22.625838000000002
#
# number of rings (size 3 to 8) (size 9 to 14) (size 15 to 20)
#    1.714    0.571    0.000    1.714    4.000    1.143 
#    0.000    1.429    6.286    0.000    3.714    0.000 
#    0.000    0.000    0.000    0.000    0.000    0.000 
#
# Total GULP energy -77962.359513 kJ/mol
# GULP energy per Si atom -5568.739965 kJ/mol
# Density = 2.257434 g / cm^3
# Si number density = 22.625838 Si / 1000 Ang^3
#
#
#
# Elastic Constant Matrix: (Units=GPa)
#
#
# Indices 1 2 3 4 5 6 
#
# 1 72.5072 19.1194 14.5429 -7.3715 -21.0889 -5.3539
# 2 19.1194 93.6001 1.8442 10.7883 -0.1084 -16.8372
# 3 14.5429 1.8442 69.5509 10.6480 -19.6191 -14.3349
# 4 -7.3715 10.7883 10.6480 42.7289 -3.3578 3.1511
# 5 -21.0889 -0.1084 -19.6191 -3.3578 30.8273 6.7707
# 6 -5.3539 -16.8372 -14.3349 3.1511 6.7707 30.7870
#
#
#
# Elastic Compliance Matrix: (Units=1/GPa)
#
#
# Indices 1 2 3 4 5 6 
#
# 1 0.020189 -0.005635 -0.002002 0.006841 0.014213 -0.004329
# 2 -0.005635 0.014240 0.002296 -0.006256 -0.005144 0.009649
# 3 -0.002002 0.002296 0.019923 -0.005857 0.008733 0.008863
# 4 0.006841 -0.006256 -0.005857 0.028783 0.006096 -0.009245
# 5 0.014213 -0.005144 0.008733 0.006096 0.050105 -0.007919
# 6 -0.004329 0.009649 0.008863 -0.009245 -0.007919 0.043819
#
#
# Mechanical properties :
#
#
# Convention : Reuss Voigt Hill
#
# Bulk Modulus (GPa) = 22.89988 34.07457 28.48722
# Shear Modulus (GPa) = 24.71587 34.21209 29.46398
#
# Velocity S-wave (km/s) = 3.30869 3.89277 3.61255
# Velocity P-wave (km/s) = 4.97390 5.94117 5.47893
#
# Compressibility (1/GPa) = 0.04366836
#
# Stress axis : x y z
#
# Youngs Moduli (GPa) = 49.53181 70.22327 50.19443
#
# Poissons Ratio (x) = 0.39573 0.10051
# Poissons Ratio (y) = 0.27913 -0.11524
# Poissons Ratio (z) = 0.09918 -0.16123
#
# Static dielectric constant tensor:
#      x y z
#    x 1.882360 0.000750 -0.011070 
#    y 0.000750 1.910100 0.049370 
#    z -0.011070 0.049370 1.924940 
# 
# From -- ./inp_files/294729.got.cif
#   From: 2010.05.17/outbox.cif.g08.bks.cpg/sg2_148_cif.got.tgz:294729.got - 2010.06.03 11:33:40.
