data_PCOD9035503
_publ_section_title
;
Structure prediction by ZEFSAII (Michael W. Deem and Ramdas Pophale) SiO2 
 PCOD9035503
Probable space group: P -1
;
_chemical_formula_sum "Si O2"
_cell_formula_units_Z 15
_cell_length_a 12.355656
_cell_length_b 9.970198
_cell_length_c 9.551371
_cell_angle_alpha 134.511207
_cell_angle_beta 53.976163
_cell_angle_gamma 104.069466
_cell_volume 648.748964
_symmetry_space_group_name_H-M "P -1"
_symmetry_group_IT_number 2
_symmetry_cell_setting 'triclinic'
loop_
_space_group_symop_operation_xyz
x,y,z
-x,-y,-z
loop_
_atom_site_type_symbol
_atom_site_label
_atom_site_fract_x
_atom_site_fract_y
_atom_site_fract_z
Si Si1 0.420676 0.832349 0.430723
Si Si2 0.658701 0.147531 0.809392
Si Si3 0.059742 0.709154 0.953023
Si Si4 0.106489 0.330238 0.208899
Si Si5 0.178898 0.278570 0.643075
Si Si6 0.500000 0.000000 0.000000
Si Si7 0.699820 0.540099 0.062926
Si Si8 0.719023 0.067166 0.097323
O O1 0.343586 0.858651 0.360799
O O2 0.323772 0.860354 0.659337
O O3 0.500000 0.000000 0.500000
O O4 0.539929 0.626055 0.200708
O O5 0.730123 0.312948 0.912015
O O6 0.728443 0.921839 0.645989
O O7 0.507696 0.179264 0.014817
O O8 0.122302 0.470909 0.732579
O O9 0.178606 0.814604 0.950583
O O10 0.974823 0.762603 0.912344
O O11 0.951595 0.758670 0.201885
O O12 0.205647 0.421886 0.106472
O O13 0.000000 0.500000 0.500000
O O14 0.194920 0.160969 0.118814
O O15 0.270978 0.340874 0.738659
O O16 0.582727 0.092724 0.125526
#
# Coordination Sequence:
#
# PCOD9035503 Si02
#       8
#     2   2   2   2   2   1   2   2
#     4  12  21  46  67  95 138 191 231 289 345 415
#     4  12  25  41  73  98 141 189 230 292 357 414
#     4  10  24  44  69 101 135 192 228 280 361 421
#     4  11  25  42  67 106 144 170 239 300 338 422
#     4  10  22  46  66  97 146 179 230 289 351 426
#     4  12  26  44  66 110 138 174 244 290 338 424
#     4  11  23  43  69 102 134 186 236 283 357 419
#     4  12  25  45  76 102 142 189 233 293 360 412
#
# _framework density 23.121424999999999
#
# number of rings (size 3 to 8) (size 9 to 14) (size 15 to 20)
#    0.000    0.800    4.000    2.400    5.600    1.067 
#    0.000    5.333    0.000    0.000    0.000    0.000 
#    0.000    0.000    0.000    0.000    0.000    0.000 
#
# Total GULP energy -83739.111484 kJ/mol
# GULP energy per Si atom -5582.607432 kJ/mol
# Density = 2.306880 g / cm^3
# Si number density = 23.121425 Si / 1000 Ang^3
#
#
#
# Elastic Constant Matrix: (Units=GPa)
#
#
# Indices 1 2 3 4 5 6 
#
# 1 77.1795 47.4203 6.0825 -2.2574 2.9732 0.0636
# 2 47.4203 103.6803 11.5038 4.6610 21.2522 19.5946
# 3 6.0825 11.5038 53.4703 6.0534 7.9877 -12.5371
# 4 -2.2574 4.6610 6.0534 28.9790 -9.9495 1.7739
# 5 2.9732 21.2522 7.9877 -9.9495 21.9294 4.5482
# 6 0.0636 19.5946 -12.5371 1.7739 4.5482 38.7395
#
#
#
# Elastic Compliance Matrix: (Units=1/GPa)
#
#
# Indices 1 2 3 4 5 6 
#
# 1 0.021089 -0.013502 -0.001524 0.008607 0.013797 0.004287
# 2 -0.013502 0.022950 -0.000299 -0.012505 -0.024262 -0.008262
# 3 -0.001524 -0.000299 0.025164 -0.011517 -0.016118 0.010717
# 4 0.008607 -0.012505 -0.011517 0.053789 0.040513 -0.004636
# 5 0.013797 -0.024262 -0.016118 0.040513 0.092678 -0.005703
# 6 0.004287 -0.008262 0.010717 -0.004636 -0.005703 0.034335
#
#
# Mechanical properties :
#
#
# Convention : Reuss Voigt Hill
#
# Bulk Modulus (GPa) = 25.93768 40.48260 33.21014
# Shear Modulus (GPa) = 17.03535 29.21779 23.12657
#
# Velocity S-wave (km/s) = 2.71731 3.55867 3.16606
# Velocity P-wave (km/s) = 4.59210 5.86789 5.26876
#
# Compressibility (1/GPa) = 0.03855395
#
# Stress axis : x y z
#
# Youngs Moduli (GPa) = 47.41715 43.57237 39.73917
#
# Poissons Ratio (x) = 0.58831 0.06058
# Poissons Ratio (y) = 0.64022 0.01187
# Poissons Ratio (z) = 0.07229 0.01301
#
# Static dielectric constant tensor:
#      x y z
#    x 1.785270 -0.061040 0.059370 
#    y -0.061040 1.894700 0.013520 
#    z 0.059370 0.013520 1.819960 
# 
# From -- ./inp_files/245774.got.cif
#   From: 2010.05.17/outbox.cif.g08.bks.cpg/sg2_123_cif.got.tgz:245774.got - 2010.06.03 11:33:40.
