data_PCOD9035209
_publ_section_title
;
Structure prediction by ZEFSAII (Michael W. Deem and Ramdas Pophale) SiO2 
 PCOD9035209
Probable space group: P -1
;
_chemical_formula_sum "Si O2"
_cell_formula_units_Z 16
_cell_length_a 9.475397
_cell_length_b 23.259526
_cell_length_c 16.944759
_cell_angle_alpha 17.794692
_cell_angle_beta 38.821730
_cell_angle_gamma 39.509745
_cell_volume 706.832121
_symmetry_space_group_name_H-M "P -1"
_symmetry_group_IT_number 2
_symmetry_cell_setting 'triclinic'
loop_
_space_group_symop_operation_xyz
x,y,z
-x,-y,-z
loop_
_atom_site_type_symbol
_atom_site_label
_atom_site_fract_x
_atom_site_fract_y
_atom_site_fract_z
Si Si1 0.623477 0.515481 0.508583
Si Si2 0.499651 0.284353 0.993976
Si Si3 0.176305 0.559753 0.089914
Si Si4 0.312960 0.061699 0.070911
Si Si5 0.803658 0.892494 0.764898
Si Si6 0.415670 0.329131 0.149574
Si Si7 0.896215 0.975248 0.275759
Si Si8 0.002898 0.796023 0.306099
O O1 0.500000 0.500000 0.500000
O O2 0.711551 0.711737 0.221596
O O3 0.818358 0.337131 0.649681
O O4 0.485611 0.472087 0.701591
O O5 0.368657 0.145600 0.179729
O O6 0.397549 0.348843 0.038575
O O7 0.753082 0.172030 0.049529
O O8 0.288476 0.501841 0.031868
O O9 0.172479 0.356348 0.401842
O O10 0.326993 0.682467 0.915724
O O11 0.938114 0.689620 0.003446
O O12 0.338136 0.018141 0.211950
O O13 0.500000 0.000000 0.000000
O O14 0.073884 0.999024 0.234629
O O15 0.000000 0.000000 0.500000
O O16 0.300727 0.145037 0.458580
O O17 0.046908 0.854297 0.300545
O O18 0.000000 0.000000 0.000000
#
# Coordination Sequence:
#
# PCOD9035209 Si02
#       8
#     2   2   2   2   2   2   2   2
#     4  12  24  46  68  99 147 190 239 304 371 432
#     4  12  24  40  71 103 139 192 242 301 364 442
#     4  10  22  45  72 101 150 191 238 315 365 440
#     4  12  27  46  73 106 150 196 244 308 378 442
#     4  12  25  44  71 101 147 197 246 298 375 442
#     4  10  23  43  70 106 142 188 244 304 367 439
#     4  11  24  42  70 104 145 186 244 306 362 443
#     4  11  22  42  71 100 140 191 244 293 368 431
#
# _framework density 22.636209999999998
#
# number of rings (size 3 to 8) (size 9 to 14) (size 15 to 20)
#    0.000    0.750    3.750    3.375    0.000    4.000 
#    0.000    0.000    0.000    0.000    0.000    0.000 
#    0.000    0.000    0.000    0.000    0.000    0.000 
#
# Total GULP energy -89196.362765 kJ/mol
# GULP energy per Si atom -5574.772673 kJ/mol
# Density = 2.258469 g / cm^3
# Si number density = 22.636210 Si / 1000 Ang^3
#
#
#
# Elastic Constant Matrix: (Units=GPa)
#
#
# Indices 1 2 3 4 5 6 
#
# 1 119.8484 36.0626 26.2672 11.1106 -12.5086 30.1964
# 2 36.0626 116.7591 31.7887 13.7823 18.3208 28.2409
# 3 26.2672 31.7887 114.4832 9.6101 -1.4981 23.2868
# 4 11.1106 13.7823 9.6101 38.0362 10.9375 13.8113
# 5 -12.5086 18.3208 -1.4981 10.9375 27.9141 4.3556
# 6 30.1964 28.2409 23.2868 13.8113 4.3556 37.6137
#
#
#
# Elastic Compliance Matrix: (Units=1/GPa)
#
#
# Indices 1 2 3 4 5 6 
#
# 1 0.012587 -0.003239 -0.000045 -0.002497 0.009972 -0.007883
# 2 -0.003239 0.012687 -0.001990 0.001492 -0.009670 -0.005122
# 3 -0.000045 -0.001990 0.010417 -0.000977 0.002993 -0.004907
# 4 -0.002497 0.001492 -0.000977 0.034202 -0.014079 -0.009440
# 5 0.009972 -0.009670 0.002993 -0.014079 0.052870 -0.003550
# 6 -0.007883 -0.005122 -0.004907 -0.009440 -0.003550 0.043675
#
#
# Mechanical properties :
#
#
# Convention : Reuss Voigt Hill
#
# Bulk Modulus (GPa) = 39.77135 59.92530 49.84832
# Shear Modulus (GPa) = 26.97366 37.84427 32.40896
#
# Velocity S-wave (km/s) = 3.45572 4.09326 3.78793
# Velocity P-wave (km/s) = 5.79056 6.99073 6.41876
#
# Compressibility (1/GPa) = 0.02514373
#
# Stress axis : x y z
#
# Youngs Moduli (GPa) = 79.44951 78.82311 95.99668
#
# Poissons Ratio (x) = 0.25527 0.00433
# Poissons Ratio (y) = 0.25730 0.19100
# Poissons Ratio (z) = 0.00358 0.15683
#
# Static dielectric constant tensor:
#      x y z
#    x 1.826640 -0.023350 0.015360 
#    y -0.023350 1.963070 0.050020 
#    z 0.015360 0.050020 1.889740 
# 
# From -- ./inp_files/508043.got.cif
#   From: 2010.05.17/outbox.cif.g08.bks.cpg/sg2_255_cif.got.tgz:508043.got - 2010.06.03 11:33:40.
