data_PCOD9035559
_publ_section_title
;
Structure prediction by ZEFSAII (Michael W. Deem and Ramdas Pophale) SiO2 
 PCOD9035559
Probable space group: P -1
;
_chemical_formula_sum "Si O2"
_cell_formula_units_Z 13
_cell_length_a 6.458741
_cell_length_b 13.428245
_cell_length_c 8.727448
_cell_angle_alpha 77.115814
_cell_angle_beta 59.686435
_cell_angle_gamma 103.874715
_cell_volume 578.465289
_symmetry_space_group_name_H-M "P -1"
_symmetry_group_IT_number 2
_symmetry_cell_setting 'triclinic'
loop_
_space_group_symop_operation_xyz
x,y,z
-x,-y,-z
loop_
_atom_site_type_symbol
_atom_site_label
_atom_site_fract_x
_atom_site_fract_y
_atom_site_fract_z
Si Si1 0.374748 0.557059 0.819767
Si Si2 0.960341 0.346683 0.908298
Si Si3 0.376506 0.734680 0.511319
Si Si4 0.000000 0.000000 0.500000
Si Si5 0.859095 0.949042 0.228313
Si Si6 0.943542 0.609471 0.488966
Si Si7 0.378874 0.875858 0.737631
O O1 0.340835 0.623972 0.658725
O O2 0.683170 0.587346 0.692466
O O3 0.199220 0.424796 0.903801
O O4 0.257233 0.602872 0.987861
O O5 0.075382 0.364822 0.689707
O O6 0.809762 0.214684 0.041150
O O7 0.677688 0.816125 0.333173
O O8 0.287030 0.806495 0.637865
O O9 0.194397 0.704952 0.442447
O O10 0.968860 0.019110 0.692365
O O11 0.313091 0.091172 0.363623
O O12 0.666412 0.012784 0.292904
O O13 0.000000 0.000000 0.000000
O O14 0.000000 0.500000 0.500000
#
# Coordination Sequence:
#
# PCOD9035559 Si02
#       7
#     2   2   2   1   2   2   2
#     4  10  23  45  65  94 139 175 222 283 343 400
#     4  10  23  44  67  98 133 180 225 281 341 406
#     4  10  23  44  64  98 132 175 223 280 340 396
#     4  10  22  46  68  90 134 184 214 282 344 380
#     4  11  26  43  70 103 135 177 233 282 338 417
#     4  12  25  41  69 101 135 180 223 279 344 409
#     4  10  24  46  68  97 136 175 229 282 338 411
#
# _framework density 22.47326
#
# number of rings (size 3 to 8) (size 9 to 14) (size 15 to 20)
#    0.000    1.538    1.538    2.308    4.308    8.615 
#    0.000    0.000    0.000    0.000    0.000    0.000 
#    0.000    0.000    0.000    0.000    0.000    0.000 
#
# Total GULP energy -72370.652920 kJ/mol
# GULP energy per Si atom -5566.973302 kJ/mol
# Density = 2.242211 g / cm^3
# Si number density = 22.473260 Si / 1000 Ang^3
#
#
#
# Elastic Constant Matrix: (Units=GPa)
#
#
# Indices 1 2 3 4 5 6 
#
# 1 30.3097 41.3546 6.9410 9.6540 -4.9963 13.8031
# 2 41.3546 72.2002 25.0557 -16.6715 -8.7372 25.2267
# 3 6.9410 25.0557 99.7800 2.4643 -4.0889 9.1598
# 4 9.6540 -16.6715 2.4643 40.4882 -3.2886 7.7829
# 5 -4.9963 -8.7372 -4.0889 -3.2886 19.1995 1.1915
# 6 13.8031 25.2267 9.1598 7.7829 1.1915 38.2694
#
#
#
# Elastic Compliance Matrix: (Units=1/GPa)
#
#
# Indices 1 2 3 4 5 6 
#
# 1 -0.108533 0.106261 -0.015662 0.081938 0.033596 -0.044861
# 2 0.106261 -0.074131 0.010158 -0.061835 -0.015825 0.021177
# 3 -0.015662 0.010158 0.008989 0.008697 0.004267 -0.005100
# 4 0.081938 -0.061835 0.008697 -0.024414 -0.010040 0.014403
# 5 0.033596 -0.015825 0.004267 -0.010040 0.052959 -0.002314
# 6 -0.044861 0.021177 -0.005100 0.014403 -0.002314 0.026715
#
#
# Mechanical properties :
#
#
# Convention : Reuss Voigt Hill
#
# Bulk Modulus (GPa) = 35.92188 38.77693 37.34940
# Shear Modulus (GPa) = -16.09539 28.18732 6.04597
#
# Velocity S-wave (km/s) = -2.67910 3.54540 1.64199
# Velocity P-wave (km/s) = 2.53947 5.83540 4.50005
#
# Compressibility (1/GPa) = 0.02783819
#
# Stress axis : x y z
#
# Youngs Moduli (GPa) = -9.21376 -13.48972 111.24603
#
# Poissons Ratio (x) = 1.43342 1.74232
# Poissons Ratio (y) = 0.97906 -1.13001
# Poissons Ratio (z) = -0.14430 0.13703
#
# Static dielectric constant tensor:
#      x y z
#    x 1.867020 -0.044740 0.026810 
#    y -0.044740 1.773480 0.034790 
#    z 0.026810 0.034790 1.920020 
# 
# From -- ./inp_files/35354.got.cif
#   From: 2010.05.17/outbox.cif.g08.bks.cpg/sg2_18_cif.got.tgz:35354.got - 2010.06.03 11:33:40.
