data_PCOD9035584
_publ_section_title
;
Structure prediction by ZEFSAII (Michael W. Deem and Ramdas Pophale) SiO2 
 PCOD9035584
Probable space group: P -1
;
_chemical_formula_sum "Si O2"
_cell_formula_units_Z 15
_cell_length_a 20.907678
_cell_length_b 12.120038
_cell_length_c 5.176743
_cell_angle_alpha 81.809184
_cell_angle_beta 71.354458
_cell_angle_gamma 26.709548
_cell_volume 526.169235
_symmetry_space_group_name_H-M "P -1"
_symmetry_group_IT_number 2
_symmetry_cell_setting 'triclinic'
loop_
_space_group_symop_operation_xyz
x,y,z
-x,-y,-z
loop_
_atom_site_type_symbol
_atom_site_label
_atom_site_fract_x
_atom_site_fract_y
_atom_site_fract_z
Si Si1 0.956511 0.784896 0.456470
Si Si2 0.388214 0.559646 0.668642
Si Si3 0.082340 0.978573 0.199565
Si Si4 0.741864 0.427861 0.545495
Si Si5 0.506809 0.161830 0.920835
Si Si6 0.500000 0.000000 0.500000
Si Si7 0.847451 0.581801 0.167224
Si Si8 0.176974 0.219911 0.473893
O O1 0.057318 0.602330 0.641710
O O2 0.800865 0.942015 0.571397
O O3 0.054454 0.610535 0.134460
O O4 0.918783 0.964706 0.532539
O O5 0.500000 0.500000 0.500000
O O6 0.349666 0.536995 0.482344
O O7 0.465681 0.351253 0.829701
O O8 0.212421 0.850503 0.908343
O O9 0.174770 0.726835 0.236450
O O10 0.901187 0.231027 0.258433
O O11 0.592027 0.728962 0.730730
O O12 0.465758 0.139406 0.755613
O O13 0.695002 0.893866 0.792481
O O14 0.678439 0.781933 0.319610
O O15 0.825125 0.745397 0.231015
O O16 0.000000 0.500000 0.500000
#
# Coordination Sequence:
#
# PCOD9035584 Si02
#       8
#     2   2   2   2   2   1   2   2
#     4  11  23  39  68  95 136 179 241 288 368 428
#     4  11  26  42  68 105 144 186 230 303 367 441
#     4  10  24  41  69  96 135 188 237 295 351 444
#     4  10  23  45  66  98 139 182 242 292 366 428
#     4  10  23  44  70 100 141 184 238 303 361 439
#     4  10  22  46  68  98 138 182 246 296 374 424
#     4  10  23  41  63  99 134 183 233 303 357 439
#     4   9  21  43  63  96 137 181 236 298 360 433
#
# _framework density 28.507936999999998
#
# number of rings (size 3 to 8) (size 9 to 14) (size 15 to 20)
#    0.000    1.867    0.000    1.600    7.467    1.600 
#   16.800    0.000    0.000    0.000    0.000    0.000 
#    0.000    0.000    0.000    0.000    0.000    0.000 
#
# Total GULP energy -83686.059609 kJ/mol
# GULP energy per Si atom -5579.070641 kJ/mol
# Density = 2.844305 g / cm^3
# Si number density = 28.507937 Si / 1000 Ang^3
#
#
#
# Elastic Constant Matrix: (Units=GPa)
#
#
# Indices 1 2 3 4 5 6 
#
# 1 214.2411 33.4018 91.5103 13.1187 -8.5369 -56.4752
# 2 33.4018 110.9614 48.4567 20.7835 -7.4358 -24.3243
# 3 91.5103 48.4567 223.9433 10.9471 3.9279 -43.2276
# 4 13.1187 20.7835 10.9471 48.2302 -8.6822 -6.5205
# 5 -8.5369 -7.4358 3.9279 -8.6822 52.1748 -1.8639
# 6 -56.4752 -24.3243 -43.2276 -6.5205 -1.8639 56.5748
#
#
#
# Elastic Compliance Matrix: (Units=1/GPa)
#
#
# Indices 1 2 3 4 5 6 
#
# 1 0.006991 0.000107 -0.001790 -0.000525 0.001408 0.005643
# 2 0.000107 0.011224 -0.001680 -0.003825 0.001223 0.003248
# 3 -0.001790 -0.001680 0.005967 -0.000036 -0.000915 0.002016
# 4 -0.000525 -0.003825 -0.000036 0.023198 0.003253 0.000585
# 5 0.001408 0.001223 -0.000915 0.003253 0.020262 0.002274
# 6 0.005643 0.003248 0.002016 0.000585 0.002274 0.026389
#
#
# Mechanical properties :
#
#
# Convention : Reuss Voigt Hill
#
# Bulk Modulus (GPa) = 57.28237 99.54261 78.41249
# Shear Modulus (GPa) = 46.91490 56.44777 51.68134
#
# Velocity S-wave (km/s) = 4.06110 4.45463 4.26241
# Velocity P-wave (km/s) = 6.49054 7.83911 7.19648
#
# Compressibility (1/GPa) = 0.01745738
#
# Stress axis : x y z
#
# Youngs Moduli (GPa) = 143.03491 89.09443 167.58181
#
# Poissons Ratio (x) = -0.00952 0.29992
# Poissons Ratio (y) = -0.01528 0.28149
# Poissons Ratio (z) = 0.25599 0.14965
#
# Static dielectric constant tensor:
#      x y z
#    x 2.495480 0.375870 -0.014120 
#    y 0.375870 2.453800 0.029860 
#    z -0.014120 0.029860 2.379430 
# 
# From -- ./inp_files/119336.got.cif
#   From: 2010.05.17/outbox.cif.g08.bks.cpg/sg2_60_cif.got.tgz:119336.got - 2010.06.03 11:33:40.
