data_PCOD9035622
_publ_section_title
;
Structure prediction by ZEFSAII (Michael W. Deem and Ramdas Pophale) SiO2 
 PCOD9035622
Probable space group: P -1
;
_chemical_formula_sum "Si O2"
_cell_formula_units_Z 14
_cell_length_a 13.763452
_cell_length_b 7.817541
_cell_length_c 9.106272
_cell_angle_alpha 67.064626
_cell_angle_beta 91.603119
_cell_angle_gamma 46.174797
_cell_volume 581.936882
_symmetry_space_group_name_H-M "P -1"
_symmetry_group_IT_number 2
_symmetry_cell_setting 'triclinic'
loop_
_space_group_symop_operation_xyz
x,y,z
-x,-y,-z
loop_
_atom_site_type_symbol
_atom_site_label
_atom_site_fract_x
_atom_site_fract_y
_atom_site_fract_z
Si Si1 0.162827 0.431268 0.565055
Si Si2 0.639288 0.198268 0.691740
Si Si3 0.059089 0.157722 0.333435
Si Si4 0.236565 0.907526 0.679347
Si Si5 0.498040 0.997200 0.178841
Si Si6 0.966769 0.988708 0.167658
Si Si7 0.562487 0.520504 0.854005
O O1 0.166310 0.214371 0.585431
O O2 0.331572 0.250794 0.668971
O O3 0.085280 0.673571 0.356407
O O4 0.073153 0.558574 0.672908
O O5 0.500000 0.500000 0.500000
O O6 0.584561 0.071529 0.764683
O O7 0.668952 0.272823 0.818931
O O8 0.799292 0.947174 0.699140
O O9 0.150245 0.915373 0.548650
O O10 0.983031 0.149903 0.208368
O O11 0.196131 0.865136 0.845768
O O12 0.401315 0.719033 0.698445
O O13 0.424155 0.285583 0.158751
O O14 0.500000 0.000000 0.000000
O O15 0.000000 0.000000 0.000000
O O16 0.500000 0.500000 0.000000
#
# Coordination Sequence:
#
# PCOD9035622 Si02
#       7
#     2   2   2   2   2   2   2
#     4  10  23  47  72  97 139 184 235 288 347 433
#     4  12  25  45  71 105 146 182 239 299 352 426
#     4  11  23  42  68 101 135 181 228 286 357 411
#     4  10  22  46  69  95 135 190 231 286 357 414
#     4  11  25  47  76 104 137 196 240 288 368 418
#     4  11  24  39  67 103 135 178 232 284 350 414
#     4  11  24  43  74 100 140 188 242 292 352 431
#
# _framework density 24.057594000000002
#
# number of rings (size 3 to 8) (size 9 to 14) (size 15 to 20)
#    0.000    1.143    2.857    4.286    4.000    0.571 
#    5.143    3.571    0.000    0.000    0.000    0.000 
#    0.000    0.000    0.000    0.000    0.000    0.000 
#
# Total GULP energy -78104.314365 kJ/mol
# GULP energy per Si atom -5578.879598 kJ/mol
# Density = 2.400284 g / cm^3
# Si number density = 24.057594 Si / 1000 Ang^3
#
#
#
# Elastic Constant Matrix: (Units=GPa)
#
#
# Indices 1 2 3 4 5 6 
#
# 1 130.3449 40.6665 40.6706 21.1102 -31.6970 1.9367
# 2 40.6665 121.0670 54.6719 30.1293 -21.3138 -3.9169
# 3 40.6706 54.6719 104.1549 40.1141 -22.3792 15.3962
# 4 21.1102 30.1293 40.1141 44.2218 4.0608 5.8957
# 5 -31.6970 -21.3138 -22.3792 4.0608 34.8381 16.3036
# 6 1.9367 -3.9169 15.3962 5.8957 16.3036 29.7712
#
#
#
# Elastic Compliance Matrix: (Units=1/GPa)
#
#
# Indices 1 2 3 4 5 6 
#
# 1 0.015579 -0.000960 0.011380 -0.017247 0.033074 -0.021722
# 2 -0.000960 0.012273 -0.003543 -0.005371 0.003825 0.002478
# 3 0.011380 -0.003543 0.047588 -0.045253 0.069810 -0.055085
# 4 -0.017247 -0.005371 -0.045253 0.075929 -0.082031 0.053704
# 5 0.033074 0.003825 0.069810 -0.082031 0.168889 -0.113994
# 6 -0.021722 0.002478 -0.055085 0.053704 -0.113994 0.115607
#
#
# Mechanical properties :
#
#
# Convention : Reuss Voigt Hill
#
# Bulk Modulus (GPa) = 11.21147 69.73164 40.47156
# Shear Modulus (GPa) = 11.06584 36.40340 23.73462
#
# Velocity S-wave (km/s) = 2.14702 3.89418 3.14439
# Velocity P-wave (km/s) = 3.28887 7.01910 5.48108
#
# Compressibility (1/GPa) = 0.08919437
#
# Stress axis : x y z
#
# Youngs Moduli (GPa) = 64.18727 81.48226 21.01377
#
# Poissons Ratio (x) = 0.07824 -0.23915
# Poissons Ratio (y) = 0.06164 0.07445
# Poissons Ratio (z) = -0.73048 0.28869
#
# Static dielectric constant tensor:
#      x y z
#    x 1.911020 -0.027880 0.161580 
#    y -0.027880 1.922620 -0.058390 
#    z 0.161580 -0.058390 2.331510 
# 
# From -- ./inp_files/292091.got.cif
#   From: 2010.05.17/outbox.cif.g08.bks.cpg/sg2_147_cif.got.tgz:292091.got - 2010.06.03 11:33:40.
