data_PCOD9035706
_publ_section_title
;
Structure prediction by ZEFSAII (Michael W. Deem and Ramdas Pophale) SiO2 
 PCOD9035706
Probable space group: P -1
;
_chemical_formula_sum "Si O2"
_cell_formula_units_Z 16
_cell_length_a 22.231280
_cell_length_b 5.047191
_cell_length_c 11.973584
_cell_angle_alpha 77.263071
_cell_angle_beta 150.271810
_cell_angle_gamma 110.628591
_cell_volume 612.844256
_symmetry_space_group_name_H-M "P -1"
_symmetry_group_IT_number 2
_symmetry_cell_setting 'triclinic'
loop_
_space_group_symop_operation_xyz
x,y,z
-x,-y,-z
loop_
_atom_site_type_symbol
_atom_site_label
_atom_site_fract_x
_atom_site_fract_y
_atom_site_fract_z
Si Si1 0.027464 0.965320 0.827803
Si Si2 0.810218 0.433050 0.619748
Si Si3 0.254795 0.912042 0.043990
Si Si4 0.474009 0.390803 0.277392
Si Si5 0.564781 0.093405 0.923628
Si Si6 0.076176 0.832510 0.568286
Si Si7 0.758347 0.555386 0.766951
Si Si8 0.680514 0.891916 0.331236
O O1 0.938028 0.085694 0.591124
O O2 0.111332 0.179811 0.035258
O O3 0.943871 0.665020 0.775125
O O4 0.138853 0.946674 0.926051
O O5 0.783769 0.394913 0.712305
O O6 0.787746 0.129115 0.553694
O O7 0.710161 0.594428 0.400197
O O8 0.261246 0.620123 0.133242
O O9 0.389653 0.165381 0.252768
O O10 0.211173 0.903689 0.845298
O O11 0.392935 0.599009 0.097847
O O12 0.619104 0.588035 0.521492
O O13 0.484014 0.174513 0.214599
O O14 0.449947 0.133584 0.810632
O O15 0.662151 0.023886 0.171566
O O16 0.000000 0.500000 0.500000
O O17 0.000000 0.000000 0.500000
#
# Coordination Sequence:
#
# PCOD9035706 Si02
#       8
#     2   2   2   2   2   2   2   2
#     4  11  28  47  74 104 149 194 243 302 361 434
#     4  12  27  46  76 110 145 192 244 303 361 439
#     4  11  28  47  74 104 149 194 243 302 361 434
#     4  12  27  46  76 110 145 192 244 303 361 439
#     4  11  24  47  75 110 148 190 243 307 367 425
#     4  10  22  46  70  99 136 185 240 294 353 416
#     4  12  26  49  71 106 150 196 246 294 366 432
#     4  11  24  47  75 110 148 190 243 307 367 425
#
# _framework density 26.107778
#
# number of rings (size 3 to 8) (size 9 to 14) (size 15 to 20)
#    0.000    0.750    3.750    1.500   10.500    3.000 
#    0.000    0.000    0.000    0.000    0.000    0.000 
#    0.000    0.000    0.000    0.000    0.000    0.000 
#
# Total GULP energy -89623.214622 kJ/mol
# GULP energy per Si atom -5601.450914 kJ/mol
# Density = 2.604836 g / cm^3
# Si number density = 26.107778 Si / 1000 Ang^3
#
#
#
# Elastic Constant Matrix: (Units=GPa)
#
#
# Indices 1 2 3 4 5 6 
#
# 1 104.5337 -2.7446 20.7796 -0.8826 1.6035 6.1173
# 2 -2.7446 90.4489 5.5057 -1.9489 2.0525 7.3778
# 3 20.7796 5.5057 100.2635 -11.9445 -0.2492 14.9355
# 4 -0.8826 -1.9489 -11.9445 48.7758 -0.8414 13.5129
# 5 1.6035 2.0525 -0.2492 -0.8414 38.5445 5.7428
# 6 6.1173 7.3778 14.9355 13.5129 5.7428 48.8730
#
#
#
# Elastic Compliance Matrix: (Units=1/GPa)
#
#
# Indices 1 2 3 4 5 6 
#
# 1 0.010023 0.000484 -0.002026 -0.000127 -0.000365 -0.000631
# 2 0.000484 0.011270 -0.000336 0.000888 -0.000325 -0.001867
# 3 -0.002026 -0.000336 0.011557 0.004029 0.000928 -0.004451
# 4 -0.000127 0.000888 0.004029 0.023805 0.001715 -0.008133
# 5 -0.000365 -0.000325 0.000928 0.001715 0.026584 -0.003787
# 6 -0.000631 -0.001867 -0.004451 -0.008133 -0.003787 0.024876
#
#
# Mechanical properties :
#
#
# Convention : Reuss Voigt Hill
#
# Bulk Modulus (GPa) = 34.37028 38.03639 36.20333
# Shear Modulus (GPa) = 41.12904 45.35235 43.24070
#
# Velocity S-wave (km/s) = 3.97338 4.17240 4.07411
# Velocity P-wave (km/s) = 5.85181 6.14919 6.00234
#
# Compressibility (1/GPa) = 0.02909491
#
# Stress axis : x y z
#
# Youngs Moduli (GPa) = 99.76879 88.73196 86.52500
#
# Poissons Ratio (x) = -0.04299 0.17530
# Poissons Ratio (y) = -0.04833 0.02909
# Poissons Ratio (z) = 0.20213 0.02983
#
# Static dielectric constant tensor:
#      x y z
#    x 2.065990 -0.007110 0.015100 
#    y -0.007110 1.983090 -0.024300 
#    z 0.015100 -0.024300 2.095560 
# 
# From -- ./inp_files/473401.got.cif
#   From: 2010.05.17/outbox.cif.g08.bks.cpg/sg2_237_cif.got.tgz:473401.got - 2010.06.03 11:33:40.
