data_PCOD9035015
_publ_section_title
;
Structure prediction by ZEFSAII (Michael W. Deem and Ramdas Pophale) SiO2 
 PCOD9035015
Probable space group: P -1
;
_chemical_formula_sum "Si O2"
_cell_formula_units_Z 14
_cell_length_a 14.435187
_cell_length_b 14.630913
_cell_length_c 8.690226
_cell_angle_alpha 143.734961
_cell_angle_beta 149.076213
_cell_angle_gamma 38.721964
_cell_volume 533.743744
_symmetry_space_group_name_H-M "P -1"
_symmetry_group_IT_number 2
_symmetry_cell_setting 'triclinic'
loop_
_space_group_symop_operation_xyz
x,y,z
-x,-y,-z
loop_
_atom_site_type_symbol
_atom_site_label
_atom_site_fract_x
_atom_site_fract_y
_atom_site_fract_z
Si Si1 0.605449 0.209085 0.461897
Si Si2 0.212711 0.481690 0.222202
Si Si3 0.816274 0.470376 0.115770
Si Si4 0.633704 0.777799 0.408110
Si Si5 0.093643 0.833329 0.618964
Si Si6 0.745469 0.030205 0.732711
Si Si7 0.760360 0.938992 0.085924
O O1 0.401357 0.342622 0.352687
O O2 0.661595 0.098914 0.543935
O O3 0.614790 0.089483 0.168587
O O4 0.769649 0.299701 0.812709
O O5 0.227734 0.656882 0.534943
O O6 0.200285 0.477363 0.013947
O O7 0.000000 0.500000 0.000000
O O8 0.656489 0.594120 0.155637
O O9 0.000000 0.500000 0.500000
O O10 0.416250 0.875517 0.244698
O O11 0.743900 0.850444 0.532681
O O12 0.712815 0.810684 0.730463
O O13 0.136980 0.970531 0.761873
O O14 0.089329 0.897180 0.873510
O O15 0.887616 0.843337 0.275232
#
# Coordination Sequence:
#
# PCOD9035015 Si02
#       7
#     2   2   2   2   2   2   2
#     4  12  28  48  79 112 152 198 260 305 380 442
#     4  12  29  48  74 112 152 197 247 319 380 449
#     4  12  28  48  78 112 148 198 252 312 378 454
#     4  10  24  47  72 107 153 196 246 304 380 437
#     4  10  22  45  70 102 149 195 242 300 380 437
#     4  10  25  43  75 104 150 195 247 308 365 444
#     4  10  23  45  77 103 144 202 243 305 366 455
#
# _framework density 26.229814999999999
#
# number of rings (size 3 to 8) (size 9 to 14) (size 15 to 20)
#    0.000    1.143    1.429    2.143   16.000    3.429 
#    0.000    0.000    0.000    0.000    0.000    0.000 
#    0.000    0.000    0.000    0.000    0.000    0.000 
#
# Total GULP energy -78256.454097 kJ/mol
# GULP energy per Si atom -5589.746721 kJ/mol
# Density = 2.617011 g / cm^3
# Si number density = 26.229815 Si / 1000 Ang^3
#
#
#
# Elastic Constant Matrix: (Units=GPa)
#
#
# Indices 1 2 3 4 5 6 
#
# 1 80.2448 33.2518 51.5548 9.1041 -33.6875 11.2622
# 2 33.2518 119.1084 40.8000 -4.9808 -28.5572 -19.6862
# 3 51.5548 40.8000 159.7177 -2.8144 -34.5631 12.3594
# 4 9.1041 -4.9808 -2.8144 48.0715 -5.4124 -13.6906
# 5 -33.6875 -28.5572 -34.5631 -5.4124 50.2687 3.9781
# 6 11.2622 -19.6862 12.3594 -13.6906 3.9781 42.4860
#
#
#
# Elastic Compliance Matrix: (Units=1/GPa)
#
#
# Indices 1 2 3 4 5 6 
#
# 1 0.023426 -0.004921 -0.003263 -0.007003 0.010761 -0.010805
# 2 -0.004921 0.012671 -0.001709 0.005008 0.002549 0.009048
# 3 -0.003263 -0.001709 0.008611 0.000564 0.003025 -0.002533
# 4 -0.007003 0.005008 0.000564 0.026267 0.000384 0.012441
# 5 0.010761 0.002549 0.003025 0.000384 0.031096 -0.005339
# 6 -0.010805 0.009048 -0.002533 0.012441 -0.005339 0.035839
#
#
# Mechanical properties :
#
#
# Convention : Reuss Voigt Hill
#
# Bulk Modulus (GPa) = 40.12417 67.80935 53.96676
# Shear Modulus (GPa) = 30.11994 43.72954 36.92474
#
# Velocity S-wave (km/s) = 3.39235 4.08753 3.75606
# Velocity P-wave (km/s) = 5.53845 6.94156 6.27932
#
# Compressibility (1/GPa) = 0.02492263
#
# Stress axis : x y z
#
# Youngs Moduli (GPa) = 42.68793 78.92214 116.12588
#
# Poissons Ratio (x) = 0.38835 0.37894
# Poissons Ratio (y) = 0.21005 0.19842
# Poissons Ratio (z) = 0.13930 0.13485
#
# Static dielectric constant tensor:
#      x y z
#    x 2.121430 -0.031050 0.124580 
#    y -0.031050 2.079160 -0.029700 
#    z 0.124580 -0.029700 2.280150 
# 
# From -- ./inp_files/316150.got.cif
#   From: 2010.05.17/outbox.cif.g08.bks.cpg/sg2_159_cif.got.tgz:316150.got - 2010.06.03 11:33:40.
