data_PCOD9035953
_publ_section_title
;
Structure prediction by ZEFSAII (Michael W. Deem and Ramdas Pophale) SiO2 
 PCOD9035953
Probable space group: P -1
;
_chemical_formula_sum "Si O2"
_cell_formula_units_Z 12
_cell_length_a 4.919596
_cell_length_b 13.338870
_cell_length_c 9.362061
_cell_angle_alpha 120.660287
_cell_angle_beta 62.052567
_cell_angle_gamma 88.484281
_cell_volume 437.431628
_symmetry_space_group_name_H-M "P -1"
_symmetry_group_IT_number 2
_symmetry_cell_setting 'triclinic'
loop_
_space_group_symop_operation_xyz
x,y,z
-x,-y,-z
loop_
_atom_site_type_symbol
_atom_site_label
_atom_site_fract_x
_atom_site_fract_y
_atom_site_fract_z
Si Si1 0.756619 0.876746 0.419823
Si Si2 0.418612 0.994660 0.851396
Si Si3 0.339224 0.754443 0.732547
Si Si4 0.669154 0.619756 0.154843
Si Si5 0.060522 0.611781 0.483043
Si Si6 0.468721 0.770088 0.044759
O O1 0.682032 0.751557 0.307700
O O2 0.119781 0.848782 0.255283
O O3 0.500000 0.000000 0.500000
O O4 0.730082 0.915554 0.620596
O O5 0.323284 0.136910 0.928771
O O6 0.224681 0.898458 0.817441
O O7 0.614400 0.255644 0.115088
O O8 0.500000 0.000000 0.000000
O O9 0.124055 0.691057 0.656357
O O10 0.716871 0.680296 0.539764
O O11 0.364729 0.595324 0.289740
O O12 0.612697 0.651038 0.022734
O O13 0.000000 0.500000 0.000000
O O14 0.000000 0.500000 0.500000
#
# Coordination Sequence:
#
# PCOD9035953 Si02
#       6
#     2   2   2   2   2   2
#     4  12  25  47  85 120 170 223 289 361 444 522
#     4  10  22  46  78 122 163 215 277 356 435 519
#     4  11  27  51  84 124 171 226 288 367 444 524
#     4  12  30  53  83 124 176 234 296 364 439 524
#     4  12  29  54  83 116 173 236 298 357 436 526
#     4  11  27  48  82 126 174 219 291 362 438 532
#
# _framework density 27.432862
#
# number of rings (size 3 to 8) (size 9 to 14) (size 15 to 20)
#    0.000    0.667    3.333    2.000    7.000    2.000 
#    0.000    5.000    0.000    0.000    0.000    0.000 
#    0.000    0.000    0.000    0.000    0.000    0.000 
#
# Total GULP energy -67292.348077 kJ/mol
# GULP energy per Si atom -5607.695673 kJ/mol
# Density = 2.737042 g / cm^3
# Si number density = 27.432862 Si / 1000 Ang^3
#
#
#
# Elastic Constant Matrix: (Units=GPa)
#
#
# Indices 1 2 3 4 5 6 
#
# 1 120.5712 39.6786 25.6134 20.2392 6.5426 34.3741
# 2 39.6786 193.5318 54.9326 20.2497 -4.1548 28.9492
# 3 25.6134 54.9326 139.7027 19.9618 -9.1584 8.9740
# 4 20.2392 20.2497 19.9618 66.0416 -9.6338 10.0826
# 5 6.5426 -4.1548 -9.1584 -9.6338 62.3598 13.3025
# 6 34.3741 28.9492 8.9740 10.0826 13.3025 65.1113
#
#
#
# Elastic Compliance Matrix: (Units=1/GPa)
#
#
# Indices 1 2 3 4 5 6 
#
# 1 0.010495 -0.000997 -0.000998 -0.002017 -0.000663 -0.004512
# 2 -0.000997 0.006334 -0.002052 -0.000626 0.000561 -0.002025
# 3 -0.000998 -0.002052 0.008403 -0.001525 0.000895 0.000334
# 4 -0.002017 -0.000626 -0.001525 0.017103 0.002950 -0.001698
# 5 -0.000663 0.000561 0.000895 0.002950 0.017599 -0.004075
# 6 -0.004512 -0.002025 0.000334 -0.001698 -0.004075 0.019690
#
#
# Mechanical properties :
#
#
# Convention : Reuss Voigt Hill
#
# Bulk Modulus (GPa) = 58.34439 77.13943 67.74191
# Shear Modulus (GPa) = 53.51643 60.94128 57.22885
#
# Velocity S-wave (km/s) = 4.42159 4.71836 4.57239
# Velocity P-wave (km/s) = 6.88343 7.60686 7.25417
#
# Compressibility (1/GPa) = 0.01713961
#
# Stress axis : x y z
#
# Youngs Moduli (GPa) = 95.28630 157.87248 119.00643
#
# Poissons Ratio (x) = 0.15736 0.11872
# Poissons Ratio (y) = 0.09498 0.24417
# Poissons Ratio (z) = 0.09506 0.32391
#
# Static dielectric constant tensor:
#      x y z
#    x 2.084070 0.024830 -0.021360 
#    y 0.024830 2.245810 -0.049130 
#    z -0.021360 -0.049130 2.237980 
# 
# From -- ./inp_files/87845.got.cif
#   From: 2010.05.17/outbox.cif.g08.bks.cpg/sg2_44_cif.got.tgz:87845.got - 2010.06.03 11:33:40.
