data_PCOD9035455
_publ_section_title
;
Structure prediction by ZEFSAII (Michael W. Deem and Ramdas Pophale) SiO2 
 PCOD9035455
Probable space group: P -1
;
_chemical_formula_sum "Si O2"
_cell_formula_units_Z 16
_cell_length_a 9.129119
_cell_length_b 10.370093
_cell_length_c 8.893604
_cell_angle_alpha 75.309552
_cell_angle_beta 83.966012
_cell_angle_gamma 79.024534
_cell_volume 798.102025
_symmetry_space_group_name_H-M "P -1"
_symmetry_group_IT_number 2
_symmetry_cell_setting 'triclinic'
loop_
_space_group_symop_operation_xyz
x,y,z
-x,-y,-z
loop_
_atom_site_type_symbol
_atom_site_label
_atom_site_fract_x
_atom_site_fract_y
_atom_site_fract_z
Si Si1 0.642625 0.511257 0.583600
Si Si2 0.868328 0.702953 0.026659
Si Si3 0.197809 0.254481 0.639094
Si Si4 0.533002 0.293541 0.251843
Si Si5 0.167301 0.599646 0.856405
Si Si6 0.485110 0.887508 0.415277
Si Si7 0.074650 0.628236 0.508764
Si Si8 0.400056 0.076429 0.123613
O O1 0.500000 0.500000 0.500000
O O2 0.723031 0.621299 0.458665
O O3 0.590306 0.573718 0.732832
O O4 0.772675 0.380256 0.601400
O O5 0.752111 0.829680 0.940695
O O6 0.030603 0.681028 0.941119
O O7 0.875221 0.722300 0.198184
O O8 0.811758 0.558743 0.054072
O O9 0.346722 0.143766 0.661396
O O10 0.061067 0.247797 0.542555
O O11 0.680789 0.341793 0.163317
O O12 0.558841 0.227944 0.437249
O O13 0.480183 0.184219 0.178535
O O14 0.117901 0.612915 0.682647
O O15 0.500000 0.000000 0.500000
O O16 0.377885 0.955895 0.276054
O O17 0.000000 0.500000 0.500000
O O18 0.500000 0.000000 0.000000
#
# Coordination Sequence:
#
# PCOD9035455 Si02
#       8
#     2   2   2   2   2   2   2   2
#     4  10  17  32  58  89 124 147 194 259 310 359
#     4  11  23  38  63  89 132 169 199 247 321 388
#     4  10  19  35  57  86 113 160 204 244 300 367
#     4  10  22  40  64  93 126 158 210 270 305 361
#     4  11  23  40  59  96 133 158 199 256 325 381
#     4   9  20  38  65  87 114 155 218 261 299 351
#     4  10  19  32  58  86 121 160 198 235 310 375
#     4  11  23  42  68  88 122 172 219 251 309 373
#
# _framework density 20.047561999999999
#
# number of rings (size 3 to 8) (size 9 to 14) (size 15 to 20)
#    0.000    1.750    5.000    0.000    7.000    0.500 
#    0.000    3.750    0.000    0.000    0.000    0.000 
#    0.000    0.000    0.000    0.000    0.000    0.000 
#
# Total GULP energy -89080.101411 kJ/mol
# GULP energy per Si atom -5567.506338 kJ/mol
# Density = 2.000193 g / cm^3
# Si number density = 20.047562 Si / 1000 Ang^3
#
#
#
# Elastic Constant Matrix: (Units=GPa)
#
#
# Indices 1 2 3 4 5 6 
#
# 1 94.4449 30.1318 29.6173 6.7421 -13.9419 -21.5386
# 2 30.1318 74.3492 24.6351 16.9332 -9.9168 -29.2502
# 3 29.6173 24.6351 64.2675 12.1788 -14.5952 -17.9090
# 4 6.7421 16.9332 12.1788 39.3300 -10.4878 6.4601
# 5 -13.9419 -9.9168 -14.5952 -10.4878 32.0800 3.8440
# 6 -21.5386 -29.2502 -17.9090 6.4601 3.8440 34.5311
#
#
#
# Elastic Compliance Matrix: (Units=1/GPa)
#
#
# Indices 1 2 3 4 5 6 
#
# 1 0.013941 -0.002089 -0.003498 -0.000369 0.003122 0.004833
# 2 -0.002089 0.027784 0.000336 -0.016009 -0.000449 0.025452
# 3 -0.003498 0.000336 0.022442 -0.006785 0.005327 0.010419
# 4 -0.000369 -0.016009 -0.006785 0.040947 0.008293 -0.025893
# 5 0.003122 -0.000449 0.005327 0.008293 0.037695 -0.001418
# 6 0.004833 0.025452 0.010419 -0.025893 -0.001418 0.063939
#
#
# Mechanical properties :
#
#
# Convention : Reuss Voigt Hill
#
# Bulk Modulus (GPa) = 18.63377 44.64776 31.64077
# Shear Modulus (GPa) = 21.26405 31.10005 26.18205
#
# Velocity S-wave (km/s) = 3.26034 3.94294 3.61778
# Velocity P-wave (km/s) = 4.84645 6.56112 5.76786
#
# Compressibility (1/GPa) = 0.05366599
#
# Stress axis : x y z
#
# Youngs Moduli (GPa) = 71.73039 35.99137 44.55919
#
# Poissons Ratio (x) = 0.07519 0.15588
# Poissons Ratio (y) = 0.14984 -0.01499
# Poissons Ratio (z) = 0.25093 -0.01211
#
# Static dielectric constant tensor:
#      x y z
#    x 1.654630 -0.197620 0.011050 
#    y -0.197620 1.567910 -0.057930 
#    z 0.011050 -0.057930 1.739880 
# 
# From -- ./inp_files/185851.got.cif
#   From: 2010.05.17/outbox.cif.g08.bks.cpg/sg2_93_cif.got.tgz:185851.got - 2010.06.03 11:33:40.
