data_PCOD9035827
_publ_section_title
;
Structure prediction by ZEFSAII (Michael W. Deem and Ramdas Pophale) SiO2 
 PCOD9035827
Probable space group: P -1
;
_chemical_formula_sum "Si O2"
_cell_formula_units_Z 16
_cell_length_a 15.489569
_cell_length_b 5.545070
_cell_length_c 19.483482
_cell_angle_alpha 94.929617
_cell_angle_beta 151.738985
_cell_angle_gamma 70.746717
_cell_volume 665.166546
_symmetry_space_group_name_H-M "P -1"
_symmetry_group_IT_number 2
_symmetry_cell_setting 'triclinic'
loop_
_space_group_symop_operation_xyz
x,y,z
-x,-y,-z
loop_
_atom_site_type_symbol
_atom_site_label
_atom_site_fract_x
_atom_site_fract_y
_atom_site_fract_z
Si Si1 0.863442 0.844924 0.574696
Si Si2 0.819543 0.632403 0.819602
Si Si3 0.479152 0.046349 0.103126
Si Si4 0.418756 0.683583 0.310992
Si Si5 0.815352 0.527773 0.418327
Si Si6 0.719693 0.744621 0.609339
Si Si7 0.300473 0.834738 0.862802
Si Si8 0.547377 0.334104 0.266898
O O1 0.876770 0.577651 0.538393
O O2 0.817633 0.849384 0.622946
O O3 0.076711 0.847833 0.707843
O O4 0.649634 0.098851 0.393063
O O5 0.689493 0.476080 0.736669
O O6 0.879240 0.583601 0.779933
O O7 0.704357 0.974058 0.759246
O O8 0.000000 0.500000 0.000000
O O9 0.643931 0.048138 0.163118
O O10 0.403460 0.312900 0.107882
O O11 0.605153 0.786731 0.238783
O O12 0.315651 0.008126 0.942080
O O13 0.640105 0.571561 0.505237
O O14 0.440163 0.620599 0.243309
O O15 0.760723 0.286101 0.377739
O O16 0.000000 0.500000 0.500000
O O17 0.500000 0.000000 0.500000
O O18 0.500000 0.500000 0.000000
#
# Coordination Sequence:
#
# PCOD9035827 Si02
#       8
#     2   2   2   2   2   2   2   2
#     4  11  23  41  66 104 132 183 250 303 363 443
#     4  11  25  47  75 110 147 192 239 305 378 447
#     4  10  23  40  63  93 135 191 230 296 372 437
#     4  11  23  46  76 102 147 190 245 303 370 446
#     4  11  21  38  65  96 130 174 239 297 358 420
#     4  10  22  46  73 103 141 189 238 304 366 436
#     4  11  23  44  65  91 145 189 242 294 374 451
#     4  11  22  40  66  98 134 179 241 303 358 434
#
# _framework density 24.054123000000001
#
# number of rings (size 3 to 8) (size 9 to 14) (size 15 to 20)
#    0.000    1.250    1.250    5.250    1.750    4.000 
#    4.500    2.500    0.000    0.000    0.000    0.000 
#    0.000    0.000    0.000    0.000    0.000    0.000 
#
# Total GULP energy -89357.788532 kJ/mol
# GULP energy per Si atom -5584.861783 kJ/mol
# Density = 2.399938 g / cm^3
# Si number density = 24.054123 Si / 1000 Ang^3
#
#
#
# Elastic Constant Matrix: (Units=GPa)
#
#
# Indices 1 2 3 4 5 6 
#
# 1 132.6843 33.6131 53.2364 10.4667 -32.5960 14.7988
# 2 33.6131 97.8090 45.9245 27.6406 -12.8978 1.7957
# 3 53.2364 45.9245 122.4543 33.6204 -37.5513 -5.1046
# 4 10.4667 27.6406 33.6204 43.0403 -3.5223 -10.6150
# 5 -32.5960 -12.8978 -37.5513 -3.5223 45.8670 11.8295
# 6 14.7988 1.7957 -5.1046 -10.6150 11.8295 39.6787
#
#
#
# Elastic Compliance Matrix: (Units=1/GPa)
#
#
# Indices 1 2 3 4 5 6 
#
# 1 0.011577 -0.001457 -0.001913 -0.001529 0.008016 -0.007297
# 2 -0.001457 0.014152 -0.002407 -0.007435 0.001105 -0.002725
# 3 -0.001913 -0.002407 0.016029 -0.010391 0.011116 -0.003210
# 4 -0.001529 -0.007435 -0.010391 0.038854 -0.012210 0.013604
# 5 0.008016 0.001105 0.011116 -0.012210 0.040332 -0.016900
# 6 -0.007297 -0.002725 -0.003210 0.013604 -0.016900 0.036312
#
#
# Mechanical properties :
#
#
# Convention : Reuss Voigt Hill
#
# Bulk Modulus (GPa) = 33.10914 68.72173 50.91543
# Shear Modulus (GPa) = 27.95193 40.39542 34.17367
#
# Velocity S-wave (km/s) = 3.41257 4.10244 3.77331
# Velocity P-wave (km/s) = 5.41497 7.14644 6.34009
#
# Compressibility (1/GPa) = 0.03020314
#
# Stress axis : x y z
#
# Youngs Moduli (GPa) = 86.37762 70.66086 62.38779
#
# Poissons Ratio (x) = 0.10298 0.11933
# Poissons Ratio (y) = 0.12589 0.15019
# Poissons Ratio (z) = 0.16521 0.17010
#
# Static dielectric constant tensor:
#      x y z
#    x 1.990730 -0.059360 0.010280 
#    y -0.059360 2.129580 -0.067350 
#    z 0.010280 -0.067350 1.988070 
# 
# From -- ./inp_files/207464.got.cif
#   From: 2010.05.17/outbox.cif.g08.bks.cpg/sg2_104_cif.got.tgz:207464.got - 2010.06.03 11:33:40.
