data_PCOD9035817
_publ_section_title
;
Structure prediction by ZEFSAII (Michael W. Deem and Ramdas Pophale) SiO2 
 PCOD9035817
Probable space group: P -1
;
_chemical_formula_sum "Si O2"
_cell_formula_units_Z 12
_cell_length_a 7.623332
_cell_length_b 12.800653
_cell_length_c 7.557960
_cell_angle_alpha 67.637175
_cell_angle_beta 127.449110
_cell_angle_gamma 80.291473
_cell_volume 454.073895
_symmetry_space_group_name_H-M "P -1"
_symmetry_group_IT_number 2
_symmetry_cell_setting 'triclinic'
loop_
_space_group_symop_operation_xyz
x,y,z
-x,-y,-z
loop_
_atom_site_type_symbol
_atom_site_label
_atom_site_fract_x
_atom_site_fract_y
_atom_site_fract_z
Si Si1 0.521166 0.707368 0.691725
Si Si2 0.949210 0.141732 0.213623
Si Si3 0.668292 0.022285 0.734967
Si Si4 0.378917 0.558861 0.200424
Si Si5 0.628872 0.707386 0.136391
Si Si6 0.912188 0.833212 0.340644
O O1 0.472540 0.816522 0.444142
O O2 0.663691 0.551338 0.836255
O O3 0.221899 0.756930 0.533093
O O4 0.660232 0.720810 0.939535
O O5 0.112148 0.105428 0.518898
O O6 0.877857 0.291946 0.030831
O O7 0.663584 0.171858 0.065427
O O8 0.067979 0.044504 0.182490
O O9 0.500000 0.000000 0.500000
O O10 0.736374 0.938987 0.010415
O O11 0.500000 0.500000 0.500000
O O12 0.590963 0.582911 0.218770
O O13 0.834798 0.722711 0.361648
#
# Coordination Sequence:
#
# PCOD9035817 Si02
#       6
#     2   2   2   2   2   2
#     4  11  23  45  69 101 142 178 227 289 340 411
#     4   9  25  47  68 102 139 181 229 288 340 407
#     4  12  25  47  71 103 141 184 233 282 347 415
#     4  10  22  46  72  98 142 180 227 288 346 406
#     4   9  22  44  69 101 137 178 231 283 341 406
#     4  11  23  45  73 104 137 186 228 286 345 408
#
# _framework density 26.427417999999999
#
# number of rings (size 3 to 8) (size 9 to 14) (size 15 to 20)
#    1.000    0.667    1.667    2.000    0.000    5.333 
#    6.000    1.667    0.000    0.000    0.000    0.000 
#    0.000    0.000    0.000    0.000    0.000    0.000 
#
# Total GULP energy -67159.880769 kJ/mol
# GULP energy per Si atom -5596.656731 kJ/mol
# Density = 2.636727 g / cm^3
# Si number density = 26.427418 Si / 1000 Ang^3
#
#
#
# Elastic Constant Matrix: (Units=GPa)
#
#
# Indices 1 2 3 4 5 6 
#
# 1 52.5799 17.0194 19.2834 3.2334 -11.5269 -4.5602
# 2 17.0194 146.3829 36.5043 -16.0232 -8.1173 6.6609
# 3 19.2834 36.5043 108.5544 -1.6684 -31.8791 -4.7597
# 4 3.2334 -16.0232 -1.6684 59.6077 3.2834 -10.6262
# 5 -11.5269 -8.1173 -31.8791 3.2834 44.1708 9.0244
# 6 -4.5602 6.6609 -4.7597 -10.6262 9.0244 35.8144
#
#
#
# Elastic Compliance Matrix: (Units=1/GPa)
#
#
# Indices 1 2 3 4 5 6 
#
# 1 0.021440 -0.002039 -0.002033 -0.001711 0.003589 0.001427
# 2 -0.002039 0.007941 -0.002573 0.001990 -0.000816 -0.001283
# 3 -0.002033 -0.002573 0.012887 -0.000761 0.008440 -0.000420
# 4 -0.001711 0.001990 -0.000761 0.018557 -0.003156 0.005612
# 5 0.003589 -0.000816 0.008440 -0.003156 0.031195 -0.007067
# 6 0.001427 -0.001283 -0.000420 0.005612 -0.007067 0.031732
#
#
# Mechanical properties :
#
#
# Convention : Reuss Voigt Hill
#
# Bulk Modulus (GPa) = 34.50950 50.34794 42.42872
# Shear Modulus (GPa) = 34.08273 43.56591 38.82432
#
# Velocity S-wave (km/s) = 3.59510 4.06459 3.83703
# Velocity P-wave (km/s) = 5.50632 6.41254 5.97663
#
# Compressibility (1/GPa) = 0.02897753
#
# Stress axis : x y z
#
# Youngs Moduli (GPa) = 46.64188 125.92658 77.59868
#
# Poissons Ratio (x) = 0.25678 0.15773
# Poissons Ratio (y) = 0.09511 0.19970
# Poissons Ratio (z) = 0.09480 0.32407
#
# Static dielectric constant tensor:
#      x y z
#    x 2.204300 0.025560 0.062530 
#    y 0.025560 2.302850 -0.026820 
#    z 0.062530 -0.026820 2.064290 
# 
# From -- ./inp_files/176897.got.cif
#   From: 2010.05.17/outbox.cif.g08.bks.cpg/sg2_89_cif.got.tgz:176897.got - 2010.06.03 11:33:40.
