data_PCOD9035766
_publ_section_title
;
Structure prediction by ZEFSAII (Michael W. Deem and Ramdas Pophale) SiO2 
 PCOD9035766
Probable space group: P -1
;
_chemical_formula_sum "Si O2"
_cell_formula_units_Z 15
_cell_length_a 12.352907
_cell_length_b 5.212263
_cell_length_c 11.146172
_cell_angle_alpha 97.328978
_cell_angle_beta 53.587170
_cell_angle_gamma 92.862669
_cell_volume 572.530599
_symmetry_space_group_name_H-M "P -1"
_symmetry_group_IT_number 2
_symmetry_cell_setting 'triclinic'
loop_
_space_group_symop_operation_xyz
x,y,z
-x,-y,-z
loop_
_atom_site_type_symbol
_atom_site_label
_atom_site_fract_x
_atom_site_fract_y
_atom_site_fract_z
Si Si1 0.500000 0.500000 0.500000
Si Si2 0.610996 0.368043 0.211443
Si Si3 0.092994 0.524856 0.553559
Si Si4 0.857372 0.811727 0.832140
Si Si5 0.372808 0.731390 0.330481
Si Si6 0.318019 0.711286 0.099972
Si Si7 0.237463 0.176279 0.605069
Si Si8 0.129121 0.310042 0.922289
O O1 0.570225 0.243027 0.355439
O O2 0.348077 0.390388 0.573118
O O3 0.498912 0.608367 0.313597
O O4 0.755259 0.483058 0.123177
O O5 0.596393 0.263859 0.079381
O O6 0.243724 0.554107 0.410153
O O7 0.111579 0.293759 0.619446
O O8 0.000000 0.500000 0.500000
O O9 0.010342 0.747968 0.690302
O O10 0.761855 0.559747 0.862973
O O11 0.790584 0.051700 0.820252
O O12 0.864738 0.858835 0.971763
O O13 0.401771 0.747421 0.170183
O O14 0.312667 0.973566 0.456706
O O15 0.171969 0.125538 0.773589
O O16 0.000000 0.500000 0.000000
#
# Coordination Sequence:
#
# PCOD9035766 Si02
#       8
#     1   2   2   2   2   2   2   2
#     4  10  22  46  72 100 148 186 250 304 372 444
#     4  10  24  44  70 107 146 193 250 309 374 444
#     4  12  24  44  72 105 153 188 248 308 375 444
#     4  11  25  46  74 108 146 199 248 310 376 445
#     4  12  26  44  72 111 144 204 250 308 378 453
#     4  11  26  48  73 107 152 197 251 307 376 448
#     4  11  25  45  75 107 147 197 249 313 376 445
#     4  10  22  46  72 105 149 189 252 308 380 444
#
# _framework density 26.199475
#
# number of rings (size 3 to 8) (size 9 to 14) (size 15 to 20)
#    0.000    1.067    4.000    1.200    1.867    6.400 
#    2.400    7.333    0.000    0.000    0.000    0.000 
#    0.000    0.000    0.000    0.000    0.000    0.000 
#
# Total GULP energy -83649.483325 kJ/mol
# GULP energy per Si atom -5576.632222 kJ/mol
# Density = 2.613984 g / cm^3
# Si number density = 26.199475 Si / 1000 Ang^3
#
#
#
# Elastic Constant Matrix: (Units=GPa)
#
#
# Indices 1 2 3 4 5 6 
#
# 1 125.4499 32.4616 8.5873 2.2755 -9.3083 -5.2171
# 2 32.4616 78.1044 0.0802 20.1018 -5.0924 -4.6518
# 3 8.5873 0.0802 118.0182 10.5348 22.3303 18.0148
# 4 2.2755 20.1018 10.5348 38.0754 -3.2186 -9.6393
# 5 -9.3083 -5.0924 22.3303 -3.2186 63.4782 15.7246
# 6 -5.2171 -4.6518 18.0148 -9.6393 15.7246 20.5765
#
#
#
# Elastic Compliance Matrix: (Units=1/GPa)
#
#
# Indices 1 2 3 4 5 6 
#
# 1 0.009407 -0.004478 -0.001713 0.003301 0.000858 0.003763
# 2 -0.004478 0.017086 0.001725 -0.010195 0.000582 -0.004004
# 3 -0.001713 0.001725 0.011385 -0.007189 -0.001441 -0.012279
# 4 0.003301 -0.010195 -0.007189 0.039565 -0.001956 0.024855
# 5 0.000858 0.000582 -0.001441 -0.001956 0.019935 -0.014540
# 6 0.003763 -0.004004 -0.012279 0.024855 -0.014540 0.082154
#
#
# Mechanical properties :
#
#
# Convention : Reuss Voigt Hill
#
# Bulk Modulus (GPa) = 34.54468 44.87009 39.70739
# Shear Modulus (GPa) = 25.23809 43.12225 34.18017
#
# Velocity S-wave (km/s) = 3.10708 4.06140 3.61586
# Velocity P-wave (km/s) = 5.10743 6.25754 5.71151
#
# Compressibility (1/GPa) = 0.02894802
#
# Stress axis : x y z
#
# Youngs Moduli (GPa) = 106.29818 58.52788 87.83209
#
# Poissons Ratio (x) = 0.26207 0.15045
# Poissons Ratio (y) = 0.47597 -0.15153
# Poissons Ratio (z) = 0.18208 -0.10097
#
# Static dielectric constant tensor:
#      x y z
#    x 2.023790 0.209680 -0.029830 
#    y 0.209680 1.935470 0.209650 
#    z -0.029830 0.209650 1.905430 
# 
# From -- ./inp_files/410686.got.cif
#   From: 2010.05.17/outbox.cif.g08.bks.cpg/sg2_206_cif.got.tgz:410686.got - 2010.06.03 11:33:40.
