data_PCOD9035368
_publ_section_title
;
Structure prediction by ZEFSAII (Michael W. Deem and Ramdas Pophale) SiO2 
 PCOD9035368
Probable space group: P -1
;
_chemical_formula_sum "Si O2"
_cell_formula_units_Z 14
_cell_length_a 5.293172
_cell_length_b 23.403441
_cell_length_c 16.808815
_cell_angle_alpha 160.391667
_cell_angle_beta 72.779096
_cell_angle_gamma 118.418605
_cell_volume 526.488003
_symmetry_space_group_name_H-M "P -1"
_symmetry_group_IT_number 2
_symmetry_cell_setting 'triclinic'
loop_
_space_group_symop_operation_xyz
x,y,z
-x,-y,-z
loop_
_atom_site_type_symbol
_atom_site_label
_atom_site_fract_x
_atom_site_fract_y
_atom_site_fract_z
Si Si1 0.885144 0.812758 0.037825
Si Si2 0.760937 0.404656 0.093232
Si Si3 0.858786 0.268344 0.381736
Si Si4 0.834278 0.600346 0.187661
Si Si5 0.944072 0.797619 0.280604
Si Si6 0.465768 0.644094 0.606798
Si Si7 0.449042 0.077100 0.902602
O O1 0.623188 0.712684 0.003160
O O2 0.758431 0.605477 0.722907
O O3 0.818190 0.949776 0.168274
O O4 0.266710 0.921636 0.165547
O O5 0.901229 0.599711 0.273701
O O6 0.961422 0.508044 0.292151
O O7 0.809244 0.242391 0.834557
O O8 0.613312 0.249854 0.315553
O O9 0.151117 0.267159 0.316592
O O10 0.680545 0.087064 0.227921
O O11 0.958098 0.797943 0.376308
O O12 0.431794 0.422397 0.987922
O O13 0.000000 0.500000 0.000000
O O14 0.000000 0.000000 0.500000
O O15 0.397980 0.699277 0.770872
#
# Coordination Sequence:
#
# PCOD9035368 Si02
#       7
#     2   2   2   2   2   2   2
#     4  11  24  40  63  97 134 175 223 283 341 386
#     4  10  24  43  62  92 138 175 212 275 344 403
#     4  11  24  41  66  96 134 181 222 282 347 390
#     4   9  21  44  68  98 131 171 215 270 345 404
#     4  10  22  45  74  99 128 173 227 270 335 414
#     4  11  22  42  68  89 135 184 226 279 338 400
#     4  12  23  42  63 102 129 176 240 278 326 408
#
# _framework density 26.591298999999999
#
# number of rings (size 3 to 8) (size 9 to 14) (size 15 to 20)
#    0.000    1.429    0.000    5.143    6.000    2.286 
#   10.286    0.000    0.000    0.000    0.000    0.000 
#    0.000    0.000    0.000    0.000    0.000    0.000 
#
# Total GULP energy -78524.731840 kJ/mol
# GULP energy per Si atom -5608.909417 kJ/mol
# Density = 2.653078 g / cm^3
# Si number density = 26.591299 Si / 1000 Ang^3
#
#
#
# Elastic Constant Matrix: (Units=GPa)
#
#
# Indices 1 2 3 4 5 6 
#
# 1 136.7719 65.8953 32.0519 3.1486 -38.9981 0.2571
# 2 65.8953 174.7236 44.6288 3.4601 -30.9244 -11.0676
# 3 32.0519 44.6288 85.2802 8.7422 -26.1799 -9.1257
# 4 3.1486 3.4601 8.7422 51.4657 -18.6892 -2.3976
# 5 -38.9981 -30.9244 -26.1799 -18.6892 38.5645 2.9154
# 6 0.2571 -11.0676 -9.1257 -2.3976 2.9154 72.9470
#
#
#
# Elastic Compliance Matrix: (Units=1/GPa)
#
#
# Indices 1 2 3 4 5 6 
#
# 1 0.011778 -0.002486 0.000032 0.003684 0.011781 -0.000764
# 2 -0.002486 0.007739 -0.002360 0.000980 0.002502 0.000820
# 3 0.000032 -0.002360 0.015824 0.000872 0.009207 0.001282
# 4 0.003684 0.000980 0.000872 0.025305 0.017337 0.000384
# 5 0.011781 0.002502 0.009207 0.017337 0.054512 -0.000119
# 6 -0.000764 0.000820 0.001282 0.000384 -0.000119 0.014013
#
#
# Mechanical properties :
#
#
# Convention : Reuss Voigt Hill
#
# Bulk Modulus (GPa) = 38.89372 75.76973 57.33173
# Shear Modulus (GPa) = 33.92826 49.54210 41.73518
#
# Velocity S-wave (km/s) = 3.57587 4.32104 3.96600
# Velocity P-wave (km/s) = 5.63093 7.31103 6.52528
#
# Compressibility (1/GPa) = 0.02571109
#
# Stress axis : x y z
#
# Youngs Moduli (GPa) = 84.90712 129.21162 63.19705
#
# Poissons Ratio (x) = 0.32124 -0.00200
# Poissons Ratio (y) = 0.21109 0.14916
# Poissons Ratio (z) = -0.00269 0.30496
#
# Static dielectric constant tensor:
#      x y z
#    x 2.131580 0.016880 0.074380 
#    y 0.016880 2.060950 0.016370 
#    z 0.074380 0.016370 2.203520 
# 
# From -- ./inp_files/56659.got.cif
#   From: 2010.05.17/outbox.cif.g08.bks.cpg/sg2_29_cif.got.tgz:56659.got - 2010.06.03 11:33:40.
