data_PCOD9035451
_publ_section_title
;
Structure prediction by ZEFSAII (Michael W. Deem and Ramdas Pophale) SiO2 
 PCOD9035451
Probable space group: P -1
;
_chemical_formula_sum "Si O2"
_cell_formula_units_Z 14
_cell_length_a 6.782943
_cell_length_b 22.287923
_cell_length_c 16.103673
_cell_angle_alpha 155.049836
_cell_angle_beta 117.254769
_cell_angle_gamma 48.791268
_cell_volume 694.094483
_symmetry_space_group_name_H-M "P -1"
_symmetry_group_IT_number 2
_symmetry_cell_setting 'triclinic'
loop_
_space_group_symop_operation_xyz
x,y,z
-x,-y,-z
loop_
_atom_site_type_symbol
_atom_site_label
_atom_site_fract_x
_atom_site_fract_y
_atom_site_fract_z
Si Si1 0.239209 0.604153 0.646464
Si Si2 0.340114 0.304183 0.412982
Si Si3 0.964898 0.004198 0.097380
Si Si4 0.319367 0.395318 0.714591
Si Si5 0.984478 0.119435 0.534336
Si Si6 0.896331 0.836975 0.206545
Si Si7 0.773650 0.871911 0.582126
O O1 0.500000 0.500000 0.500000
O O2 0.307307 0.464929 0.557555
O O3 0.945488 0.669890 0.627850
O O4 0.171196 0.790337 0.898763
O O5 0.633313 0.110663 0.192401
O O6 0.369039 0.324733 0.541095
O O7 0.054611 0.112528 0.295220
O O8 0.000000 0.000000 0.000000
O O9 0.637129 0.295215 0.688276
O O10 0.188715 0.312712 0.632515
O O11 0.106081 0.617978 0.954799
O O12 0.121800 0.129925 0.656319
O O13 0.118555 0.121575 0.478398
O O14 0.015954 0.935467 0.315945
O O15 0.570499 0.952783 0.254937
#
# Coordination Sequence:
#
# PCOD9035451 Si02
#       7
#     2   2   2   2   2   2   2
#     4  11  25  42  65  93 125 170 221 260 322 384
#     4  11  25  42  62  94 128 169 216 268 317 387
#     4  12  24  43  67  90 134 172 209 269 321 377
#     4  11  24  40  66  96 129 168 216 263 323 383
#     4  10  22  46  63  97 129 169 217 263 328 379
#     4  10  24  41  69  93 132 168 212 273 318 384
#     4  11  25  40  65  98 129 169 219 259 321 389
#
# _framework density 20.170165000000001
#
# number of rings (size 3 to 8) (size 9 to 14) (size 15 to 20)
#    0.000    1.143    2.857    2.143    4.000    1.714 
#    0.000    0.000    0.000    0.000    0.000    0.000 
#    0.000    0.000    0.000    0.000    0.000    0.000 
#
# Total GULP energy -78325.103022 kJ/mol
# GULP energy per Si atom -5594.650216 kJ/mol
# Density = 2.012426 g / cm^3
# Si number density = 20.170165 Si / 1000 Ang^3
#
#
#
# Elastic Constant Matrix: (Units=GPa)
#
#
# Indices 1 2 3 4 5 6 
#
# 1 110.3269 25.6221 44.9296 -2.1351 -7.6773 14.0416
# 2 25.6221 67.1134 -0.7540 -5.0651 -7.1201 -1.1859
# 3 44.9296 -0.7540 105.1433 29.0384 -8.1638 0.1631
# 4 -2.1351 -5.0651 29.0384 29.9378 2.0179 -3.8525
# 5 -7.6773 -7.1201 -8.1638 2.0179 17.9567 1.0484
# 6 14.0416 -1.1859 0.1631 -3.8525 1.0484 42.0608
#
#
#
# Elastic Compliance Matrix: (Units=1/GPa)
#
#
# Indices 1 2 3 4 5 6 
#
# 1 0.014263 -0.005064 -0.008261 0.007657 -0.000283 -0.004164
# 2 -0.005064 0.017513 0.002831 -0.000290 0.005982 0.001998
# 3 -0.008261 0.002831 0.018928 -0.018921 0.008274 0.000825
# 4 0.007657 -0.000290 -0.018921 0.053380 -0.011599 0.002687
# 5 -0.000283 0.005982 0.008274 -0.011599 0.063146 -0.002405
# 6 -0.004164 0.001998 0.000825 0.002687 -0.002405 0.025524
#
#
# Mechanical properties :
#
#
# Convention : Reuss Voigt Hill
#
# Bulk Modulus (GPa) = 33.65176 46.90877 40.28027
# Shear Modulus (GPa) = 22.35660 32.17678 27.26669
#
# Velocity S-wave (km/s) = 3.33288 3.99841 3.68072
# Velocity P-wave (km/s) = 5.61524 6.68007 6.17067
#
# Compressibility (1/GPa) = 0.02971613
#
# Stress axis : x y z
#
# Youngs Moduli (GPa) = 70.11329 57.09985 52.83168
#
# Poissons Ratio (x) = 0.28913 0.43645
# Poissons Ratio (y) = 0.35503 -0.14956
# Poissons Ratio (z) = 0.57921 -0.16164
#
# Static dielectric constant tensor:
#      x y z
#    x 1.695850 -0.006350 0.020190 
#    y -0.006350 1.725000 -0.001710 
#    z 0.020190 -0.001710 1.693970 
# 
# From -- ./inp_files/39132.got.cif
#   From: 2010.05.17/outbox.cif.g08.bks.cpg/sg2_20_cif.got.tgz:39132.got - 2010.06.03 11:33:40.
