data_PCOD9035522
_publ_section_title
;
Structure prediction by ZEFSAII (Michael W. Deem and Ramdas Pophale) SiO2 
 PCOD9035522
Probable space group: P -1
;
_chemical_formula_sum "Si O2"
_cell_formula_units_Z 14
_cell_length_a 8.731978
_cell_length_b 15.783688
_cell_length_c 7.078805
_cell_angle_alpha 41.374052
_cell_angle_beta 113.682856
_cell_angle_gamma 122.961969
_cell_volume 541.018105
_symmetry_space_group_name_H-M "P -1"
_symmetry_group_IT_number 2
_symmetry_cell_setting 'triclinic'
loop_
_space_group_symop_operation_xyz
x,y,z
-x,-y,-z
loop_
_atom_site_type_symbol
_atom_site_label
_atom_site_fract_x
_atom_site_fract_y
_atom_site_fract_z
Si Si1 0.757268 0.720117 0.250566
Si Si2 0.148222 0.813091 0.323718
Si Si3 0.539981 0.706237 0.826958
Si Si4 0.617758 0.280088 0.895581
Si Si5 0.064479 0.378107 0.184188
Si Si6 0.546238 0.990407 0.318588
Si Si7 0.236993 0.557602 0.646624
O O1 0.601011 0.768106 0.168026
O O2 0.778946 0.622478 0.591626
O O3 0.965812 0.828768 0.136434
O O4 0.670892 0.663318 0.096896
O O5 0.350054 0.930144 0.217113
O O6 0.152185 0.670969 0.475177
O O7 0.089812 0.771925 0.584553
O O8 0.623826 0.870634 0.539252
O O9 0.435696 0.618007 0.745513
O O10 0.382661 0.694769 0.922962
O O11 0.732924 0.415744 0.604885
O O12 0.662174 0.151491 0.061335
O O13 0.124190 0.413531 0.939342
O O14 0.000000 0.500000 0.000000
O O15 0.500000 0.000000 0.500000
#
# Coordination Sequence:
#
# PCOD9035522 Si02
#       7
#     2   2   2   2   2   2   2
#     4   8  17  33  48  77 106 122 176 209 245 302
#     4   8  17  31  51  74  98 137 170 196 252 311
#     4   8  18  32  49  78 103 126 174 208 238 305
#     4   9  19  31  51  83  98 128 178 204 250 293
#     4   8  16  31  52  74  97 139 167 199 259 300
#     4   9  16  32  54  72 103 136 163 211 250 299
#     4  10  17  32  59  68 102 143 165 203 252 299
#
# _framework density 25.877139
#
# number of rings (size 3 to 8) (size 9 to 14) (size 15 to 20)
#    1.714    1.714    0.000    0.000    0.000    4.000 
#    0.000    0.000    9.429   23.143    0.000    0.000 
#    0.000    0.000    0.000    0.000    0.000    0.000 
#
# Total GULP energy -77951.172988 kJ/mol
# GULP energy per Si atom -5567.940928 kJ/mol
# Density = 2.581824 g / cm^3
# Si number density = 25.877139 Si / 1000 Ang^3
#
#
#
# Elastic Constant Matrix: (Units=GPa)
#
#
# Indices 1 2 3 4 5 6 
#
# 1 52.0115 6.2571 20.8428 10.2795 -1.8619 -0.6055
# 2 6.2571 71.9482 22.0966 20.4991 7.9643 19.2065
# 3 20.8428 22.0966 108.5007 -1.2481 -4.3964 3.6860
# 4 10.2795 20.4991 -1.2481 40.6717 0.9288 8.9169
# 5 -1.8619 7.9643 -4.3964 0.9288 52.5365 13.7760
# 6 -0.6055 19.2065 3.6860 8.9169 13.7760 33.2397
#
#
#
# Elastic Compliance Matrix: (Units=1/GPa)
#
#
# Indices 1 2 3 4 5 6 
#
# 1 0.022322 0.000775 -0.004611 -0.006684 -0.000210 0.002350
# 2 0.000775 0.019808 -0.004038 -0.008460 -0.000986 -0.008306
# 3 -0.004611 -0.004038 0.011044 0.003627 0.001453 -0.000551
# 4 -0.006684 -0.008460 0.003627 0.031703 0.002103 -0.005012
# 5 -0.000210 -0.000986 0.001453 0.002103 0.021656 -0.009135
# 6 0.002350 -0.008306 -0.000551 -0.005012 -0.009135 0.040118
#
#
# Mechanical properties :
#
#
# Convention : Reuss Voigt Hill
#
# Bulk Modulus (GPa) = 26.71911 36.76150 31.74030
# Shear Modulus (GPa) = 28.59196 37.50717 33.04956
#
# Velocity S-wave (km/s) = 3.32763 3.81127 3.57763
# Velocity P-wave (km/s) = 5.01118 5.79696 5.41833
#
# Compressibility (1/GPa) = 0.03742640
#
# Stress axis : x y z
#
# Youngs Moduli (GPa) = 44.79879 50.48374 90.54673
#
# Poissons Ratio (x) = -0.03914 0.41753
# Poissons Ratio (y) = -0.03473 0.36564
# Poissons Ratio (z) = 0.20658 0.20386
#
# Static dielectric constant tensor:
#      x y z
#    x 2.105570 0.008510 -0.005640 
#    y 0.008510 2.064120 0.010350 
#    z -0.005640 0.010350 2.104470 
# 
# From -- ./inp_files/285440.got.cif
#   From: 2010.05.17/outbox.cif.g08.bks.cpg/sg2_143_cif.got.tgz:285440.got - 2010.06.03 11:33:40.
