data_PCOD9035828
_publ_section_title
;
Structure prediction by ZEFSAII (Michael W. Deem and Ramdas Pophale) SiO2 
 PCOD9035828
Probable space group: P -1
;
_chemical_formula_sum "Si O2"
_cell_formula_units_Z 14
_cell_length_a 8.643743
_cell_length_b 5.111505
_cell_length_c 17.237005
_cell_angle_alpha 107.587931
_cell_angle_beta 50.591124
_cell_angle_gamma 95.050810
_cell_volume 555.315634
_symmetry_space_group_name_H-M "P -1"
_symmetry_group_IT_number 2
_symmetry_cell_setting 'triclinic'
loop_
_space_group_symop_operation_xyz
x,y,z
-x,-y,-z
loop_
_atom_site_type_symbol
_atom_site_label
_atom_site_fract_x
_atom_site_fract_y
_atom_site_fract_z
Si Si1 0.098223 0.712359 0.176733
Si Si2 0.322315 0.366613 0.765806
Si Si3 0.370433 0.405578 0.924181
Si Si4 0.909359 0.168950 0.634809
Si Si5 0.317159 0.366214 0.366171
Si Si6 0.386342 0.105260 0.122739
Si Si7 0.618445 0.921417 0.536352
O O1 0.107980 0.678597 0.263043
O O2 0.161494 0.024025 0.176699
O O3 0.879035 0.652668 0.218487
O O4 0.247141 0.525720 0.051070
O O5 0.256143 0.372753 0.877470
O O6 0.452493 0.616397 0.732297
O O7 0.481649 0.113792 0.659190
O O8 0.499558 0.112352 0.873114
O O9 0.532311 0.607025 0.868483
O O10 0.825767 0.393115 0.615064
O O11 0.785615 0.906901 0.645603
O O12 0.343656 0.371286 0.452755
O O13 0.853521 0.955901 0.455707
O O14 0.500000 0.000000 0.000000
O O15 0.500000 0.000000 0.500000
#
# Coordination Sequence:
#
# PCOD9035828 Si02
#       7
#     2   2   2   2   2   2   2
#     4  11  24  48  74 115 150 199 246 308 375 441
#     4  12  27  49  74 113 154 195 246 317 373 443
#     4  11  25  48  74 107 148 199 249 301 366 447
#     4  12  27  50  82 109 151 202 252 306 371 452
#     4  12  28  52  78 114 149 201 254 308 372 453
#     4  10  22  46  73 103 144 195 250 299 358 445
#     4  12  28  53  78 113 152 194 253 315 382 439
#
# _framework density 25.210889999999999
#
# number of rings (size 3 to 8) (size 9 to 14) (size 15 to 20)
#    0.000    0.571    2.857    4.714    4.000    4.000 
#    7.714    3.571    0.000    0.000    0.000    0.000 
#    0.000    0.000    0.000    0.000    0.000    0.000 
#
# Total GULP energy -78035.579006 kJ/mol
# GULP energy per Si atom -5573.969929 kJ/mol
# Density = 2.515351 g / cm^3
# Si number density = 25.210890 Si / 1000 Ang^3
#
#
#
# Elastic Constant Matrix: (Units=GPa)
#
#
# Indices 1 2 3 4 5 6 
#
# 1 235.7656 88.0060 86.3261 -17.5797 1.4884 -7.2151
# 2 88.0060 147.7278 41.5842 -13.8640 -4.3141 -16.7698
# 3 86.3261 41.5842 149.8029 1.4849 5.3245 -7.5840
# 4 -17.5797 -13.8640 1.4849 34.2419 4.3734 3.8266
# 5 1.4884 -4.3141 5.3245 4.3734 70.7037 -9.9006
# 6 -7.2151 -16.7698 -7.5840 3.8266 -9.9006 22.9718
#
#
#
# Elastic Compliance Matrix: (Units=1/GPa)
#
#
# Indices 1 2 3 4 5 6 
#
# 1 0.006659 -0.003080 -0.003082 0.002574 -0.000511 -0.001823
# 2 -0.003080 0.009686 -0.000664 0.001477 0.001494 0.006283
# 3 -0.003082 -0.000664 0.008756 -0.002393 -0.000245 0.001731
# 4 0.002574 0.001477 -0.002393 0.032146 -0.002521 -0.005345
# 5 -0.000511 0.001494 -0.000245 -0.002521 0.015535 0.007965
# 6 -0.001823 0.006283 0.001731 -0.005345 0.007965 0.052440
#
#
# Mechanical properties :
#
#
# Convention : Reuss Voigt Hill
#
# Bulk Modulus (GPa) = 87.33716 107.23653 97.28684
# Shear Modulus (GPa) = 35.04082 46.74215 40.89149
#
# Velocity S-wave (km/s) = 3.73219 4.31053 4.03175
# Velocity P-wave (km/s) = 7.30001 8.20990 7.76829
#
# Compressibility (1/GPa) = 0.01144988
#
# Stress axis : x y z
#
# Youngs Moduli (GPa) = 150.17345 103.24087 114.20902
#
# Poissons Ratio (x) = 0.31794 0.35201
# Poissons Ratio (y) = 0.46248 0.07581
# Poissons Ratio (z) = 0.46285 0.06853
#
# Static dielectric constant tensor:
#      x y z
#    x 2.025380 -0.010820 0.102840 
#    y -0.010820 2.150330 0.046520 
#    z 0.102840 0.046520 2.137510 
# 
# From -- ./inp_files/552756.got.cif
#   From: 2010.05.17/outbox.cif.g08.bks.cpg/sg2_277_cif.got.tgz:552756.got - 2010.06.03 11:33:40.
