data_PCOD9035514
_publ_section_title
;
Structure prediction by ZEFSAII (Michael W. Deem and Ramdas Pophale) SiO2 
 PCOD9035514
Probable space group: P -1
;
_chemical_formula_sum "Si O2"
_cell_formula_units_Z 15
_cell_length_a 8.556274
_cell_length_b 21.128560
_cell_length_c 17.118324
_cell_angle_alpha 18.611554
_cell_angle_beta 42.549252
_cell_angle_gamma 43.697073
_cell_volume 663.449072
_symmetry_space_group_name_H-M "P -1"
_symmetry_group_IT_number 2
_symmetry_cell_setting 'triclinic'
loop_
_space_group_symop_operation_xyz
x,y,z
-x,-y,-z
loop_
_atom_site_type_symbol
_atom_site_label
_atom_site_fract_x
_atom_site_fract_y
_atom_site_fract_z
Si Si1 0.724774 0.998466 0.099065
Si Si2 0.646970 0.779675 0.541576
Si Si3 0.480838 0.755950 0.356802
Si Si4 0.500000 0.500000 0.500000
Si Si5 0.608718 0.671324 0.081300
Si Si6 0.986140 0.580862 0.176335
Si Si7 0.210688 0.025210 0.451339
Si Si8 0.970565 0.983735 0.299852
O O1 0.645485 0.858241 0.361534
O O2 0.658067 0.895031 0.165072
O O3 0.570333 0.211950 0.925529
O O4 0.000000 0.000000 0.000000
O O5 0.775976 0.559274 0.756644
O O6 0.806539 0.914138 0.375171
O O7 0.389094 0.823935 0.618786
O O8 0.527103 0.683147 0.337340
O O9 0.476693 0.542197 0.652637
O O10 0.227761 0.874675 0.321627
O O11 0.788315 0.464981 0.424215
O O12 0.853909 0.639685 0.074276
O O13 0.646060 0.804990 0.836968
O O14 0.025229 0.780149 0.974072
O O15 0.122392 0.074074 0.513212
O O16 0.000000 0.000000 0.500000
#
# Coordination Sequence:
#
# PCOD9035514 Si02
#       8
#     2   2   2   1   2   2   2   2
#     4  11  26  44  70 101 145 188 230 286 349 416
#     4  11  26  44  65 109 138 172 240 283 344 422
#     4  11  24  45  71 102 138 185 236 282 350 423
#     4  10  24  42  72 100 138 180 230 282 354 402
#     4  10  22  46  67 101 137 183 236 279 352 415
#     4  11  23  43  70 102 138 180 227 288 341 411
#     4  11  23  46  72  98 140 187 227 290 353 413
#     4  12  23  43  74  99 138 180 234 293 342 406
#
# _framework density 22.609119
#
# number of rings (size 3 to 8) (size 9 to 14) (size 15 to 20)
#    0.000    1.067    5.333    1.200    5.600    4.267 
#    0.000    0.000    0.000    0.000    0.000    0.000 
#    0.000    0.000    0.000    0.000    0.000    0.000 
#
# Total GULP energy -83707.085143 kJ/mol
# GULP energy per Si atom -5580.472343 kJ/mol
# Density = 2.255766 g / cm^3
# Si number density = 22.609119 Si / 1000 Ang^3
#
#
#
# Elastic Constant Matrix: (Units=GPa)
#
#
# Indices 1 2 3 4 5 6 
#
# 1 80.0681 62.8204 29.1158 -21.5279 -23.2091 -4.3744
# 2 62.8204 132.5549 20.9175 -27.5994 -4.0852 -15.1270
# 3 29.1158 20.9175 88.5538 -21.7606 -13.7017 -2.0327
# 4 -21.5279 -27.5994 -21.7606 46.1336 7.1533 7.6493
# 5 -23.2091 -4.0852 -13.7017 7.1533 39.7666 -3.9681
# 6 -4.3744 -15.1270 -2.0327 7.6493 -3.9681 48.2982
#
#
#
# Elastic Compliance Matrix: (Units=1/GPa)
#
#
# Indices 1 2 3 4 5 6 
#
# 1 0.027163 -0.011512 -0.003697 0.002131 0.012956 -0.000574
# 2 -0.011512 0.013744 0.000628 0.003627 -0.005518 0.002261
# 3 -0.003697 0.000628 0.013842 0.004938 0.001769 -0.000192
# 4 0.002131 0.003627 0.004938 0.027991 -0.002023 -0.003063
# 5 0.012956 -0.005518 0.001769 -0.002023 0.033373 0.002582
# 6 -0.000574 0.002261 -0.000192 -0.003063 0.002582 0.022050
#
#
# Mechanical properties :
#
#
# Convention : Reuss Voigt Hill
#
# Bulk Modulus (GPa) = 39.08091 58.54270 48.81180
# Shear Modulus (GPa) = 28.43264 39.39454 33.91359
#
# Velocity S-wave (km/s) = 3.55008 4.17876 3.87718
# Velocity P-wave (km/s) = 5.84184 7.01657 6.45598
#
# Compressibility (1/GPa) = 0.02558794
#
# Stress axis : x y z
#
# Youngs Moduli (GPa) = 36.81436 72.75877 72.24267
#
# Poissons Ratio (x) = 0.83763 0.26705
# Poissons Ratio (y) = 0.42382 -0.04538
# Poissons Ratio (z) = 0.13609 -0.04571
#
# Static dielectric constant tensor:
#      x y z
#    x 1.796350 -0.002290 0.045810 
#    y -0.002290 1.803710 0.008420 
#    z 0.045810 0.008420 1.868800 
# 
# From -- ./inp_files/556121.got.cif
#   From: 2010.05.17/outbox.cif.g08.bks.cpg/sg2_279_cif.got.tgz:556121.got - 2010.06.03 11:33:40.
