data_PCOD9035504
_publ_section_title
;
Structure prediction by ZEFSAII (Michael W. Deem and Ramdas Pophale) SiO2 
 PCOD9035504
Probable space group: P -1
;
_chemical_formula_sum "Si O2"
_cell_formula_units_Z 14
_cell_length_a 9.673217
_cell_length_b 7.069899
_cell_length_c 16.528043
_cell_angle_alpha 73.106659
_cell_angle_beta 31.149405
_cell_angle_gamma 69.158770
_cell_volume 546.206023
_symmetry_space_group_name_H-M "P -1"
_symmetry_group_IT_number 2
_symmetry_cell_setting 'triclinic'
loop_
_space_group_symop_operation_xyz
x,y,z
-x,-y,-z
loop_
_atom_site_type_symbol
_atom_site_label
_atom_site_fract_x
_atom_site_fract_y
_atom_site_fract_z
Si Si1 0.884099 0.177385 0.098310
Si Si2 0.327675 0.704468 0.526094
Si Si3 0.274479 0.901508 0.264279
Si Si4 0.019166 0.994552 0.221395
Si Si5 0.868594 0.494417 0.779022
Si Si6 0.334635 0.476636 0.949656
Si Si7 0.341899 0.064225 0.376478
O O1 0.864682 0.373741 0.028449
O O2 0.041561 0.103348 0.111796
O O3 0.562885 0.186711 0.277783
O O4 0.000000 0.000000 0.000000
O O5 0.500000 0.500000 0.500000
O O6 0.446147 0.833789 0.384841
O O7 0.075890 0.622150 0.623926
O O8 0.243113 0.868279 0.619873
O O9 0.500504 0.699267 0.167635
O O10 0.342671 0.041676 0.282895
O O11 0.245583 0.993826 0.177531
O O12 0.969741 0.865814 0.444159
O O13 0.025609 0.752673 0.240149
O O14 0.587711 0.543206 0.862743
O O15 0.832467 0.563115 0.882400
#
# Coordination Sequence:
#
# PCOD9035504 Si02
#       7
#     2   2   2   2   2   2   2
#     4  12  25  42  68  98 139 175 216 282 341 393
#     4  11  25  41  71  99 136 180 220 277 336 398
#     4   9  22  45  67  95 131 172 226 279 326 396
#     4  10  23  45  64  99 135 171 222 271 338 392
#     4  10  22  46  66  98 133 175 229 271 331 398
#     4  10  23  41  69  97 131 176 225 274 329 406
#     4  10  24  44  66  99 134 170 230 274 333 402
#
# _framework density 25.631354999999999
#
# number of rings (size 3 to 8) (size 9 to 14) (size 15 to 20)
#    0.000    1.714    1.429    0.857    8.000    8.000 
#    0.000    6.429    0.000    0.000    0.000    0.000 
#    0.000    0.000    0.000    0.000    0.000    0.000 
#
# Total GULP energy -78253.007855 kJ/mol
# GULP energy per Si atom -5589.500561 kJ/mol
# Density = 2.557302 g / cm^3
# Si number density = 25.631355 Si / 1000 Ang^3
#
#
#
# Elastic Constant Matrix: (Units=GPa)
#
#
# Indices 1 2 3 4 5 6 
#
# 1 120.7832 17.8660 27.2798 -2.5414 42.5846 -19.6721
# 2 17.8660 106.5175 23.8078 30.6480 34.4403 -23.9970
# 3 27.2798 23.8078 64.1414 11.5352 16.4770 5.6230
# 4 -2.5414 30.6480 11.5352 51.0634 4.9500 -8.3773
# 5 42.5846 34.4403 16.4770 4.9500 40.5956 -11.6252
# 6 -19.6721 -23.9970 5.6230 -8.3773 -11.6252 38.6428
#
#
#
# Elastic Compliance Matrix: (Units=1/GPa)
#
#
# Indices 1 2 3 4 5 6 
#
# 1 0.015977 0.005196 -0.005279 0.001736 -0.017132 0.007351
# 2 0.005196 0.018676 -0.004475 -0.006974 -0.016191 0.008511
# 3 -0.005279 -0.004475 0.021534 -0.003906 -0.001789 -0.009985
# 4 0.001736 -0.006974 -0.003906 0.024979 0.003678 0.003643
# 5 -0.017132 -0.016191 -0.001789 0.003678 0.056403 -0.000750
# 6 0.007351 0.008511 -0.009985 0.003643 -0.000750 0.036923
#
#
# Mechanical properties :
#
#
# Convention : Reuss Voigt Hill
#
# Bulk Modulus (GPa) = 21.24466 47.70549 34.47507
# Shear Modulus (GPa) = 25.08801 40.89294 32.99048
#
# Velocity S-wave (km/s) = 3.13197 3.99861 3.59153
# Velocity P-wave (km/s) = 4.62445 6.32227 5.53880
#
# Compressibility (1/GPa) = 0.04707066
#
# Stress axis : x y z
#
# Youngs Moduli (GPa) = 62.58974 53.54558 46.43760
#
# Poissons Ratio (x) = -0.27822 0.24517
# Poissons Ratio (y) = -0.32522 0.20779
# Poissons Ratio (z) = 0.33044 0.23960
#
# Static dielectric constant tensor:
#      x y z
#    x 2.056940 -0.004010 -0.077340 
#    y -0.004010 2.033460 0.010780 
#    z -0.077340 0.010780 2.062390 
# 
# From -- ./inp_files/565844.got.cif
#   From: 2010.05.17/outbox.cif.g08.bks.cpg/sg2_283_cif.got.tgz:565844.got - 2010.06.03 11:33:40.
