data_PCOD9035133
_publ_section_title
;
Structure prediction by ZEFSAII (Michael W. Deem and Ramdas Pophale) SiO2 
 PCOD9035133
Probable space group: P -1
;
_chemical_formula_sum "Si O2"
_cell_formula_units_Z 16
_cell_length_a 16.379304
_cell_length_b 16.012387
_cell_length_c 6.860976
_cell_angle_alpha 126.722590
_cell_angle_beta 119.679095
_cell_angle_gamma 26.666898
_cell_volume 643.464550
_symmetry_space_group_name_H-M "P -1"
_symmetry_group_IT_number 2
_symmetry_cell_setting 'triclinic'
loop_
_space_group_symop_operation_xyz
x,y,z
-x,-y,-z
loop_
_atom_site_type_symbol
_atom_site_label
_atom_site_fract_x
_atom_site_fract_y
_atom_site_fract_z
Si Si1 0.449852 0.442743 0.745416
Si Si2 0.594871 0.823789 0.683198
Si Si3 0.160138 0.489502 0.131409
Si Si4 0.802387 0.054387 0.360189
Si Si5 0.101432 0.866937 0.736035
Si Si6 0.826113 0.757683 0.355260
Si Si7 0.720279 0.927252 0.879077
Si Si8 0.638719 0.641490 0.150072
O O1 0.613608 0.252218 0.531404
O O2 0.269722 0.635234 0.675432
O O3 0.406322 0.403981 0.812589
O O4 0.500000 0.500000 0.000000
O O5 0.672076 0.686379 0.764070
O O6 0.692184 0.687016 0.414477
O O7 0.380460 0.020935 0.652472
O O8 0.344255 0.114474 0.141973
O O9 0.981330 0.672772 0.305635
O O10 0.140781 0.395455 0.868297
O O11 0.215168 0.517370 0.067181
O O12 0.821371 0.110169 0.269297
O O13 0.810617 0.928546 0.119363
O O14 0.958762 0.942292 0.536885
O O15 0.000000 0.000000 0.000000
O O16 0.835310 0.779513 0.622861
O O17 0.542421 0.151267 0.888804
#
# Coordination Sequence:
#
# PCOD9035133 Si02
#       8
#     2   2   2   2   2   2   2   2
#     4  12  26  52  84 111 156 200 254 330 390 458
#     4  11  23  48  73 104 163 210 257 316 375 460
#     4  11  23  45  73 106 151 211 261 319 380 447
#     4  11  27  51  84 114 154 202 256 316 399 466
#     4  11  25  56  82 117 153 194 258 324 392 469
#     4  10  22  45  71 105 154 207 259 315 380 447
#     4  11  23  47  76 113 157 209 259 315 381 466
#     4  11  25  47  75 114 155 207 264 316 388 463
#
# _framework density 24.865396
#
# number of rings (size 3 to 8) (size 9 to 14) (size 15 to 20)
#    0.000    1.000    3.750    2.250    1.750    1.500 
#    2.250    7.500    0.000    0.000    0.000    0.000 
#    0.000    0.000    0.000    0.000    0.000    0.000 
#
# Total GULP energy -89760.087087 kJ/mol
# GULP energy per Si atom -5610.005443 kJ/mol
# Density = 2.480880 g / cm^3
# Si number density = 24.865396 Si / 1000 Ang^3
#
#
#
# Elastic Constant Matrix: (Units=GPa)
#
#
# Indices 1 2 3 4 5 6 
#
# 1 165.4206 60.7760 65.8561 -2.0260 -32.2007 0.6409
# 2 60.7760 116.2140 46.4909 -2.2898 -25.3656 -4.8527
# 3 65.8561 46.4909 164.3361 1.9201 -25.2296 -18.8785
# 4 -2.0260 -2.2898 1.9201 35.8103 -6.0232 -14.5030
# 5 -32.2007 -25.3656 -25.2296 -6.0232 57.9655 4.3930
# 6 0.6409 -4.8527 -18.8785 -14.5030 4.3930 29.9016
#
#
#
# Elastic Compliance Matrix: (Units=1/GPa)
#
#
# Indices 1 2 3 4 5 6 
#
# 1 0.008698 -0.003099 -0.002535 -0.000273 0.002556 -0.002798
# 2 -0.003099 0.011495 -0.001444 0.001679 0.002746 0.001431
# 3 -0.002535 -0.001444 0.008364 0.001903 0.001357 0.005825
# 4 -0.000273 0.001679 0.001903 0.035993 0.003758 0.018385
# 5 0.002556 0.002746 0.001357 0.003758 0.020854 0.000007
# 6 -0.002798 0.001431 0.005825 0.018385 0.000007 0.046329
#
#
# Mechanical properties :
#
#
# Convention : Reuss Voigt Hill
#
# Bulk Modulus (GPa) = 69.43023 88.02407 78.72715
# Shear Modulus (GPa) = 33.18092 42.92533 38.05313
#
# Velocity S-wave (km/s) = 3.65694 4.15939 3.91623
# Velocity P-wave (km/s) = 6.76860 7.65144 7.22352
#
# Compressibility (1/GPa) = 0.01440295
#
# Stress axis : x y z
#
# Youngs Moduli (GPa) = 114.96970 86.99184 119.55292
#
# Poissons Ratio (x) = 0.26959 0.30303
# Poissons Ratio (y) = 0.35630 0.17260
# Poissons Ratio (z) = 0.29141 0.12559
#
# Static dielectric constant tensor:
#      x y z
#    x 1.997120 0.007070 0.020510 
#    y 0.007070 1.985870 0.009290 
#    z 0.020510 0.009290 1.961120 
# 
# From -- ./inp_files/111535.got.cif
#   From: 2010.05.17/outbox.cif.g08.bks.cpg/sg2_56_cif.got.tgz:111535.got - 2010.06.03 11:33:40.
