data_PCOD9035290
_publ_section_title
;
Structure prediction by ZEFSAII (Michael W. Deem and Ramdas Pophale) SiO2 
 PCOD9035290
Probable space group: P -1
;
_chemical_formula_sum "Si O2"
_cell_formula_units_Z 12
_cell_length_a 14.726884
_cell_length_b 4.828070
_cell_length_c 7.225757
_cell_angle_alpha 113.620494
_cell_angle_beta 66.935161
_cell_angle_gamma 86.336178
_cell_volume 417.965064
_symmetry_space_group_name_H-M "P -1"
_symmetry_group_IT_number 2
_symmetry_cell_setting 'triclinic'
loop_
_space_group_symop_operation_xyz
x,y,z
-x,-y,-z
loop_
_atom_site_type_symbol
_atom_site_label
_atom_site_fract_x
_atom_site_fract_y
_atom_site_fract_z
Si Si1 0.437803 0.513281 0.238929
Si Si2 0.126180 0.223465 0.958145
Si Si3 0.251490 0.721675 0.955629
Si Si4 0.036796 0.884799 0.644679
Si Si5 0.606887 0.801573 0.477869
Si Si6 0.239633 0.329879 0.367893
O O1 0.462824 0.252307 0.308898
O O2 0.429442 0.836644 0.441316
O O3 0.500000 0.500000 0.000000
O O4 0.326113 0.482253 0.257323
O O5 0.220003 0.918682 0.843561
O O6 0.072333 0.161482 0.796360
O O7 0.168629 0.527543 0.013106
O O8 0.048693 0.200535 0.179926
O O9 0.359616 0.465851 0.773906
O O10 0.247820 0.000089 0.175505
O O11 0.132181 0.578468 0.494824
O O12 0.000000 0.000000 0.500000
O O13 0.718220 0.748709 0.478899
#
# Coordination Sequence:
#
# PCOD9035290 Si02
#       6
#     2   2   2   2   2   2
#     4  10  22  46  79 108 147 199 250 314 390 466
#     4  11  28  49  74 106 158 206 265 316 383 449
#     4  12  25  48  72 110 152 205 253 318 381 457
#     4  11  26  55  76 111 156 211 265 321 379 456
#     4  10  22  45  73 105 155 190 249 316 384 449
#     4  10  26  45  76 108 150 203 256 312 389 454
#
# _framework density 28.710533000000002
#
# number of rings (size 3 to 8) (size 9 to 14) (size 15 to 20)
#    1.000    0.333    1.667    2.500    4.667    5.333 
#    3.000    1.667    0.000    0.000    0.000    0.000 
#    0.000    0.000    0.000    0.000    0.000    0.000 
#
# Total GULP energy -67402.137254 kJ/mol
# GULP energy per Si atom -5616.844771 kJ/mol
# Density = 2.864519 g / cm^3
# Si number density = 28.710533 Si / 1000 Ang^3
#
#
#
# Elastic Constant Matrix: (Units=GPa)
#
#
# Indices 1 2 3 4 5 6 
#
# 1 109.1711 49.0352 57.1675 6.5501 -13.8701 23.4730
# 2 49.0352 186.9060 61.6352 10.3077 -2.0537 13.7975
# 3 57.1675 61.6352 171.3946 5.2161 1.8872 7.1660
# 4 6.5501 10.3077 5.2161 63.9980 -0.7142 9.6007
# 5 -13.8701 -2.0537 1.8872 -0.7142 66.3088 0.1377
# 6 23.4730 13.7975 7.1660 9.6007 0.1377 74.4814
#
#
#
# Elastic Compliance Matrix: (Units=1/GPa)
#
#
# Indices 1 2 3 4 5 6 
#
# 1 0.012957 -0.001955 -0.003502 -0.000190 0.002754 -0.003365
# 2 -0.001955 0.006462 -0.001636 -0.000659 -0.000169 -0.000338
# 3 -0.003502 -0.001636 0.007576 -0.000111 -0.001002 0.000694
# 4 -0.000190 -0.000659 -0.000111 0.016043 0.000120 -0.001876
# 5 0.002754 -0.000169 -0.001002 0.000120 0.015683 -0.000785
# 6 -0.003365 -0.000338 0.000694 -0.001876 -0.000785 0.014726
#
#
# Mechanical properties :
#
#
# Convention : Reuss Voigt Hill
#
# Bulk Modulus (GPa) = 78.07138 89.23861 83.65500
# Shear Modulus (GPa) = 54.40503 60.93324 57.66913
#
# Velocity S-wave (km/s) = 4.35783 4.61187 4.48665
# Velocity P-wave (km/s) = 7.25069 7.71420 7.48603
#
# Compressibility (1/GPa) = 0.01280879
#
# Stress axis : x y z
#
# Youngs Moduli (GPa) = 77.17826 154.74989 131.99057
#
# Poissons Ratio (x) = 0.30256 0.46230
# Poissons Ratio (y) = 0.15090 0.21589
# Poissons Ratio (z) = 0.27032 0.25312
#
# Static dielectric constant tensor:
#      x y z
#    x 2.383090 -0.068060 0.017390 
#    y -0.068060 2.144200 0.019390 
#    z 0.017390 0.019390 2.249990 
# 
# From -- ./inp_files/101916.got.cif
#   From: 2010.05.17/outbox.cif.g08.bks.cpg/sg2_51_cif.got.tgz:101916.got - 2010.06.03 11:33:40.
