data_PCOD9035800
_publ_section_title
;
Structure prediction by ZEFSAII (Michael W. Deem and Ramdas Pophale) SiO2 
 PCOD9035800
Probable space group: P -1
;
_chemical_formula_sum "Si O2"
_cell_formula_units_Z 14
_cell_length_a 17.831485
_cell_length_b 11.616490
_cell_length_c 9.126753
_cell_angle_alpha 40.581890
_cell_angle_beta 129.061542
_cell_angle_gamma 150.777443
_cell_volume 597.228391
_symmetry_space_group_name_H-M "P -1"
_symmetry_group_IT_number 2
_symmetry_cell_setting 'triclinic'
loop_
_space_group_symop_operation_xyz
x,y,z
-x,-y,-z
loop_
_atom_site_type_symbol
_atom_site_label
_atom_site_fract_x
_atom_site_fract_y
_atom_site_fract_z
Si Si1 0.380700 0.532049 0.646602
Si Si2 0.318443 0.180323 0.392010
Si Si3 0.425393 0.949970 0.110557
Si Si4 0.181624 0.131487 0.540751
Si Si5 0.104892 0.547688 0.700052
Si Si6 0.298982 0.483023 0.926423
Si Si7 0.094216 0.411695 0.133367
O O1 0.523595 0.613610 0.700388
O O2 0.413251 0.765211 0.382293
O O3 0.236247 0.239724 0.668860
O O4 0.351355 0.522915 0.787692
O O5 0.312829 0.236241 0.498768
O O6 0.240989 0.880088 0.579750
O O7 0.224086 0.197685 0.174391
O O8 0.245852 0.734986 0.062218
O O9 0.547567 0.256172 0.039431
O O10 0.500000 0.000000 0.000000
O O11 0.145601 0.279226 0.298148
O O12 0.032821 0.793204 0.697647
O O13 0.183972 0.483798 0.796197
O O14 0.000000 0.500000 0.500000
O O15 0.035892 0.402254 0.915469
#
# Coordination Sequence:
#
# PCOD9035800 Si02
#       7
#     2   2   2   2   2   2   2
#     4  11  24  43  75 111 146 193 248 303 373 436
#     4  12  25  47  72 109 142 203 248 294 374 437
#     4  11  20  43  77 102 146 193 243 302 360 437
#     4  10  23  44  77 108 149 191 249 305 365 444
#     4  12  28  46  73 109 151 193 248 301 379 443
#     4  12  25  48  74 108 155 189 245 312 362 440
#     4  10  22  46  72 110 144 198 244 299 374 429
#
# _framework density 23.441617999999998
#
# number of rings (size 3 to 8) (size 9 to 14) (size 15 to 20)
#    0.000    0.857    4.286    2.143    2.000    5.714 
#    0.000    1.429    0.000    0.000    0.000    0.000 
#    0.000    0.000    0.000    0.000    0.000    0.000 
#
# Total GULP energy -78304.993048 kJ/mol
# GULP energy per Si atom -5593.213789 kJ/mol
# Density = 2.338826 g / cm^3
# Si number density = 23.441618 Si / 1000 Ang^3
#
#
#
# Elastic Constant Matrix: (Units=GPa)
#
#
# Indices 1 2 3 4 5 6 
#
# 1 123.9355 7.1968 31.7048 13.2280 -6.0825 -10.2829
# 2 7.1968 35.5597 17.7831 10.7864 -4.5446 1.5350
# 3 31.7048 17.7831 115.7701 12.4765 -3.8368 -2.2597
# 4 13.2280 10.7864 12.4765 36.2173 -1.9518 -9.3851
# 5 -6.0825 -4.5446 -3.8368 -1.9518 43.1782 11.5109
# 6 -10.2829 1.5350 -2.2597 -9.3851 11.5109 27.2106
#
#
#
# Elastic Compliance Matrix: (Units=1/GPa)
#
#
# Indices 1 2 3 4 5 6 
#
# 1 0.009059 -0.000259 -0.002187 -0.001814 0.000306 0.002502
# 2 -0.000259 0.034395 -0.004068 -0.010583 0.004903 -0.008100
# 3 -0.002187 -0.004068 0.010025 -0.001529 0.000184 -0.000370
# 4 -0.001814 -0.010583 -0.001529 0.035240 -0.003489 0.013415
# 5 0.000306 0.004903 0.000184 -0.003489 0.026980 -0.012762
# 6 0.002502 -0.008100 -0.000370 0.013415 -0.012762 0.048148
#
#
# Mechanical properties :
#
#
# Convention : Reuss Voigt Hill
#
# Bulk Modulus (GPa) = 24.72001 43.18165 33.95083
# Shear Modulus (GPa) = 26.26639 35.89327 31.07983
#
# Velocity S-wave (km/s) = 3.35102 3.91727 3.64516
# Velocity P-wave (km/s) = 5.05378 6.23866 5.67722
#
# Compressibility (1/GPa) = 0.04045307
#
# Stress axis : x y z
#
# Youngs Moduli (GPa) = 110.38374 29.07436 99.74861
#
# Poissons Ratio (x) = 0.00752 0.21813
# Poissons Ratio (y) = 0.02855 0.40573
# Poissons Ratio (z) = 0.24139 0.11826
#
# Static dielectric constant tensor:
#      x y z
#    x 1.878110 0.037600 0.030840 
#    y 0.037600 1.955090 0.009030 
#    z 0.030840 0.009030 1.878740 
# 
# From -- ./inp_files/332760.got.cif
#   From: 2010.05.17/outbox.cif.g08.bks.cpg/sg2_167_cif.got.tgz:332760.got - 2010.06.03 11:33:40.
