data_PCOD9035506
_publ_section_title
;
Structure prediction by ZEFSAII (Michael W. Deem and Ramdas Pophale) SiO2 
 PCOD9035506
Probable space group: P -1
;
_chemical_formula_sum "Si O2"
_cell_formula_units_Z 14
_cell_length_a 10.608497
_cell_length_b 11.591671
_cell_length_c 11.932230
_cell_angle_alpha 48.346946
_cell_angle_beta 53.456488
_cell_angle_gamma 32.573287
_cell_volume 587.965318
_symmetry_space_group_name_H-M "P -1"
_symmetry_group_IT_number 2
_symmetry_cell_setting 'triclinic'
loop_
_space_group_symop_operation_xyz
x,y,z
-x,-y,-z
loop_
_atom_site_type_symbol
_atom_site_label
_atom_site_fract_x
_atom_site_fract_y
_atom_site_fract_z
Si Si1 0.062799 0.598682 0.976190
Si Si2 0.810466 0.275956 0.789880
Si Si3 0.128921 0.114844 0.908455
Si Si4 0.354372 0.591764 0.691006
Si Si5 0.995571 0.384592 0.472013
Si Si6 0.612927 0.842217 0.771768
Si Si7 0.490727 0.257785 0.643647
O O1 0.122203 0.704066 0.803064
O O2 0.290160 0.371661 0.069779
O O3 0.000000 0.500000 0.000000
O O4 0.870186 0.773742 0.058418
O O5 0.546879 0.490364 0.748939
O O6 0.971155 0.231373 0.636102
O O7 0.889152 0.304342 0.843231
O O8 0.855547 0.066034 0.930830
O O9 0.344515 0.994383 0.790870
O O10 0.443261 0.378716 0.708126
O O11 0.349883 0.739063 0.514450
O O12 0.759367 0.574078 0.398899
O O13 0.000000 0.500000 0.500000
O O14 0.220848 0.245936 0.364528
O O15 0.606337 0.004885 0.743045
#
# Coordination Sequence:
#
# PCOD9035506 Si02
#       7
#     2   2   2   2   2   2   2
#     4  12  26  42  68 100 136 181 225 279 336 400
#     4  10  23  45  67  96 137 178 222 279 339 395
#     4  11  25  44  66 103 136 173 236 276 327 415
#     4  10  22  46  66  98 137 180 218 284 339 390
#     4  11  24  45  68 101 137 177 225 281 333 403
#     4  12  24  43  70  99 133 180 222 280 334 396
#     4  10  24  43  68 100 137 172 232 275 331 412
#
# _framework density 23.810927
#
# number of rings (size 3 to 8) (size 9 to 14) (size 15 to 20)
#    0.000    1.143    1.429    4.286    4.000    4.000 
#    7.714    2.857    0.000    0.000    0.000    0.000 
#    0.000    0.000    0.000    0.000    0.000    0.000 
#
# Total GULP energy -78314.790686 kJ/mol
# GULP energy per Si atom -5593.913620 kJ/mol
# Density = 2.375673 g / cm^3
# Si number density = 23.810927 Si / 1000 Ang^3
#
#
#
# Elastic Constant Matrix: (Units=GPa)
#
#
# Indices 1 2 3 4 5 6 
#
# 1 90.7898 19.9574 9.7554 28.3067 -8.3098 -6.7953
# 2 19.9574 53.5063 26.0962 20.6803 -10.9539 9.2216
# 3 9.7554 26.0962 128.5528 22.3618 -37.7882 -4.0300
# 4 28.3067 20.6803 22.3618 41.2126 -0.5864 -3.8990
# 5 -8.3098 -10.9539 -37.7882 -0.5864 33.2155 -3.3594
# 6 -6.7953 9.2216 -4.0300 -3.8990 -3.3594 29.7019
#
#
#
# Elastic Compliance Matrix: (Units=1/GPa)
#
#
# Indices 1 2 3 4 5 6 
#
# 1 0.015542 -0.002582 0.003474 -0.010761 0.007227 0.004234
# 2 -0.002582 0.028302 -0.002431 -0.012062 0.004620 -0.010768
# 3 0.003474 -0.002431 0.014600 -0.008436 0.016967 0.004342
# 4 -0.010761 -0.012062 -0.008436 0.042449 -0.015113 0.004001
# 5 0.007227 0.004620 0.016967 -0.015113 0.053137 0.006547
# 6 0.004234 -0.010768 0.004342 0.004001 0.006547 0.039835
#
#
# Mechanical properties :
#
#
# Convention : Reuss Voigt Hill
#
# Bulk Modulus (GPa) = 18.06198 42.71855 30.39026
# Shear Modulus (GPa) = 23.21287 35.29533 29.25410
#
# Velocity S-wave (km/s) = 3.12570 3.85426 3.50894
# Velocity P-wave (km/s) = 4.54188 6.14710 5.40442
#
# Compressibility (1/GPa) = 0.05536492
#
# Stress axis : x y z
#
# Youngs Moduli (GPa) = 64.34107 35.33340 68.49403
#
# Poissons Ratio (x) = 0.09125 -0.23792
# Poissons Ratio (y) = 0.16616 0.16648
# Poissons Ratio (z) = -0.22350 0.08588
#
# Static dielectric constant tensor:
#      x y z
#    x 1.908590 -0.016180 -0.000350 
#    y -0.016180 1.904010 -0.032100 
#    z -0.000350 -0.032100 1.889200 
# 
# From -- ./inp_files/72590.got.cif
#   From: 2010.05.17/outbox.cif.g08.bks.cpg/sg2_37_cif.got.tgz:72590.got - 2010.06.03 11:33:40.
