data_PCOD9035669
_publ_section_title
;
Structure prediction by ZEFSAII (Michael W. Deem and Ramdas Pophale) SiO2 
 PCOD9035669
Probable space group: P -1
;
_chemical_formula_sum "Si O2"
_cell_formula_units_Z 13
_cell_length_a 6.497132
_cell_length_b 7.337010
_cell_length_c 11.824200
_cell_angle_alpha 100.673503
_cell_angle_beta 78.514388
_cell_angle_gamma 116.522867
_cell_volume 491.244182
_symmetry_space_group_name_H-M "P -1"
_symmetry_group_IT_number 2
_symmetry_cell_setting 'triclinic'
loop_
_space_group_symop_operation_xyz
x,y,z
-x,-y,-z
loop_
_atom_site_type_symbol
_atom_site_label
_atom_site_fract_x
_atom_site_fract_y
_atom_site_fract_z
Si Si1 0.390468 0.576190 0.351275
Si Si2 0.132283 0.585823 0.173942
Si Si3 0.797505 0.994299 0.278393
Si Si4 0.798221 0.014230 0.882538
Si Si5 0.318005 0.677894 0.933995
Si Si6 0.465913 0.755227 0.596465
Si Si7 0.000000 0.000000 0.500000
O O1 0.184399 0.505563 0.275551
O O2 0.598369 0.765291 0.289745
O O3 0.325745 0.653340 0.484780
O O4 0.489175 0.417508 0.362054
O O5 0.869005 0.477485 0.147435
O O6 0.198956 0.829086 0.200186
O O7 0.282193 0.568774 0.048561
O O8 0.958897 0.048274 0.377997
O O9 0.666369 0.139570 0.307023
O O10 0.962690 0.002716 0.157877
O O11 0.581202 0.795702 0.881101
O O12 0.763351 0.141750 0.005754
O O13 0.717169 0.912884 0.542803
#
# Coordination Sequence:
#
# PCOD9035669 Si02
#       7
#     2   2   2   2   2   2   1
#     4  10  22  46  73 107 147 205 244 300 378 451
#     4   9  18  40  77 109 146 195 258 308 363 461
#     4  11  24  43  74 108 152 192 249 317 370 447
#     4   9  19  40  73 113 149 195 245 312 387 438
#     4   8  18  40  74 115 147 192 257 311 377 441
#     4  10  24  47  71 108 156 195 249 305 369 450
#     4  10  22  46  70 106 144 194 248 300 362 450
#
# _framework density 26.463418999999998
#
# number of rings (size 3 to 8) (size 9 to 14) (size 15 to 20)
#    0.923    1.538    0.000    1.846    4.308    0.000 
#   11.077    6.154    0.000    2.769    0.000    6.462 
#    0.000    0.000    0.000    0.000    0.000    0.000 
#
# Total GULP energy -72584.780706 kJ/mol
# GULP energy per Si atom -5583.444670 kJ/mol
# Density = 2.640319 g / cm^3
# Si number density = 26.463419 Si / 1000 Ang^3
#
#
#
# Elastic Constant Matrix: (Units=GPa)
#
#
# Indices 1 2 3 4 5 6 
#
# 1 111.7547 48.1774 39.6667 -5.3035 -30.4507 -13.9907
# 2 48.1774 91.0038 32.8576 -18.1213 -12.0559 10.1374
# 3 39.6667 32.8576 96.0188 -3.6998 17.6634 -6.8589
# 4 -5.3035 -18.1213 -3.6998 35.7705 5.2682 -1.0895
# 5 -30.4507 -12.0559 17.6634 5.2682 63.8647 -3.2116
# 6 -13.9907 10.1374 -6.8589 -1.0895 -3.2116 35.2786
#
#
#
# Elastic Compliance Matrix: (Units=1/GPa)
#
#
# Indices 1 2 3 4 5 6 
#
# 1 0.017933 -0.007654 -0.006006 -0.002962 0.009459 0.008913
# 2 -0.007654 0.018863 -0.003596 0.007805 -0.000187 -0.008931
# 3 -0.006006 -0.003596 0.015640 0.000088 -0.007826 0.000982
# 4 -0.002962 0.007805 0.000088 0.031799 -0.002720 -0.002666
# 5 0.009459 -0.000187 -0.007826 -0.002720 0.022736 0.004269
# 6 0.008913 -0.008931 0.000982 -0.002666 0.004269 0.034944
#
#
# Mechanical properties :
#
#
# Convention : Reuss Voigt Hill
#
# Bulk Modulus (GPa) = 55.79561 60.02009 57.90785
# Shear Modulus (GPa) = 27.41194 38.85448 33.13321
#
# Velocity S-wave (km/s) = 3.22194 3.83591 3.54225
# Velocity P-wave (km/s) = 5.91363 6.50758 6.21770
#
# Compressibility (1/GPa) = 0.01792256
#
# Stress axis : x y z
#
# Youngs Moduli (GPa) = 55.76454 53.01310 63.94041
#
# Poissons Ratio (x) = 0.40578 0.38405
# Poissons Ratio (y) = 0.42684 0.22991
# Poissons Ratio (z) = 0.33494 0.19062
#
# Static dielectric constant tensor:
#      x y z
#    x 2.000130 -0.019920 -0.006530 
#    y -0.019920 2.117640 0.009450 
#    z -0.006530 0.009450 2.114290 
# 
# From -- ./inp_files/164601.got.cif
#   From: 2010.05.17/outbox.cif.g08.bks.cpg/sg2_83_cif.got.tgz:164601.got - 2010.06.03 11:33:40.
