data_PCOD9035339
_publ_section_title
;
Structure prediction by ZEFSAII (Michael W. Deem and Ramdas Pophale) SiO2 
 PCOD9035339
Probable space group: P -1
;
_chemical_formula_sum "Si O2"
_cell_formula_units_Z 16
_cell_length_a 9.574927
_cell_length_b 16.716880
_cell_length_c 5.182948
_cell_angle_alpha 110.401103
_cell_angle_beta 108.976845
_cell_angle_gamma 50.651304
_cell_volume 595.047306
_symmetry_space_group_name_H-M "P -1"
_symmetry_group_IT_number 2
_symmetry_cell_setting 'triclinic'
loop_
_space_group_symop_operation_xyz
x,y,z
-x,-y,-z
loop_
_atom_site_type_symbol
_atom_site_label
_atom_site_fract_x
_atom_site_fract_y
_atom_site_fract_z
Si Si1 0.342389 0.991064 0.477505
Si Si2 0.110941 0.364284 0.679984
Si Si3 0.818413 0.051468 0.110006
Si Si4 0.440169 0.714805 0.727096
Si Si5 0.361048 0.195881 0.255163
Si Si6 0.077627 0.157569 0.796542
Si Si7 0.339637 0.649032 0.112873
Si Si8 0.863922 0.446694 0.112937
O O1 0.321663 0.928707 0.174541
O O2 0.441652 0.912025 0.693208
O O3 0.500000 0.000000 0.500000
O O4 0.159221 0.112873 0.509440
O O5 0.277907 0.254164 0.543751
O O6 0.967278 0.407496 0.403982
O O7 0.171321 0.441910 0.834396
O O8 0.000347 0.374095 0.878493
O O9 0.881352 0.953350 0.218994
O O10 0.742507 0.166341 0.298375
O O11 0.000000 0.000000 0.000000
O O12 0.602622 0.729435 0.803278
O O13 0.450754 0.644031 0.421218
O O14 0.409470 0.674205 0.928193
O O15 0.226876 0.171063 0.026335
O O16 0.874344 0.250922 0.853790
O O17 0.308066 0.557630 0.984984
#
# Coordination Sequence:
#
# PCOD9035339 Si02
#       8
#     2   2   2   2   2   2   2   2
#     4  12  25  39  63  94 139 182 227 286 338 402
#     4  10  23  43  74 108 131 178 220 296 335 414
#     4  12  24  42  61  91 136 182 236 277 330 394
#     4  12  27  43  64 100 143 182 225 286 343 408
#     4  12  25  45  65 103 139 181 231 281 358 406
#     4  12  25  41  66  95 130 189 235 279 328 405
#     4  12  26  45  71 100 136 185 231 285 340 404
#     4  10  22  45  74 104 137 165 238 282 345 400
#
# _framework density 26.888618999999998
#
# number of rings (size 3 to 8) (size 9 to 14) (size 15 to 20)
#    0.000    0.500    5.000    3.375    1.750    3.000 
#    0.000    1.250    0.000    0.000    0.000    0.000 
#    0.000    0.000    0.000    0.000    0.000    0.000 
#
# Total GULP energy -89593.258369 kJ/mol
# GULP energy per Si atom -5599.578648 kJ/mol
# Density = 2.682742 g / cm^3
# Si number density = 26.888619 Si / 1000 Ang^3
#
#
#
# Elastic Constant Matrix: (Units=GPa)
#
#
# Indices 1 2 3 4 5 6 
#
# 1 153.1059 17.8514 40.0467 0.9930 -2.6875 26.9466
# 2 17.8514 72.5353 5.3081 2.8120 -15.1214 15.6081
# 3 40.0467 5.3081 127.6435 13.8245 -8.3155 14.0399
# 4 0.9930 2.8120 13.8245 43.4512 -2.1868 -3.3509
# 5 -2.6875 -15.1214 -8.3155 -2.1868 40.0122 4.0242
# 6 26.9466 15.6081 14.0399 -3.3509 4.0242 48.5927
#
#
#
# Elastic Compliance Matrix: (Units=1/GPa)
#
#
# Indices 1 2 3 4 5 6 
#
# 1 0.007783 -0.001038 -0.002055 0.000286 0.000058 -0.003374
# 2 -0.001038 0.016705 0.000864 -0.001425 0.006920 -0.005711
# 3 -0.002055 0.000864 0.009143 -0.002977 0.002144 -0.002163
# 4 0.000286 -0.001425 -0.002977 0.024261 -0.000097 0.002840
# 5 0.000058 0.006920 0.002144 -0.000097 0.028579 -0.005248
# 6 -0.003374 -0.005711 -0.002163 0.002840 -0.005248 0.025540
#
#
# Mechanical properties :
#
#
# Convention : Reuss Voigt Hill
#
# Bulk Modulus (GPa) = 34.27668 53.29966 43.78817
# Shear Modulus (GPa) = 39.62180 45.74979 42.68580
#
# Velocity S-wave (km/s) = 3.84285 4.12935 3.98867
# Velocity P-wave (km/s) = 5.69784 6.52692 6.12642
#
# Compressibility (1/GPa) = 0.02917436
#
# Stress axis : x y z
#
# Youngs Moduli (GPa) = 128.48750 59.86126 109.37416
#
# Poissons Ratio (x) = 0.06213 0.22472
# Poissons Ratio (y) = 0.13336 -0.09452
# Poissons Ratio (z) = 0.26400 -0.05173
#
# Static dielectric constant tensor:
#      x y z
#    x 2.123730 0.076490 0.112910 
#    y 0.076490 2.143950 -0.027590 
#    z 0.112910 -0.027590 1.805030 
# 
# From -- ./inp_files/48892.got.cif
#   From: 2010.05.17/outbox.cif.g08.bks.cpg/sg2_25_cif.got.tgz:48892.got - 2010.06.03 11:33:40.
