data_PCOD9035548
_publ_section_title
;
Structure prediction by ZEFSAII (Michael W. Deem and Ramdas Pophale) SiO2 
 PCOD9035548
Probable space group: P -1
;
_chemical_formula_sum "Si O2"
_cell_formula_units_Z 10
_cell_length_a 13.813412
_cell_length_b 4.784168
_cell_length_c 11.670960
_cell_angle_alpha 77.100176
_cell_angle_beta 149.104791
_cell_angle_gamma 111.972766
_cell_volume 359.429267
_symmetry_space_group_name_H-M "P -1"
_symmetry_group_IT_number 2
_symmetry_cell_setting 'triclinic'
loop_
_space_group_symop_operation_xyz
x,y,z
-x,-y,-z
loop_
_atom_site_type_symbol
_atom_site_label
_atom_site_fract_x
_atom_site_fract_y
_atom_site_fract_z
Si Si1 0.309754 0.885334 0.030418
Si Si2 0.962354 0.368300 0.649519
Si Si3 0.331213 0.635359 0.842387
Si Si4 0.424534 0.349374 0.294373
Si Si5 0.167948 0.750211 0.226602
O O1 0.382330 0.661858 0.206869
O O2 0.383096 0.201564 0.140309
O O3 0.391356 0.876654 0.986928
O O4 0.068974 0.714229 0.780143
O O5 0.767916 0.303014 0.380420
O O6 0.910664 0.190393 0.733316
O O7 0.133240 0.375117 0.729423
O O8 0.500000 0.500000 0.000000
O O9 0.648419 0.374645 0.554584
O O10 0.267884 0.081683 0.236895
O O11 0.000000 0.500000 0.000000
#
# Coordination Sequence:
#
# PCOD9035548 Si02
#       5
#     2   2   2   2   2
#     4  10  22  46  68 103 137 178 234 280 347 416
#     4   9  20  40  68 103 135 184 231 281 350 412
#     4   9  18  40  72  97 140 178 231 286 346 408
#     4  11  25  44  71 102 139 186 225 288 352 409
#     4  11  22  44  70 100 142 180 234 284 345 416
#
# _framework density 27.821885000000002
#
# number of rings (size 3 to 8) (size 9 to 14) (size 15 to 20)
#    1.200    0.800    2.000    1.200    0.000    4.000 
#    3.600    8.000    0.000    0.000    0.000    0.000 
#    0.000    0.000    0.000    0.000    0.000    0.000 
#
# Total GULP energy -56012.116208 kJ/mol
# GULP energy per Si atom -5601.211621 kJ/mol
# Density = 2.775856 g / cm^3
# Si number density = 27.821885 Si / 1000 Ang^3
#
#
#
# Elastic Constant Matrix: (Units=GPa)
#
#
# Indices 1 2 3 4 5 6 
#
# 1 193.6359 -6.4357 41.1161 2.4354 -28.4606 18.8071
# 2 -6.4357 68.1147 16.0554 -6.0145 -9.6956 -15.4073
# 3 41.1161 16.0554 244.9976 6.4773 -20.1023 -11.0014
# 4 2.4354 -6.0145 6.4773 37.2644 10.2660 -3.3024
# 5 -28.4606 -9.6956 -20.1023 10.2660 42.6403 -13.4124
# 6 18.8071 -15.4073 -11.0014 -3.3024 -13.4124 37.4650
#
#
#
# Elastic Compliance Matrix: (Units=1/GPa)
#
#
# Indices 1 2 3 4 5 6 
#
# 1 0.006083 0.000755 -0.000824 -0.001280 0.003580 -0.001817
# 2 0.000755 0.018202 -0.000352 0.001859 0.007081 0.009702
# 3 -0.000824 -0.000352 0.004603 -0.001309 0.002624 0.002445
# 4 -0.001280 0.001859 -0.001309 0.029707 -0.007951 0.000795
# 5 0.003580 0.007081 0.002624 -0.007951 0.034906 0.013681
# 6 -0.001817 0.009702 0.002445 0.000795 0.013681 0.037279
#
#
# Mechanical properties :
#
#
# Convention : Reuss Voigt Hill
#
# Bulk Modulus (GPa) = 35.65727 67.57996 51.61861
# Shear Modulus (GPa) = 35.46815 53.87478 44.67146
#
# Velocity S-wave (km/s) = 3.57435 4.40525 4.01137
# Velocity P-wave (km/s) = 5.46614 7.08646 6.32837
#
# Compressibility (1/GPa) = 0.02804477
#
# Stress axis : x y z
#
# Youngs Moduli (GPa) = 164.38806 54.93898 217.26137
#
# Poissons Ratio (x) = -0.04147 0.17910
# Poissons Ratio (y) = -0.12407 0.07647
# Poissons Ratio (z) = 0.13551 0.01934
#
# Static dielectric constant tensor:
#      x y z
#    x 2.275110 0.130820 0.120790 
#    y 0.130820 2.268060 0.070170 
#    z 0.120790 0.070170 2.233650 
# 
# From -- ./inp_files/439953.got.cif
#   From: 2010.05.17/outbox.cif.g08.bks.cpg/sg2_220_cif.got.tgz:439953.got - 2010.06.03 11:33:40.
