data_PCOD9035319
_publ_section_title
;
Structure prediction by ZEFSAII (Michael W. Deem and Ramdas Pophale) SiO2 
 PCOD9035319
Probable space group: P -1
;
_chemical_formula_sum "Si O2"
_cell_formula_units_Z 14
_cell_length_a 15.303899
_cell_length_b 11.816035
_cell_length_c 23.632537
_cell_angle_alpha 29.716469
_cell_angle_beta 162.443290
_cell_angle_gamma 153.701963
_cell_volume 568.094197
_symmetry_space_group_name_H-M "P -1"
_symmetry_group_IT_number 2
_symmetry_cell_setting 'triclinic'
loop_
_space_group_symop_operation_xyz
x,y,z
-x,-y,-z
loop_
_atom_site_type_symbol
_atom_site_label
_atom_site_fract_x
_atom_site_fract_y
_atom_site_fract_z
Si Si1 0.264403 0.892694 0.214485
Si Si2 0.444849 0.251992 0.861886
Si Si3 0.591884 0.800330 0.724324
Si Si4 0.118565 0.937449 0.315243
Si Si5 0.388100 0.098965 0.691209
Si Si6 0.220346 0.573185 0.814307
Si Si7 0.374854 0.471082 0.604950
O O1 0.459448 0.879564 0.286128
O O2 0.046251 0.612656 0.225960
O O3 0.480762 0.086377 0.312944
O O4 0.000000 0.000000 0.000000
O O5 0.668341 0.559576 0.881612
O O6 0.341274 0.302930 0.713286
O O7 0.200298 0.172850 0.797575
O O8 0.500000 0.000000 0.000000
O O9 0.877277 0.023355 0.766834
O O10 0.282089 0.755655 0.513437
O O11 0.356370 0.230611 0.354779
O O12 0.525313 0.356241 0.699824
O O13 0.409942 0.854800 0.836019
O O14 0.000000 0.000000 0.500000
O O15 0.982293 0.570007 0.617495
O O16 0.500000 0.500000 0.000000
#
# Coordination Sequence:
#
# PCOD9035319 Si02
#       7
#     2   2   2   2   2   2   2
#     4  12  25  42  71 107 142 189 240 295 360 429
#     4  11  26  45  71 105 137 188 238 298 361 421
#     4  10  24  44  70 103 136 181 239 294 357 426
#     4  10  22  45  73  99 137 183 236 303 351 423
#     4  10  25  42  65 103 146 191 233 287 360 432
#     4  11  23  44  68 104 143 183 239 296 354 432
#     4  10  24  44  71 102 145 188 237 291 365 433
#
# _framework density 24.643801
#
# number of rings (size 3 to 8) (size 9 to 14) (size 15 to 20)
#    0.000    1.429    2.857    0.429    4.000   10.286 
#    0.000    0.000    0.000    0.000    0.000    0.000 
#    0.000    0.000    0.000    0.000    0.000    0.000 
#
# Total GULP energy -78053.894635 kJ/mol
# GULP energy per Si atom -5575.278188 kJ/mol
# Density = 2.458771 g / cm^3
# Si number density = 24.643801 Si / 1000 Ang^3
#
#
#
# Elastic Constant Matrix: (Units=GPa)
#
#
# Indices 1 2 3 4 5 6 
#
# 1 191.6495 44.1022 43.6302 -6.5109 22.8351 14.0983
# 2 44.1022 101.1633 34.2429 -35.6572 -0.4503 -0.6579
# 3 43.6302 34.2429 97.3319 -27.7865 5.5990 11.2899
# 4 -6.5109 -35.6572 -27.7865 42.2722 -3.3736 6.4158
# 5 22.8351 -0.4503 5.5990 -3.3736 41.7990 -6.1896
# 6 14.0983 -0.6579 11.2899 6.4158 -6.1896 50.9272
#
#
#
# Elastic Compliance Matrix: (Units=1/GPa)
#
#
# Indices 1 2 3 4 5 6 
#
# 1 0.007091 -0.003550 -0.002582 -0.003703 -0.004082 -0.001466
# 2 -0.003550 0.016233 -0.000608 0.012994 0.003257 0.000086
# 3 -0.002582 -0.000608 0.014776 0.009347 -0.000383 -0.003793
# 4 -0.003703 0.012994 0.009347 0.041323 0.003406 -0.005671
# 5 -0.004082 0.003257 -0.000383 0.003406 0.027126 0.004125
# 6 -0.001466 0.000086 -0.003793 -0.005671 0.004125 0.022099
#
#
# Mechanical properties :
#
#
# Convention : Reuss Voigt Hill
#
# Bulk Modulus (GPa) = 40.61617 70.45504 55.53561
# Shear Modulus (GPa) = 33.25899 44.87764 39.06831
#
# Velocity S-wave (km/s) = 3.67766 4.27201 3.98593
# Velocity P-wave (km/s) = 5.87798 7.27907 6.61572
#
# Compressibility (1/GPa) = 0.02462073
#
# Stress axis : x y z
#
# Youngs Moduli (GPa) = 141.02214 61.60126 67.67892
#
# Poissons Ratio (x) = 0.21870 0.17473
# Poissons Ratio (y) = 0.50067 0.04112
# Poissons Ratio (z) = 0.36409 0.03743
#
# Static dielectric constant tensor:
#      x y z
#    x 2.296260 -0.192670 0.039880 
#    y -0.192670 2.141310 0.002340 
#    z 0.039880 0.002340 2.343370 
# 
# From -- ./inp_files/611951.got.cif
#   From: 2010.05.17/outbox.cif.g08.bks.cpg/sg2_306_cif.got.tgz:611951.got - 2010.06.03 11:33:40.
