data_PCOD9035484
_publ_section_title
;
Structure prediction by ZEFSAII (Michael W. Deem and Ramdas Pophale) SiO2 
 PCOD9035484
Probable space group: P -1
;
_chemical_formula_sum "Si O2"
_cell_formula_units_Z 13
_cell_length_a 8.241867
_cell_length_b 11.201488
_cell_length_c 12.103566
_cell_angle_alpha 38.264192
_cell_angle_beta 125.913097
_cell_angle_gamma 138.321464
_cell_volume 460.147437
_symmetry_space_group_name_H-M "P -1"
_symmetry_group_IT_number 2
_symmetry_cell_setting 'triclinic'
loop_
_space_group_symop_operation_xyz
x,y,z
-x,-y,-z
loop_
_atom_site_type_symbol
_atom_site_label
_atom_site_fract_x
_atom_site_fract_y
_atom_site_fract_z
Si Si1 0.220251 0.525560 0.952686
Si Si2 0.345547 0.195069 0.211319
Si Si3 0.939425 0.791137 0.471962
Si Si4 0.000000 0.000000 0.000000
Si Si5 0.243012 0.927316 0.000151
Si Si6 0.751768 0.052163 0.304887
Si Si7 0.782222 0.344953 0.609588
O O1 0.373861 0.678806 0.795156
O O2 0.955874 0.315655 0.961690
O O3 0.259069 0.731864 0.893099
O O4 0.322916 0.377590 0.140994
O O5 0.186950 0.947351 0.386702
O O6 0.218560 0.166323 0.062374
O O7 0.806007 0.926416 0.322469
O O8 0.784063 0.527160 0.560600
O O9 0.029902 0.820815 0.612454
O O10 0.803110 0.877633 0.123531
O O11 0.165208 0.820956 0.177157
O O12 0.500000 0.000000 0.000000
O O13 0.492800 0.843891 0.403574
O O14 0.000000 0.500000 0.500000
#
# Coordination Sequence:
#
# PCOD9035484 Si02
#       7
#     2   2   2   1   2   2   2
#     4  10  22  46  67 102 139 191 240 307 361 440
#     4  10  23  44  74  99 145 189 251 304 373 445
#     4  11  25  47  68 109 142 192 244 307 370 448
#     4  10  22  46  66 104 142 192 244 304 366 442
#     4  11  25  46  73 106 150 196 253 307 374 450
#     4  11  25  45  72 103 147 188 247 304 372 446
#     4  12  26  46  75 105 146 199 245 307 374 450
#
# _framework density 28.251815000000001
#
# number of rings (size 3 to 8) (size 9 to 14) (size 15 to 20)
#    0.000    1.231    1.538    3.231    6.462    1.846 
#   13.846    0.000    0.000    0.000    0.000    0.000 
#    0.000    0.000    0.000    0.000    0.000    0.000 
#
# Total GULP energy -72482.614508 kJ/mol
# GULP energy per Si atom -5575.585731 kJ/mol
# Density = 2.818751 g / cm^3
# Si number density = 28.251815 Si / 1000 Ang^3
#
#
#
# Elastic Constant Matrix: (Units=GPa)
#
#
# Indices 1 2 3 4 5 6 
#
# 1 178.8291 60.4504 5.5287 -23.6718 -21.9652 -14.3089
# 2 60.4504 134.8926 22.0523 -46.8306 10.7865 -11.1064
# 3 5.5287 22.0523 65.5577 -31.5611 4.1195 -10.1961
# 4 -23.6718 -46.8306 -31.5611 45.6898 -3.9688 3.4042
# 5 -21.9652 10.7865 4.1195 -3.9688 51.1410 -20.2734
# 6 -14.3089 -11.1064 -10.1961 3.4042 -20.2734 58.5081
#
#
#
# Elastic Compliance Matrix: (Units=1/GPa)
#
#
# Indices 1 2 3 4 5 6 
#
# 1 0.007832 -0.003195 0.001614 0.002117 0.005395 0.003336
# 2 -0.003195 0.013414 0.002521 0.013532 -0.003238 0.000295
# 3 0.001614 0.002521 0.024608 0.020216 0.001539 0.004519
# 4 0.002117 0.013532 0.020216 0.050673 0.002099 0.004388
# 5 0.005395 -0.003238 0.001539 0.002099 0.026581 0.010061
# 6 0.003336 0.000295 0.004519 0.004388 0.010061 0.021982
#
#
# Mechanical properties :
#
#
# Convention : Reuss Voigt Hill
#
# Bulk Modulus (GPa) = 20.94983 61.70470 41.32727
# Shear Modulus (GPa) = 31.42239 50.48431 40.95335
#
# Velocity S-wave (km/s) = 3.33862 4.23181 3.81147
# Velocity P-wave (km/s) = 4.72158 6.76506 5.83350
#
# Compressibility (1/GPa) = 0.04773308
#
# Stress axis : x y z
#
# Youngs Moduli (GPa) = 127.68204 74.54864 40.63727
#
# Poissons Ratio (x) = 0.23820 -0.06557
# Poissons Ratio (y) = 0.40797 -0.10245
# Poissons Ratio (z) = -0.20602 -0.18795
#
# Static dielectric constant tensor:
#      x y z
#    x 2.134460 0.115670 -0.197620 
#    y 0.115670 2.238150 0.285090 
#    z -0.197620 0.285090 2.151870 
# 
# From -- ./inp_files/497548.got.cif
#   From: 2010.05.17/outbox.cif.g08.bks.cpg/sg2_249_cif.got.tgz:497548.got - 2010.06.03 11:33:40.
