data_PCOD9035142
_publ_section_title
;
Structure prediction by ZEFSAII (Michael W. Deem and Ramdas Pophale) SiO2 
 PCOD9035142
Probable space group: P -1
;
_chemical_formula_sum "Si O2"
_cell_formula_units_Z 14
_cell_length_a 15.951264
_cell_length_b 5.128152
_cell_length_c 9.031525
_cell_angle_alpha 104.770836
_cell_angle_beta 87.715473
_cell_angle_gamma 115.992101
_cell_volume 639.914654
_symmetry_space_group_name_H-M "P -1"
_symmetry_group_IT_number 2
_symmetry_cell_setting 'triclinic'
loop_
_space_group_symop_operation_xyz
x,y,z
-x,-y,-z
loop_
_atom_site_type_symbol
_atom_site_label
_atom_site_fract_x
_atom_site_fract_y
_atom_site_fract_z
Si Si1 0.389838 0.090041 0.066779
Si Si2 0.784424 0.769724 0.316088
Si Si3 0.084004 0.260400 0.937578
Si Si4 0.405972 0.516909 0.859757
Si Si5 0.205870 0.824299 0.214311
Si Si6 0.952266 0.992439 0.658148
Si Si7 0.176686 0.597888 0.475068
O O1 0.486699 0.300674 0.172516
O O2 0.296102 0.042776 0.148870
O O3 0.396970 0.253162 0.933259
O O4 0.386166 0.765302 0.987718
O O5 0.832867 0.787947 0.155159
O O6 0.673641 0.626486 0.277684
O O7 0.801697 0.569942 0.413694
O O8 0.827031 0.112711 0.414174
O O9 0.138379 0.557345 0.072109
O O10 0.026145 0.251468 0.792819
O O11 0.000000 0.000000 0.000000
O O12 0.241735 0.714566 0.341971
O O13 0.143105 0.980730 0.301561
O O14 0.918047 0.635737 0.636280
O O15 0.000000 0.000000 0.500000
#
# Coordination Sequence:
#
# PCOD9035142 Si02
#       7
#     2   2   2   2   2   2   2
#     4  10  23  42  76 105 140 172 227 298 353 405
#     4  12  26  46  71  98 143 184 234 276 358 416
#     4  12  26  40  69 106 134 184 239 300 331 412
#     4  10  22  45  71 109 136 178 225 288 362 415
#     4  12  26  45  71 104 142 179 244 291 345 403
#     4  12  26  46  65  96 142 193 229 280 351 413
#     4  12  26  46  66  95 143 192 221 283 345 420
#
# _framework density 21.877914000000001
#
# number of rings (size 3 to 8) (size 9 to 14) (size 15 to 20)
#    0.000    0.571    5.714    1.286    6.000    1.143 
#    0.000    1.429    0.000    0.000    0.000    0.000 
#    0.000    0.000    0.000    0.000    0.000    0.000 
#
# Total GULP energy -78030.396368 kJ/mol
# GULP energy per Si atom -5573.599741 kJ/mol
# Density = 2.182812 g / cm^3
# Si number density = 21.877914 Si / 1000 Ang^3
#
#
#
# Elastic Constant Matrix: (Units=GPa)
#
#
# Indices 1 2 3 4 5 6 
#
# 1 102.6106 38.6061 42.4206 6.4464 -3.0278 26.6151
# 2 38.6061 90.2153 37.9654 3.6097 -12.4767 13.1213
# 3 42.4206 37.9654 121.4775 6.5697 -19.8291 10.7638
# 4 6.4464 3.6097 6.5697 27.7354 -5.2241 -4.8515
# 5 -3.0278 -12.4767 -19.8291 -5.2241 28.0191 -2.0926
# 6 26.6151 13.1213 10.7638 -4.8515 -2.0926 44.8498
#
#
#
# Elastic Compliance Matrix: (Units=1/GPa)
#
#
# Indices 1 2 3 4 5 6 
#
# 1 0.014888 -0.004152 -0.003708 -0.004119 -0.004183 -0.007371
# 2 -0.004152 0.014578 -0.002316 0.000264 0.004377 -0.001012
# 3 -0.003708 -0.002316 0.011291 -0.000197 0.006556 0.000453
# 4 -0.004119 0.000264 -0.000197 0.039662 0.007454 0.007053
# 5 -0.004183 0.004377 0.006556 0.007454 0.043400 0.002460
# 6 -0.007371 -0.001012 0.000453 0.007053 0.002460 0.027736
#
#
# Mechanical properties :
#
#
# Convention : Reuss Voigt Hill
#
# Bulk Modulus (GPa) = 49.00874 61.36529 55.18702
# Shear Modulus (GPa) = 27.97816 33.14164 30.55990
#
# Velocity S-wave (km/s) = 3.57995 3.89632 3.74148
# Velocity P-wave (km/s) = 6.28790 6.95353 6.62908
#
# Compressibility (1/GPa) = 0.02040452
#
# Stress axis : x y z
#
# Youngs Moduli (GPa) = 67.16818 68.59542 88.56241
#
# Poissons Ratio (x) = 0.28482 0.32841
# Poissons Ratio (y) = 0.27889 0.20513
# Poissons Ratio (z) = 0.24907 0.15888
#
# Static dielectric constant tensor:
#      x y z
#    x 1.874050 -0.017800 0.053160 
#    y -0.017800 1.879690 -0.041210 
#    z 0.053160 -0.041210 1.831370 
# 
# From -- ./inp_files/322909.got.cif
#   From: 2010.05.17/outbox.cif.g08.bks.cpg/sg2_162_cif.got.tgz:322909.got - 2010.06.03 11:33:40.
