data_PCOD9035636
_publ_section_title
;
Structure prediction by ZEFSAII (Michael W. Deem and Ramdas Pophale) SiO2 
 PCOD9035636
Probable space group: P -1
;
_chemical_formula_sum "Si O2"
_cell_formula_units_Z 14
_cell_length_a 12.315576
_cell_length_b 7.654485
_cell_length_c 12.383574
_cell_angle_alpha 81.346057
_cell_angle_beta 124.264457
_cell_angle_gamma 140.827702
_cell_volume 509.808288
_symmetry_space_group_name_H-M "P -1"
_symmetry_group_IT_number 2
_symmetry_cell_setting 'triclinic'
loop_
_space_group_symop_operation_xyz
x,y,z
-x,-y,-z
loop_
_atom_site_type_symbol
_atom_site_label
_atom_site_fract_x
_atom_site_fract_y
_atom_site_fract_z
Si Si1 0.481012 0.406427 0.878587
Si Si2 0.103337 0.643850 0.284735
Si Si3 0.312123 0.738785 0.051190
Si Si4 0.674216 0.667886 0.407082
Si Si5 0.404107 0.833526 0.622312
Si Si6 0.831419 0.873935 0.697090
Si Si7 0.067410 0.905083 0.976342
O O1 0.597625 0.342944 0.944167
O O2 0.280028 0.178133 0.692937
O O3 0.500000 0.500000 0.000000
O O4 0.643968 0.753723 0.883449
O O5 0.335478 0.837977 0.326288
O O6 0.190077 0.697404 0.450627
O O7 0.105029 0.858341 0.253327
O O8 0.830723 0.295869 0.112061
O O9 0.526876 0.048993 0.224127
O O10 0.089485 0.429083 0.034834
O O11 0.865024 0.926249 0.583715
O O12 0.429211 0.457657 0.356649
O O13 0.664958 0.447353 0.411964
O O14 0.988643 0.882733 0.817526
O O15 0.000000 0.000000 0.000000
#
# Coordination Sequence:
#
# PCOD9035636 Si02
#       7
#     2   2   2   2   2   2   2
#     4  11  22  39  61  85 114 154 203 246 291 347
#     4  10  19  32  52  89 122 152 186 240 300 348
#     4  11  20  38  61  88 120 155 194 246 294 351
#     4  10  20  35  55  89 120 150 186 245 296 345
#     4  10  22  33  53  91 128 148 191 237 302 354
#     4  10  17  32  59  83 117 145 192 245 292 333
#     4  10  17  33  57  87 112 140 197 243 290 338
#
# _framework density 27.461303000000001
#
# number of rings (size 3 to 8) (size 9 to 14) (size 15 to 20)
#    0.000    1.714    5.714    2.143    6.000    0.000 
#    0.000    1.429    0.000    0.857    0.000    0.000 
#    0.000    0.000    0.000    0.000    0.000    0.000 
#
# Total GULP energy -78064.254974 kJ/mol
# GULP energy per Si atom -5576.018212 kJ/mol
# Density = 2.739880 g / cm^3
# Si number density = 27.461303 Si / 1000 Ang^3
#
#
#
# Elastic Constant Matrix: (Units=GPa)
#
#
# Indices 1 2 3 4 5 6 
#
# 1 121.9538 20.0892 65.1422 -12.5839 -13.8713 -22.7060
# 2 20.0892 39.3566 6.9213 4.7103 13.0917 3.1166
# 3 65.1422 6.9213 237.0305 -31.8651 -12.2609 -8.4376
# 4 -12.5839 4.7103 -31.8651 30.5694 -7.6481 -0.0492
# 5 -13.8713 13.0917 -12.2609 -7.6481 53.3024 -6.9893
# 6 -22.7060 3.1166 -8.4376 -0.0492 -6.9893 34.1662
#
#
#
# Elastic Compliance Matrix: (Units=1/GPa)
#
#
# Indices 1 2 3 4 5 6 
#
# 1 0.015985 -0.013445 -0.001725 0.009425 0.010191 0.013522
# 2 -0.013445 0.042576 -0.001670 -0.018686 -0.019277 -0.017202
# 3 -0.001725 -0.001670 0.005705 0.006060 0.002259 0.000886
# 4 0.009425 -0.018686 0.006060 0.050150 0.017348 0.013086
# 5 0.010191 -0.019277 0.002259 0.017348 0.031188 0.015494
# 6 0.013522 -0.017202 0.000886 0.013086 0.015494 0.043232
#
#
# Mechanical properties :
#
#
# Convention : Reuss Voigt Hill
#
# Bulk Modulus (GPa) = 32.69378 64.73848 48.71613
# Shear Modulus (GPa) = 21.48582 44.02016 32.75299
#
# Velocity S-wave (km/s) = 2.80018 4.00808 3.45729
# Velocity P-wave (km/s) = 4.73138 6.71157 5.80651
#
# Compressibility (1/GPa) = 0.03058686
#
# Stress axis : x y z
#
# Youngs Moduli (GPa) = 62.55717 23.48729 175.29052
#
# Poissons Ratio (x) = 0.31579 0.30238
# Poissons Ratio (y) = 0.84109 0.29268
# Poissons Ratio (z) = 0.10791 0.03922
#
# Static dielectric constant tensor:
#      x y z
#    x 2.271640 0.146430 0.164120 
#    y 0.146430 2.172230 0.112770 
#    z 0.164120 0.112770 2.898640 
# 
# From -- ./inp_files/306422.got.cif
#   From: 2010.05.17/outbox.cif.g08.bks.cpg/sg2_154_cif.got.tgz:306422.got - 2010.06.03 11:33:40.
