data_PCOD9035586
_publ_section_title
;
Structure prediction by ZEFSAII (Michael W. Deem and Ramdas Pophale) SiO2 
 PCOD9035586
Probable space group: P -1
;
_chemical_formula_sum "Si O2"
_cell_formula_units_Z 16
_cell_length_a 15.293835
_cell_length_b 14.589171
_cell_length_c 9.460584
_cell_angle_alpha 85.935516
_cell_angle_beta 66.218844
_cell_angle_gamma 29.335899
_cell_volume 738.005068
_symmetry_space_group_name_H-M "P -1"
_symmetry_group_IT_number 2
_symmetry_cell_setting 'triclinic'
loop_
_space_group_symop_operation_xyz
x,y,z
-x,-y,-z
loop_
_atom_site_type_symbol
_atom_site_label
_atom_site_fract_x
_atom_site_fract_y
_atom_site_fract_z
Si Si1 0.502033 0.070699 0.320160
Si Si2 0.920048 0.805537 0.553165
Si Si3 0.543116 0.688796 0.756506
Si Si4 0.085019 0.329689 0.686171
Si Si5 0.117021 0.970832 0.821273
Si Si6 0.209003 0.872366 0.460704
Si Si7 0.398270 0.496387 0.995297
Si Si8 0.564500 0.862123 0.080713
O O1 0.492965 0.169656 0.220766
O O2 0.228686 0.293177 0.539432
O O3 0.712015 0.897852 0.320016
O O4 0.577032 0.908692 0.213227
O O5 0.954219 0.702056 0.416335
O O6 0.194232 0.561375 0.469195
O O7 0.868226 0.952907 0.516281
O O8 0.674025 0.992434 0.775453
O O9 0.324494 0.841161 0.787128
O O10 0.556265 0.623053 0.904356
O O11 0.826042 0.583201 0.902751
O O12 0.223188 0.833770 0.620633
O O13 0.000000 0.000000 0.000000
O O14 0.888370 0.237121 0.889103
O O15 0.454671 0.645908 0.231020
O O16 0.000000 0.000000 0.500000
O O17 0.500000 0.500000 0.000000
O O18 0.500000 0.000000 0.000000
#
# Coordination Sequence:
#
# PCOD9035586 Si02
#       8
#     2   2   2   2   2   2   2   2
#     4  10  23  40  69 106 139 191 237 298 360 428
#     4  11  25  42  70 100 139 191 232 294 362 422
#     4  12  24  46  74 104 148 187 246 301 363 437
#     4  10  22  46  68  98 153 183 238 304 357 426
#     4  12  26  49  74 108 142 192 244 302 369 435
#     4  12  25  46  74 104 144 190 237 300 367 429
#     4  12  25  50  72 101 148 189 236 306 363 431
#     4  11  23  41  68 102 139 189 241 284 360 430
#
# _framework density 21.680067999999999
#
# number of rings (size 3 to 8) (size 9 to 14) (size 15 to 20)
#    0.000    0.750    3.750    2.625    3.500    2.500 
#    2.250    1.250    0.000    0.000    0.000    0.000 
#    0.000    0.000    0.000    0.000    0.000    0.000 
#
# Total GULP energy -89479.726659 kJ/mol
# GULP energy per Si atom -5592.482916 kJ/mol
# Density = 2.163072 g / cm^3
# Si number density = 21.680068 Si / 1000 Ang^3
#
#
#
# Elastic Constant Matrix: (Units=GPa)
#
#
# Indices 1 2 3 4 5 6 
#
# 1 93.9026 59.7934 65.9396 3.3142 -29.5577 -1.6285
# 2 59.7934 107.4866 64.6433 -4.3086 -15.0482 -10.1917
# 3 65.9396 64.6433 180.6531 15.0832 -12.8755 -1.2693
# 4 3.3142 -4.3086 15.0832 46.2470 0.6017 -12.1864
# 5 -29.5577 -15.0482 -12.8755 0.6017 37.9498 -1.6167
# 6 -1.6285 -10.1917 -1.2693 -12.1864 -1.6167 43.8746
#
#
#
# Elastic Compliance Matrix: (Units=1/GPa)
#
#
# Indices 1 2 3 4 5 6 
#
# 1 0.023551 -0.008778 -0.004381 -0.001577 0.013348 -0.001238
# 2 -0.008778 0.016509 -0.003127 0.004415 -0.001226 0.004600
# 3 -0.004381 -0.003127 0.008371 -0.003099 -0.001830 -0.001575
# 4 -0.001577 0.004415 -0.003099 0.025238 -0.000594 0.007866
# 5 0.013348 -0.001226 -0.001830 -0.000594 0.035705 0.001309
# 6 -0.001238 0.004600 -0.001575 0.007866 0.001309 0.026002
#
#
# Mechanical properties :
#
#
# Convention : Reuss Voigt Hill
#
# Bulk Modulus (GPa) = 63.05805 84.75498 73.90651
# Shear Modulus (GPa) = 28.86268 38.39203 33.62736
#
# Velocity S-wave (km/s) = 3.65266 4.21271 3.94264
# Velocity P-wave (km/s) = 6.85114 7.92722 7.40874
#
# Compressibility (1/GPa) = 0.01585840
#
# Stress axis : x y z
#
# Youngs Moduli (GPa) = 42.46093 60.57403 119.46545
#
# Poissons Ratio (x) = 0.53173 0.52336
# Poissons Ratio (y) = 0.37273 0.37355
# Poissons Ratio (z) = 0.18602 0.18941
#
# Static dielectric constant tensor:
#      x y z
#    x 1.810990 0.002650 0.027520 
#    y 0.002650 1.845030 0.078910 
#    z 0.027520 0.078910 1.993180 
# 
# From -- ./inp_files/315207.got.cif
#   From: 2010.05.17/outbox.cif.g08.bks.cpg/sg2_158_cif.got.tgz:315207.got - 2010.06.03 11:33:40.
