data_PCOD9035692
_publ_section_title
;
Structure prediction by ZEFSAII (Michael W. Deem and Ramdas Pophale) SiO2 
 PCOD9035692
Probable space group: P -1
;
_chemical_formula_sum "Si O2"
_cell_formula_units_Z 12
_cell_length_a 9.101475
_cell_length_b 14.562887
_cell_length_c 7.327731
_cell_angle_alpha 102.161486
_cell_angle_beta 102.862424
_cell_angle_gamma 31.323373
_cell_volume 491.846131
_symmetry_space_group_name_H-M "P -1"
_symmetry_group_IT_number 2
_symmetry_cell_setting 'triclinic'
loop_
_space_group_symop_operation_xyz
x,y,z
-x,-y,-z
loop_
_atom_site_type_symbol
_atom_site_label
_atom_site_fract_x
_atom_site_fract_y
_atom_site_fract_z
Si Si1 0.604079 0.225039 0.157355
Si Si2 0.194257 0.201401 0.481022
Si Si3 0.789048 0.171264 0.768786
Si Si4 0.241312 0.371922 0.666252
Si Si5 0.144848 0.301102 0.099754
Si Si6 0.799641 0.379105 0.741554
O O1 0.405193 0.236002 0.118456
O O2 0.427962 0.413554 0.244615
O O3 0.711357 0.190799 0.967065
O O4 0.897063 0.037199 0.261115
O O5 0.236188 0.266753 0.656955
O O6 0.162394 0.240203 0.275272
O O7 0.925566 0.294692 0.537834
O O8 0.500000 0.000000 0.500000
O O9 0.541347 0.246785 0.625080
O O10 0.727099 0.313479 0.768858
O O11 0.000000 0.500000 0.500000
O O12 0.128322 0.488843 0.853476
O O13 0.046793 0.280276 0.911466
#
# Coordination Sequence:
#
# PCOD9035692 Si02
#       6
#     2   2   2   2   2   2
#     4  11  23  42  72 108 144 193 236 303 366 427
#     4  11  25  44  73 108 141 190 252 299 356 442
#     4  11  25  43  71 114 146 185 250 303 364 440
#     4  10  22  46  70  96 145 191 238 294 362 433
#     4  11  23  46  76 103 142 198 245 290 369 445
#     4  12  24  46  77 107 149 193 242 303 372 432
#
# _framework density 24.397874000000002
#
# number of rings (size 3 to 8) (size 9 to 14) (size 15 to 20)
#    0.000    1.000    3.333    3.000    0.000    5.333 
#    3.000   14.167    0.000    0.000    0.000    0.000 
#    0.000    0.000    0.000    0.000    0.000    0.000 
#
# Total GULP energy -66912.629160 kJ/mol
# GULP energy per Si atom -5576.052430 kJ/mol
# Density = 2.434234 g / cm^3
# Si number density = 24.397874 Si / 1000 Ang^3
#
#
#
# Elastic Constant Matrix: (Units=GPa)
#
#
# Indices 1 2 3 4 5 6 
#
# 1 52.1304 -36.7154 26.5748 -34.8193 -25.2554 -39.0391
# 2 -36.7154 87.5514 13.5086 -30.1244 -17.8795 -38.5148
# 3 26.5748 13.5086 86.2835 -20.7956 -31.6668 -7.0761
# 4 -34.8193 -30.1244 -20.7956 22.6860 -19.8127 0.6179
# 5 -25.2554 -17.8795 -31.6668 -19.8127 32.2777 -3.4365
# 6 -39.0391 -38.5148 -7.0761 0.6179 -3.4365 32.4566
#
#
#
# Elastic Compliance Matrix: (Units=1/GPa)
#
#
# Indices 1 2 3 4 5 6 
#
# 1 0.007474 -0.002392 -0.010937 -0.015071 -0.015198 0.002444
# 2 -0.002392 0.006678 -0.006719 -0.010677 -0.011040 0.002616
# 3 -0.010937 -0.006719 0.024307 0.012375 0.017652 -0.014196
# 4 -0.015071 -0.010677 0.012375 0.024618 0.006578 -0.027872
# 5 -0.015198 -0.011040 0.017652 0.006578 0.031743 -0.024298
# 6 0.002444 0.002616 -0.014196 -0.027872 -0.024298 0.031718
#
#
# Mechanical properties :
#
#
# Convention : Reuss Voigt Hill
#
# Bulk Modulus (GPa) = -610.13816 25.85570 -292.14123
# Shear Modulus (GPa) = 30.10434 32.32390 31.21412
#
# Velocity S-wave (km/s) = 3.51649 3.64382 3.58072
# Velocity P-wave (km/s) = 15.30143 5.32201 10.14421
#
# Compressibility (1/GPa) = -0.00163897
#
# Stress axis : x y z
#
# Youngs Moduli (GPa) = 133.79689 149.74842 41.14023
#
# Poissons Ratio (x) = 0.35826 0.44996
# Poissons Ratio (y) = 0.32010 0.27643
# Poissons Ratio (z) = 1.46337 1.00620
#
# Static dielectric constant tensor:
#      x y z
#    x 1.967160 0.014930 -0.021060 
#    y 0.014930 1.947350 -0.060700 
#    z -0.021060 -0.060700 2.062970 
# 
# From -- ./inp_files/202571.got.cif
#   From: 2010.05.17/outbox.cif.g08.bks.cpg/sg2_102_cif.got.tgz:202571.got - 2010.06.03 11:33:40.
