data_PCOD9035797
_publ_section_title
;
Structure prediction by ZEFSAII (Michael W. Deem and Ramdas Pophale) SiO2 
 PCOD9035797
Probable space group: P -1
;
_chemical_formula_sum "Si O2"
_cell_formula_units_Z 12
_cell_length_a 14.739371
_cell_length_b 7.886801
_cell_length_c 5.092736
_cell_angle_alpha 85.841560
_cell_angle_beta 124.902483
_cell_angle_gamma 114.709543
_cell_volume 429.892176
_symmetry_space_group_name_H-M "P -1"
_symmetry_group_IT_number 2
_symmetry_cell_setting 'triclinic'
loop_
_space_group_symop_operation_xyz
x,y,z
-x,-y,-z
loop_
_atom_site_type_symbol
_atom_site_label
_atom_site_fract_x
_atom_site_fract_y
_atom_site_fract_z
Si Si1 0.844209 0.003922 0.693408
Si Si2 0.427646 0.620737 0.432104
Si Si3 0.836068 0.338023 0.872540
Si Si4 0.593558 0.989705 0.380960
Si Si5 0.746119 0.519435 0.334345
Si Si6 0.079146 0.250446 0.786464
O O1 0.890810 0.189524 0.951438
O O2 0.698311 0.943729 0.418004
O O3 0.864573 0.841391 0.895187
O O4 0.933875 0.108287 0.586128
O O5 0.500000 0.500000 0.500000
O O6 0.530540 0.839705 0.528415
O O7 0.349916 0.523821 0.579723
O O8 0.338316 0.580302 0.040226
O O9 0.832273 0.422403 0.570397
O O10 0.894238 0.532829 0.112638
O O11 0.687209 0.189296 0.658934
O O12 0.500000 0.000000 0.000000
O O13 0.842155 0.722622 0.350681
#
# Coordination Sequence:
#
# PCOD9035797 Si02
#       6
#     2   2   2   2   2   2
#     4   9  23  45  79 108 153 204 253 332 379 470
#     4  12  25  47  72 111 154 207 257 319 388 468
#     4  10  23  45  74 109 150 203 247 325 381 466
#     4  10  22  46  72 109 153 201 258 307 394 461
#     4  12  25  44  77 106 156 201 254 329 383 466
#     4  11  22  49  76 113 151 195 272 313 398 453
#
# _framework density 27.913976000000002
#
# number of rings (size 3 to 8) (size 9 to 14) (size 15 to 20)
#    1.000    0.333    3.333    2.000    0.000    1.333 
#    3.000    5.833    3.667    0.000    0.000    0.000 
#    0.000    0.000    0.000    0.000    0.000    0.000 
#
# Total GULP energy -66984.324533 kJ/mol
# GULP energy per Si atom -5582.027044 kJ/mol
# Density = 2.785044 g / cm^3
# Si number density = 27.913976 Si / 1000 Ang^3
#
#
#
# Elastic Constant Matrix: (Units=GPa)
#
#
# Indices 1 2 3 4 5 6 
#
# 1 157.3647 80.4346 65.4551 -16.8081 -10.3309 67.3590
# 2 80.4346 234.7056 45.9016 21.5850 -35.0810 39.3481
# 3 65.4551 45.9016 113.3276 -15.3182 -26.3076 13.4845
# 4 -16.8081 21.5850 -15.3182 50.6171 11.6137 -11.9234
# 5 -10.3309 -35.0810 -26.3076 11.6137 45.7051 -4.8055
# 6 67.3590 39.3481 13.4845 -11.9234 -4.8055 70.1281
#
#
#
# Elastic Compliance Matrix: (Units=1/GPa)
#
#
# Indices 1 2 3 4 5 6 
#
# 1 0.016269 -0.003010 -0.007488 0.002629 -0.004914 -0.012387
# 2 -0.003010 0.007031 -0.000356 -0.005812 0.005823 -0.001574
# 3 -0.007488 -0.000356 0.014389 0.001812 0.006421 0.005373
# 4 0.002629 -0.005812 0.001812 0.026777 -0.009174 0.004311
# 5 -0.004914 0.005823 0.006421 -0.009174 0.031350 0.000807
# 6 -0.012387 -0.001574 0.005373 0.004311 0.000807 0.026795
#
#
# Mechanical properties :
#
#
# Convention : Reuss Voigt Hill
#
# Bulk Modulus (GPa) = 62.58015 98.77562 80.67789
# Shear Modulus (GPa) = 33.41223 54.19717 43.80470
#
# Velocity S-wave (km/s) = 3.46348 4.41111 3.96570
# Velocity P-wave (km/s) = 6.20176 7.83623 7.06641
#
# Compressibility (1/GPa) = 0.01597951
#
# Stress axis : x y z
#
# Youngs Moduli (GPa) = 61.46845 142.23579 69.49611
#
# Poissons Ratio (x) = 0.42820 0.52042
# Poissons Ratio (y) = 0.18505 0.02471
# Poissons Ratio (z) = 0.46030 0.05057
#
# Static dielectric constant tensor:
#      x y z
#    x 2.431030 -0.117430 -0.016830 
#    y -0.117430 2.252590 0.128890 
#    z -0.016830 0.128890 2.158220 
# 
# From -- ./inp_files/106789.got.cif
#   From: 2010.05.17/outbox.cif.g08.bks.cpg/sg2_54_cif.got.tgz:106789.got - 2010.06.03 11:33:40.
