data_PCOD9035435
_publ_section_title
;
Structure prediction by ZEFSAII (Michael W. Deem and Ramdas Pophale) SiO2 
 PCOD9035435
Probable space group: P -1
;
_chemical_formula_sum "Si O2"
_cell_formula_units_Z 12
_cell_length_a 8.745264
_cell_length_b 16.865229
_cell_length_c 6.516544
_cell_angle_alpha 71.300581
_cell_angle_beta 96.286850
_cell_angle_gamma 40.692162
_cell_volume 487.322164
_symmetry_space_group_name_H-M "P -1"
_symmetry_group_IT_number 2
_symmetry_cell_setting 'triclinic'
loop_
_space_group_symop_operation_xyz
x,y,z
-x,-y,-z
loop_
_atom_site_type_symbol
_atom_site_label
_atom_site_fract_x
_atom_site_fract_y
_atom_site_fract_z
Si Si1 0.581265 0.757518 0.281671
Si Si2 0.725410 0.463971 0.146967
Si Si3 0.887611 0.458706 0.762584
Si Si4 0.236945 0.788092 0.026974
Si Si5 0.052305 0.727199 0.289427
Si Si6 0.343447 0.018116 0.287503
O O1 0.822046 0.664138 0.222950
O O2 0.510424 0.866247 0.329581
O O3 0.700742 0.624828 0.542429
O O4 0.298422 0.854762 0.041368
O O5 0.931773 0.316213 0.446673
O O6 0.500000 0.500000 0.000000
O O7 0.528357 0.620826 0.107358
O O8 0.898302 0.435234 0.024165
O O9 0.772880 0.422055 0.690978
O O10 0.961252 0.886084 0.772515
O O11 0.181604 0.759430 0.249276
O O12 0.758236 0.872464 0.999780
O O13 0.500000 0.000000 0.500000
#
# Coordination Sequence:
#
# PCOD9035435 Si02
#       6
#     2   2   2   2   2   2
#     4  11  24  49  74 120 159 197 256 327 390 453
#     4  12  21  42  78 119 150 199 270 307 384 465
#     4  11  25  44  78 115 155 203 249 328 385 458
#     4  10  22  45  79 113 154 200 253 329 377 452
#     4  10  23  46  78 110 151 205 256 315 384 449
#     4  10  25  50  81 112 155 212 256 313 393 468
#
# _framework density 24.624366999999999
#
# number of rings (size 3 to 8) (size 9 to 14) (size 15 to 20)
#    1.000    0.333    3.333    2.000    0.000    4.000 
#    3.000    1.667    0.000    0.000    0.000    1.167 
#    0.000    0.000    0.000    0.000    0.000    0.000 
#
# Total GULP energy -67026.335811 kJ/mol
# GULP energy per Si atom -5585.527984 kJ/mol
# Density = 2.456832 g / cm^3
# Si number density = 24.624367 Si / 1000 Ang^3
#
#
#
# Elastic Constant Matrix: (Units=GPa)
#
#
# Indices 1 2 3 4 5 6 
#
# 1 141.6157 62.6786 74.4794 7.5164 27.9092 12.4403
# 2 62.6786 131.1507 66.9053 0.0060 2.8860 21.5985
# 3 74.4794 66.9053 168.1908 7.4209 -1.1730 -0.7173
# 4 7.5164 0.0060 7.4209 32.0895 -4.5759 -9.6247
# 5 27.9092 2.8860 -1.1730 -4.5759 56.0266 6.8615
# 6 12.4403 21.5985 -0.7173 -9.6247 6.8615 41.2477
#
#
#
# Elastic Compliance Matrix: (Units=1/GPa)
#
#
# Indices 1 2 3 4 5 6 
#
# 1 0.012138 -0.003375 -0.003936 -0.003310 -0.006013 -0.001734
# 2 -0.003375 0.011718 -0.003184 0.000139 0.001686 -0.005421
# 3 -0.003936 -0.003184 0.008984 -0.000074 0.001980 0.002664
# 4 -0.003310 0.000139 -0.000074 0.035002 0.003456 0.008517
# 5 -0.006013 0.001686 0.001980 0.003456 0.021298 -0.001771
# 6 -0.001734 -0.005421 0.002664 0.008517 -0.001771 0.029934
#
#
# Mechanical properties :
#
#
# Convention : Reuss Voigt Hill
#
# Bulk Modulus (GPa) = 84.39257 94.34266 89.36761
# Shear Modulus (GPa) = 34.71892 41.66570 38.19231
#
# Velocity S-wave (km/s) = 3.75899 4.11792 3.94254
# Velocity P-wave (km/s) = 7.29290 7.81061 7.55619
#
# Compressibility (1/GPa) = 0.01184938
#
# Stress axis : x y z
#
# Youngs Moduli (GPa) = 82.38483 85.33932 111.31420
#
# Poissons Ratio (x) = 0.28803 0.43811
# Poissons Ratio (y) = 0.27806 0.35445
# Poissons Ratio (z) = 0.32425 0.27174
#
# Static dielectric constant tensor:
#      x y z
#    x 2.028090 -0.029160 0.083220 
#    y -0.029160 1.992330 0.002340 
#    z 0.083220 0.002340 2.022910 
# 
# From -- ./inp_files/41756.got.cif
#   From: 2010.05.17/outbox.cif.g08.bks.cpg/sg2_21_cif.got.tgz:41756.got - 2010.06.03 11:33:40.
