data_PCOD9035478
_publ_section_title
;
Structure prediction by ZEFSAII (Michael W. Deem and Ramdas Pophale) SiO2 
 PCOD9035478
Probable space group: P -1
;
_chemical_formula_sum "Si O2"
_cell_formula_units_Z 16
_cell_length_a 12.545467
_cell_length_b 14.268862
_cell_length_c 8.415328
_cell_angle_alpha 74.497451
_cell_angle_beta 101.848036
_cell_angle_gamma 38.911373
_cell_volume 666.131355
_symmetry_space_group_name_H-M "P -1"
_symmetry_group_IT_number 2
_symmetry_cell_setting 'triclinic'
loop_
_space_group_symop_operation_xyz
x,y,z
-x,-y,-z
loop_
_atom_site_type_symbol
_atom_site_label
_atom_site_fract_x
_atom_site_fract_y
_atom_site_fract_z
Si Si1 0.074984 0.262447 0.310401
Si Si2 0.261471 0.945591 0.377791
Si Si3 0.536680 0.686418 0.891710
Si Si4 0.563916 0.350985 0.680234
Si Si5 0.842978 0.141060 0.174445
Si Si6 0.759533 0.735235 0.383626
Si Si7 0.947683 0.233310 0.585713
Si Si8 0.650012 0.018323 0.029507
O O1 0.058984 0.203579 0.486162
O O2 0.191439 0.266142 0.421755
O O3 0.811808 0.477363 0.075368
O O4 0.216928 0.096109 0.291956
O O5 0.445965 0.787737 0.646362
O O6 0.346387 0.808336 0.326432
O O7 0.007405 0.101705 0.277624
O O8 0.393715 0.698506 0.875315
O O9 0.453220 0.824424 0.944355
O O10 0.500000 0.500000 0.500000
O O11 0.314889 0.524434 0.601819
O O12 0.753797 0.220522 0.931563
O O13 0.009415 0.915431 0.351530
O O14 0.539202 0.840624 0.231071
O O15 0.000000 0.500000 0.500000
O O16 0.696035 0.878118 0.189497
O O17 0.086064 0.150597 0.828529
#
# Coordination Sequence:
#
# PCOD9035478 Si02
#       8
#     2   2   2   2   2   2   2   2
#     4  11  22  36  60  93 117 153 197 249 299 342
#     4  12  25  37  57  89 124 149 200 255 293 336
#     4  11  21  37  60  91 118 153 198 247 298 342
#     4  12  26  41  58  85 118 166 205 236 291 356
#     4  11  23  40  61  79 118 165 201 239 288 359
#     4  10  17  32  58  90 122 149 186 248 299 348
#     4  10  21  40  60  85 118 156 207 234 289 360
#     4   9  19  33  58  91 117 148 196 245 287 356
#
# _framework density 24.019288
#
# number of rings (size 3 to 8) (size 9 to 14) (size 15 to 20)
#    0.000    1.250    7.500    0.750    1.750    0.500 
#    0.000    0.000    0.000    0.750    0.000    7.875 
#    0.000    0.000    0.000    0.000    0.000    0.000 
#
# Total GULP energy -89348.716795 kJ/mol
# GULP energy per Si atom -5584.294800 kJ/mol
# Density = 2.396462 g / cm^3
# Si number density = 24.019288 Si / 1000 Ang^3
#
#
#
# Elastic Constant Matrix: (Units=GPa)
#
#
# Indices 1 2 3 4 5 6 
#
# 1 37.5828 12.7433 17.5952 4.1369 19.6196 10.9680
# 2 12.7433 87.1628 46.0729 2.8314 24.0223 11.4224
# 3 17.5952 46.0729 174.6858 -5.7171 49.3987 7.3499
# 4 4.1369 2.8314 -5.7171 23.1832 7.5238 5.8714
# 5 19.6196 24.0223 49.3987 7.5238 50.1232 4.1375
# 6 10.9680 11.4224 7.3499 5.8714 4.1375 28.7926
#
#
#
# Elastic Compliance Matrix: (Units=1/GPa)
#
#
# Indices 1 2 3 4 5 6 
#
# 1 0.037418 -0.000385 0.001079 0.001604 -0.014728 -0.012587
# 2 -0.000385 0.014518 -0.002458 0.000122 -0.004037 -0.004430
# 3 0.001079 -0.002458 0.009014 0.005607 -0.008837 -0.001610
# 4 0.001604 0.000122 0.005607 0.051135 -0.013008 -0.010649
# 5 -0.014728 -0.004037 -0.008837 -0.013008 0.037760 0.006694
# 6 -0.012587 -0.004430 -0.001610 -0.010649 0.006694 0.042904
#
#
# Mechanical properties :
#
#
# Convention : Reuss Voigt Hill
#
# Bulk Modulus (GPa) = 17.41452 50.25046 33.83249
# Shear Modulus (GPa) = 23.21072 35.28778 29.24925
#
# Velocity S-wave (km/s) = 3.11197 3.83710 3.49340
# Velocity P-wave (km/s) = 4.49204 6.37161 5.51252
#
# Compressibility (1/GPa) = 0.05742334
#
# Stress axis : x y z
#
# Youngs Moduli (GPa) = 26.72483 68.88178 110.93272
#
# Poissons Ratio (x) = 0.02650 -0.11974
# Poissons Ratio (y) = 0.01028 0.27270
# Poissons Ratio (z) = -0.02885 0.16933
#
# Static dielectric constant tensor:
#      x y z
#    x 2.017500 -0.016130 0.001060 
#    y -0.016130 1.961800 0.010960 
#    z 0.001060 0.010960 1.917850 
# 
# From -- ./inp_files/308949.got.cif
#   From: 2010.05.17/outbox.cif.g08.bks.cpg/sg2_155_cif.got.tgz:308949.got - 2010.06.03 11:33:40.
