data_PCOD9035439
_publ_section_title
;
Structure prediction by ZEFSAII (Michael W. Deem and Ramdas Pophale) SiO2 
 PCOD9035439
Probable space group: P -1
;
_chemical_formula_sum "Si O2"
_cell_formula_units_Z 14
_cell_length_a 18.168923
_cell_length_b 6.882461
_cell_length_c 16.132105
_cell_angle_alpha 139.212344
_cell_angle_beta 23.000437
_cell_angle_gamma 137.344804
_cell_volume 509.022658
_symmetry_space_group_name_H-M "P -1"
_symmetry_group_IT_number 2
_symmetry_cell_setting 'triclinic'
loop_
_space_group_symop_operation_xyz
x,y,z
-x,-y,-z
loop_
_atom_site_type_symbol
_atom_site_label
_atom_site_fract_x
_atom_site_fract_y
_atom_site_fract_z
Si Si1 0.277779 0.346176 0.619212
Si Si2 0.996407 0.189737 0.649726
Si Si3 0.756733 0.247521 0.683395
Si Si4 0.399427 0.799486 0.862813
Si Si5 0.724487 0.753761 0.001937
Si Si6 0.024756 0.799215 0.987785
Si Si7 0.303604 0.648683 0.397860
O O1 0.078916 0.965918 0.557845
O O2 0.275564 0.990768 0.519612
O O3 0.484568 0.418205 0.382966
O O4 0.169871 0.381221 0.830295
O O5 0.152214 0.538405 0.756799
O O6 0.148132 0.477579 0.562916
O O7 0.000000 0.000000 0.500000
O O8 0.794538 0.292499 0.914797
O O9 0.724605 0.451973 0.702011
O O10 0.562370 0.007987 0.815612
O O11 0.796292 0.475778 0.792248
O O12 0.330317 0.026171 0.941506
O O13 0.510319 0.634274 0.217987
O O14 0.861767 0.964793 0.988331
O O15 0.000000 0.000000 0.000000
#
# Coordination Sequence:
#
# PCOD9035439 Si02
#       7
#     2   2   2   2   2   2   2
#     4   9  24  52  77 109 161 196 265 335 391 459
#     4  12  26  42  74 119 170 211 256 302 385 482
#     4  10  23  47  70 114 170 201 249 319 391 480
#     4  10  24  47  78 117 163 211 250 321 394 474
#     4  10  22  45  81 112 156 210 256 323 403 461
#     4  11  25  50  85 117 147 203 275 338 391 464
#     4  10  24  48  74 116 161 200 259 319 388 483
#
# _framework density 27.503689999999999
#
# number of rings (size 3 to 8) (size 9 to 14) (size 15 to 20)
#    0.000    2.000    0.000    3.429    6.000    8.000 
#    2.571   10.000    0.000    2.571    0.000    0.000 
#    0.000    0.000    0.000    0.000    0.000    0.000 
#
# Total GULP energy -78253.650748 kJ/mol
# GULP energy per Si atom -5589.546482 kJ/mol
# Density = 2.744109 g / cm^3
# Si number density = 27.503690 Si / 1000 Ang^3
#
#
#
# Elastic Constant Matrix: (Units=GPa)
#
#
# Indices 1 2 3 4 5 6 
#
# 1 124.2312 44.2874 60.0913 17.6191 1.9890 1.6321
# 2 44.2874 123.3847 78.0181 1.7297 11.0265 15.8750
# 3 60.0913 78.0181 245.2230 -18.7304 -26.6994 3.2011
# 4 17.6191 1.7297 -18.7304 32.1763 -52.6200 -2.4988
# 5 1.9890 11.0265 -26.6994 -52.6200 0.6808 -1.0602
# 6 1.6321 15.8750 3.2011 -2.4988 -1.0602 49.6859
#
#
#
# Elastic Compliance Matrix: (Units=1/GPa)
#
#
# Indices 1 2 3 4 5 6 
#
# 1 0.009573 -0.003281 -0.000921 0.000169 0.003487 0.000876
# 2 -0.003281 0.010752 -0.002094 0.003279 0.002147 -0.002982
# 3 -0.000921 -0.002094 0.004364 -0.002739 -0.003615 0.000203
# 4 0.000169 0.003279 -0.002739 0.001891 -0.016655 -0.001137
# 5 0.003487 0.002147 -0.003615 -0.016655 -0.007585 -0.001567
# 6 0.000876 -0.002982 0.000203 -0.001137 -0.001567 0.020947
#
#
# Mechanical properties :
#
#
# Convention : Reuss Voigt Hill
#
# Bulk Modulus (GPa) = 82.65199 95.29249 88.97224
# Shear Modulus (GPa) = 88.39311 37.20474 62.79893
#
# Velocity S-wave (km/s) = 5.67525 3.68192 4.78356
# Velocity P-wave (km/s) = 8.54757 7.26621 7.93281
#
# Compressibility (1/GPa) = 0.01209892
#
# Stress axis : x y z
#
# Youngs Moduli (GPa) = 104.45896 93.00660 229.13360
#
# Poissons Ratio (x) = 0.30511 0.21103
# Poissons Ratio (y) = 0.34268 0.47973
# Poissons Ratio (z) = 0.09621 0.19473
#
# Static dielectric constant tensor:
#      x y z
#    x 2.192530 0.078990 0.105210 
#    y 0.078990 2.187540 -0.014330 
#    z 0.105210 -0.014330 2.298700 
# 
# From -- ./inp_files/537669.got.cif
#   From: 2010.05.17/outbox.cif.g08.bks.cpg/sg2_269_cif.got.tgz:537669.got - 2010.06.03 11:33:40.
