data_PCOD9035287
_publ_section_title
;
Structure prediction by ZEFSAII (Michael W. Deem and Ramdas Pophale) SiO2 
 PCOD9035287
Probable space group: P -1
;
_chemical_formula_sum "Si O2"
_cell_formula_units_Z 16
_cell_length_a 11.414779
_cell_length_b 11.087650
_cell_length_c 11.692791
_cell_angle_alpha 86.671970
_cell_angle_beta 144.629002
_cell_angle_gamma 68.030800
_cell_volume 585.146870
_symmetry_space_group_name_H-M "P -1"
_symmetry_group_IT_number 2
_symmetry_cell_setting 'triclinic'
loop_
_space_group_symop_operation_xyz
x,y,z
-x,-y,-z
loop_
_atom_site_type_symbol
_atom_site_label
_atom_site_fract_x
_atom_site_fract_y
_atom_site_fract_z
Si Si1 0.212573 0.810415 0.622060
Si Si2 0.480555 0.874870 0.677856
Si Si3 0.911396 0.653645 0.843389
Si Si4 0.690946 0.566033 0.211945
Si Si5 0.342090 0.844100 0.104831
Si Si6 0.445898 0.587407 0.332403
Si Si7 0.959863 0.798081 0.225416
Si Si8 0.101761 0.255259 0.416126
O O1 0.388725 0.783193 0.651652
O O2 0.961851 0.834029 0.358872
O O3 0.492822 0.688219 0.938776
O O4 0.000000 0.000000 0.500000
O O5 0.608933 0.824308 0.655384
O O6 0.194423 0.085170 0.451733
O O7 0.727662 0.818579 0.966540
O O8 0.924634 0.640931 0.717605
O O9 0.000000 0.500000 0.000000
O O10 0.150958 0.652623 0.052318
O O11 0.446448 0.690115 0.110393
O O12 0.000000 0.500000 0.500000
O O13 0.831309 0.380405 0.281811
O O14 0.377142 0.759102 0.256886
O O15 0.603464 0.824288 0.285266
O O16 0.070682 0.055184 0.868368
O O17 0.500000 0.500000 0.500000
O O18 0.749806 0.413032 0.526605
#
# Coordination Sequence:
#
# PCOD9035287 Si02
#       8
#     2   2   2   2   2   2   2   2
#     4  12  26  47  76 109 149 192 255 312 368 453
#     4  11  26  46  73 104 148 197 242 309 386 440
#     4  12  24  45  70 103 143 193 246 309 375 449
#     4  10  22  45  73 105 148 195 240 311 378 438
#     4  10  24  45  70 104 151 187 246 315 369 444
#     4  12  25  43  73 104 143 196 248 309 380 440
#     4  11  25  48  71 114 146 197 252 310 380 442
#     4  10  23  43  70 104 139 193 246 299 373 448
#
# _framework density 27.343563
#
# number of rings (size 3 to 8) (size 9 to 14) (size 15 to 20)
#    0.000    1.000    2.500    3.375    5.250    2.000 
#    2.250    1.875    0.000    0.000    0.000    0.000 
#    0.000    0.000    0.000    0.000    0.000    0.000 
#
# Total GULP energy -89122.970746 kJ/mol
# GULP energy per Si atom -5570.185672 kJ/mol
# Density = 2.728133 g / cm^3
# Si number density = 27.343563 Si / 1000 Ang^3
#
#
#
# Elastic Constant Matrix: (Units=GPa)
#
#
# Indices 1 2 3 4 5 6 
#
# 1 70.5562 1.0673 24.9094 3.5067 -2.6610 8.5280
# 2 1.0673 57.4926 26.3058 -5.1831 -4.3309 -2.8986
# 3 24.9094 26.3058 133.9059 -5.0237 -7.0940 10.0916
# 4 3.5067 -5.1831 -5.0237 59.9610 8.5348 -7.9871
# 5 -2.6610 -4.3309 -7.0940 8.5348 49.4973 -8.4684
# 6 8.5280 -2.8986 10.0916 -7.9871 -8.4684 44.0008
#
#
#
# Elastic Compliance Matrix: (Units=1/GPa)
#
#
# Indices 1 2 3 4 5 6 
#
# 1 0.015574 0.000806 -0.002905 -0.001463 0.000315 -0.002504
# 2 0.000806 0.019606 -0.004070 0.001458 0.001368 0.002597
# 3 -0.002905 -0.004070 0.008965 0.000290 0.000445 -0.001623
# 4 -0.001463 0.001458 0.000290 0.017666 -0.002434 0.003052
# 5 0.000315 0.001368 0.000445 -0.002434 0.021441 0.003612
# 6 -0.002504 0.002597 -0.001623 0.003052 0.003612 0.025005
#
#
# Mechanical properties :
#
#
# Convention : Reuss Voigt Hill
#
# Bulk Modulus (GPa) = 31.44051 40.72442 36.08246
# Shear Modulus (GPa) = 38.11065 44.66997 41.39031
#
# Velocity S-wave (km/s) = 3.73737 4.04624 3.89487
# Velocity P-wave (km/s) = 5.49065 6.06261 5.78371
#
# Compressibility (1/GPa) = 0.03180610
#
# Stress axis : x y z
#
# Youngs Moduli (GPa) = 64.21092 51.00409 111.55006
#
# Poissons Ratio (x) = -0.04109 0.32403
# Poissons Ratio (y) = -0.05173 0.45401
# Poissons Ratio (z) = 0.18652 0.20759
#
# Static dielectric constant tensor:
#      x y z
#    x 2.250710 0.115380 -0.070180 
#    y 0.115380 2.276590 0.062600 
#    z -0.070180 0.062600 2.186370 
# 
# From -- ./inp_files/428242.got.cif
#   From: 2010.05.17/outbox.cif.g08.bks.cpg/sg2_215_cif.got.tgz:428242.got - 2010.06.03 11:33:40.
