data_PCOD9035803
_publ_section_title
;
Structure prediction by ZEFSAII (Michael W. Deem and Ramdas Pophale) SiO2 
 PCOD9035803
Probable space group: P -1
;
_chemical_formula_sum "Si O2"
_cell_formula_units_Z 15
_cell_length_a 5.451476
_cell_length_b 22.996076
_cell_length_c 14.653804
_cell_angle_alpha 156.274786
_cell_angle_beta 105.869618
_cell_angle_gamma 88.309806
_cell_volume 583.846562
_symmetry_space_group_name_H-M "P -1"
_symmetry_group_IT_number 2
_symmetry_cell_setting 'triclinic'
loop_
_space_group_symop_operation_xyz
x,y,z
-x,-y,-z
loop_
_atom_site_type_symbol
_atom_site_label
_atom_site_fract_x
_atom_site_fract_y
_atom_site_fract_z
Si Si1 0.455968 0.629433 0.999208
Si Si2 0.728497 0.941808 0.961211
Si Si3 0.985330 0.203384 0.905955
Si Si4 0.119527 0.699731 0.792133
Si Si5 0.051416 0.643718 0.139174
Si Si6 0.764316 0.991802 0.237424
Si Si7 0.565428 0.583773 0.459605
Si Si8 0.000000 0.000000 0.500000
O O1 0.242224 0.631198 0.057200
O O2 0.669168 0.815848 0.237911
O O3 0.708708 0.595505 0.012652
O O4 0.283345 0.478787 0.687454
O O5 0.519666 0.728484 0.626932
O O6 0.898031 0.025336 0.196967
O O7 0.500000 0.000000 0.000000
O O8 0.000000 0.000000 0.000000
O O9 0.269026 0.405431 0.213043
O O10 0.780013 0.203325 0.962073
O O11 0.100183 0.076782 0.768909
O O12 0.859907 0.118128 0.674206
O O13 0.000000 0.500000 0.500000
O O14 0.818255 0.687850 0.713681
O O15 0.416296 0.823586 0.940450
O O16 0.218817 0.840034 0.482025
O O17 0.000000 0.500000 0.000000
#
# Coordination Sequence:
#
# PCOD9035803 Si02
#       8
#     2   2   2   2   2   2   2   1
#     4  11  27  48  78 109 152 197 250 316 382 448
#     4  12  29  47  73 105 149 196 246 301 367 445
#     4  11  22  45  70 109 142 193 241 316 375 449
#     4  12  23  42  74 109 150 190 243 307 388 450
#     4  12  29  51  77 107 150 206 264 309 371 449
#     4  12  26  46  77 104 149 193 255 310 376 447
#     4  11  25  47  73 110 152 193 250 310 383 458
#     4  10  22  46  72 110 150 188 246 306 388 446
#
# _framework density 25.691682
#
# number of rings (size 3 to 8) (size 9 to 14) (size 15 to 20)
#    0.000    0.533    4.000    3.200    3.733    3.733 
#    0.000    0.000    0.000    0.000    0.000    0.000 
#    0.000    0.000    0.000    0.000    0.000    0.000 
#
# Total GULP energy -83723.530918 kJ/mol
# GULP energy per Si atom -5581.568728 kJ/mol
# Density = 2.563321 g / cm^3
# Si number density = 25.691682 Si / 1000 Ang^3
#
#
#
# Elastic Constant Matrix: (Units=GPa)
#
#
# Indices 1 2 3 4 5 6 
#
# 1 136.4229 70.5351 41.9208 11.3786 -40.1186 13.9773
# 2 70.5351 121.6719 58.9056 22.7155 -27.2661 5.4020
# 3 41.9208 58.9056 149.3533 11.2362 -32.1880 2.9921
# 4 11.3786 22.7155 11.2362 43.0226 -0.0019 -19.8593
# 5 -40.1186 -27.2661 -32.1880 -0.0019 48.0969 -11.6836
# 6 13.9773 5.4020 2.9921 -19.8593 -11.6836 62.4866
#
#
#
# Elastic Compliance Matrix: (Units=1/GPa)
#
#
# Indices 1 2 3 4 5 6 
#
# 1 0.012383 -0.005482 0.000328 -0.001076 0.007119 -0.001323
# 2 -0.005482 0.014490 -0.003493 -0.006029 0.000913 -0.001604
# 3 0.000328 -0.003493 0.008946 -0.000341 0.004406 0.000516
# 4 -0.001076 -0.006029 -0.000341 0.031626 -0.002002 0.010455
# 5 0.007119 0.000913 0.004406 -0.002002 0.030992 0.003276
# 6 -0.001323 -0.001604 0.000516 0.010455 0.003276 0.020349
#
#
# Mechanical properties :
#
#
# Convention : Reuss Voigt Hill
#
# Bulk Modulus (GPa) = 53.98551 83.35234 68.66892
# Shear Modulus (GPa) = 35.14834 46.46032 40.80433
#
# Velocity S-wave (km/s) = 3.70277 4.25712 3.98959
# Velocity P-wave (km/s) = 6.27209 7.52847 6.92882
#
# Compressibility (1/GPa) = 0.01852349
#
# Stress axis : x y z
#
# Youngs Moduli (GPa) = 80.75825 69.01407 111.78204
#
# Poissons Ratio (x) = 0.37836 -0.03672
# Poissons Ratio (y) = 0.44275 0.39051
# Poissons Ratio (z) = -0.02653 0.24110
#
# Static dielectric constant tensor:
#      x y z
#    x 2.112540 -0.132570 0.027870 
#    y -0.132570 2.223170 0.049140 
#    z 0.027870 0.049140 1.875340 
# 
# From -- ./inp_files/80966.got.cif
#   From: 2010.05.17/outbox.cif.g08.bks.cpg/sg2_41_cif.got.tgz:80966.got - 2010.06.03 11:33:40.
