data_PCOD9035595
_publ_section_title
;
Structure prediction by ZEFSAII (Michael W. Deem and Ramdas Pophale) SiO2 
 PCOD9035595
Probable space group: P -1
;
_chemical_formula_sum "Si O2"
_cell_formula_units_Z 16
_cell_length_a 15.503314
_cell_length_b 8.727820
_cell_length_c 18.822562
_cell_angle_alpha 117.291917
_cell_angle_beta 159.067172
_cell_angle_gamma 52.891536
_cell_volume 674.612533
_symmetry_space_group_name_H-M "P -1"
_symmetry_group_IT_number 2
_symmetry_cell_setting 'triclinic'
loop_
_space_group_symop_operation_xyz
x,y,z
-x,-y,-z
loop_
_atom_site_type_symbol
_atom_site_label
_atom_site_fract_x
_atom_site_fract_y
_atom_site_fract_z
Si Si1 0.161245 0.576679 0.969801
Si Si2 0.839095 0.241739 0.141421
Si Si3 0.901012 0.545982 0.553213
Si Si4 0.468977 0.917887 0.196674
Si Si5 0.104832 0.976081 0.411425
Si Si6 0.912038 0.333324 0.907552
Si Si7 0.188856 0.783479 0.640107
Si Si8 0.731333 0.479555 0.563020
O O1 0.119449 0.717910 0.899905
O O2 0.919320 0.523934 0.768336
O O3 0.130837 0.676753 0.043345
O O4 0.481682 0.368624 0.164075
O O5 0.840140 0.422570 0.223520
O O6 0.591445 0.193776 0.936564
O O7 0.098858 0.043035 0.340283
O O8 0.657011 0.738546 0.360579
O O9 0.956575 0.346269 0.512152
O O10 0.771341 0.546831 0.530113
O O11 0.645717 0.027143 0.352186
O O12 0.156258 0.108875 0.020350
O O13 0.133144 0.762921 0.390032
O O14 0.820909 0.156324 0.272375
O O15 0.602553 0.413438 0.651865
O O16 0.000000 0.500000 0.000000
O O17 0.000000 0.000000 0.500000
#
# Coordination Sequence:
#
# PCOD9035595 Si02
#       8
#     2   2   2   2   2   2   2   2
#     4  11  26  47  70 103 142 181 233 288 348 413
#     4  10  24  45  66 102 143 179 227 284 345 415
#     4  10  22  46  69 100 142 177 237 281 340 419
#     4  11  24  46  70 101 141 186 227 286 351 407
#     4  11  25  42  70 105 140 182 233 284 343 414
#     4  12  25  44  76 102 138 185 233 291 348 408
#     4  12  23  46  76 101 140 187 229 290 350 406
#     4  11  23  45  69 105 140 177 236 284 344 417
#
# _framework density 23.717319
#
# number of rings (size 3 to 8) (size 9 to 14) (size 15 to 20)
#    0.000    1.000    5.000    0.000    1.750    7.500 
#    4.500    4.375    0.000    0.000    0.000    0.000 
#    0.000    0.000    0.000    0.000    0.000    0.000 
#
# Total GULP energy -89441.566913 kJ/mol
# GULP energy per Si atom -5590.097932 kJ/mol
# Density = 2.366334 g / cm^3
# Si number density = 23.717319 Si / 1000 Ang^3
#
#
#
# Elastic Constant Matrix: (Units=GPa)
#
#
# Indices 1 2 3 4 5 6 
#
# 1 61.8285 21.8567 31.4758 -19.6535 -4.9415 -2.0995
# 2 21.8567 113.1514 50.9483 11.6553 -4.1973 6.3161
# 3 31.4758 50.9483 135.0078 32.7279 2.3119 -0.7825
# 4 -19.6535 11.6553 32.7279 40.3982 -2.3802 3.5770
# 5 -4.9415 -4.1973 2.3119 -2.3802 31.5142 1.1258
# 6 -2.0995 6.3161 -0.7825 3.5770 1.1258 31.9485
#
#
#
# Elastic Compliance Matrix: (Units=1/GPa)
#
#
# Indices 1 2 3 4 5 6 
#
# 1 0.034725 -0.002932 -0.014417 0.030017 0.008420 -0.001149
# 2 -0.002932 0.011172 -0.003119 -0.001847 0.001200 -0.002313
# 3 -0.014417 -0.003119 0.017013 -0.020452 -0.005561 0.002572
# 4 0.030017 -0.001847 -0.020452 0.057516 0.010483 -0.004972
# 5 0.008420 0.001200 -0.005561 0.010483 0.034490 -0.002209
# 6 -0.001149 -0.002313 0.002572 -0.004972 -0.002209 0.032380
#
#
# Mechanical properties :
#
#
# Convention : Reuss Voigt Hill
#
# Bulk Modulus (GPa) = 45.50451 57.61659 51.56055
# Shear Modulus (GPa) = 21.22638 34.48597 27.85618
#
# Velocity S-wave (km/s) = 2.99486 3.81733 3.43083
# Velocity P-wave (km/s) = 5.58451 6.61627 6.12217
#
# Compressibility (1/GPa) = 0.02197585
#
# Stress axis : x y z
#
# Youngs Moduli (GPa) = 28.79787 89.50804 58.77831
#
# Poissons Ratio (x) = 0.26240 0.84739
# Poissons Ratio (y) = 0.08442 0.18332
# Poissons Ratio (z) = 0.41517 0.27915
#
# Static dielectric constant tensor:
#      x y z
#    x 1.942620 0.029020 0.023690 
#    y 0.029020 1.862580 0.035730 
#    z 0.023690 0.035730 1.914840 
# 
# From -- ./inp_files/599534.got.cif
#   From: 2010.05.17/outbox.cif.g08.bks.cpg/sg2_300_cif.got.tgz:599534.got - 2010.06.03 11:33:40.
