data_PCOD9035176
_publ_section_title
;
Structure prediction by ZEFSAII (Michael W. Deem and Ramdas Pophale) SiO2 
 PCOD9035176
Probable space group: P -1
;
_chemical_formula_sum "Si O2"
_cell_formula_units_Z 14
_cell_length_a 8.558124
_cell_length_b 6.109419
_cell_length_c 19.926984
_cell_angle_alpha 71.873744
_cell_angle_beta 137.607395
_cell_angle_gamma 120.150142
_cell_volume 604.206689
_symmetry_space_group_name_H-M "P -1"
_symmetry_group_IT_number 2
_symmetry_cell_setting 'triclinic'
loop_
_space_group_symop_operation_xyz
x,y,z
-x,-y,-z
loop_
_atom_site_type_symbol
_atom_site_label
_atom_site_fract_x
_atom_site_fract_y
_atom_site_fract_z
Si Si1 0.874888 0.978676 0.388984
Si Si2 0.429612 0.869649 0.820228
Si Si3 0.886598 0.883045 0.883962
Si Si4 0.609841 0.781851 0.549498
Si Si5 0.362696 0.781856 0.032969
Si Si6 0.868506 0.556581 0.125427
Si Si7 0.378212 0.463192 0.283732
O O1 0.730063 0.141533 0.296527
O O2 0.111925 0.055147 0.407634
O O3 0.648022 0.700302 0.341923
O O4 0.000000 0.000000 0.500000
O O5 0.715115 0.909826 0.886780
O O6 0.282811 0.623285 0.843849
O O7 0.464904 0.113635 0.855775
O O8 0.677195 0.701777 0.783991
O O9 0.088298 0.766000 0.970031
O O10 0.053250 0.146796 0.873661
O O11 0.500000 0.500000 0.500000
O O12 0.621813 0.696689 0.636556
O O13 0.500000 0.000000 0.500000
O O14 0.289644 0.537994 0.985385
O O15 0.500000 0.000000 0.000000
O O16 0.139170 0.537456 0.207566
#
# Coordination Sequence:
#
# PCOD9035176 Si02
#       7
#     2   2   2   2   2   2   2
#     4  12  26  47  74 104 147 190 248 309 370 444
#     4  11  23  43  71 102 140 186 244 298 371 439
#     4  11  24  42  72 103 141 187 236 304 365 450
#     4  12  29  50  79 107 148 201 254 313 379 439
#     4   9  22  44  65 104 142 183 239 296 367 447
#     4  10  22  45  71  98 146 181 237 298 369 447
#     4  11  25  46  68 105 142 188 240 302 373 442
#
# _framework density 23.170878999999999
#
# number of rings (size 3 to 8) (size 9 to 14) (size 15 to 20)
#    0.000    1.143    4.286    0.429    4.000    5.714 
#    2.571    0.000    0.000    0.000    0.000    0.000 
#    0.000    0.000    0.000    0.000    0.000    0.000 
#
# Total GULP energy -78117.840340 kJ/mol
# GULP energy per Si atom -5579.845739 kJ/mol
# Density = 2.311814 g / cm^3
# Si number density = 23.170879 Si / 1000 Ang^3
#
#
#
# Elastic Constant Matrix: (Units=GPa)
#
#
# Indices 1 2 3 4 5 6 
#
# 1 120.8351 52.6076 39.5064 3.8314 16.0685 27.5835
# 2 52.6076 140.6900 67.0466 2.9317 2.5990 24.0933
# 3 39.5064 67.0466 116.5142 7.4479 -2.9501 3.4361
# 4 3.8314 2.9317 7.4479 44.7282 0.6895 3.9430
# 5 16.0685 2.5990 -2.9501 0.6895 44.1424 1.3951
# 6 27.5835 24.0933 3.4361 3.9430 1.3951 43.4906
#
#
#
# Elastic Compliance Matrix: (Units=1/GPa)
#
#
# Indices 1 2 3 4 5 6 
#
# 1 0.012065 -0.002006 -0.002874 0.000188 -0.004273 -0.006194
# 2 -0.002006 0.011408 -0.005803 0.000804 -0.000195 -0.004655
# 3 -0.002874 -0.005803 0.012953 -0.001927 0.002153 0.004120
# 4 0.000188 0.000804 -0.001927 0.022835 -0.000523 -0.002466
# 5 -0.004273 -0.000195 0.002153 -0.000523 0.024312 0.001915
# 6 -0.006194 -0.004655 0.004120 -0.002466 0.001915 0.029337
#
#
# Mechanical properties :
#
#
# Convention : Reuss Voigt Hill
#
# Bulk Modulus (GPa) = 66.40734 77.37340 71.89037
# Shear Modulus (GPa) = 35.89484 41.06413 38.47949
#
# Velocity S-wave (km/s) = 3.94018 4.21435 4.07957
# Velocity P-wave (km/s) = 7.03008 7.55950 7.29959
#
# Compressibility (1/GPa) = 0.01505858
#
# Stress axis : x y z
#
# Youngs Moduli (GPa) = 82.88541 87.66112 77.20406
#
# Poissons Ratio (x) = 0.17585 0.22189
# Poissons Ratio (y) = 0.16627 0.44803
# Poissons Ratio (z) = 0.23822 0.50871
#
# Static dielectric constant tensor:
#      x y z
#    x 1.771750 -0.050690 0.086970 
#    y -0.050690 1.943270 0.010540 
#    z 0.086970 0.010540 1.680440 
# 
# From -- ./inp_files/107686.got.cif
#   From: 2010.05.17/outbox.cif.g08.bks.cpg/sg2_54_cif.got.tgz:107686.got - 2010.06.03 11:33:40.
