data_PCOD9035538
_publ_section_title
;
Structure prediction by ZEFSAII (Michael W. Deem and Ramdas Pophale) SiO2 
 PCOD9035538
Probable space group: P -1
;
_chemical_formula_sum "Si O2"
_cell_formula_units_Z 14
_cell_length_a 13.273784
_cell_length_b 8.160717
_cell_length_c 12.097945
_cell_angle_alpha 114.688423
_cell_angle_beta 124.140610
_cell_angle_gamma 33.046729
_cell_volume 587.428720
_symmetry_space_group_name_H-M "P -1"
_symmetry_group_IT_number 2
_symmetry_cell_setting 'triclinic'
loop_
_space_group_symop_operation_xyz
x,y,z
-x,-y,-z
loop_
_atom_site_type_symbol
_atom_site_label
_atom_site_fract_x
_atom_site_fract_y
_atom_site_fract_z
Si Si1 0.272423 0.460261 0.924887
Si Si2 0.273669 0.259752 0.481869
Si Si3 0.193853 0.898019 0.111818
Si Si4 0.708173 0.104802 0.068776
Si Si5 0.858702 0.258424 0.312612
Si Si6 0.010020 0.471217 0.813720
Si Si7 0.291649 0.818408 0.407771
O O1 0.154356 0.652159 0.795201
O O2 0.223985 0.308764 0.865809
O O3 0.152905 0.725329 0.018488
O O4 0.508757 0.221326 0.992590
O O5 0.241033 0.467240 0.600017
O O6 0.105547 0.482530 0.345272
O O7 0.500000 0.000000 0.500000
O O8 0.256393 0.077778 0.470425
O O9 0.285293 0.782920 0.261607
O O10 0.307661 0.780536 0.027887
O O11 0.122911 0.193736 0.151535
O O12 0.736485 0.217127 0.216605
O O13 0.922558 0.741924 0.108182
O O14 0.100831 0.951666 0.391037
O O15 0.500000 0.500000 0.500000
#
# Coordination Sequence:
#
# PCOD9035538 Si02
#       7
#     2   2   2   2   2   2   2
#     4  11  23  44  71  99 141 188 227 288 352 413
#     4  11  27  47  73  99 143 189 232 293 356 410
#     4  10  22  46  67  98 142 179 226 289 352 403
#     4  11  26  41  73 104 139 181 234 289 348 418
#     4  11  24  48  69 101 147 185 233 289 353 414
#     4  11  24  44  68 106 138 182 231 286 349 417
#     4  11  26  47  73 103 138 189 238 286 348 423
#
# _framework density 23.83268
#
# number of rings (size 3 to 8) (size 9 to 14) (size 15 to 20)
#    0.000    1.143    2.857    3.429   12.000    1.714 
#    2.571    0.000    0.000    0.000    0.000    0.000 
#    0.000    0.000    0.000    0.000    0.000    0.000 
#
# Total GULP energy -78003.528048 kJ/mol
# GULP energy per Si atom -5571.680575 kJ/mol
# Density = 2.377844 g / cm^3
# Si number density = 23.832680 Si / 1000 Ang^3
#
#
#
# Elastic Constant Matrix: (Units=GPa)
#
#
# Indices 1 2 3 4 5 6 
#
# 1 72.6629 6.4827 43.8814 -27.9343 24.3949 -30.3138
# 2 6.4827 100.2363 77.2042 -22.3737 -6.9014 -13.8788
# 3 43.8814 77.2042 160.5215 -1.9117 14.0252 -15.7125
# 4 -27.9343 -22.3737 -1.9117 74.8912 0.5694 7.7501
# 5 24.3949 -6.9014 14.0252 0.5694 35.2498 -14.1662
# 6 -30.3138 -13.8788 -15.7125 7.7501 -14.1662 36.7052
#
#
#
# Elastic Compliance Matrix: (Units=1/GPa)
#
#
# Indices 1 2 3 4 5 6 
#
# 1 0.044585 0.017425 -0.016706 0.018517 -0.009582 0.028651
# 2 0.017425 0.027318 -0.016624 0.012362 0.006782 0.017611
# 3 -0.016706 -0.016624 0.017822 -0.009503 -0.003349 -0.011740
# 4 0.018517 0.012362 -0.009503 0.022703 -0.002979 0.009956
# 5 -0.009582 0.006782 -0.003349 -0.002979 0.041704 0.009942
# 6 0.028651 0.017611 -0.011740 0.009956 0.009942 0.054274
#
#
# Mechanical properties :
#
#
# Convention : Reuss Voigt Hill
#
# Bulk Modulus (GPa) = 17.26690 65.39524 41.33107
# Shear Modulus (GPa) = 19.26620 43.09274 31.17947
#
# Velocity S-wave (km/s) = 2.84631 4.25683 3.62092
# Velocity P-wave (km/s) = 4.25003 7.18747 5.90434
#
# Compressibility (1/GPa) = 0.05791428
#
# Stress axis : x y z
#
# Youngs Moduli (GPa) = 22.42920 36.60544 56.10933
#
# Poissons Ratio (x) = -0.63784 0.93739
# Poissons Ratio (y) = -0.39082 0.93275
# Poissons Ratio (z) = 0.37471 0.60852
#
# Static dielectric constant tensor:
#      x y z
#    x 1.863460 0.072850 -0.174630 
#    y 0.072850 2.029670 0.203690 
#    z -0.174630 0.203690 1.537810 
# 
# From -- ./inp_files/448089.got.cif
#   From: 2010.05.17/outbox.cif.g08.bks.cpg/sg2_225_cif.got.tgz:448089.got - 2010.06.03 11:33:40.
