data_PCOD9035909
_publ_section_title
;
Structure prediction by ZEFSAII (Michael W. Deem and Ramdas Pophale) SiO2 
 PCOD9035909
Probable space group: P -1
;
_chemical_formula_sum "Si O2"
_cell_formula_units_Z 16
_cell_length_a 9.428054
_cell_length_b 18.166166
_cell_length_c 5.473080
_cell_angle_alpha 120.737703
_cell_angle_beta 103.841593
_cell_angle_gamma 59.217404
_cell_volume 691.868987
_symmetry_space_group_name_H-M "P -1"
_symmetry_group_IT_number 2
_symmetry_cell_setting 'triclinic'
loop_
_space_group_symop_operation_xyz
x,y,z
-x,-y,-z
loop_
_atom_site_type_symbol
_atom_site_label
_atom_site_fract_x
_atom_site_fract_y
_atom_site_fract_z
Si Si1 0.000875 0.854645 0.760380
Si Si2 0.896771 0.375482 0.227554
Si Si3 0.824989 0.555578 0.154925
Si Si4 0.202060 0.942355 0.214951
Si Si5 0.649815 0.471408 0.690705
Si Si6 0.711501 0.296361 0.713547
Si Si7 0.216265 0.244334 0.320339
Si Si8 0.402043 0.857363 0.644624
O O1 0.877058 0.813817 0.717842
O O2 0.150152 0.770853 0.535413
O O3 0.908121 0.944399 0.689565
O O4 0.078125 0.894092 0.072862
O O5 0.842673 0.477953 0.243793
O O6 0.827047 0.406993 0.524445
O O7 0.091690 0.305429 0.150939
O O8 0.805845 0.313037 0.005970
O O9 0.795633 0.662026 0.384202
O O10 0.671949 0.560706 0.946758
O O11 0.000000 0.500000 0.000000
O O12 0.308774 0.920503 0.471428
O O13 0.307188 0.901556 0.936377
O O14 0.500000 0.500000 0.500000
O O15 0.622297 0.404528 0.759533
O O16 0.602140 0.242445 0.594191
O O17 0.409027 0.169477 0.267155
#
# Coordination Sequence:
#
# PCOD9035909 Si02
#       8
#     2   2   2   2   2   2   2   2
#     4  10  22  46  75  96 137 178 230 277 349 421
#     4  11  23  42  65  91 133 182 235 269 336 412
#     4  11  24  41  59  94 136 176 228 279 338 404
#     4  10  25  49  72 104 136 181 227 290 348 417
#     4  11  25  40  66  93 133 180 229 285 333 395
#     4  10  23  42  67 100 128 180 235 280 331 418
#     4  12  24  41  68 100 132 185 222 289 344 413
#     4  11  27  43  70 106 142 172 231 293 352 404
#
# _framework density 23.125767
#
# number of rings (size 3 to 8) (size 9 to 14) (size 15 to 20)
#    0.000    1.250    2.500    1.875    5.250    9.500 
#    0.000    0.000    0.000    0.000    0.000    0.000 
#    0.000    0.000    0.000    0.000    0.000    0.000 
#
# Total GULP energy -89278.676784 kJ/mol
# GULP energy per Si atom -5579.917299 kJ/mol
# Density = 2.307313 g / cm^3
# Si number density = 23.125767 Si / 1000 Ang^3
#
#
#
# Elastic Constant Matrix: (Units=GPa)
#
#
# Indices 1 2 3 4 5 6 
#
# 1 117.4688 43.9468 22.1022 -4.8518 22.6681 -11.1253
# 2 43.9468 101.5464 24.9320 4.1146 10.3615 0.2183
# 3 22.1022 24.9320 51.8788 -6.3875 15.1295 0.6732
# 4 -4.8518 4.1146 -6.3875 37.2865 -3.1074 14.1139
# 5 22.6681 10.3615 15.1295 -3.1074 37.1072 -0.5202
# 6 -11.1253 0.2183 0.6732 14.1139 -0.5202 37.0765
#
#
#
# Elastic Compliance Matrix: (Units=1/GPa)
#
#
# Indices 1 2 3 4 5 6 
#
# 1 0.011711 -0.004166 -0.001480 -0.000043 -0.005342 0.003507
# 2 -0.004166 0.012904 -0.004970 -0.002678 0.000741 -0.000206
# 3 -0.001480 -0.004970 0.025179 0.005150 -0.007584 -0.002939
# 4 -0.000043 -0.002678 0.005150 0.032858 0.001249 -0.012581
# 5 -0.005342 0.000741 -0.007584 0.001249 0.033181 -0.001480
# 6 0.003507 -0.000206 -0.002939 -0.012581 -0.001480 0.032846
#
#
# Mechanical properties :
#
#
# Convention : Reuss Voigt Hill
#
# Bulk Modulus (GPa) = 35.01119 50.31733 42.66426
# Shear Modulus (GPa) = 27.86583 34.28825 31.07704
#
# Velocity S-wave (km/s) = 3.47503 3.85474 3.66980
# Velocity P-wave (km/s) = 5.59227 6.45116 6.03701
#
# Compressibility (1/GPa) = 0.02856230
#
# Stress axis : x y z
#
# Youngs Moduli (GPa) = 85.39015 77.49523 39.71627
#
# Poissons Ratio (x) = 0.32281 0.05879
# Poissons Ratio (y) = 0.35569 0.19738
# Poissons Ratio (z) = 0.12641 0.38513
#
# Static dielectric constant tensor:
#      x y z
#    x 1.913230 -0.029700 -0.001380 
#    y -0.029700 1.926710 -0.075000 
#    z -0.001380 -0.075000 1.956800 
# 
# From -- ./inp_files/37954.got.cif
#   From: 2010.05.17/outbox.cif.g08.bks.cpg/sg2_19_cif.got.tgz:37954.got - 2010.06.03 11:33:40.
