data_PCOD9035411
_publ_section_title
;
Structure prediction by ZEFSAII (Michael W. Deem and Ramdas Pophale) SiO2 
 PCOD9035411
Probable space group: P -1
;
_chemical_formula_sum "Si O2"
_cell_formula_units_Z 16
_cell_length_a 17.613819
_cell_length_b 5.338325
_cell_length_c 23.238888
_cell_angle_alpha 88.855587
_cell_angle_beta 158.204336
_cell_angle_gamma 102.870740
_cell_volume 677.406672
_symmetry_space_group_name_H-M "P -1"
_symmetry_group_IT_number 2
_symmetry_cell_setting 'triclinic'
loop_
_space_group_symop_operation_xyz
x,y,z
-x,-y,-z
loop_
_atom_site_type_symbol
_atom_site_label
_atom_site_fract_x
_atom_site_fract_y
_atom_site_fract_z
Si Si1 0.602987 0.952978 0.435161
Si Si2 0.409492 0.613205 0.986164
Si Si3 0.968720 0.993821 0.220380
Si Si4 0.867781 0.134559 0.372131
Si Si5 0.622391 0.465378 0.830911
Si Si6 0.915055 0.196312 0.907169
Si Si7 0.029120 0.397979 0.364918
Si Si8 0.536007 0.900582 0.841248
O O1 0.784374 0.259752 0.525393
O O2 0.488896 0.673877 0.310285
O O3 0.376193 0.966068 0.298950
O O4 0.763467 0.947613 0.601152
O O5 0.637689 0.848897 0.181489
O O6 0.500000 0.500000 0.000000
O O7 0.249804 0.709354 0.841519
O O8 0.221257 0.353144 0.897693
O O9 0.039590 0.176792 0.329218
O O10 0.794098 0.049889 0.058003
O O11 0.717900 0.254885 0.299675
O O12 0.034681 0.336628 0.435770
O O13 0.000000 0.000000 0.500000
O O14 0.545905 0.674561 0.805092
O O15 0.545224 0.173717 0.814845
O O16 0.917679 0.680130 0.032371
O O17 0.000000 0.500000 0.000000
O O18 0.000000 0.000000 0.000000
#
# Coordination Sequence:
#
# PCOD9035411 Si02
#       8
#     2   2   2   2   2   2   2   2
#     4  10  26  44  78 107 137 185 252 296 351 435
#     4  11  21  43  68  95 134 192 248 290 352 419
#     4  11  24  44  72  98 140 195 241 291 354 428
#     4  12  27  45  71 108 144 190 245 301 362 425
#     4  11  26  49  75 108 148 189 235 305 368 423
#     4  10  22  45  76 111 143 186 238 297 365 430
#     4  11  24  44  72  99 140 189 245 298 351 423
#     4  12  27  48  71 105 154 192 235 297 371 428
#
# _framework density 23.619491
#
# number of rings (size 3 to 8) (size 9 to 14) (size 15 to 20)
#    0.000    1.000    2.500    3.375    8.750    1.000 
#    0.000    5.625    0.000    0.000    0.000    0.000 
#    0.000    0.000    0.000    0.000    0.000    0.000 
#
# Total GULP energy -89382.222201 kJ/mol
# GULP energy per Si atom -5586.388888 kJ/mol
# Density = 2.356573 g / cm^3
# Si number density = 23.619491 Si / 1000 Ang^3
#
#
#
# Elastic Constant Matrix: (Units=GPa)
#
#
# Indices 1 2 3 4 5 6 
#
# 1 61.9124 19.8861 38.1253 5.6115 15.7432 -23.2112
# 2 19.8861 93.5324 19.2284 -1.4506 4.7596 -15.6871
# 3 38.1253 19.2284 183.4824 -16.6646 17.8470 -11.4016
# 4 5.6115 -1.4506 -16.6646 46.0583 -4.8427 -0.8120
# 5 15.7432 4.7596 17.8470 -4.8427 46.3138 -1.2419
# 6 -23.2112 -15.6871 -11.4016 -0.8120 -1.2419 42.1193
#
#
#
# Elastic Compliance Matrix: (Units=1/GPa)
#
#
# Indices 1 2 3 4 5 6 
#
# 1 0.026501 -0.002416 -0.004269 -0.005407 -0.007352 0.012228
# 2 -0.002416 0.011813 -0.000499 0.000531 -0.000066 0.002942
# 3 -0.004269 -0.000499 0.006680 0.002825 -0.000795 -0.000699
# 4 -0.005407 0.000531 0.002825 0.023713 0.003135 -0.001468
# 5 -0.007352 -0.000066 -0.000795 0.003135 0.024638 -0.003505
# 6 0.012228 0.002942 -0.000699 -0.001468 -0.003505 0.031255
#
#
# Mechanical properties :
#
#
# Convention : Reuss Voigt Hill
#
# Bulk Modulus (GPa) = 32.65197 54.82298 43.73747
# Shear Modulus (GPa) = 33.51763 44.34410 38.93086
#
# Velocity S-wave (km/s) = 3.77114 4.33764 4.06427
# Velocity P-wave (km/s) = 5.72854 6.95328 6.37041
#
# Compressibility (1/GPa) = 0.03062603
#
# Stress axis : x y z
#
# Youngs Moduli (GPa) = 37.73497 84.65592 149.70075
#
# Poissons Ratio (x) = 0.20449 0.63914
# Poissons Ratio (y) = 0.09115 0.07463
# Poissons Ratio (z) = 0.16111 0.04220
#
# Static dielectric constant tensor:
#      x y z
#    x 1.852840 0.096300 -0.110340 
#    y 0.096300 1.860510 0.093130 
#    z -0.110340 0.093130 1.790070 
# 
# From -- ./inp_files/612665.got.cif
#   From: 2010.05.17/outbox.cif.g08.bks.cpg/sg2_307_cif.got.tgz:612665.got - 2010.06.03 11:33:40.
