data_PCOD9035070
_publ_section_title
;
Structure prediction by ZEFSAII (Michael W. Deem and Ramdas Pophale) SiO2 
 PCOD9035070
Probable space group: P -1
;
_chemical_formula_sum "Si O2"
_cell_formula_units_Z 16
_cell_length_a 16.680687
_cell_length_b 8.574562
_cell_length_c 8.132927
_cell_angle_alpha 42.445718
_cell_angle_beta 85.716104
_cell_angle_gamma 63.871766
_cell_volume 641.910516
_symmetry_space_group_name_H-M "P -1"
_symmetry_group_IT_number 2
_symmetry_cell_setting 'triclinic'
loop_
_space_group_symop_operation_xyz
x,y,z
-x,-y,-z
loop_
_atom_site_type_symbol
_atom_site_label
_atom_site_fract_x
_atom_site_fract_y
_atom_site_fract_z
Si Si1 0.558028 0.675971 0.197806
Si Si2 0.052679 0.264865 0.819471
Si Si3 0.394227 0.552043 0.966095
Si Si4 0.633469 0.313699 0.776143
Si Si5 0.782958 0.700147 0.101337
Si Si6 0.133166 0.709698 0.066450
Si Si7 0.886331 0.110165 0.435629
Si Si8 0.230100 0.141910 0.383427
O O1 0.598693 0.642653 0.032434
O O2 0.633076 0.472914 0.488059
O O3 0.475781 0.612330 0.254350
O O4 0.500000 0.000000 0.000000
O O5 0.000000 0.500000 0.500000
O O6 0.972297 0.242740 0.940077
O O7 0.113624 0.338881 0.861148
O O8 0.128174 0.947663 0.987643
O O9 0.318563 0.855296 0.664885
O O10 0.500000 0.500000 0.000000
O O11 0.357405 0.562264 0.149160
O O12 0.706345 0.971907 0.012808
O O13 0.745378 0.801600 0.843478
O O14 0.819782 0.372893 0.366000
O O15 0.205007 0.378375 0.337182
O O16 0.149457 0.761266 0.839407
O O17 0.861588 0.880208 0.621003
O O18 0.000000 0.000000 0.500000
#
# Coordination Sequence:
#
# PCOD9035070 Si02
#       8
#     2   2   2   2   2   2   2   2
#     4  10  22  45  70  97 132 173 218 278 340 407
#     4  11  23  41  63  93 138 173 223 282 340 393
#     4  10  23  45  67  98 135 177 219 281 340 403
#     4  10  23  42  67  96 135 169 221 278 336 405
#     4  11  24  40  66  97 130 174 226 274 336 405
#     4  10  23  40  62  94 126 177 222 275 331 401
#     4  11  23  41  65  93 130 180 219 275 336 397
#     4  11  23  44  67  94 138 170 230 278 334 405
#
# _framework density 24.925592999999999
#
# number of rings (size 3 to 8) (size 9 to 14) (size 15 to 20)
#    0.000    1.500    1.250    3.000    5.250    3.500 
#    4.500    0.000    0.000    0.000    0.000    0.000 
#    0.000    0.000    0.000    0.000    0.000    0.000 
#
# Total GULP energy -89389.758854 kJ/mol
# GULP energy per Si atom -5586.859928 kJ/mol
# Density = 2.486886 g / cm^3
# Si number density = 24.925593 Si / 1000 Ang^3
#
#
#
# Elastic Constant Matrix: (Units=GPa)
#
#
# Indices 1 2 3 4 5 6 
#
# 1 101.6396 12.0507 26.0982 4.1714 -3.7397 -3.8420
# 2 12.0507 182.7178 59.4654 -17.1808 -3.5889 9.0368
# 3 26.0982 59.4654 81.4178 -7.6347 9.1934 15.2041
# 4 4.1714 -17.1808 -7.6347 51.4426 1.5020 -1.5722
# 5 -3.7397 -3.5889 9.1934 1.5020 36.5602 -2.6882
# 6 -3.8420 9.0368 15.2041 -1.5722 -2.6882 30.6556
#
#
#
# Elastic Compliance Matrix: (Units=1/GPa)
#
#
# Indices 1 2 3 4 5 6 
#
# 1 0.011478 0.000738 -0.005460 -0.001456 0.002982 0.004116
# 2 0.000738 0.007536 -0.006085 0.001521 0.002369 0.001175
# 3 -0.005460 -0.006085 0.021314 0.001481 -0.007314 -0.010027
# 4 -0.001456 0.001521 0.001481 0.020308 -0.001238 -0.000432
# 5 0.002982 0.002369 -0.007314 -0.001238 0.030213 0.005889
# 6 0.004116 0.001175 -0.010027 -0.000432 0.005889 0.038257
#
#
# Mechanical properties :
#
#
# Convention : Reuss Voigt Hill
#
# Bulk Modulus (GPa) = 53.43584 62.33377 57.88481
# Shear Modulus (GPa) = 31.85549 41.60906 36.73227
#
# Velocity S-wave (km/s) = 3.57882 4.09018 3.84301
# Velocity P-wave (km/s) = 6.20983 6.88246 6.55478
#
# Compressibility (1/GPa) = 0.01871403
#
# Stress axis : x y z
#
# Youngs Moduli (GPa) = 87.12108 132.69569 46.91716
#
# Poissons Ratio (x) = -0.09795 0.25618
# Poissons Ratio (y) = -0.06431 0.28549
# Poissons Ratio (z) = 0.47571 0.80746
#
# Static dielectric constant tensor:
#      x y z
#    x 2.017600 0.011740 -0.035770 
#    y 0.011740 2.024880 -0.011690 
#    z -0.035770 -0.011690 1.966280 
# 
# From -- ./inp_files/328332.got.cif
#   From: 2010.05.17/outbox.cif.g08.bks.cpg/sg2_165_cif.got.tgz:328332.got - 2010.06.03 11:33:40.
