data_PCOD9035508
_publ_section_title
;
Structure prediction by ZEFSAII (Michael W. Deem and Ramdas Pophale) SiO2 
 PCOD9035508
Probable space group: P -1
;
_chemical_formula_sum "Si O2"
_cell_formula_units_Z 16
_cell_length_a 8.862114
_cell_length_b 20.873045
_cell_length_c 12.295280
_cell_angle_alpha 132.600381
_cell_angle_beta 134.473571
_cell_angle_gamma 29.360539
_cell_volume 781.316293
_symmetry_space_group_name_H-M "P -1"
_symmetry_group_IT_number 2
_symmetry_cell_setting 'triclinic'
loop_
_space_group_symop_operation_xyz
x,y,z
-x,-y,-z
loop_
_atom_site_type_symbol
_atom_site_label
_atom_site_fract_x
_atom_site_fract_y
_atom_site_fract_z
Si Si1 0.465072 0.197297 0.942064
Si Si2 0.163265 0.071414 0.471197
Si Si3 0.382075 0.621940 0.458518
Si Si4 0.859239 0.610675 0.808727
Si Si5 0.384283 0.177775 0.461110
Si Si6 0.081983 0.088457 0.216871
Si Si7 0.874248 0.641393 0.264262
Si Si8 0.953252 0.412416 0.353483
O O1 0.269918 0.288531 0.843684
O O2 0.594963 0.059409 0.832247
O O3 0.279212 0.275144 0.048290
O O4 0.791243 0.152580 0.066451
O O5 0.013573 0.075527 0.290507
O O6 0.915415 0.223917 0.556139
O O7 0.500000 0.000000 0.500000
O O8 0.273790 0.975172 0.514724
O O9 0.592974 0.625731 0.639702
O O10 0.617832 0.503476 0.352839
O O11 0.197532 0.598884 0.394172
O O12 0.071388 0.477394 0.832234
O O13 0.041012 0.597790 0.784569
O O14 0.132662 0.175671 0.344212
O O15 0.345560 0.257289 0.631421
O O16 0.257046 0.266439 0.391853
O O17 0.000000 0.500000 0.500000
#
# Coordination Sequence:
#
# PCOD9035508 Si02
#       8
#     2   2   2   2   2   2   2   2
#     4  11  22  36  56  88 128 151 192 242 302 346
#     4  10  17  32  58  93 115 136 191 255 291 331
#     4  11  20  36  64  90 113 154 200 249 298 338
#     4  11  23  40  57  85 125 160 192 239 302 355
#     4  11  19  37  64  89 116 147 206 247 292 344
#     4  10  20  34  59  90 118 156 186 249 300 349
#     4  12  20  33  64  92 112 146 205 253 290 341
#     4  10  23  39  61  86 123 156 196 246 296 346
#
# _framework density 20.478262000000001
#
# number of rings (size 3 to 8) (size 9 to 14) (size 15 to 20)
#    0.000    1.250    7.500    1.500    1.750    0.000 
#    0.000    3.750    5.500    0.000    0.000    0.000 
#    0.000    0.000    0.000    0.000    0.000    0.000 
#
# Total GULP energy -89126.471191 kJ/mol
# GULP energy per Si atom -5570.404449 kJ/mol
# Density = 2.043165 g / cm^3
# Si number density = 20.478262 Si / 1000 Ang^3
#
#
#
# Elastic Constant Matrix: (Units=GPa)
#
#
# Indices 1 2 3 4 5 6 
#
# 1 30.4686 24.3359 16.0358 6.0830 -20.5456 19.5809
# 2 24.3359 111.5215 26.8640 7.4380 -16.5820 14.8893
# 3 16.0358 26.8640 69.2692 6.7455 -21.0935 -6.5730
# 4 6.0830 7.4380 6.7455 41.8798 -8.8738 -0.7469
# 5 -20.5456 -16.5820 -21.0935 -8.8738 28.1153 7.6086
# 6 19.5809 14.8893 -6.5730 -0.7469 7.6086 16.2977
#
#
#
# Elastic Compliance Matrix: (Units=1/GPa)
#
#
# Indices 1 2 3 4 5 6 
#
# 1 -0.027367 -0.008746 0.003665 -0.002367 -0.039587 0.060721
# 2 -0.008746 0.011326 -0.002955 -0.000719 -0.002137 -0.000067
# 3 0.003665 -0.002955 0.019445 0.000215 0.015942 -0.001294
# 4 -0.002367 -0.000719 0.000215 0.025512 0.005462 0.002207
# 5 -0.039587 -0.002137 0.015942 0.005462 0.004414 0.054133
# 6 0.060721 -0.000067 -0.001294 0.002207 0.054133 -0.037227
#
#
# Mechanical properties :
#
#
# Convention : Reuss Voigt Hill
#
# Bulk Modulus (GPa) = -78.93948 38.41452 -20.26248
# Shear Modulus (GPa) = 628.75420 26.86013 327.80717
#
# Velocity S-wave (km/s) = 17.54142 3.62559 12.66583
# Velocity P-wave (km/s) = 19.27789 6.02710 14.28221
#
# Compressibility (1/GPa) = -0.01266793
#
# Stress axis : x y z
#
# Youngs Moduli (GPa) = -36.54052 88.29005 51.42755
#
# Poissons Ratio (x) = 0.77219 -0.18848
# Poissons Ratio (y) = -0.31959 0.15196
# Poissons Ratio (z) = 0.13392 0.26089
#
# Static dielectric constant tensor:
#      x y z
#    x 1.763810 -0.020440 -0.015450 
#    y -0.020440 1.816050 -0.037130 
#    z -0.015450 -0.037130 1.774650 
# 
# From -- ./inp_files/405532.got.cif
#   From: 2010.05.17/outbox.cif.g08.bks.cpg/sg2_203_cif.got.tgz:405532.got - 2010.06.03 11:33:40.
