data_PCOD9035080
_publ_section_title
;
Structure prediction by ZEFSAII (Michael W. Deem and Ramdas Pophale) SiO2 
 PCOD9035080
Probable space group: P -1
;
_chemical_formula_sum "Si O2"
_cell_formula_units_Z 14
_cell_length_a 8.972915
_cell_length_b 9.042620
_cell_length_c 12.181497
_cell_angle_alpha 71.125573
_cell_angle_beta 39.065048
_cell_angle_gamma 62.637925
_cell_volume 552.213625
_symmetry_space_group_name_H-M "P -1"
_symmetry_group_IT_number 2
_symmetry_cell_setting 'triclinic'
loop_
_space_group_symop_operation_xyz
x,y,z
-x,-y,-z
loop_
_atom_site_type_symbol
_atom_site_label
_atom_site_fract_x
_atom_site_fract_y
_atom_site_fract_z
Si Si1 0.718979 0.823157 0.934688
Si Si2 0.027272 0.816378 0.977809
Si Si3 0.374572 0.618103 0.144353
Si Si4 0.339555 0.282402 0.659851
Si Si5 0.836993 0.879043 0.372921
Si Si6 0.122671 0.856436 0.554119
Si Si7 0.608969 0.635933 0.627881
O O1 0.918457 0.778218 0.729975
O O2 0.855962 0.842340 0.962179
O O3 0.578673 0.691944 0.054404
O O4 0.500000 0.000000 0.000000
O O5 0.919801 0.687585 0.135694
O O6 0.315638 0.721222 0.803610
O O7 0.000000 0.000000 0.000000
O O8 0.292531 0.520836 0.311773
O O9 0.126095 0.766010 0.210358
O O10 0.500000 0.500000 0.000000
O O11 0.331502 0.115757 0.639211
O O12 0.582650 0.254524 0.603920
O O13 0.347022 0.393100 0.522306
O O14 0.740673 0.772448 0.540610
O O15 0.843679 0.045362 0.380119
O O16 0.000000 0.000000 0.500000
#
# Coordination Sequence:
#
# PCOD9035080 Si02
#       7
#     2   2   2   2   2   2   2
#     4  12  26  45  72 107 143 181 246 303 352 433
#     4  12  24  44  76 107 143 184 239 301 368 424
#     4  12  27  46  71 105 147 197 240 296 364 427
#     4  10  23  42  70 104 139 190 230 294 365 426
#     4  10  22  45  70  98 145 182 245 287 355 432
#     4  12  23  42  70 108 145 180 237 309 363 418
#     4  10  25  45  71 102 143 189 244 288 357 441
#
# _framework density 25.352506999999999
#
# number of rings (size 3 to 8) (size 9 to 14) (size 15 to 20)
#    0.857    0.000    2.857    4.286    4.000    0.571 
#    0.000    0.714    0.000    0.000    0.000    0.000 
#    0.000    0.000    0.000    0.000    0.000    0.000 
#
# Total GULP energy -78238.136270 kJ/mol
# GULP energy per Si atom -5588.438305 kJ/mol
# Density = 2.529480 g / cm^3
# Si number density = 25.352507 Si / 1000 Ang^3
#
#
#
# Elastic Constant Matrix: (Units=GPa)
#
#
# Indices 1 2 3 4 5 6 
#
# 1 95.0374 10.5698 21.4825 2.5729 -3.2375 -2.3637
# 2 10.5698 61.1033 28.2716 -7.1687 -8.5792 0.7380
# 3 21.4825 28.2716 186.1361 -20.5259 -16.8970 -5.9400
# 4 2.5729 -7.1687 -20.5259 46.2651 -9.0422 -4.9645
# 5 -3.2375 -8.5792 -16.8970 -9.0422 42.5925 -3.4715
# 6 -2.3637 0.7380 -5.9400 -4.9645 -3.4715 32.8909
#
#
#
# Elastic Compliance Matrix: (Units=1/GPa)
#
#
# Indices 1 2 3 4 5 6 
#
# 1 0.011004 -0.001547 -0.001195 -0.001382 -0.000212 0.000379
# 2 -0.001547 0.018349 -0.002015 0.002673 0.003336 -0.000131
# 3 -0.001195 -0.002015 0.006531 0.003447 0.002987 0.001974
# 4 -0.001382 0.002673 0.003447 0.025688 0.007674 0.005150
# 5 -0.000212 0.003336 0.002987 0.007674 0.027314 0.004491
# 6 0.000379 -0.000131 0.001974 0.005150 0.004491 0.032042
#
#
# Mechanical properties :
#
#
# Convention : Reuss Voigt Hill
#
# Bulk Modulus (GPa) = 37.92176 51.43606 44.67891
# Shear Modulus (GPa) = 35.91156 43.14656 39.52906
#
# Velocity S-wave (km/s) = 3.76771 4.12984 3.95293
# Velocity P-wave (km/s) = 5.82390 6.56302 6.20447
#
# Compressibility (1/GPa) = 0.02637008
#
# Stress axis : x y z
#
# Youngs Moduli (GPa) = 90.87679 54.49807 153.12491
#
# Poissons Ratio (x) = 0.08432 0.18292
# Poissons Ratio (y) = 0.14061 0.30855
# Poissons Ratio (z) = 0.10856 0.10982
#
# Static dielectric constant tensor:
#      x y z
#    x 2.034440 -0.094850 0.011370 
#    y -0.094850 2.167940 0.086320 
#    z 0.011370 0.086320 2.185470 
# 
# From -- ./inp_files/378114.got.cif
#   From: 2010.05.17/outbox.cif.g08.bks.cpg/sg2_190_cif.got.tgz:378114.got - 2010.06.03 11:33:40.
