data_PCOD9035786
_publ_section_title
;
Structure prediction by ZEFSAII (Michael W. Deem and Ramdas Pophale) SiO2 
 PCOD9035786
Probable space group: P -1
;
_chemical_formula_sum "Si O2"
_cell_formula_units_Z 16
_cell_length_a 8.016706
_cell_length_b 26.880293
_cell_length_c 9.830104
_cell_angle_alpha 143.167076
_cell_angle_beta 66.463812
_cell_angle_gamma 141.677314
_cell_volume 620.947763
_symmetry_space_group_name_H-M "P -1"
_symmetry_group_IT_number 2
_symmetry_cell_setting 'triclinic'
loop_
_space_group_symop_operation_xyz
x,y,z
-x,-y,-z
loop_
_atom_site_type_symbol
_atom_site_label
_atom_site_fract_x
_atom_site_fract_y
_atom_site_fract_z
Si Si1 0.849686 0.525021 0.168046
Si Si2 0.000200 0.381928 0.107088
Si Si3 0.714624 0.751729 0.639053
Si Si4 0.638625 0.213004 0.615644
Si Si5 0.070992 0.218725 0.661448
Si Si6 0.752901 0.276850 0.263219
Si Si7 0.887827 0.878256 0.361827
Si Si8 0.128296 0.868256 0.029690
O O1 0.031988 0.664340 0.318682
O O2 0.984792 0.588080 0.413093
O O3 0.448761 0.368663 0.936454
O O4 0.000000 0.500000 0.000000
O O5 0.362423 0.562815 0.355637
O O6 0.901568 0.349897 0.224572
O O7 0.974188 0.276814 0.835164
O O8 0.717994 0.303097 0.918853
O O9 0.881617 0.793670 0.533088
O O10 0.587692 0.798601 0.782976
O O11 0.953887 0.818129 0.831721
O O12 0.350606 0.164243 0.543939
O O13 0.451326 0.053761 0.341920
O O14 0.865374 0.075716 0.511535
O O15 0.749479 0.177774 0.081209
O O16 0.000000 0.000000 0.500000
O O17 0.862422 0.797308 0.076087
#
# Coordination Sequence:
#
# PCOD9035786 Si02
#       8
#     2   2   2   2   2   2   2   2
#     4  12  23  44  75 106 144 194 246 303 377 440
#     4  12  26  45  75 110 148 191 259 309 361 451
#     4  12  26  47  74 113 149 193 254 310 370 440
#     4  11  24  48  73 104 152 198 242 307 374 444
#     4  12  24  46  75 108 146 193 247 309 371 440
#     4  12  26  46  73 113 147 198 250 312 369 443
#     4  10  22  46  72 104 148 201 239 298 376 445
#     4  11  27  48  72 110 156 196 247 310 375 442
#
# _framework density 25.767066
#
# number of rings (size 3 to 8) (size 9 to 14) (size 15 to 20)
#    0.000    0.500    5.000    2.250    3.500    2.000 
#    4.500    3.125    0.000    0.000    0.000    0.000 
#    0.000    0.000    0.000    0.000    0.000    0.000 
#
# Total GULP energy -89457.010929 kJ/mol
# GULP energy per Si atom -5591.063183 kJ/mol
# Density = 2.570842 g / cm^3
# Si number density = 25.767066 Si / 1000 Ang^3
#
#
#
# Elastic Constant Matrix: (Units=GPa)
#
#
# Indices 1 2 3 4 5 6 
#
# 1 101.0344 23.4505 51.4055 -9.4494 -33.9462 -12.4217
# 2 23.4505 119.3445 44.2410 -32.0234 -5.0311 -18.5903
# 3 51.4055 44.2410 127.8607 -20.1302 0.1603 -6.5820
# 4 -9.4494 -32.0234 -20.1302 63.8790 -7.0267 5.0126
# 5 -33.9462 -5.0311 0.1603 -7.0267 59.4304 -3.1759
# 6 -12.4217 -18.5903 -6.5820 5.0126 -3.1759 39.2332
#
#
#
# Elastic Compliance Matrix: (Units=1/GPa)
#
#
# Indices 1 2 3 4 5 6 
#
# 1 0.017560 0.000799 -0.006819 0.001587 0.010595 0.005449
# 2 0.000799 0.011566 -0.003335 0.004741 0.002259 0.004751
# 3 -0.006819 -0.003335 0.011721 0.000720 -0.004242 -0.002208
# 4 0.001587 0.004741 0.000720 0.018827 0.003572 0.000753
# 5 0.010595 0.002259 -0.004242 0.003572 0.023780 0.005182
# 6 0.005449 0.004751 -0.002208 0.000753 0.005182 0.029418
#
#
# Mechanical properties :
#
#
# Convention : Reuss Voigt Hill
#
# Bulk Modulus (GPa) = 45.17417 65.15931 55.16674
# Shear Modulus (GPa) = 35.98137 47.78470 41.88303
#
# Velocity S-wave (km/s) = 3.74091 4.31105 4.03606
# Velocity P-wave (km/s) = 6.01905 7.07975 6.57084
#
# Compressibility (1/GPa) = 0.02213655
#
# Stress axis : x y z
#
# Youngs Moduli (GPa) = 56.94827 86.46193 85.31371
#
# Poissons Ratio (x) = -0.06905 0.58176
# Poissons Ratio (y) = -0.04548 0.28451
# Poissons Ratio (z) = 0.38833 0.28833
#
# Static dielectric constant tensor:
#      x y z
#    x 2.455430 -0.185920 0.032970 
#    y -0.185920 2.257040 0.067860 
#    z 0.032970 0.067860 2.048800 
# 
# From -- ./inp_files/227748.got.cif
#   From: 2010.05.17/outbox.cif.g08.bks.cpg/sg2_114_cif.got.tgz:227748.got - 2010.06.03 11:33:40.
