data_PCOD9035048
_publ_section_title
;
Structure prediction by ZEFSAII (Michael W. Deem and Ramdas Pophale) SiO2 
 PCOD9035048
Probable space group: P -1
;
_chemical_formula_sum "Si O2"
_cell_formula_units_Z 14
_cell_length_a 20.627607
_cell_length_b 7.838662
_cell_length_c 6.591432
_cell_angle_alpha 77.320726
_cell_angle_beta 124.426705
_cell_angle_gamma 138.434064
_cell_volume 541.453360
_symmetry_space_group_name_H-M "P -1"
_symmetry_group_IT_number 2
_symmetry_cell_setting 'triclinic'
loop_
_space_group_symop_operation_xyz
x,y,z
-x,-y,-z
loop_
_atom_site_type_symbol
_atom_site_label
_atom_site_fract_x
_atom_site_fract_y
_atom_site_fract_z
Si Si1 0.837023 0.932972 0.183229
Si Si2 0.608063 0.200739 0.461524
Si Si3 0.327342 0.058897 0.266617
Si Si4 0.745918 0.417352 0.275288
Si Si5 0.940741 0.576493 0.304482
Si Si6 0.428412 0.458017 0.686071
Si Si7 0.969853 0.771204 0.892687
O O1 0.746015 0.610349 0.125593
O O2 0.760780 0.980334 0.026612
O O3 0.948389 0.104949 0.498181
O O4 0.910141 0.061044 0.069935
O O5 0.620146 0.169762 0.246697
O O6 0.634011 0.455571 0.422409
O O7 0.500000 0.000000 0.500000
O O8 0.690153 0.178839 0.690209
O O9 0.337016 0.165991 0.480603
O O10 0.461463 0.313622 0.335501
O O11 0.810992 0.404645 0.227044
O O12 0.852700 0.594286 0.588109
O O13 0.000000 0.500000 0.500000
O O14 0.945994 0.588339 0.070047
O O15 0.500000 0.500000 0.000000
O O16 0.000000 0.000000 0.000000
#
# Coordination Sequence:
#
# PCOD9035048 Si02
#       7
#     2   2   2   2   2   2   2
#     4  11  23  41  66  99 134 176 231 268 339 418
#     4  10  24  45  68 100 134 176 228 283 341 397
#     4  10  24  42  65  98 130 171 221 283 331 400
#     4  11  23  42  66  97 134 181 230 276 335 407
#     4  11  25  41  63 102 138 176 223 278 338 406
#     4  10  22  45  70  92 128 173 223 277 344 395
#     4  11  21  40  66  94 133 178 222 276 334 402
#
# _framework density 25.856332999999999
#
# number of rings (size 3 to 8) (size 9 to 14) (size 15 to 20)
#    0.000    1.429    2.857    1.714    6.000    2.857 
#    0.000    1.429    0.000    0.000    0.000    0.000 
#    0.000    0.000    0.000    0.000    0.000    0.000 
#
# Total GULP energy -78040.353730 kJ/mol
# GULP energy per Si atom -5574.310981 kJ/mol
# Density = 2.579748 g / cm^3
# Si number density = 25.856333 Si / 1000 Ang^3
#
#
#
# Elastic Constant Matrix: (Units=GPa)
#
#
# Indices 1 2 3 4 5 6 
#
# 1 144.6633 44.2007 54.6838 -24.9833 17.0225 -9.0028
# 2 44.2007 56.9557 40.7424 -33.3283 4.2915 9.2936
# 3 54.6838 40.7424 157.9873 -19.7598 8.5466 -12.7929
# 4 -24.9833 -33.3283 -19.7598 54.2093 -1.0728 1.3228
# 5 17.0225 4.2915 8.5466 -1.0728 39.1444 -13.8214
# 6 -9.0028 9.2936 -12.7929 1.3228 -13.8214 50.9515
#
#
#
# Elastic Compliance Matrix: (Units=1/GPa)
#
#
# Indices 1 2 3 4 5 6 
#
# 1 0.009963 -0.007129 -0.001355 -0.000385 -0.002545 0.002040
# 2 -0.007129 0.041965 -0.006588 0.020334 -0.003785 -0.012123
# 3 -0.001355 -0.006588 0.008530 -0.001635 0.000570 0.003301
# 4 -0.000385 0.020334 -0.001635 0.030258 -0.002910 -0.005763
# 5 -0.002545 -0.003785 0.000570 -0.002910 0.029889 0.008567
# 6 0.002040 -0.012123 0.003301 -0.005763 0.008567 0.025501
#
#
# Mechanical properties :
#
#
# Convention : Reuss Voigt Hill
#
# Bulk Modulus (GPa) = 32.98953 70.98444 51.98698
# Shear Modulus (GPa) = 26.83056 43.52634 35.17845
#
# Velocity S-wave (km/s) = 3.22480 4.10737 3.69254
# Velocity P-wave (km/s) = 5.16258 7.07156 6.19109
#
# Compressibility (1/GPa) = 0.03031265
#
# Stress axis : x y z
#
# Youngs Moduli (GPa) = 100.37109 23.82938 117.23771
#
# Poissons Ratio (x) = 0.16988 0.15890
# Poissons Ratio (y) = 0.71554 0.77239
# Poissons Ratio (z) = 0.13604 0.15699
#
# Static dielectric constant tensor:
#      x y z
#    x 2.068960 -0.066420 -0.059330 
#    y -0.066420 2.060900 0.075040 
#    z -0.059330 0.075040 2.064790 
# 
# From -- ./inp_files/107444.got.cif
#   From: 2010.05.17/outbox.cif.g08.bks.cpg/sg2_54_cif.got.tgz:107444.got - 2010.06.03 11:33:40.
