data_PCOD9035175
_publ_section_title
;
Structure prediction by ZEFSAII (Michael W. Deem and Ramdas Pophale) SiO2 
 PCOD9035175
Probable space group: P -1
;
_chemical_formula_sum "Si O2"
_cell_formula_units_Z 16
_cell_length_a 9.574198
_cell_length_b 22.328112
_cell_length_c 18.252302
_cell_angle_alpha 162.076551
_cell_angle_beta 35.031306
_cell_angle_gamma 143.640940
_cell_volume 681.644256
_symmetry_space_group_name_H-M "P -1"
_symmetry_group_IT_number 2
_symmetry_cell_setting 'triclinic'
loop_
_space_group_symop_operation_xyz
x,y,z
-x,-y,-z
loop_
_atom_site_type_symbol
_atom_site_label
_atom_site_fract_x
_atom_site_fract_y
_atom_site_fract_z
Si Si1 0.044055 0.378703 0.266048
Si Si2 0.738257 0.031145 0.482790
Si Si3 0.209328 0.442816 0.554103
Si Si4 0.424738 0.652595 0.969280
Si Si5 0.835555 0.994213 0.990190
Si Si6 0.954998 0.606666 0.268657
Si Si7 0.182246 0.253029 0.769064
Si Si8 0.386052 0.963138 0.240384
O O1 0.337626 0.402082 0.156700
O O2 0.000000 0.500000 0.500000
O O3 0.911674 0.442804 0.324991
O O4 0.939412 0.158081 0.077830
O O5 0.969288 0.158527 0.492040
O O6 0.500000 0.000000 0.500000
O O7 0.747753 0.817419 0.263316
O O8 0.707954 0.190833 0.745767
O O9 0.500000 0.500000 0.500000
O O10 0.121973 0.464351 0.699547
O O11 0.154028 0.216008 0.293125
O O12 0.243885 0.473738 0.801630
O O13 0.520725 0.796619 0.027658
O O14 0.554889 0.017737 0.161056
O O15 0.000000 0.000000 0.000000
O O16 0.178052 0.477869 0.011475
O O17 0.354958 0.153904 0.523840
O O18 0.897025 0.144267 0.765010
#
# Coordination Sequence:
#
# PCOD9035175 Si02
#       8
#     2   2   2   2   2   2   2   2
#     4  12  25  44  73 106 137 189 241 298 356 423
#     4  11  26  43  69 105 143 176 235 298 352 421
#     4  12  28  47  69 106 148 186 241 297 349 435
#     4  10  22  45  71  98 142 182 238 289 348 432
#     4  12  24  44  73 105 144 187 240 295 366 415
#     4  11  25  46  72 100 141 190 231 286 364 422
#     4   9  21  40  67  98 138 180 229 282 355 410
#     4   9  18  40  69 100 134 181 233 291 338 425
#
# _framework density 23.472653999999999
#
# number of rings (size 3 to 8) (size 9 to 14) (size 15 to 20)
#    0.000    1.250    2.500    3.375    3.500    4.000 
#    0.000    0.000    0.000    0.000    0.000    0.000 
#    0.000    0.000    0.000    0.000    0.000    0.000 
#
# Total GULP energy -89394.234314 kJ/mol
# GULP energy per Si atom -5587.139645 kJ/mol
# Density = 2.341923 g / cm^3
# Si number density = 23.472654 Si / 1000 Ang^3
#
#
#
# Elastic Constant Matrix: (Units=GPa)
#
#
# Indices 1 2 3 4 5 6 
#
# 1 153.1560 30.8523 25.5220 6.9659 -15.3647 -1.9114
# 2 30.8523 82.2541 14.8536 10.0422 -6.1410 -2.8163
# 3 25.5220 14.8536 76.8435 16.3628 -2.2271 -0.5595
# 4 6.9659 10.0422 16.3628 44.1105 -0.2101 -2.0281
# 5 -15.3647 -6.1410 -2.2271 -0.2101 42.2655 -0.8015
# 6 -1.9114 -2.8163 -0.5595 -2.0281 -0.8015 28.2418
#
#
#
# Elastic Compliance Matrix: (Units=1/GPa)
#
#
# Indices 1 2 3 4 5 6 
#
# 1 0.007561 -0.002300 -0.002019 0.000104 0.002314 0.000315
# 2 -0.002300 0.013651 -0.001371 -0.002182 0.001084 0.001052
# 3 -0.002019 -0.001371 0.014995 -0.004948 -0.000174 -0.000337
# 4 0.000104 -0.002182 -0.004948 0.025052 -0.000387 0.001479
# 5 0.002314 0.001084 -0.000174 -0.000387 0.024665 0.000933
# 6 0.000315 0.001052 -0.000337 0.001479 0.000933 0.035661
#
#
# Mechanical properties :
#
#
# Convention : Reuss Voigt Hill
#
# Bulk Modulus (GPa) = 40.28053 50.52328 45.40190
# Shear Modulus (GPa) = 35.40024 38.99194 37.19609
#
# Velocity S-wave (km/s) = 3.88770 4.08016 3.98509
# Velocity P-wave (km/s) = 6.11148 6.61574 6.36860
#
# Compressibility (1/GPa) = 0.02482589
#
# Stress axis : x y z
#
# Youngs Moduli (GPa) = 132.26563 73.25330 66.68809
#
# Poissons Ratio (x) = 0.16851 0.13466
# Poissons Ratio (y) = 0.30426 0.09142
# Poissons Ratio (z) = 0.26708 0.10042
#
# Static dielectric constant tensor:
#      x y z
#    x 0.693710 -0.213380 0.027520 
#    y -0.213380 1.945150 -0.027300 
#    z 0.027520 -0.027300 1.935930 
# 
# From -- ./inp_files/562974.got.cif
#   From: 2010.05.17/outbox.cif.g08.bks.cpg/sg2_282_cif.got.tgz:562974.got - 2010.06.03 11:33:40.
