data_PCOD9035014
_publ_section_title
;
Structure prediction by ZEFSAII (Michael W. Deem and Ramdas Pophale) SiO2 
 PCOD9035014
Probable space group: P -1
;
_chemical_formula_sum "Si O2"
_cell_formula_units_Z 14
_cell_length_a 9.002431
_cell_length_b 8.092016
_cell_length_c 13.794689
_cell_angle_alpha 62.621580
_cell_angle_beta 49.313087
_cell_angle_gamma 50.706603
_cell_volume 587.833660
_symmetry_space_group_name_H-M "P -1"
_symmetry_group_IT_number 2
_symmetry_cell_setting 'triclinic'
loop_
_space_group_symop_operation_xyz
x,y,z
-x,-y,-z
loop_
_atom_site_type_symbol
_atom_site_label
_atom_site_fract_x
_atom_site_fract_y
_atom_site_fract_z
Si Si1 0.094892 0.675008 0.783490
Si Si2 0.113353 0.290322 0.621991
Si Si3 0.705384 0.963819 0.986883
Si Si4 0.809898 0.793101 0.182796
Si Si5 0.080917 0.922527 0.378534
Si Si6 0.565325 0.510697 0.583608
Si Si7 0.255114 0.641501 0.110210
O O1 0.167117 0.438701 0.779711
O O2 0.332351 0.667946 0.693712
O O3 0.929625 0.742823 0.926339
O O4 0.948556 0.867075 0.719441
O O5 0.865839 0.439210 0.739062
O O6 0.247965 0.143255 0.697591
O O7 0.069470 0.162655 0.590690
O O8 0.248488 0.413742 0.507581
O O9 0.750148 0.156441 0.891971
O O10 0.659943 0.958340 0.121206
O O11 0.500000 0.000000 0.000000
O O12 0.068310 0.741789 0.078407
O O13 0.326174 0.717710 0.346860
O O14 0.000000 0.000000 0.500000
O O15 0.500000 0.500000 0.500000
O O16 0.500000 0.500000 0.000000
#
# Coordination Sequence:
#
# PCOD9035014 Si02
#       7
#     2   2   2   2   2   2   2
#     4  12  25  46  71 110 146 193 247 305 373 434
#     4  10  24  46  71 105 148 193 244 305 373 438
#     4  12  26  44  74 107 147 196 250 306 375 438
#     4  10  23  45  72 102 149 191 246 299 374 439
#     4  12  25  46  74 104 149 193 254 303 373 442
#     4  12  24  46  73 105 153 194 240 309 372 443
#     4  10  22  45  70 102 147 187 249 298 367 441
#
# _framework density 23.816261000000001
#
# number of rings (size 3 to 8) (size 9 to 14) (size 15 to 20)
#    0.857    0.000    4.286    2.143    2.000    1.714 
#    0.000    0.000    0.000    0.000    0.000    0.000 
#    0.000    0.000    0.000    0.000    0.000    0.000 
#
# Total GULP energy -78136.381088 kJ/mol
# GULP energy per Si atom -5581.170078 kJ/mol
# Density = 2.376205 g / cm^3
# Si number density = 23.816261 Si / 1000 Ang^3
#
#
#
# Elastic Constant Matrix: (Units=GPa)
#
#
# Indices 1 2 3 4 5 6 
#
# 1 139.2596 30.8362 45.8844 -2.0913 -5.8119 5.9256
# 2 30.8362 68.8249 22.6314 1.9575 -11.6415 -10.9903
# 3 45.8844 22.6314 80.4807 2.4186 -12.8559 -5.3005
# 4 -2.0913 1.9575 2.4186 37.0521 -3.2204 7.4804
# 5 -5.8119 -11.6415 -12.8559 -3.2204 50.9946 -4.3947
# 6 5.9256 -10.9903 -5.3005 7.4804 -4.3947 39.4414
#
#
#
# Elastic Compliance Matrix: (Units=1/GPa)
#
#
# Indices 1 2 3 4 5 6 
#
# 1 0.009751 -0.003528 -0.005040 0.001686 -0.001166 -0.003575
# 2 -0.003528 0.018476 -0.002130 -0.001962 0.003687 0.006175
# 3 -0.005040 -0.002130 0.016676 -0.001594 0.003308 0.003076
# 4 0.001686 -0.001962 -0.001594 0.028632 0.000601 -0.006378
# 5 -0.001166 0.003687 0.003308 0.000601 0.021530 0.003932
# 6 -0.003575 0.006175 0.003076 -0.006378 0.003932 0.029673
#
#
# Mechanical properties :
#
#
# Convention : Reuss Voigt Hill
#
# Bulk Modulus (GPa) = 42.53632 54.14103 48.33867
# Shear Modulus (GPa) = 32.47405 38.11183 35.29294
#
# Velocity S-wave (km/s) = 3.69660 4.00464 3.85370
# Velocity P-wave (km/s) = 6.00989 6.64568 6.33576
#
# Compressibility (1/GPa) = 0.02350932
#
# Stress axis : x y z
#
# Youngs Moduli (GPa) = 102.54966 54.12416 59.96468
#
# Poissons Ratio (x) = 0.19094 0.30222
# Poissons Ratio (y) = 0.36178 0.12770
# Poissons Ratio (z) = 0.51684 0.11526
#
# Static dielectric constant tensor:
#      x y z
#    x 1.967530 0.010030 -0.031900 
#    y 0.010030 1.933530 0.000080 
#    z -0.031900 0.000080 2.197420 
# 
# From -- ./inp_files/492229.got.cif
#   From: 2010.05.17/outbox.cif.g08.bks.cpg/sg2_247_cif.got.tgz:492229.got - 2010.06.03 11:33:40.
