data_PCOD9035190
_publ_section_title
;
Structure prediction by ZEFSAII (Michael W. Deem and Ramdas Pophale) SiO2 
 PCOD9035190
Probable space group: P -1
;
_chemical_formula_sum "Si O2"
_cell_formula_units_Z 14
_cell_length_a 5.255543
_cell_length_b 18.740816
_cell_length_c 8.424650
_cell_angle_alpha 99.298092
_cell_angle_beta 55.550807
_cell_angle_gamma 107.463364
_cell_volume 652.678858
_symmetry_space_group_name_H-M "P -1"
_symmetry_group_IT_number 2
_symmetry_cell_setting 'triclinic'
loop_
_space_group_symop_operation_xyz
x,y,z
-x,-y,-z
loop_
_atom_site_type_symbol
_atom_site_label
_atom_site_fract_x
_atom_site_fract_y
_atom_site_fract_z
Si Si1 0.039298 0.087583 0.510871
Si Si2 0.298484 0.285419 0.104204
Si Si3 0.738153 0.449701 0.461030
Si Si4 0.172929 0.584950 0.924088
Si Si5 0.716872 0.174206 0.430460
Si Si6 0.258292 0.323503 0.763371
Si Si7 0.739275 0.197042 0.782556
O O1 0.404723 0.131530 0.430868
O O2 0.915096 0.115783 0.400885
O O3 0.811690 0.115758 0.730508
O O4 0.000000 0.000000 0.500000
O O5 0.465818 0.362672 0.163844
O O6 0.958513 0.241169 0.277567
O O7 0.282989 0.305545 0.932550
O O8 0.520160 0.225370 0.996756
O O9 0.500000 0.500000 0.500000
O O10 0.880709 0.418666 0.246012
O O11 0.561653 0.377978 0.598929
O O12 0.000000 0.500000 0.500000
O O13 0.000000 0.500000 0.000000
O O14 0.999986 0.627940 0.121014
O O15 0.621395 0.202863 0.645650
O O16 0.089747 0.253078 0.692588
#
# Coordination Sequence:
#
# PCOD9035190 Si02
#       7
#     2   2   2   2   2   2   2
#     4  10  22  45  72 100 138 176 216 271 335 399
#     4  11  24  41  68  99 134 175 231 277 332 398
#     4  12  27  44  65  93 129 171 225 275 337 391
#     4  11  24  43  64  94 131 178 225 282 330 389
#     4  10  23  42  71  99 135 174 224 268 332 396
#     4  11  24  41  67  90 134 172 219 280 333 391
#     4   9  23  41  67  97 134 171 221 267 335 390
#
# _framework density 21.450059
#
# number of rings (size 3 to 8) (size 9 to 14) (size 15 to 20)
#    0.857    0.571    1.429    3.000    8.000    2.286 
#    0.000    1.429    0.000    0.000    0.000    0.000 
#    0.000    0.000    0.000    0.000    0.000    0.000 
#
# Total GULP energy -78007.302799 kJ/mol
# GULP energy per Si atom -5571.950200 kJ/mol
# Density = 2.140124 g / cm^3
# Si number density = 21.450059 Si / 1000 Ang^3
#
#
#
# Elastic Constant Matrix: (Units=GPa)
#
#
# Indices 1 2 3 4 5 6 
#
# 1 95.4174 29.8209 3.2016 -1.2961 0.2349 15.2052
# 2 29.8209 117.7150 28.4479 9.4602 -9.5205 6.5979
# 3 3.2016 28.4479 63.8473 -8.1911 1.3178 9.8424
# 4 -1.2961 9.4602 -8.1911 31.5277 -2.7180 -2.8606
# 5 0.2349 -9.5205 1.3178 -2.7180 23.7545 -3.0030
# 6 15.2052 6.5979 9.8424 -2.8606 -3.0030 35.6351
#
#
#
# Elastic Compliance Matrix: (Units=1/GPa)
#
#
# Indices 1 2 3 4 5 6 
#
# 1 0.012411 -0.003638 0.002042 0.001467 -0.002190 -0.005253
# 2 -0.003638 0.011497 -0.005786 -0.004615 0.004568 0.001036
# 3 0.002042 -0.005786 0.019783 0.006212 -0.003364 -0.005049
# 4 0.001467 -0.004615 0.006212 0.035085 0.001995 0.001497
# 5 -0.002190 0.004568 -0.003364 0.001995 0.044993 0.004970
# 6 -0.005253 0.001036 -0.005049 0.001497 0.004970 0.032045
#
#
# Mechanical properties :
#
#
# Convention : Reuss Voigt Hill
#
# Bulk Modulus (GPa) = 34.57117 44.43562 39.50340
# Shear Modulus (GPa) = 27.74354 32.55075 30.14714
#
# Velocity S-wave (km/s) = 3.60029 3.89975 3.75301
# Velocity P-wave (km/s) = 5.78229 6.40611 6.10218
#
# Compressibility (1/GPa) = 0.02892583
#
# Stress axis : x y z
#
# Youngs Moduli (GPa) = 80.57236 86.97608 50.54876
#
# Poissons Ratio (x) = 0.31644 -0.10321
# Poissons Ratio (y) = 0.29314 0.29250
# Poissons Ratio (z) = -0.16452 0.50328
#
# Static dielectric constant tensor:
#      x y z
#    x 1.945790 -0.011180 -0.083160 
#    y -0.011180 1.829810 0.016540 
#    z -0.083160 0.016540 1.774860 
# 
# From -- ./inp_files/104407.got.cif
#   From: 2010.05.17/outbox.cif.g08.bks.cpg/sg2_53_cif.got.tgz:104407.got - 2010.06.03 11:33:40.
