data_PCOD9035165
_publ_section_title
;
Structure prediction by ZEFSAII (Michael W. Deem and Ramdas Pophale) SiO2 
 PCOD9035165
Probable space group: P -1
;
_chemical_formula_sum "Si O2"
_cell_formula_units_Z 16
_cell_length_a 8.833830
_cell_length_b 11.904037
_cell_length_c 21.377702
_cell_angle_alpha 39.123906
_cell_angle_beta 145.009443
_cell_angle_gamma 145.762173
_cell_volume 690.665462
_symmetry_space_group_name_H-M "P -1"
_symmetry_group_IT_number 2
_symmetry_cell_setting 'triclinic'
loop_
_space_group_symop_operation_xyz
x,y,z
-x,-y,-z
loop_
_atom_site_type_symbol
_atom_site_label
_atom_site_fract_x
_atom_site_fract_y
_atom_site_fract_z
Si Si1 0.168285 0.468103 0.882048
Si Si2 0.063176 0.902207 0.241414
Si Si3 0.748722 0.847295 0.679964
Si Si4 0.722511 0.122950 0.315576
Si Si5 0.779045 0.827182 0.051115
Si Si6 0.954846 0.429258 0.087164
Si Si7 0.025910 0.535121 0.567374
Si Si8 0.083623 0.155233 0.549276
O O1 0.155753 0.670039 0.772763
O O2 0.117116 0.339162 0.857141
O O3 0.968126 0.392516 0.911128
O O4 0.500000 0.500000 0.000000
O O5 0.833655 0.886135 0.116855
O O6 0.043333 0.682097 0.334448
O O7 0.056611 0.984517 0.272328
O O8 0.397029 0.070713 0.254354
O O9 0.380403 0.718679 0.623050
O O10 0.851377 0.679111 0.787871
O O11 0.828868 0.973056 0.587686
O O12 0.941935 0.158846 0.433012
O O13 0.685011 0.926262 0.349371
O O14 0.415185 0.734556 0.957420
O O15 0.000000 0.000000 0.000000
O O16 0.000000 0.500000 0.000000
O O17 0.812549 0.623110 0.479855
O O18 0.000000 0.500000 0.500000
#
# Coordination Sequence:
#
# PCOD9035165 Si02
#       8
#     2   2   2   2   2   2   2   2
#     4  10  22  45  71  96 141 190 234 289 362 433
#     4  12  25  43  73  99 140 188 235 296 361 427
#     4  12  25  46  71 100 146 186 235 299 364 431
#     4  11  23  43  72 102 135 187 237 287 354 425
#     4  11  26  46  70 105 144 189 244 300 362 434
#     4  11  25  45  72 105 141 189 244 298 367 427
#     4  12  24  44  69 104 139 183 234 288 365 426
#     4  11  23  44  70  99 140 185 236 289 351 428
#
# _framework density 23.166063000000001
#
# number of rings (size 3 to 8) (size 9 to 14) (size 15 to 20)
#    0.000    0.750    3.750    4.125    5.250    1.000 
#    4.500    0.000    0.000    0.000    0.000    0.000 
#    0.000    0.000    0.000    0.000    0.000    0.000 
#
# Total GULP energy -89362.322049 kJ/mol
# GULP energy per Si atom -5585.145128 kJ/mol
# Density = 2.311334 g / cm^3
# Si number density = 23.166063 Si / 1000 Ang^3
#
#
#
# Elastic Constant Matrix: (Units=GPa)
#
#
# Indices 1 2 3 4 5 6 
#
# 1 98.3543 9.1441 28.7425 -6.0029 -6.8475 -22.8148
# 2 9.1441 30.9657 24.3629 2.5985 -9.7038 -15.3273
# 3 28.7425 24.3629 70.7353 -6.9019 -1.6546 -30.3602
# 4 -6.0029 2.5985 -6.9019 29.5232 -4.5779 1.0109
# 5 -6.8475 -9.7038 -1.6546 -4.5779 44.4512 -5.0769
# 6 -22.8148 -15.3273 -30.3602 1.0109 -5.0769 39.7326
#
#
#
# Elastic Compliance Matrix: (Units=1/GPa)
#
#
# Indices 1 2 3 4 5 6 
#
# 1 0.012633 0.002717 -0.003094 0.001908 0.003342 0.006317
# 2 0.002717 0.053582 -0.014230 -0.006006 0.012464 0.013103
# 3 -0.003094 -0.014230 0.026306 0.006261 -0.000519 0.012610
# 4 0.001908 -0.006006 0.006261 0.036665 0.003341 0.003057
# 5 0.003342 0.012464 -0.000519 0.003341 0.027167 0.009717
# 6 0.006317 0.013103 0.012610 0.003057 0.009717 0.044649
#
#
# Mechanical properties :
#
#
# Convention : Reuss Voigt Hill
#
# Bulk Modulus (GPa) = 15.79537 36.06158 25.92848
# Shear Modulus (GPa) = 19.89503 31.92845 25.91174
#
# Velocity S-wave (km/s) = 2.93371 3.71650 3.34806
# Velocity P-wave (km/s) = 4.27886 5.83239 5.11495
#
# Compressibility (1/GPa) = 0.06330969
#
# Stress axis : x y z
#
# Youngs Moduli (GPa) = 79.15631 18.66286 38.01356
#
# Poissons Ratio (x) = -0.05071 0.11760
# Poissons Ratio (y) = -0.21510 0.54093
# Poissons Ratio (z) = 0.24488 0.26557
#
# Static dielectric constant tensor:
#      x y z
#    x 1.914380 -0.085140 -0.051920 
#    y -0.085140 1.987990 0.010760 
#    z -0.051920 0.010760 1.889890 
# 
# From -- ./inp_files/513403.got.cif
#   From: 2010.05.17/outbox.cif.g08.bks.cpg/sg2_257_cif.got.tgz:513403.got - 2010.06.03 11:33:40.
