data_PCOD9035703
_publ_section_title
;
Structure prediction by ZEFSAII (Michael W. Deem and Ramdas Pophale) SiO2 
 PCOD9035703
Probable space group: P -1
;
_chemical_formula_sum "Si O2"
_cell_formula_units_Z 14
_cell_length_a 12.002883
_cell_length_b 5.373331
_cell_length_c 16.654760
_cell_angle_alpha 66.376713
_cell_angle_beta 142.108173
_cell_angle_gamma 118.362152
_cell_volume 579.863253
_symmetry_space_group_name_H-M "P -1"
_symmetry_group_IT_number 2
_symmetry_cell_setting 'triclinic'
loop_
_space_group_symop_operation_xyz
x,y,z
-x,-y,-z
loop_
_atom_site_type_symbol
_atom_site_label
_atom_site_fract_x
_atom_site_fract_y
_atom_site_fract_z
Si Si1 0.126102 0.807757 0.566191
Si Si2 0.467806 0.299532 0.925618
Si Si3 0.397633 0.360636 0.378535
Si Si4 0.158654 0.721732 0.111788
Si Si5 0.188486 0.285262 0.979165
Si Si6 0.268297 0.844651 0.473681
Si Si7 0.139123 0.459523 0.748572
O O1 0.254045 0.936980 0.545605
O O2 0.232451 0.743846 0.714522
O O3 0.000000 0.500000 0.500000
O O4 0.000000 0.000000 0.500000
O O5 0.244165 0.252638 0.790546
O O6 0.500000 0.500000 0.000000
O O7 0.616945 0.467593 0.921885
O O8 0.500000 0.000000 0.000000
O O9 0.500000 0.500000 0.500000
O O10 0.303740 0.568130 0.251203
O O11 0.544147 0.248893 0.423289
O O12 0.252562 0.081956 0.369777
O O13 0.022401 0.782397 0.095658
O O14 0.000000 0.500000 0.000000
O O15 0.239618 0.996374 0.067006
O O16 0.156903 0.400925 0.858988
O O17 0.082857 0.592039 0.382912
#
# Coordination Sequence:
#
# PCOD9035703 Si02
#       7
#     2   2   2   2   2   2   2
#     4  10  24  41  67 103 134 185 236 298 370 445
#     4  10  24  41  67 103 134 185 236 298 370 445
#     4  11  25  43  73 103 144 197 248 316 376 451
#     4  11  25  43  73 103 144 197 248 316 376 451
#     4  10  24  43  67 106 139 190 250 310 379 461
#     4  10  24  43  67 106 139 190 250 310 379 461
#     4  10  22  46  70  98 142 188 240 306 388 454
#
# _framework density 24.143622000000001
#
# number of rings (size 3 to 8) (size 9 to 14) (size 15 to 20)
#    0.000    1.714    0.000    1.714   12.000    9.143 
#    0.000    0.000    0.000    0.000    0.000    0.000 
#    0.000    0.000    0.000    0.000    0.000    0.000 
#
# Total GULP energy -78001.094443 kJ/mol
# GULP energy per Si atom -5571.506746 kJ/mol
# Density = 2.408867 g / cm^3
# Si number density = 24.143622 Si / 1000 Ang^3
#
#
#
# Elastic Constant Matrix: (Units=GPa)
#
#
# Indices 1 2 3 4 5 6 
#
# 1 119.8788 14.2501 47.3371 -23.1710 -11.3840 -2.8050
# 2 14.2501 82.2434 18.8559 -24.4103 0.5487 0.5426
# 3 47.3371 18.8559 150.9481 -46.0881 -18.9768 -6.4764
# 4 -23.1710 -24.4103 -46.0881 44.9705 -2.9560 5.6401
# 5 -11.3840 0.5487 -18.9768 -2.9560 33.4551 -4.0164
# 6 -2.8050 0.5426 -6.4764 5.6401 -4.0164 37.1144
#
#
#
# Elastic Compliance Matrix: (Units=1/GPa)
#
#
# Indices 1 2 3 4 5 6 
#
# 1 0.009972 -0.000365 -0.001703 0.003345 0.002759 0.000252
# 2 -0.000365 0.014689 0.001145 0.009189 0.000936 -0.001338
# 3 -0.001703 0.001145 0.011621 0.012020 0.007155 0.000830
# 4 0.003345 0.009189 0.012020 0.042380 0.011189 -0.003014
# 5 0.002759 0.000936 0.007155 0.011189 0.036303 0.003672
# 6 0.000252 -0.001338 0.000830 -0.003014 0.003672 0.027982
#
#
# Mechanical properties :
#
#
# Convention : Reuss Voigt Hill
#
# Bulk Modulus (GPa) = 29.03789 57.10629 43.07209
# Shear Modulus (GPa) = 31.99563 41.28313 36.63938
#
# Velocity S-wave (km/s) = 3.64431 4.13958 3.89981
# Velocity P-wave (km/s) = 5.45539 6.82292 6.17711
#
# Compressibility (1/GPa) = 0.03443776
#
# Stress axis : x y z
#
# Youngs Moduli (GPa) = 100.28204 68.07600 86.05145
#
# Poissons Ratio (x) = 0.02483 0.14652
# Poissons Ratio (y) = 0.03658 -0.09854
# Poissons Ratio (z) = 0.17075 -0.07796
#
# Static dielectric constant tensor:
#      x y z
#    x 3.687260 -1.927650 -2.334750 
#    y -1.927650 4.145990 2.173820 
#    z -2.334750 2.173820 3.455840 
# 
# From -- ./inp_files/564383.got.cif
#   From: 2010.05.17/outbox.cif.g08.bks.cpg/sg2_283_cif.got.tgz:564383.got - 2010.06.03 11:33:40.
