data_PCOD9035684
_publ_section_title
;
Structure prediction by ZEFSAII (Michael W. Deem and Ramdas Pophale) SiO2 
 PCOD9035684
Probable space group: P -1
;
_chemical_formula_sum "Si O2"
_cell_formula_units_Z 16
_cell_length_a 15.099503
_cell_length_b 12.006924
_cell_length_c 7.933581
_cell_angle_alpha 47.314482
_cell_angle_beta 56.546482
_cell_angle_gamma 84.119706
_cell_volume 791.152374
_symmetry_space_group_name_H-M "P -1"
_symmetry_group_IT_number 2
_symmetry_cell_setting 'triclinic'
loop_
_space_group_symop_operation_xyz
x,y,z
-x,-y,-z
loop_
_atom_site_type_symbol
_atom_site_label
_atom_site_fract_x
_atom_site_fract_y
_atom_site_fract_z
Si Si1 0.560349 0.359641 0.223199
Si Si2 0.937520 0.401823 0.500133
Si Si3 0.692265 0.377774 0.747258
Si Si4 0.885368 0.978784 0.245303
Si Si5 0.682158 0.692128 0.564321
Si Si6 0.723501 0.364752 0.347953
Si Si7 0.076548 0.742479 0.831216
Si Si8 0.924907 0.745923 0.691272
O O1 0.420948 0.296871 0.448546
O O2 0.628334 0.322532 0.341690
O O3 0.589993 0.298203 0.075720
O O4 0.617547 0.563174 0.920496
O O5 0.798200 0.331975 0.729696
O O6 0.000000 0.500000 0.500000
O O7 0.990546 0.277498 0.514451
O O8 0.982821 0.548767 0.160702
O O9 0.736443 0.580659 0.523641
O O10 0.665228 0.338685 0.620171
O O11 0.775219 0.869167 0.354728
O O12 0.876701 0.866956 0.534863
O O13 0.896834 0.152909 0.131054
O O14 0.000000 0.000000 0.000000
O O15 0.804075 0.264407 0.350476
O O16 0.816325 0.562350 0.025788
O O17 0.009361 0.806717 0.702614
#
# Coordination Sequence:
#
# PCOD9035684 Si02
#       8
#     2   2   2   2   2   2   2   2
#     4   9  20  37  60  86 111 148 197 251 276 322
#     4  11  18  31  56  84 114 149 194 235 275 340
#     4  10  17  32  59  85 111 140 198 237 281 331
#     4  12  24  38  59  82 119 158 184 228 306 354
#     4   9  20  40  54  87 116 144 196 246 281 332
#     4  11  19  36  64  86 113 152 196 241 287 330
#     4  11  22  35  50  88 122 150 184 236 294 344
#     4  11  20  36  53  84 120 152 188 240 283 336
#
# _framework density 20.223665
#
# number of rings (size 3 to 8) (size 9 to 14) (size 15 to 20)
#    0.750    0.750    3.750    4.875    0.000    0.500 
#    0.000    0.625    0.000    0.750    0.000    0.000 
#    0.000    0.000    0.000    0.000    0.000    0.000 
#
# Total GULP energy -89230.329959 kJ/mol
# GULP energy per Si atom -5576.895622 kJ/mol
# Density = 2.017764 g / cm^3
# Si number density = 20.223665 Si / 1000 Ang^3
#
#
#
# Elastic Constant Matrix: (Units=GPa)
#
#
# Indices 1 2 3 4 5 6 
#
# 1 109.7401 10.1877 17.1031 5.1253 -5.0547 15.9694
# 2 10.1877 83.4840 9.7437 2.4287 -4.1554 14.9443
# 3 17.1031 9.7437 25.0670 -2.3286 -3.9702 6.3348
# 4 5.1253 2.4287 -2.3286 19.7756 6.1346 7.9863
# 5 -5.0547 -4.1554 -3.9702 6.1346 26.9716 0.0547
# 6 15.9694 14.9443 6.3348 7.9863 0.0547 26.0706
#
#
#
# Elastic Compliance Matrix: (Units=1/GPa)
#
#
# Indices 1 2 3 4 5 6 
#
# 1 0.010935 0.000399 -0.006373 -0.002267 0.001698 -0.004687
# 2 0.000399 0.013724 -0.003465 0.000266 0.001633 -0.007355
# 3 -0.006373 -0.003465 0.049463 0.010737 0.003130 -0.009425
# 4 -0.002267 0.000266 0.010737 0.065214 -0.013593 -0.021321
# 5 0.001698 0.001633 0.003130 -0.013593 0.041196 0.001341
# 6 -0.004687 -0.007355 -0.009425 -0.021321 0.001341 0.054263
#
#
# Mechanical properties :
#
#
# Convention : Reuss Voigt Hill
#
# Bulk Modulus (GPa) = 18.10147 32.48447 25.29297
# Shear Modulus (GPa) = 18.37650 26.64733 22.51192
#
# Velocity S-wave (km/s) = 3.01767 3.63386 3.34001
# Velocity P-wave (km/s) = 4.59477 5.80552 5.23526
#
# Compressibility (1/GPa) = 0.05524413
#
# Stress axis : x y z
#
# Youngs Moduli (GPa) = 91.45097 72.86445 20.21716
#
# Poissons Ratio (x) = -0.02907 0.12884
# Poissons Ratio (y) = -0.03648 0.07005
# Poissons Ratio (z) = 0.58282 0.25246
#
# Static dielectric constant tensor:
#      x y z
#    x 1.745160 0.012680 0.071140 
#    y 0.012680 1.745150 0.035140 
#    z 0.071140 0.035140 1.786630 
# 
# From -- ./inp_files/302307.got.cif
#   From: 2010.05.17/outbox.cif.g08.bks.cpg/sg2_152_cif.got.tgz:302307.got - 2010.06.03 11:33:40.
