data_PCOD9035776
_publ_section_title
;
Structure prediction by ZEFSAII (Michael W. Deem and Ramdas Pophale) SiO2 
 PCOD9035776
Probable space group: P -1
;
_chemical_formula_sum "Si O2"
_cell_formula_units_Z 14
_cell_length_a 14.814795
_cell_length_b 19.687964
_cell_length_c 5.218618
_cell_angle_alpha 99.005466
_cell_angle_beta 97.790998
_cell_angle_gamma 152.108689
_cell_volume 566.361296
_symmetry_space_group_name_H-M "P -1"
_symmetry_group_IT_number 2
_symmetry_cell_setting 'triclinic'
loop_
_space_group_symop_operation_xyz
x,y,z
-x,-y,-z
loop_
_atom_site_type_symbol
_atom_site_label
_atom_site_fract_x
_atom_site_fract_y
_atom_site_fract_z
Si Si1 0.542520 0.452824 0.892423
Si Si2 0.037134 0.070977 0.303134
Si Si3 0.091460 0.826495 0.161036
Si Si4 0.477890 0.265411 0.046770
Si Si5 0.490337 0.200159 0.504967
Si Si6 0.892762 0.389324 0.641015
Si Si7 0.241337 0.849552 0.725317
O O1 0.311426 0.284461 0.521496
O O2 0.515243 0.370287 0.036022
O O3 0.500000 0.500000 0.000000
O O4 0.808989 0.633582 0.991450
O O5 0.000000 0.000000 0.500000
O O6 0.802060 0.953109 0.169576
O O7 0.000000 0.000000 0.000000
O O8 0.229912 0.892911 0.504325
O O9 0.211412 0.985392 0.271643
O O10 0.131574 0.808702 0.911170
O O11 0.572263 0.283988 0.862898
O O12 0.566794 0.310441 0.391041
O O13 0.616324 0.218808 0.466891
O O14 0.904502 0.317111 0.545367
O O15 0.000000 0.500000 0.500000
O O16 0.000000 0.500000 0.000000
O O17 0.500000 0.000000 0.000000
#
# Coordination Sequence:
#
# PCOD9035776 Si02
#       7
#     2   2   2   2   2   2   2
#     4  11  27  51  79 116 154 200 264 325 379 455
#     4  10  22  46  72 102 143 193 241 301 374 441
#     4  12  28  48  81 115 155 204 258 318 386 453
#     4  11  25  46  76 107 151 201 249 309 383 453
#     4  12  26  48  73 112 153 199 253 306 384 466
#     4  12  28  46  76 114 154 199 253 312 381 457
#     4  12  27  52  79 112 160 202 252 315 389 456
#
# _framework density 24.719204000000001
#
# number of rings (size 3 to 8) (size 9 to 14) (size 15 to 20)
#    0.000    0.571    1.429    5.571    8.000    3.429 
#    0.000    9.286    0.000    0.000    0.000    0.000 
#    0.000    0.000    0.000    0.000    0.000    0.000 
#
# Total GULP energy -78285.109157 kJ/mol
# GULP energy per Si atom -5591.793511 kJ/mol
# Density = 2.466294 g / cm^3
# Si number density = 24.719204 Si / 1000 Ang^3
#
#
#
# Elastic Constant Matrix: (Units=GPa)
#
#
# Indices 1 2 3 4 5 6 
#
# 1 112.4921 60.6426 39.9266 -14.0465 -28.2259 5.1239
# 2 60.6426 156.3296 74.7914 -10.4631 -10.9039 11.6888
# 3 39.9266 74.7914 157.4038 -13.2049 -30.5100 8.5868
# 4 -14.0465 -10.4631 -13.2049 61.5361 3.2875 -1.0216
# 5 -28.2259 -10.9039 -30.5100 3.2875 36.9710 1.7077
# 6 5.1239 11.6888 8.5868 -1.0216 1.7077 53.2814
#
#
#
# Elastic Compliance Matrix: (Units=1/GPa)
#
#
# Indices 1 2 3 4 5 6 
#
# 1 0.014011 -0.005014 0.000943 0.002011 0.009849 -0.000676
# 2 -0.005014 0.010192 -0.004382 -0.000133 -0.004385 -0.000909
# 3 0.000943 -0.004382 0.009786 0.001157 0.007443 -0.000923
# 4 0.002011 -0.000133 0.001157 0.016883 0.000952 -0.000057
# 5 0.009849 -0.004385 0.007443 0.000952 0.039444 -0.002431
# 6 -0.000676 -0.000909 -0.000923 -0.000057 -0.002431 0.019258
#
#
# Mechanical properties :
#
#
# Convention : Reuss Voigt Hill
#
# Bulk Modulus (GPa) = 58.54016 86.32742 72.43379
# Shear Modulus (GPa) = 37.82855 47.08203 42.45529
#
# Velocity S-wave (km/s) = 3.91619 4.36899 4.14877
# Velocity P-wave (km/s) = 6.64697 7.77495 7.23298
#
# Compressibility (1/GPa) = 0.01708229
#
# Stress axis : x y z
#
# Youngs Moduli (GPa) = 71.37323 98.11996 102.18399
#
# Poissons Ratio (x) = 0.49199 -0.09637
# Poissons Ratio (y) = 0.35788 0.44779
# Poissons Ratio (z) = -0.06731 0.42998
#
# Static dielectric constant tensor:
#      x y z
#    x 1.993460 0.051520 0.094800 
#    y 0.051520 1.951980 0.025050 
#    z 0.094800 0.025050 1.973410 
# 
# From -- ./inp_files/100461.got.cif
#   From: 2010.05.17/outbox.cif.g08.bks.cpg/sg2_51_cif.got.tgz:100461.got - 2010.06.03 11:33:40.
