data_PCOD9035747
_publ_section_title
;
Structure prediction by ZEFSAII (Michael W. Deem and Ramdas Pophale) SiO2 
 PCOD9035747
Probable space group: P -1
;
_chemical_formula_sum "Si O2"
_cell_formula_units_Z 14
_cell_length_a 6.522835
_cell_length_b 7.951542
_cell_length_c 14.979574
_cell_angle_alpha 126.703235
_cell_angle_beta 59.510234
_cell_angle_gamma 115.163239
_cell_volume 528.341182
_symmetry_space_group_name_H-M "P -1"
_symmetry_group_IT_number 2
_symmetry_cell_setting 'triclinic'
loop_
_space_group_symop_operation_xyz
x,y,z
-x,-y,-z
loop_
_atom_site_type_symbol
_atom_site_label
_atom_site_fract_x
_atom_site_fract_y
_atom_site_fract_z
Si Si1 0.956453 0.900347 0.076493
Si Si2 0.634831 0.319727 0.673125
Si Si3 0.611801 0.840490 0.576656
Si Si4 0.872822 0.458470 0.363473
Si Si5 0.424247 0.695528 0.124828
Si Si6 0.275980 0.073114 0.210506
Si Si7 0.747030 0.388552 0.166856
O O1 0.673575 0.849922 0.141978
O O2 0.065555 0.064626 0.182217
O O3 0.063047 0.680682 0.966452
O O4 0.000000 0.000000 0.000000
O O5 0.707597 0.366534 0.774746
O O6 0.379150 0.400631 0.745121
O O7 0.860715 0.479950 0.629556
O O8 0.625148 0.064653 0.591997
O O9 0.783836 0.687969 0.451644
O O10 0.339702 0.702689 0.589428
O O11 0.702565 0.871595 0.670814
O O12 0.843804 0.381108 0.243151
O O13 0.279023 0.822184 0.133842
O O14 0.500000 0.500000 0.000000
O O15 0.512698 0.202040 0.152778
#
# Coordination Sequence:
#
# PCOD9035747 Si02
#       7
#     2   2   2   2   2   2   2
#     4  12  25  41  70  92 130 183 217 279 331 389
#     4  11  24  40  67 101 137 171 220 280 326 395
#     4   9  22  46  71 100 135 174 224 272 325 405
#     4  10  22  46  71  95 140 176 217 274 335 386
#     4  11  24  41  62  98 135 172 224 274 329 400
#     4  10  23  42  65  97 131 171 226 269 333 401
#     4  11  24  39  67 102 127 179 225 267 334 398
#
# _framework density 26.49803
#
# number of rings (size 3 to 8) (size 9 to 14) (size 15 to 20)
#    0.000    1.429    1.429    2.571    4.000    5.143 
#    0.000   10.714    0.000    0.000    0.000    0.000 
#    0.000    0.000    0.000    0.000    0.000    0.000 
#
# Total GULP energy -78237.518938 kJ/mol
# GULP energy per Si atom -5588.394210 kJ/mol
# Density = 2.643772 g / cm^3
# Si number density = 26.498030 Si / 1000 Ang^3
#
#
#
# Elastic Constant Matrix: (Units=GPa)
#
#
# Indices 1 2 3 4 5 6 
#
# 1 126.9998 43.1533 20.0683 2.7513 0.1991 7.8575
# 2 43.1533 71.0882 -7.1070 11.7508 15.1222 3.3494
# 3 20.0683 -7.1070 92.6432 22.2878 3.5206 -0.4548
# 4 2.7513 11.7508 22.2878 38.0968 0.3564 -14.3310
# 5 0.1991 15.1222 3.5206 0.3564 39.3417 6.0570
# 6 7.8575 3.3494 -0.4548 -14.3310 6.0570 44.7489
#
#
#
# Elastic Compliance Matrix: (Units=1/GPa)
#
#
# Indices 1 2 3 4 5 6 
#
# 1 0.011524 -0.008906 -0.004338 0.004203 0.003803 -0.000570
# 2 -0.008906 0.024254 0.006985 -0.011855 -0.009378 -0.002708
# 3 -0.004338 0.006985 0.015230 -0.011818 -0.003469 -0.002922
# 4 0.004203 -0.011855 -0.011818 0.041308 0.003245 0.012819
# 5 0.003803 -0.009378 -0.003469 0.003245 0.029745 -0.002988
# 6 -0.000570 -0.002708 -0.002922 0.012819 -0.002988 0.027130
#
#
# Mechanical properties :
#
#
# Convention : Reuss Voigt Hill
#
# Bulk Modulus (GPa) = 25.98058 44.77337 35.37698
# Shear Modulus (GPa) = 28.64707 40.07860 34.36283
#
# Velocity S-wave (km/s) = 3.29158 3.89332 3.60503
# Velocity P-wave (km/s) = 4.92666 6.09460 5.54149
#
# Compressibility (1/GPa) = 0.03849029
#
# Stress axis : x y z
#
# Youngs Moduli (GPa) = 86.77633 41.23059 65.65905
#
# Poissons Ratio (x) = 0.36720 0.28482
# Poissons Ratio (y) = 0.77282 -0.45863
# Poissons Ratio (z) = 0.37642 -0.28799
#
# Static dielectric constant tensor:
#      x y z
#    x 2.066760 -0.060420 -0.040930 
#    y -0.060420 2.121730 0.055600 
#    z -0.040930 0.055600 2.081680 
# 
# From -- ./inp_files/46867.got.cif
#   From: 2010.05.17/outbox.cif.g08.bks.cpg/sg2_24_cif.got.tgz:46867.got - 2010.06.03 11:33:40.
