data_PCOD9035957
_publ_section_title
;
Structure prediction by ZEFSAII (Michael W. Deem and Ramdas Pophale) SiO2 
 PCOD9035957
Probable space group: P -1
;
_chemical_formula_sum "Si O2"
_cell_formula_units_Z 16
_cell_length_a 11.471755
_cell_length_b 7.353772
_cell_length_c 10.947557
_cell_angle_alpha 83.042997
_cell_angle_beta 57.805236
_cell_angle_gamma 51.554152
_cell_volume 580.513477
_symmetry_space_group_name_H-M "P -1"
_symmetry_group_IT_number 2
_symmetry_cell_setting 'triclinic'
loop_
_space_group_symop_operation_xyz
x,y,z
-x,-y,-z
loop_
_atom_site_type_symbol
_atom_site_label
_atom_site_fract_x
_atom_site_fract_y
_atom_site_fract_z
Si Si1 0.518895 0.577262 0.350233
Si Si2 0.482279 0.236140 0.254667
Si Si3 0.777602 0.878753 0.833211
Si Si4 0.199324 0.334647 0.834254
Si Si5 0.607673 0.650283 0.987079
Si Si6 0.854436 0.524846 0.416731
Si Si7 0.917937 0.086260 0.900301
Si Si8 0.872466 0.084462 0.442998
O O1 0.500000 0.500000 0.500000
O O2 0.530113 0.388663 0.274779
O O3 0.682120 0.578589 0.232790
O O4 0.317527 0.847685 0.429005
O O5 0.307790 0.295738 0.413508
O O6 0.657847 0.951928 0.191884
O O7 0.423057 0.328595 0.142530
O O8 0.925924 0.679096 0.666557
O O9 0.599254 0.146178 0.864075
O O10 0.868489 0.933686 0.878346
O O11 0.705262 0.758103 0.946281
O O12 0.161995 0.350807 0.708900
O O13 0.000000 0.500000 0.000000
O O14 0.738626 0.371932 0.974869
O O15 0.821013 0.339891 0.424235
O O16 0.039225 0.062182 0.721256
O O17 0.000000 0.000000 0.000000
O O18 0.000000 0.000000 0.500000
#
# Coordination Sequence:
#
# PCOD9035957 Si02
#       8
#     2   2   2   2   2   2   2   2
#     4  11  24  48  82 119 169 227 292 366 445 528
#     4  11  25  46  83 118 163 226 295 361 438 540
#     4  10  25  50  72 110 167 217 278 358 442 520
#     4  12  26  48  78 123 177 225 286 374 451 529
#     4  11  25  50  75 114 163 227 286 353 449 534
#     4  10  22  47  73 114 162 214 290 354 428 521
#     4  11  25  48  79 122 165 222 296 370 440 533
#     4  10  22  46  79 120 165 223 288 364 437 531
#
# _framework density 27.561806000000001
#
# number of rings (size 3 to 8) (size 9 to 14) (size 15 to 20)
#    0.000    1.250    2.500    3.000    0.000    6.500 
#   15.750    2.500    0.000    0.000    0.000    0.000 
#    0.000    0.000    0.000    0.000    0.000    0.000 
#
# Total GULP energy -89571.977525 kJ/mol
# GULP energy per Si atom -5598.248595 kJ/mol
# Density = 2.749907 g / cm^3
# Si number density = 27.561806 Si / 1000 Ang^3
#
#
#
# Elastic Constant Matrix: (Units=GPa)
#
#
# Indices 1 2 3 4 5 6 
#
# 1 202.9372 68.7468 82.7507 11.0571 -4.9519 -8.9656
# 2 68.7468 214.2637 113.1929 7.5704 -5.6137 -34.1894
# 3 82.7507 113.1929 259.9212 5.2718 -37.2015 -32.0686
# 4 11.0571 7.5704 5.2718 47.4760 -14.3155 -3.5792
# 5 -4.9519 -5.6137 -37.2015 -14.3155 51.4936 12.6555
# 6 -8.9656 -34.1894 -32.0686 -3.5792 12.6555 54.1937
#
#
#
# Elastic Compliance Matrix: (Units=1/GPa)
#
#
# Indices 1 2 3 4 5 6 
#
# 1 0.005988 -0.001150 -0.001579 -0.001359 -0.000935 -0.000540
# 2 -0.001150 0.006842 -0.002531 -0.000980 -0.002224 0.003083
# 3 -0.001579 -0.002531 0.006131 0.001417 0.004177 0.000888
# 4 -0.001359 -0.000980 0.001417 0.023593 0.007387 -0.000172
# 5 -0.000935 -0.002224 0.004177 0.007387 0.025265 -0.004498
# 6 -0.000540 0.003083 0.000888 -0.000172 -0.004498 0.021872
#
#
# Mechanical properties :
#
#
# Convention : Reuss Voigt Hill
#
# Bulk Modulus (GPa) = 118.47168 134.05587 126.26378
# Shear Modulus (GPa) = 48.53219 58.12811 53.33015
#
# Velocity S-wave (km/s) = 4.20080 4.59738 4.40356
# Velocity P-wave (km/s) = 8.16127 8.77069 8.47146
#
# Compressibility (1/GPa) = 0.00844084
#
# Stress axis : x y z
#
# Youngs Moduli (GPa) = 166.99353 146.16204 163.10735
#
# Poissons Ratio (x) = 0.16811 0.25747
# Poissons Ratio (y) = 0.19207 0.41289
# Poissons Ratio (z) = 0.26360 0.36999
#
# Static dielectric constant tensor:
#      x y z
#    x 2.389560 0.029690 -0.053150 
#    y 0.029690 2.254620 -0.039590 
#    z -0.053150 -0.039590 2.333380 
# 
# From -- ./inp_files/333254.got.cif
#   From: 2010.05.17/outbox.cif.g08.bks.cpg/sg2_167_cif.got.tgz:333254.got - 2010.06.03 11:33:40.
