data_PCOD9035059
_publ_section_title
;
Structure prediction by ZEFSAII (Michael W. Deem and Ramdas Pophale) SiO2 
 PCOD9035059
Probable space group: P -1
;
_chemical_formula_sum "Si O2"
_cell_formula_units_Z 14
_cell_length_a 11.878405
_cell_length_b 11.887303
_cell_length_c 12.761135
_cell_angle_alpha 141.871783
_cell_angle_beta 141.208066
_cell_angle_gamma 35.159541
_cell_volume 591.702990
_symmetry_space_group_name_H-M "P -1"
_symmetry_group_IT_number 2
_symmetry_cell_setting 'triclinic'
loop_
_space_group_symop_operation_xyz
x,y,z
-x,-y,-z
loop_
_atom_site_type_symbol
_atom_site_label
_atom_site_fract_x
_atom_site_fract_y
_atom_site_fract_z
Si Si1 0.198145 0.719032 0.109891
Si Si2 0.336900 0.271670 0.297901
Si Si3 0.758201 0.077012 0.352051
Si Si4 0.236544 0.926840 0.882428
Si Si5 0.400622 0.238560 0.559507
Si Si6 0.919136 0.594403 0.125199
Si Si7 0.730765 0.381690 0.134679
O O1 0.406217 0.723043 0.280477
O O2 0.128886 0.751988 0.960992
O O3 0.015825 0.906126 0.183663
O O4 0.214639 0.500729 0.995064
O O5 0.316170 0.256489 0.395470
O O6 0.135307 0.495268 0.276329
O O7 0.564176 0.232769 0.401494
O O8 0.318325 0.081904 0.091263
O O9 0.779310 0.847089 0.203165
O O10 0.695149 0.163978 0.251195
O O11 0.000000 0.000000 0.500000
O O12 0.266569 0.759960 0.871365
O O13 0.241514 0.428863 0.662052
O O14 0.500000 0.000000 0.500000
O O15 0.000000 0.500000 0.000000
O O16 0.500000 0.500000 0.000000
#
# Coordination Sequence:
#
# PCOD9035059 Si02
#       7
#     2   2   2   2   2   2   2
#     4  10  22  45  70  95 141 177 227 288 336 418
#     4  11  25  43  71  99 142 179 229 289 337 413
#     4  12  27  45  70 103 141 181 230 289 341 414
#     4  11  23  46  67 102 132 184 228 277 353 409
#     4  11  25  44  66 104 137 179 231 287 343 406
#     4  11  25  46  69 104 137 186 232 274 354 409
#     4  10  23  40  68  96 131 180 223 278 343 405
#
# _framework density 23.660518
#
# number of rings (size 3 to 8) (size 9 to 14) (size 15 to 20)
#    0.000    1.143    2.857    3.429    8.000    1.714 
#    0.000    3.571    0.000    0.000    0.000    0.000 
#    0.000    0.000    0.000    0.000    0.000    0.000 
#
# Total GULP energy -78320.980666 kJ/mol
# GULP energy per Si atom -5594.355762 kJ/mol
# Density = 2.360667 g / cm^3
# Si number density = 23.660518 Si / 1000 Ang^3
#
#
#
# Elastic Constant Matrix: (Units=GPa)
#
#
# Indices 1 2 3 4 5 6 
#
# 1 68.9452 16.2830 17.9579 -5.9990 -4.0855 19.7322
# 2 16.2830 65.0376 9.8640 0.4136 -0.5844 26.9333
# 3 17.9579 9.8640 70.6967 -20.1136 -9.1999 4.4166
# 4 -5.9990 0.4136 -20.1136 34.3241 5.4283 -2.2778
# 5 -4.0855 -0.5844 -9.1999 5.4283 53.3491 -9.5197
# 6 19.7322 26.9333 4.4166 -2.2778 -9.5197 52.6487
#
#
#
# Elastic Compliance Matrix: (Units=1/GPa)
#
#
# Indices 1 2 3 4 5 6 
#
# 1 0.017441 -0.001534 -0.003763 0.000556 -0.000364 -0.005478
# 2 -0.001534 0.020344 -0.002784 -0.002509 -0.001913 -0.010053
# 3 -0.003763 -0.002784 0.018492 0.010000 0.002231 0.002119
# 4 0.000556 -0.002509 0.010000 0.035473 -0.001606 0.001481
# 5 -0.000364 -0.001913 0.002231 -0.001606 0.020044 0.004483
# 6 -0.005478 -0.010053 0.002119 0.001481 0.004483 0.026887
#
#
# Mechanical properties :
#
#
# Convention : Reuss Voigt Hill
#
# Bulk Modulus (GPa) = 24.92800 32.54325 28.73563
# Shear Modulus (GPa) = 29.72377 38.76935 34.24656
#
# Velocity S-wave (km/s) = 3.54822 4.05231 3.80862
# Velocity P-wave (km/s) = 5.22925 5.97320 5.61356
#
# Compressibility (1/GPa) = 0.04011553
#
# Stress axis : x y z
#
# Youngs Moduli (GPa) = 57.33470 49.15453 54.07683
#
# Poissons Ratio (x) = 0.07541 0.20351
# Poissons Ratio (y) = 0.08796 0.15053
# Poissons Ratio (z) = 0.21577 0.13682
#
# Static dielectric constant tensor:
#      x y z
#    x 2.007240 -0.077770 0.016190 
#    y -0.077770 1.906870 0.001820 
#    z 0.016190 0.001820 1.924620 
# 
# From -- ./inp_files/274885.got.cif
#   From: 2010.05.17/outbox.cif.g08.bks.cpg/sg2_138_cif.got.tgz:274885.got - 2010.06.03 11:33:40.
