data_PCOD9035774
_publ_section_title
;
Structure prediction by ZEFSAII (Michael W. Deem and Ramdas Pophale) SiO2 
 PCOD9035774
Probable space group: P -1
;
_chemical_formula_sum "Si O2"
_cell_formula_units_Z 16
_cell_length_a 15.207083
_cell_length_b 8.705623
_cell_length_c 12.709516
_cell_angle_alpha 135.046247
_cell_angle_beta 142.042623
_cell_angle_gamma 68.752145
_cell_volume 652.966494
_symmetry_space_group_name_H-M "P -1"
_symmetry_group_IT_number 2
_symmetry_cell_setting 'triclinic'
loop_
_space_group_symop_operation_xyz
x,y,z
-x,-y,-z
loop_
_atom_site_type_symbol
_atom_site_label
_atom_site_fract_x
_atom_site_fract_y
_atom_site_fract_z
Si Si1 0.890897 0.122514 0.995925
Si Si2 0.199940 0.064623 0.949087
Si Si3 0.506713 0.538138 0.699053
Si Si4 0.002796 0.183790 0.681357
Si Si5 0.290138 0.700100 0.234103
Si Si6 0.688637 0.217973 0.461248
Si Si7 0.877291 0.429944 0.446936
Si Si8 0.531737 0.347440 0.047446
O O1 0.017790 0.398055 0.278944
O O2 0.805704 0.006673 0.969994
O O3 0.763024 0.119850 0.789505
O O4 0.000000 0.000000 0.000000
O O5 0.041249 0.093107 0.785413
O O6 0.192258 0.859577 0.760329
O O7 0.360022 0.298223 0.181379
O O8 0.537632 0.299353 0.616475
O O9 0.357496 0.585424 0.543291
O O10 0.535637 0.631433 0.891780
O O11 0.839933 0.204296 0.545262
O O12 0.000000 0.000000 0.500000
O O13 0.160283 0.438693 0.940797
O O14 0.267994 0.714002 0.343879
O O15 0.543853 0.942084 0.187955
O O16 0.723112 0.468704 0.297894
O O17 0.000000 0.500000 0.500000
O O18 0.500000 0.500000 0.000000
#
# Coordination Sequence:
#
# PCOD9035774 Si02
#       8
#     2   2   2   2   2   2   2   2
#     4  11  25  44  75 105 144 187 250 299 366 422
#     4  10  22  46  72 102 142 189 242 293 359 439
#     4  11  26  49  72 105 149 194 241 299 373 437
#     4  11  24  43  75 106 145 191 249 299 361 442
#     4  11  26  46  72 111 146 197 241 301 368 438
#     4  12  25  47  73 106 154 190 246 305 371 436
#     4  10  24  45  75  98 142 189 246 297 364 430
#     4  12  29  46  75 109 145 191 252 304 370 438
#
# _framework density 24.503554999999999
#
# number of rings (size 3 to 8) (size 9 to 14) (size 15 to 20)
#    0.000    1.000    1.250    4.125   12.250    1.000 
#    2.250    1.250    0.000    0.000    0.000    0.000 
#    0.000    0.000    0.000    0.000    0.000    0.000 
#
# Total GULP energy -89479.535634 kJ/mol
# GULP energy per Si atom -5592.470977 kJ/mol
# Density = 2.444778 g / cm^3
# Si number density = 24.503555 Si / 1000 Ang^3
#
#
#
# Elastic Constant Matrix: (Units=GPa)
#
#
# Indices 1 2 3 4 5 6 
#
# 1 142.8611 69.5709 64.6483 -18.3881 -12.9315 -15.7812
# 2 69.5709 156.0026 43.8377 -62.3633 -3.8051 -14.5776
# 3 64.6483 43.8377 99.4941 -17.1157 3.2865 -2.7354
# 4 -18.3881 -62.3633 -17.1157 55.8770 -2.0349 1.6000
# 5 -12.9315 -3.8051 3.2865 -2.0349 47.8517 -5.2969
# 6 -15.7812 -14.5776 -2.7354 1.6000 -5.2969 48.0831
#
#
#
# Elastic Compliance Matrix: (Units=1/GPa)
#
#
# Indices 1 2 3 4 5 6 
#
# 1 0.012482 -0.004495 -0.006671 -0.002901 0.003666 0.002855
# 2 -0.004495 0.014879 -0.001055 0.014764 0.000955 0.002589
# 3 -0.006671 -0.001055 0.015103 0.001198 -0.003098 -0.002031
# 4 -0.002901 0.014764 0.001198 0.033784 0.002042 0.002693
# 5 0.003666 0.000955 -0.003098 0.002042 0.022679 0.003747
# 6 0.002855 0.002589 -0.002031 0.002693 0.003747 0.022727
#
#
# Mechanical properties :
#
#
# Convention : Reuss Voigt Hill
#
# Bulk Modulus (GPa) = 55.49442 83.83017 69.66230
# Shear Modulus (GPa) = 32.87233 45.04910 38.96071
#
# Velocity S-wave (km/s) = 3.66667 4.29239 3.99181
# Velocity P-wave (km/s) = 6.37359 7.67150 7.05246
#
# Compressibility (1/GPa) = 0.01801983
#
# Stress axis : x y z
#
# Youngs Moduli (GPa) = 80.11766 67.21034 66.21082
#
# Poissons Ratio (x) = 0.30213 0.44171
# Poissons Ratio (y) = 0.36015 0.06987
# Poissons Ratio (z) = 0.53449 0.07093
#
# Static dielectric constant tensor:
#      x y z
#    x 1.935370 0.040650 -0.079000 
#    y 0.040650 2.137310 -0.046360 
#    z -0.079000 -0.046360 2.114010 
# 
# From -- ./inp_files/448259.got.cif
#   From: 2010.05.17/outbox.cif.g08.bks.cpg/sg2_225_cif.got.tgz:448259.got - 2010.06.03 11:33:40.
