data_PCOD9035705
_publ_section_title
;
Structure prediction by ZEFSAII (Michael W. Deem and Ramdas Pophale) SiO2 
 PCOD9035705
Probable space group: P -1
;
_chemical_formula_sum "Si O2"
_cell_formula_units_Z 16
_cell_length_a 17.520066
_cell_length_b 15.209445
_cell_length_c 8.029266
_cell_angle_alpha 95.149542
_cell_angle_beta 110.158130
_cell_angle_gamma 26.720651
_cell_volume 773.263927
_symmetry_space_group_name_H-M "P -1"
_symmetry_group_IT_number 2
_symmetry_cell_setting 'triclinic'
loop_
_space_group_symop_operation_xyz
x,y,z
-x,-y,-z
loop_
_atom_site_type_symbol
_atom_site_label
_atom_site_fract_x
_atom_site_fract_y
_atom_site_fract_z
Si Si1 0.377454 0.714601 0.434874
Si Si2 0.161245 0.348433 0.941244
Si Si3 0.916933 0.451146 0.593680
Si Si4 0.017317 0.831300 0.893760
Si Si5 0.780071 0.418874 0.650256
Si Si6 0.592337 0.929739 0.378598
Si Si7 0.011557 0.089402 0.467178
Si Si8 0.078709 0.254088 0.345894
O O1 0.500000 0.500000 0.500000
O O2 0.541690 0.624680 0.489152
O O3 0.182874 0.903892 0.191267
O O4 0.250830 0.863842 0.537126
O O5 0.077852 0.518415 0.815490
O O6 0.113562 0.308978 0.790415
O O7 0.000000 0.500000 0.000000
O O8 0.400679 0.117335 0.138584
O O9 0.812416 0.491437 0.657790
O O10 0.764195 0.680219 0.445734
O O11 0.986878 0.323108 0.468580
O O12 0.115128 0.763657 0.777308
O O13 0.916150 0.836498 0.778900
O O14 0.152553 0.682616 0.133686
O O15 0.923332 0.229329 0.584211
O O16 0.707486 0.907788 0.482456
O O17 0.500000 0.000000 0.500000
O O18 0.000000 0.000000 0.500000
#
# Coordination Sequence:
#
# PCOD9035705 Si02
#       8
#     2   2   2   2   2   2   2   2
#     4  10  23  43  69  99 130 170 214 268 331 398
#     4  11  21  38  60  90 123 173 218 265 325 380
#     4  11  24  39  63  91 129 173 216 271 327 379
#     4  10  25  42  67 101 131 172 221 270 322 400
#     4  12  23  45  69  97 138 175 215 274 333 382
#     4  11  23  37  62  90 125 174 220 268 322 381
#     4  10  22  46  70  99 134 166 215 272 326 400
#     4  11  23  42  60  93 131 167 223 270 321 387
#
# _framework density 20.691514000000002
#
# number of rings (size 3 to 8) (size 9 to 14) (size 15 to 20)
#    0.750    0.500    5.000    2.250    1.750    4.000 
#    2.250    2.500    0.000    0.000    0.000    0.000 
#    0.000    0.000    0.000    0.000    0.000    0.000 
#
# Total GULP energy -89192.351194 kJ/mol
# GULP energy per Si atom -5574.521950 kJ/mol
# Density = 2.064442 g / cm^3
# Si number density = 20.691514 Si / 1000 Ang^3
#
#
#
# Elastic Constant Matrix: (Units=GPa)
#
#
# Indices 1 2 3 4 5 6 
#
# 1 103.3815 -3.9297 16.9780 -1.2280 -9.7593 -0.5298
# 2 -3.9297 66.1132 8.3516 11.2113 0.6054 -12.0426
# 3 16.9780 8.3516 101.3709 -12.8453 -10.1660 -5.8803
# 4 -1.2280 11.2113 -12.8453 27.9878 -10.6253 -4.3403
# 5 -9.7593 0.6054 -10.1660 -10.6253 31.9229 1.1338
# 6 -0.5298 -12.0426 -5.8803 -4.3403 1.1338 29.3383
#
#
#
# Elastic Compliance Matrix: (Units=1/GPa)
#
#
# Indices 1 2 3 4 5 6 
#
# 1 0.010206 0.000673 -0.001382 0.000665 0.002883 0.000171
# 2 0.000673 0.018200 -0.002912 -0.009384 -0.004392 0.005680
# 3 -0.001382 -0.002912 0.012384 0.009721 0.006726 0.002440
# 4 0.000665 -0.009384 0.009721 0.052678 0.020829 0.005097
# 5 0.002883 -0.004392 0.006726 0.020829 0.041326 0.001082
# 6 0.000171 0.005680 0.002440 0.005097 0.001082 0.037621
#
#
# Mechanical properties :
#
#
# Convention : Reuss Voigt Hill
#
# Bulk Modulus (GPa) = 29.80746 34.85171 32.32959
# Shear Modulus (GPa) = 26.20007 34.48085 30.34046
#
# Velocity S-wave (km/s) = 3.56226 4.08662 3.83342
# Velocity P-wave (km/s) = 5.59969 6.25678 5.93733
#
# Compressibility (1/GPa) = 0.03354865
#
# Stress axis : x y z
#
# Youngs Moduli (GPa) = 97.97870 54.94615 80.74970
#
# Poissons Ratio (x) = -0.03698 0.11156
# Poissons Ratio (y) = -0.06595 0.23515
# Poissons Ratio (z) = 0.13537 0.16001
#
# Static dielectric constant tensor:
#      x y z
#    x 1.726260 0.049910 -0.060200 
#    y 0.049910 1.763820 0.048380 
#    z -0.060200 0.048380 1.708910 
# 
# From -- ./inp_files/335440.got.cif
#   From: 2010.05.17/outbox.cif.g08.bks.cpg/sg2_168_cif.got.tgz:335440.got - 2010.06.03 11:33:40.
