data_PCOD9035642
_publ_section_title
;
Structure prediction by ZEFSAII (Michael W. Deem and Ramdas Pophale) SiO2 
 PCOD9035642
Probable space group: P -1
;
_chemical_formula_sum "Si O2"
_cell_formula_units_Z 14
_cell_length_a 19.684357
_cell_length_b 16.803785
_cell_length_c 10.501530
_cell_angle_alpha 26.803082
_cell_angle_beta 29.488010
_cell_angle_gamma 20.127913
_cell_volume 527.116873
_symmetry_space_group_name_H-M "P -1"
_symmetry_group_IT_number 2
_symmetry_cell_setting 'triclinic'
loop_
_space_group_symop_operation_xyz
x,y,z
-x,-y,-z
loop_
_atom_site_type_symbol
_atom_site_label
_atom_site_fract_x
_atom_site_fract_y
_atom_site_fract_z
Si Si1 0.385075 0.585638 0.256084
Si Si2 0.764194 0.390957 0.795022
Si Si3 0.192191 0.060735 0.005859
Si Si4 0.917158 0.605655 0.744476
Si Si5 0.674637 0.058857 0.686184
Si Si6 0.121327 0.789190 0.871427
Si Si7 0.420925 0.201688 0.143264
O O1 0.240352 0.655497 0.279288
O O2 0.519899 0.299349 0.497463
O O3 0.279818 0.779287 0.271838
O O4 0.531191 0.589705 0.937593
O O5 0.889830 0.452412 0.512963
O O6 0.866299 0.184474 0.036840
O O7 0.074478 0.135203 0.959576
O O8 0.392635 0.993028 0.785374
O O9 0.015563 0.319065 0.006177
O O10 0.799668 0.791932 0.791200
O O11 0.760317 0.755530 0.667717
O O12 0.822282 0.075376 0.473394
O O13 0.545118 0.110984 0.939721
O O14 0.302899 0.487256 0.970811
#
# Coordination Sequence:
#
# PCOD9035642 Si02
#       7
#     2   2   2   2   2   2   2
#     4  10  23  43  75 101 125 184 221 281 332 392
#     4  10  22  46  70 101 135 169 234 274 330 400
#     4  11  24  44  65 103 137 173 226 260 354 387
#     4  11  27  43  66 103 136 182 214 279 336 402
#     4  11  23  46  72  96 137 174 231 276 330 389
#     4  10  23  45  71 104 126 179 226 285 321 395
#     4  11  24  47  65 100 141 177 218 278 333 404
#
# _framework density 26.559576
#
# number of rings (size 3 to 8) (size 9 to 14) (size 15 to 20)
#    0.000    1.429    2.857    1.714    2.000   10.286 
#    7.714    0.000    0.000    0.000    0.000    0.000 
#    0.000    0.000    0.000    0.000    0.000    0.000 
#
# Total GULP energy -78120.685269 kJ/mol
# GULP energy per Si atom -5580.048948 kJ/mol
# Density = 2.649912 g / cm^3
# Si number density = 26.559576 Si / 1000 Ang^3
#
#
#
# Elastic Constant Matrix: (Units=GPa)
#
#
# Indices 1 2 3 4 5 6 
#
# 1 152.6499 61.6161 37.0104 6.9581 -41.1838 -42.1850
# 2 61.6161 167.0823 30.5433 -17.9928 -27.0320 -3.7993
# 3 37.0104 30.5433 70.5854 10.5388 -21.2249 -9.8644
# 4 6.9581 -17.9928 10.5388 11.9105 -20.4434 -30.8110
# 5 -41.1838 -27.0320 -21.2249 -20.4434 26.1509 1.2416
# 6 -42.1850 -3.7993 -9.8644 -30.8110 1.2416 61.2816
#
#
#
# Elastic Compliance Matrix: (Units=1/GPa)
#
#
# Indices 1 2 3 4 5 6 
#
# 1 0.009055 -0.004416 -0.001215 -0.011563 -0.000329 -0.000043
# 2 -0.004416 0.006912 -0.001933 -0.003266 -0.003719 -0.004489
# 3 -0.001215 -0.001933 0.018789 -0.003349 0.008710 0.000208
# 4 -0.011563 -0.003266 -0.003349 -0.016919 -0.036748 -0.016463
# 5 -0.000329 -0.003719 0.008710 -0.036748 0.013063 -0.017796
# 6 -0.000043 -0.004489 0.000208 -0.016463 -0.017796 0.008127
#
#
# Mechanical properties :
#
#
# Convention : Reuss Voigt Hill
#
# Bulk Modulus (GPa) = 50.95447 72.07303 61.51375
# Shear Modulus (GPa) = 82.37678 37.27845 59.82762
#
# Velocity S-wave (km/s) = 5.57523 3.75050 4.75129
# Velocity P-wave (km/s) = 7.78915 6.77866 7.30141
#
# Compressibility (1/GPa) = 0.01962536
#
# Stress axis : x y z
#
# Youngs Moduli (GPa) = 110.44201 144.68338 53.22252
#
# Poissons Ratio (x) = 0.63897 0.06468
# Poissons Ratio (y) = 0.48775 0.10290
# Poissons Ratio (z) = 0.13421 0.27973
#
# Static dielectric constant tensor:
#      x y z
#    x 2.101590 -0.049930 -0.006130 
#    y -0.049930 2.199050 0.000240 
#    z -0.006130 0.000240 2.093530 
# 
# From -- ./inp_files/472315.got.cif
#   From: 2010.05.17/outbox.cif.g08.bks.cpg/sg2_237_cif.got.tgz:472315.got - 2010.06.03 11:33:40.
