data_PCOD9035876
_publ_section_title
;
Structure prediction by ZEFSAII (Michael W. Deem and Ramdas Pophale) SiO2 
 PCOD9035876
Probable space group: P -1
;
_chemical_formula_sum "Si O2"
_cell_formula_units_Z 15
_cell_length_a 7.990655
_cell_length_b 14.316112
_cell_length_c 14.465081
_cell_angle_alpha 29.621064
_cell_angle_beta 124.744073
_cell_angle_gamma 106.983991
_cell_volume 581.765032
_symmetry_space_group_name_H-M "P -1"
_symmetry_group_IT_number 2
_symmetry_cell_setting 'triclinic'
loop_
_space_group_symop_operation_xyz
x,y,z
-x,-y,-z
loop_
_atom_site_type_symbol
_atom_site_label
_atom_site_fract_x
_atom_site_fract_y
_atom_site_fract_z
Si Si1 0.428458 0.374599 0.012701
Si Si2 0.157403 0.966008 0.667512
Si Si3 0.946887 0.603904 0.236747
Si Si4 0.647247 0.737469 0.591666
Si Si5 0.500000 0.000000 0.500000
Si Si6 0.832790 0.278775 0.962428
Si Si7 0.260468 0.945332 0.155945
Si Si8 0.555853 0.753621 0.239544
O O1 0.617401 0.268121 0.082082
O O2 0.443227 0.171234 0.248279
O O3 0.500000 0.500000 0.000000
O O4 0.182370 0.497109 0.776401
O O5 0.241024 0.142646 0.537065
O O6 0.039267 0.937424 0.747144
O O7 0.000000 0.000000 0.500000
O O8 0.035882 0.715523 0.093055
O O9 0.171093 0.424118 0.516319
O O10 0.765706 0.813514 0.059539
O O11 0.637688 0.795878 0.645079
O O12 0.794503 0.484373 0.832532
O O13 0.381494 0.833769 0.386598
O O14 0.591317 0.295459 0.838573
O O15 0.438124 0.771356 0.287587
O O16 0.000000 0.000000 0.000000
O O17 0.500000 0.000000 0.000000
#
# Coordination Sequence:
#
# PCOD9035876 Si02
#       8
#     2   2   2   2   1   2   2   2
#     4  11  26  47  71 108 152 192 264 310 380 461
#     4  11  27  46  73 109 153 199 256 319 383 457
#     4  12  26  49  79 110 156 205 257 316 390 463
#     4  11  24  47  75 107 160 191 264 313 384 461
#     4  10  22  46  74 106 146 206 248 312 378 448
#     4  12  26  47  78 113 151 208 255 320 393 460
#     4  12  23  48  75 110 149 200 250 321 377 465
#     4  12  28  50  78 116 158 199 259 323 395 460
#
# _framework density 25.783605000000001
#
# number of rings (size 3 to 8) (size 9 to 14) (size 15 to 20)
#    0.000    0.533    5.333    2.800    5.600    1.067 
#    4.800    0.000    0.000    0.000    0.000    0.000 
#    0.000    0.000    0.000    0.000    0.000    0.000 
#
# Total GULP energy -83808.856546 kJ/mol
# GULP energy per Si atom -5587.257103 kJ/mol
# Density = 2.572492 g / cm^3
# Si number density = 25.783605 Si / 1000 Ang^3
#
#
#
# Elastic Constant Matrix: (Units=GPa)
#
#
# Indices 1 2 3 4 5 6 
#
# 1 53.9572 16.8837 16.0861 2.1382 -17.0341 -6.2697
# 2 16.8837 151.6305 20.5622 -5.2218 6.9042 6.1354
# 3 16.0861 20.5622 87.6085 11.4316 -3.2088 5.6983
# 4 2.1382 -5.2218 11.4316 50.3838 3.6670 12.1688
# 5 -17.0341 6.9042 -3.2088 3.6670 49.4618 2.7074
# 6 -6.2697 6.1354 5.6983 12.1688 2.7074 50.9202
#
#
#
# Elastic Compliance Matrix: (Units=1/GPa)
#
#
# Indices 1 2 3 4 5 6 
#
# 1 0.023482 -0.002751 -0.003341 -0.001999 0.008203 0.003638
# 2 -0.002751 0.007302 -0.001417 0.001674 -0.002109 -0.001348
# 3 -0.003341 -0.001417 0.012780 -0.002663 0.000131 -0.001042
# 4 -0.001999 0.001674 -0.002663 0.022173 -0.002448 -0.005319
# 5 0.008203 -0.002109 0.000131 -0.002448 0.023495 0.000585
# 6 0.003638 -0.001348 -0.001042 -0.005319 0.000585 0.021605
#
#
# Mechanical properties :
#
#
# Convention : Reuss Voigt Hill
#
# Bulk Modulus (GPa) = 35.03113 44.47336 39.75225
# Shear Modulus (GPa) = 36.93574 46.13078 41.53326
#
# Velocity S-wave (km/s) = 3.78898 4.23443 4.01788
# Velocity P-wave (km/s) = 5.72345 6.41820 6.08076
#
# Compressibility (1/GPa) = 0.02854604
#
# Stress axis : x y z
#
# Youngs Moduli (GPa) = 42.58603 136.95587 78.24508
#
# Poissons Ratio (x) = 0.37679 0.26143
# Poissons Ratio (y) = 0.11716 0.11084
# Poissons Ratio (z) = 0.14229 0.19401
#
# Static dielectric constant tensor:
#      x y z
#    x 2.160890 0.006140 -0.001530 
#    y 0.006140 2.047850 0.019170 
#    z -0.001530 0.019170 2.022960 
# 
# From -- ./inp_files/505156.got.cif
#   From: 2010.05.17/outbox.cif.g08.bks.cpg/sg2_253_cif.got.tgz:505156.got - 2010.06.03 11:33:40.
