data_PCOD9035941
_publ_section_title
;
Structure prediction by ZEFSAII (Michael W. Deem and Ramdas Pophale) SiO2 
 PCOD9035941
Probable space group: P -1
;
_chemical_formula_sum "Si O2"
_cell_formula_units_Z 12
_cell_length_a 9.089216
_cell_length_b 9.026545
_cell_length_c 10.116616
_cell_angle_alpha 54.312237
_cell_angle_beta 51.748051
_cell_angle_gamma 82.923506
_cell_volume 491.169688
_symmetry_space_group_name_H-M "P -1"
_symmetry_group_IT_number 2
_symmetry_cell_setting 'triclinic'
loop_
_space_group_symop_operation_xyz
x,y,z
-x,-y,-z
loop_
_atom_site_type_symbol
_atom_site_label
_atom_site_fract_x
_atom_site_fract_y
_atom_site_fract_z
Si Si1 0.718689 0.005886 0.416960
Si Si2 0.422025 0.340249 0.798903
Si Si3 0.570830 0.730074 0.868972
Si Si4 0.243015 0.942786 0.932817
Si Si5 0.151566 0.584104 0.755536
Si Si6 0.096105 0.419613 0.601439
O O1 0.812153 0.042362 0.198872
O O2 0.789251 0.186772 0.384078
O O3 0.500000 0.000000 0.500000
O O4 0.705675 0.827423 0.613148
O O5 0.322717 0.494705 0.730019
O O6 0.661245 0.473601 0.600124
O O7 0.353562 0.156481 0.829603
O O8 0.351797 0.251058 0.031560
O O9 0.396942 0.824688 0.917005
O O10 0.500000 0.500000 0.000000
O O11 0.037850 0.810919 0.190728
O O12 0.046120 0.503954 0.720629
O O13 0.000000 0.500000 0.000000
O O14 0.000000 0.500000 0.500000
#
# Coordination Sequence:
#
# PCOD9035941 Si02
#       6
#     2   2   2   2   2   2
#     4  10  22  46  77 104 155 199 250 319 379 451
#     4  12  27  49  80 114 157 202 254 323 390 451
#     4  11  24  44  78 111 151 201 252 316 386 447
#     4  11  24  49  76 114 155 201 259 316 388 463
#     4  12  27  52  75 114 155 202 259 318 382 466
#     4  12  26  46  79 112 158 199 258 317 385 459
#
# _framework density 24.431477000000001
#
# number of rings (size 3 to 8) (size 9 to 14) (size 15 to 20)
#    0.000    0.667    3.333    5.000    2.333    2.000 
#    6.000    0.833    0.000    0.000    0.000    0.000 
#    0.000    0.000    0.000    0.000    0.000    0.000 
#
# Total GULP energy -67084.941922 kJ/mol
# GULP energy per Si atom -5590.411827 kJ/mol
# Density = 2.437587 g / cm^3
# Si number density = 24.431477 Si / 1000 Ang^3
#
#
#
# Elastic Constant Matrix: (Units=GPa)
#
#
# Indices 1 2 3 4 5 6 
#
# 1 104.2834 69.5066 60.9778 0.9090 21.2972 10.6474
# 2 69.5066 143.1210 38.9191 -25.0535 11.6403 -11.3287
# 3 60.9778 38.9191 167.7595 -20.0079 28.9699 -0.4963
# 4 0.9090 -25.0535 -20.0079 45.1339 12.9301 9.0115
# 5 21.2972 11.6403 28.9699 12.9301 62.9576 0.2983
# 6 10.6474 -11.3287 -0.4963 9.0115 0.2983 30.3480
#
#
#
# Elastic Compliance Matrix: (Units=1/GPa)
#
#
# Indices 1 2 3 4 5 6 
#
# 1 0.021424 -0.010632 -0.005963 -0.006749 -0.001106 -0.009568
# 2 -0.010632 0.013620 0.001884 0.007699 -0.001401 0.006573
# 3 -0.005963 0.001884 0.009058 0.006014 -0.003740 0.001194
# 4 -0.006749 0.007699 0.006014 0.032533 -0.008569 -0.004236
# 5 -0.001106 -0.001401 -0.003740 -0.008569 0.019988 0.002152
# 6 -0.009568 0.006573 0.001194 -0.004236 0.002152 0.040018
#
#
# Mechanical properties :
#
#
# Convention : Reuss Voigt Hill
#
# Bulk Modulus (GPa) = 68.11569 83.77453 75.94511
# Shear Modulus (GPa) = 29.24761 44.07194 36.65978
#
# Velocity S-wave (km/s) = 3.46371 4.25184 3.87785
# Velocity P-wave (km/s) = 6.62851 7.64645 7.15561
#
# Compressibility (1/GPa) = 0.01468090
#
# Stress axis : x y z
#
# Youngs Moduli (GPa) = 46.67699 73.42193 110.40059
#
# Poissons Ratio (x) = 0.78061 0.65831
# Poissons Ratio (y) = 0.49626 -0.20803
# Poissons Ratio (z) = 0.27833 -0.13835
#
# Static dielectric constant tensor:
#      x y z
#    x 1.872000 -0.004550 -0.039490 
#    y -0.004550 1.874220 0.048740 
#    z -0.039490 0.048740 2.004280 
# 
# From -- ./inp_files/148861.got.cif
#   From: 2010.05.17/outbox.cif.g08.bks.cpg/sg2_75_cif.got.tgz:148861.got - 2010.06.03 11:33:40.
