data_PCOD9035269
_publ_section_title
;
Structure prediction by ZEFSAII (Michael W. Deem and Ramdas Pophale) SiO2 
 PCOD9035269
Probable space group: P -1
;
_chemical_formula_sum "Si O2"
_cell_formula_units_Z 16
_cell_length_a 30.811582
_cell_length_b 5.279056
_cell_length_c 9.572546
_cell_angle_alpha 126.106918
_cell_angle_beta 143.132986
_cell_angle_gamma 51.967941
_cell_volume 720.333852
_symmetry_space_group_name_H-M "P -1"
_symmetry_group_IT_number 2
_symmetry_cell_setting 'triclinic'
loop_
_space_group_symop_operation_xyz
x,y,z
-x,-y,-z
loop_
_atom_site_type_symbol
_atom_site_label
_atom_site_fract_x
_atom_site_fract_y
_atom_site_fract_z
Si Si1 0.835090 0.351978 0.479736
Si Si2 0.981489 0.787704 0.660874
Si Si3 0.481601 0.651558 0.847876
Si Si4 0.311916 0.604741 0.065967
Si Si5 0.068248 0.214041 0.149658
Si Si6 0.264336 0.621413 0.533031
Si Si7 0.382955 0.877486 0.097279
Si Si8 0.697526 0.151815 0.583778
O O1 0.758801 0.420734 0.216536
O O2 0.858189 0.681442 0.663837
O O3 0.814243 0.233801 0.539110
O O4 0.908286 0.083936 0.516398
O O5 0.951296 0.732710 0.719032
O O6 0.000000 0.500000 0.500000
O O7 0.054637 0.900867 0.933634
O O8 0.393620 0.707878 0.612149
O O9 0.500000 0.500000 0.000000
O O10 0.534607 0.378723 0.793570
O O11 0.500000 0.000000 0.000000
O O12 0.352183 0.832762 0.157885
O O13 0.370716 0.248816 0.136692
O O14 0.277890 0.753595 0.172927
O O15 0.000000 0.500000 0.000000
O O16 0.327858 0.755233 0.811833
O O17 0.267946 0.695348 0.404255
O O18 0.285036 0.238238 0.498088
#
# Coordination Sequence:
#
# PCOD9035269 Si02
#       8
#     2   2   2   2   2   2   2   2
#     4  10  24  43  66  95 134 188 217 272 355 414
#     4  10  22  45  73 102 137 174 231 287 334 414
#     4  12  22  39  69  98 125 180 239 284 353 403
#     4  11  26  42  64  99 143 172 228 285 354 408
#     4   9  21  44  68 100 137 176 220 280 337 416
#     4  11  23  42  68  93 133 180 227 277 340 413
#     4  11  22  42  67  93 133 184 220 290 347 413
#     4  12  24  44  64 102 134 174 236 295 330 420
#
# _framework density 22.211924
#
# number of rings (size 3 to 8) (size 9 to 14) (size 15 to 20)
#    0.000    1.250    2.500    3.000    5.250    3.000 
#    9.000    0.000    0.000    0.000    0.000    0.000 
#    0.000    0.000    0.000    0.000    0.000    0.000 
#
# Total GULP energy -89385.733259 kJ/mol
# GULP energy per Si atom -5586.608329 kJ/mol
# Density = 2.216137 g / cm^3
# Si number density = 22.211924 Si / 1000 Ang^3
#
#
#
# Elastic Constant Matrix: (Units=GPa)
#
#
# Indices 1 2 3 4 5 6 
#
# 1 127.9458 27.2888 60.8125 -4.4387 -9.8539 5.5582
# 2 27.2888 81.7817 16.8194 -6.1321 -7.4943 -4.3643
# 3 60.8125 16.8194 79.8933 7.9893 -14.0086 -5.0585
# 4 -4.4387 -6.1321 7.9893 23.8101 -5.7045 -5.1074
# 5 -9.8539 -7.4943 -14.0086 -5.7045 40.4083 -5.2795
# 6 5.5582 -4.3643 -5.0585 -5.1074 -5.2795 46.0401
#
#
#
# Elastic Compliance Matrix: (Units=1/GPa)
#
#
# Indices 1 2 3 4 5 6 
#
# 1 0.013550 -0.002149 -0.010579 0.004889 -0.000399 -0.002505
# 2 -0.002149 0.013893 -0.001156 0.004676 0.002608 0.002267
# 3 -0.010579 -0.001156 0.022586 -0.008119 0.004314 0.003243
# 4 0.004889 0.004676 -0.008119 0.049630 0.006939 0.005262
# 5 -0.000399 0.002608 0.004314 0.006939 0.028233 0.004777
# 6 -0.002505 0.002267 0.003243 0.005262 0.004777 0.023725
#
#
# Mechanical properties :
#
#
# Convention : Reuss Voigt Hill
#
# Bulk Modulus (GPa) = 44.92047 55.49579 50.20813
# Shear Modulus (GPa) = 26.76570 34.36503 30.56537
#
# Velocity S-wave (km/s) = 3.47510 3.93764 3.71358
# Velocity P-wave (km/s) = 6.03069 6.76109 6.40631
#
# Compressibility (1/GPa) = 0.02226156
#
# Stress axis : x y z
#
# Youngs Moduli (GPa) = 73.79992 71.97778 44.27523
#
# Poissons Ratio (x) = 0.15471 0.46839
# Poissons Ratio (y) = 0.15862 0.05116
# Poissons Ratio (z) = 0.78073 0.08317
#
# Static dielectric constant tensor:
#      x y z
#    x 1.888970 0.050360 0.017880 
#    y 0.050360 1.929880 0.002370 
#    z 0.017880 0.002370 1.853010 
# 
# From -- ./inp_files/358292.got.cif
#   From: 2010.05.17/outbox.cif.g08.bks.cpg/sg2_180_cif.got.tgz:358292.got - 2010.06.03 11:33:40.
