data_PCOD9035203
_publ_section_title
;
Structure prediction by ZEFSAII (Michael W. Deem and Ramdas Pophale) SiO2 
 PCOD9035203
Probable space group: P -1
;
_chemical_formula_sum "Si O2"
_cell_formula_units_Z 14
_cell_length_a 8.365334
_cell_length_b 13.923017
_cell_length_c 14.418243
_cell_angle_alpha 30.590033
_cell_angle_beta 108.519764
_cell_angle_gamma 126.600813
_cell_volume 602.299776
_symmetry_space_group_name_H-M "P -1"
_symmetry_group_IT_number 2
_symmetry_cell_setting 'triclinic'
loop_
_space_group_symop_operation_xyz
x,y,z
-x,-y,-z
loop_
_atom_site_type_symbol
_atom_site_label
_atom_site_fract_x
_atom_site_fract_y
_atom_site_fract_z
Si Si1 0.234654 0.115755 0.997885
Si Si2 0.971001 0.986100 0.396395
Si Si3 0.347060 0.790664 0.224583
Si Si4 0.238895 0.393144 0.947148
Si Si5 0.626638 0.940761 0.632494
Si Si6 0.475963 0.608365 0.544507
Si Si7 0.146775 0.618548 0.588457
O O1 0.252972 0.234505 0.004128
O O2 0.420771 0.349982 0.769213
O O3 0.272157 0.918624 0.166307
O O4 0.000000 0.000000 0.000000
O O5 0.708677 0.811947 0.471962
O O6 0.000000 0.000000 0.500000
O O7 0.108632 0.899654 0.468932
O O8 0.092356 0.223349 0.150591
O O9 0.486384 0.725216 0.352613
O O10 0.106641 0.523318 0.370009
O O11 0.500000 0.000000 0.000000
O O12 0.134456 0.489500 0.789918
O O13 0.479928 0.649003 0.819378
O O14 0.661804 0.074473 0.624310
O O15 0.500000 0.000000 0.500000
O O16 0.262041 0.554933 0.594453
#
# Coordination Sequence:
#
# PCOD9035203 Si02
#       7
#     2   2   2   2   2   2   2
#     4  11  24  46  76 102 147 196 239 292 366 437
#     4  12  25  45  69 103 144 184 244 300 356 429
#     4  12  26  45  72 111 148 188 243 299 363 435
#     4  10  22  45  72 101 140 188 240 291 366 429
#     4  10  23  44  72  96 137 189 238 293 356 426
#     4  11  26  45  71 107 147 187 243 297 365 429
#     4  10  22  47  69 106 141 191 239 292 361 435
#
# _framework density 23.244239
#
# number of rings (size 3 to 8) (size 9 to 14) (size 15 to 20)
#    0.000    1.143    2.857    4.286    4.000    0.571 
#    0.000    3.571    0.000    0.000    0.000    0.000 
#    0.000    0.000    0.000    0.000    0.000    0.000 
#
# Total GULP energy -77964.503229 kJ/mol
# GULP energy per Si atom -5568.893088 kJ/mol
# Density = 2.319133 g / cm^3
# Si number density = 23.244239 Si / 1000 Ang^3
#
#
#
# Elastic Constant Matrix: (Units=GPa)
#
#
# Indices 1 2 3 4 5 6 
#
# 1 31.5681 23.0392 13.0008 -4.5017 6.4998 10.4822
# 2 23.0392 160.9405 81.3812 -13.8921 1.1522 7.8499
# 3 13.0008 81.3812 105.8395 17.3139 1.4976 1.4980
# 4 -4.5017 -13.8921 17.3139 51.9033 1.3308 7.2536
# 5 6.4998 1.1522 1.4976 1.3308 46.2078 1.1963
# 6 10.4822 7.8499 1.4980 7.2536 1.1963 51.5460
#
#
#
# Elastic Compliance Matrix: (Units=1/GPa)
#
#
# Indices 1 2 3 4 5 6 
#
# 1 0.039789 -0.003416 -0.002848 0.004746 -0.005348 -0.008032
# 2 -0.003416 0.012629 -0.010382 0.006803 0.000355 -0.001892
# 3 -0.002848 -0.010382 0.019356 -0.009906 0.000240 0.002986
# 4 0.004746 0.006803 -0.009906 0.025571 -0.001116 -0.005286
# 5 -0.005348 0.000355 0.000240 -0.001116 0.022392 0.000664
# 6 -0.008032 -0.001892 0.002986 -0.005286 0.000664 0.021963
#
#
# Mechanical properties :
#
#
# Convention : Reuss Voigt Hill
#
# Bulk Modulus (GPa) = 25.98656 59.24337 42.61496
# Shear Modulus (GPa) = 26.62126 41.99321 34.30724
#
# Velocity S-wave (km/s) = 3.38788 4.25503 3.84597
# Velocity P-wave (km/s) = 5.14856 7.04862 6.17214
#
# Compressibility (1/GPa) = 0.03848144
#
# Stress axis : x y z
#
# Youngs Moduli (GPa) = 25.13287 79.18024 51.66342
#
# Poissons Ratio (x) = 0.27049 0.14713
# Poissons Ratio (y) = 0.08586 0.53639
# Poissons Ratio (z) = 0.07157 0.82208
#
# Static dielectric constant tensor:
#      x y z
#    x 1.914840 -0.125590 0.068690 
#    y -0.125590 1.964300 -0.006540 
#    z 0.068690 -0.006540 1.958080 
# 
# From -- ./inp_files/505108.got.cif
#   From: 2010.05.17/outbox.cif.g08.bks.cpg/sg2_253_cif.got.tgz:505108.got - 2010.06.03 11:33:40.
