data_PCOD9035372
_publ_section_title
;
Structure prediction by ZEFSAII (Michael W. Deem and Ramdas Pophale) SiO2 
 PCOD9035372
Probable space group: P -1
;
_chemical_formula_sum "Si O2"
_cell_formula_units_Z 14
_cell_length_a 10.716960
_cell_length_b 15.918374
_cell_length_c 5.247617
_cell_angle_alpha 80.897434
_cell_angle_beta 111.991734
_cell_angle_gamma 131.217407
_cell_volume 619.351802
_symmetry_space_group_name_H-M "P -1"
_symmetry_group_IT_number 2
_symmetry_cell_setting 'triclinic'
loop_
_space_group_symop_operation_xyz
x,y,z
-x,-y,-z
loop_
_atom_site_type_symbol
_atom_site_label
_atom_site_fract_x
_atom_site_fract_y
_atom_site_fract_z
Si Si1 0.005739 0.418192 0.876615
Si Si2 0.005453 0.267679 0.334522
Si Si3 0.504882 0.099849 0.865315
Si Si4 0.711305 0.584517 0.139086
Si Si5 0.149471 0.026535 0.412896
Si Si6 0.902958 0.827767 0.930168
Si Si7 0.281858 0.773972 0.548238
O O1 0.191859 0.459103 0.885359
O O2 0.851575 0.357466 0.572550
O O3 0.952433 0.318139 0.069850
O O4 0.000000 0.500000 0.000000
O O5 0.202006 0.372491 0.534822
O O6 0.007851 0.178891 0.243805
O O7 0.863805 0.216418 0.477493
O O8 0.311073 0.054257 0.675880
O O9 0.608151 0.151995 0.650017
O O10 0.593851 0.186751 0.129563
O O11 0.500000 0.000000 0.000000
O O12 0.500000 0.500000 0.000000
O O13 0.787659 0.702646 0.013476
O O14 0.209996 0.136399 0.251783
O O15 0.000000 0.000000 0.500000
O O16 0.052921 0.924442 0.188809
#
# Coordination Sequence:
#
# PCOD9035372 Si02
#       7
#     2   2   2   2   2   2   2
#     4  10  23  46  72 106 150 197 247 315 384 449
#     4  10  22  45  75 100 147 196 246 308 386 441
#     4  12  29  46  76 111 149 194 254 307 375 455
#     4  10  23  44  72 107 142 197 256 312 383 450
#     4  11  27  47  70 108 150 200 246 309 385 442
#     4  10  24  46  74  99 153 194 253 302 384 453
#     4  11  25  48  72 109 148 193 245 304 377 443
#
# _framework density 22.604277
#
# number of rings (size 3 to 8) (size 9 to 14) (size 15 to 20)
#    0.000    1.429    1.429    1.286   12.000    4.571 
#   10.286    0.000    0.000    0.000    0.000    0.000 
#    0.000    0.000    0.000    0.000    0.000    0.000 
#
# Total GULP energy -78273.672117 kJ/mol
# GULP energy per Si atom -5590.976580 kJ/mol
# Density = 2.255283 g / cm^3
# Si number density = 22.604277 Si / 1000 Ang^3
#
#
#
# Elastic Constant Matrix: (Units=GPa)
#
#
# Indices 1 2 3 4 5 6 
#
# 1 151.8743 58.3224 99.7286 34.3511 3.3034 -4.2546
# 2 58.3224 71.9593 41.3274 17.0946 8.9867 -18.1873
# 3 99.7286 41.3274 198.2910 33.3741 13.8795 -6.9931
# 4 34.3511 17.0946 33.3741 41.3663 -5.2877 -3.4330
# 5 3.3034 8.9867 13.8795 -5.2877 57.4213 2.1388
# 6 -4.2546 -18.1873 -6.9931 -3.4330 2.1388 47.5914
#
#
#
# Elastic Compliance Matrix: (Units=1/GPa)
#
#
# Indices 1 2 3 4 5 6 
#
# 1 0.013674 -0.008349 -0.004623 -0.004252 0.001358 -0.003015
# 2 -0.008349 0.023786 0.000305 -0.002948 -0.003899 0.008351
# 3 -0.004623 0.000305 0.007960 -0.002902 -0.002001 0.000754
# 4 -0.004252 -0.002948 -0.002902 0.031832 0.004333 0.000168
# 5 0.001358 -0.003899 -0.002001 0.004333 0.018912 -0.002200
# 6 -0.003015 0.008351 0.000754 0.000168 -0.002200 0.024156
#
#
# Mechanical properties :
#
#
# Convention : Reuss Voigt Hill
#
# Bulk Modulus (GPa) = 49.78578 91.20903 70.49741
# Shear Modulus (GPa) = 32.81942 44.12557 38.47249
#
# Velocity S-wave (km/s) = 3.81453 4.42304 4.13001
# Velocity P-wave (km/s) = 6.44000 8.15612 7.34833
#
# Compressibility (1/GPa) = 0.02008606
#
# Stress axis : x y z
#
# Youngs Moduli (GPa) = 73.13215 42.04092 125.63427
#
# Poissons Ratio (x) = 0.35101 0.58079
# Poissons Ratio (y) = 0.61060 -0.03835
# Poissons Ratio (z) = 0.33808 -0.01283
#
# Static dielectric constant tensor:
#      x y z
#    x 1.851220 0.031830 -0.033080 
#    y 0.031830 1.889430 -0.040950 
#    z -0.033080 -0.040950 1.913710 
# 
# From -- ./inp_files/78026.got.cif
#   From: 2010.05.17/outbox.cif.g08.bks.cpg/sg2_40_cif.got.tgz:78026.got - 2010.06.03 11:33:40.
