data_PCOD9035320
_publ_section_title
;
Structure prediction by ZEFSAII (Michael W. Deem and Ramdas Pophale) SiO2 
 PCOD9035320
Probable space group: P -1
;
_chemical_formula_sum "Si O2"
_cell_formula_units_Z 14
_cell_length_a 5.033316
_cell_length_b 8.735175
_cell_length_c 15.775221
_cell_angle_alpha 88.405878
_cell_angle_beta 85.521561
_cell_angle_gamma 50.378613
_cell_volume 532.403961
_symmetry_space_group_name_H-M "P -1"
_symmetry_group_IT_number 2
_symmetry_cell_setting 'triclinic'
loop_
_space_group_symop_operation_xyz
x,y,z
-x,-y,-z
loop_
_atom_site_type_symbol
_atom_site_label
_atom_site_fract_x
_atom_site_fract_y
_atom_site_fract_z
Si Si1 0.326784 0.176210 0.810845
Si Si2 0.892610 0.384412 0.965265
Si Si3 0.884573 0.939309 0.926534
Si Si4 0.793101 0.023477 0.645426
Si Si5 0.038296 0.382893 0.353679
Si Si6 0.690716 0.399170 0.585606
Si Si7 0.369679 0.810618 0.780321
O O1 0.626707 0.122207 0.867644
O O2 0.448419 0.161782 0.711618
O O3 0.359315 0.981785 0.819301
O O4 0.972970 0.346571 0.863537
O O5 0.181683 0.182183 0.013175
O O6 0.500000 0.500000 0.000000
O O7 0.000000 0.500000 0.000000
O O8 0.808326 0.225319 0.143449
O O9 0.000000 0.000000 0.000000
O O10 0.829681 0.170809 0.589579
O O11 0.113879 0.907548 0.704175
O O12 0.808184 0.840422 0.611449
O O13 0.092128 0.523607 0.402973
O O14 0.638702 0.490512 0.345144
O O15 0.250614 0.341603 0.264689
O O16 0.500000 0.500000 0.500000
#
# Coordination Sequence:
#
# PCOD9035320 Si02
#       7
#     2   2   2   2   2   2   2
#     4  10  23  43  68  94 133 193 235 288 369 424
#     4  12  27  40  59  99 135 171 232 298 352 409
#     4  11  22  42  69  91 133 187 235 288 352 419
#     4  10  25  48  76 104 149 193 242 303 361 436
#     4  11  25  49  72 113 146 190 251 283 368 444
#     4  12  28  48  78 114 150 190 237 301 368 436
#     4  10  22  45  73  99 137 193 244 295 357 428
#
# _framework density 26.295826000000002
#
# number of rings (size 3 to 8) (size 9 to 14) (size 15 to 20)
#    0.000    1.143    2.857    1.714    8.000    3.429 
#    0.000    0.000    0.000    0.000    0.000    0.000 
#    0.000    0.000    0.000    0.000    0.000    0.000 
#
# Total GULP energy -77999.860940 kJ/mol
# GULP energy per Si atom -5571.418639 kJ/mol
# Density = 2.623598 g / cm^3
# Si number density = 26.295826 Si / 1000 Ang^3
#
#
#
# Elastic Constant Matrix: (Units=GPa)
#
#
# Indices 1 2 3 4 5 6 
#
# 1 108.9751 22.4129 1.9896 4.5678 0.2225 7.5499
# 2 22.4129 139.2766 23.4730 -24.0128 6.0969 35.0395
# 3 1.9896 23.4730 39.6478 -27.2396 -1.8244 4.9421
# 4 4.5678 -24.0128 -27.2396 42.8325 -4.8161 -8.3702
# 5 0.2225 6.0969 -1.8244 -4.8161 45.1461 14.5041
# 6 7.5499 35.0395 4.9421 -8.3702 14.5041 58.0734
#
#
#
# Elastic Compliance Matrix: (Units=1/GPa)
#
#
# Indices 1 2 3 4 5 6 
#
# 1 0.009720 -0.001698 -0.001524 -0.003067 -0.000033 -0.000543
# 2 -0.001698 0.009711 -0.003174 0.002664 0.000494 -0.005108
# 3 -0.001524 -0.003174 0.047440 0.029331 0.005156 0.001016
# 4 -0.003067 0.002664 0.029331 0.044682 0.005141 0.001452
# 5 -0.000033 0.000494 0.005156 0.005141 0.024830 -0.006193
# 6 -0.000543 -0.005108 0.001016 0.001452 -0.006193 0.022041
#
#
# Mechanical properties :
#
#
# Convention : Reuss Voigt Hill
#
# Bulk Modulus (GPa) = 18.49164 42.62784 30.55974
# Shear Modulus (GPa) = 26.42101 45.21200 35.81651
#
# Velocity S-wave (km/s) = 3.17323 4.15102 3.69461
# Velocity P-wave (km/s) = 4.52474 6.26264 5.46324
#
# Compressibility (1/GPa) = 0.05407849
#
# Stress axis : x y z
#
# Youngs Moduli (GPa) = 102.88335 102.97734 21.07915
#
# Poissons Ratio (x) = 0.17486 0.03212
# Poissons Ratio (y) = 0.17470 0.06692
# Poissons Ratio (z) = 0.15676 0.32690
#
# Static dielectric constant tensor:
#      x y z
#    x 2.254510 -0.015240 -0.092440 
#    y -0.015240 2.119980 0.025230 
#    z -0.092440 0.025230 2.055020 
# 
# From -- ./inp_files/547222.got.cif
#   From: 2010.05.17/outbox.cif.g08.bks.cpg/sg2_274_cif.got.tgz:547222.got - 2010.06.03 11:33:40.
