data_PCOD9035680
_publ_section_title
;
Structure prediction by ZEFSAII (Michael W. Deem and Ramdas Pophale) SiO2 
 PCOD9035680
Probable space group: P -1
;
_chemical_formula_sum "Si O2"
_cell_formula_units_Z 15
_cell_length_a 8.532867
_cell_length_b 8.983217
_cell_length_c 14.838140
_cell_angle_alpha 100.858344
_cell_angle_beta 58.183458
_cell_angle_gamma 131.084688
_cell_volume 705.936121
_symmetry_space_group_name_H-M "P -1"
_symmetry_group_IT_number 2
_symmetry_cell_setting 'triclinic'
loop_
_space_group_symop_operation_xyz
x,y,z
-x,-y,-z
loop_
_atom_site_type_symbol
_atom_site_label
_atom_site_fract_x
_atom_site_fract_y
_atom_site_fract_z
Si Si1 0.204164 0.974576 0.583715
Si Si2 0.364239 0.185495 0.742738
Si Si3 0.256671 0.065378 0.282813
Si Si4 0.652525 0.427665 0.441534
Si Si5 0.000000 0.000000 0.000000
Si Si6 0.222016 0.908016 0.078117
Si Si7 0.262328 0.483696 0.776902
Si Si8 0.166173 0.744309 0.412707
O O1 0.236734 0.007709 0.685145
O O2 0.446894 0.190361 0.496318
O O3 0.188334 0.809369 0.516785
O O4 0.958074 0.933006 0.628081
O O5 0.345207 0.351829 0.738973
O O6 0.647649 0.288085 0.671510
O O7 0.223391 0.092651 0.868866
O O8 0.519900 0.294490 0.223262
O O9 0.192841 0.962296 0.192948
O O10 0.249995 0.931184 0.344706
O O11 0.500000 0.500000 0.500000
O O12 0.761975 0.476319 0.313818
O O13 0.882118 0.558170 0.453957
O O14 0.157561 0.994597 0.031173
O O15 0.003848 0.661927 0.110293
O O16 0.500000 0.000000 0.000000
#
# Coordination Sequence:
#
# PCOD9035680 Si02
#       8
#     2   2   2   2   1   2   2   2
#     4  12  23  41  65  99 135 179 219 270 341 414
#     4  11  24  45  63  96 135 176 222 281 346 392
#     4  12  22  42  70  98 129 180 226 269 343 409
#     4  12  20  40  64  94 132 177 217 265 332 409
#     4  10  22  46  70  90 134 178 226 286 332 398
#     4  11  23  45  74  97 134 183 231 288 341 400
#     4  11  23  42  66  98 133 171 225 277 337 415
#     4  12  24  38  68 100 134 176 220 279 336 412
#
# _framework density 21.248380999999998
#
# number of rings (size 3 to 8) (size 9 to 14) (size 15 to 20)
#    0.000    0.533    8.000    2.400    0.000    1.067 
#    2.400    2.667    0.000    0.000    0.000    0.000 
#    0.000    0.000    0.000    0.000    0.000    0.000 
#
# Total GULP energy -83650.097796 kJ/mol
# GULP energy per Si atom -5576.673186 kJ/mol
# Density = 2.120002 g / cm^3
# Si number density = 21.248381 Si / 1000 Ang^3
#
#
#
# Elastic Constant Matrix: (Units=GPa)
#
#
# Indices 1 2 3 4 5 6 
#
# 1 95.1245 39.8119 29.7862 -19.5724 -21.6922 15.5913
# 2 39.8119 115.6592 34.6781 -19.4289 -1.4104 29.7235
# 3 29.7862 34.6781 103.2731 -25.3320 3.4158 -2.8057
# 4 -19.5724 -19.4289 -25.3320 24.3567 10.6704 -7.9298
# 5 -21.6922 -1.4104 3.4158 10.6704 61.8148 -6.5244
# 6 15.5913 29.7235 -2.8057 -7.9298 -6.5244 28.7857
#
#
#
# Elastic Compliance Matrix: (Units=1/GPa)
#
#
# Indices 1 2 3 4 5 6 
#
# 1 0.014820 -0.002713 -0.002589 0.004100 0.004216 -0.003393
# 2 -0.002713 0.014673 -0.004045 0.001677 -0.002172 -0.014106
# 3 -0.002589 -0.004045 0.016347 0.016875 -0.003657 0.010992
# 4 0.004100 0.001677 0.016875 0.072806 -0.010398 0.015392
# 5 0.004216 -0.002172 -0.003657 -0.010398 0.019732 0.001211
# 6 -0.003393 -0.014106 0.010992 0.015392 0.001211 0.056729
#
#
# Mechanical properties :
#
#
# Convention : Reuss Voigt Hill
#
# Bulk Modulus (GPa) = 36.83740 58.06770 47.45255
# Shear Modulus (GPa) = 22.43668 36.97682 29.70675
#
# Velocity S-wave (km/s) = 3.25302 4.17612 3.74314
# Velocity P-wave (km/s) = 5.61104 7.11623 6.40798
#
# Compressibility (1/GPa) = 0.02714632
#
# Stress axis : x y z
#
# Youngs Moduli (GPa) = 67.47701 68.15256 61.17339
#
# Poissons Ratio (x) = 0.18488 0.15840
# Poissons Ratio (y) = 0.18304 0.24743
# Poissons Ratio (z) = 0.17472 0.27566
#
# Static dielectric constant tensor:
#      x y z
#    x 1.795740 0.006140 -0.004740 
#    y 0.006140 1.776870 0.012840 
#    z -0.004740 0.012840 1.753190 
# 
# From -- ./inp_files/493344.got.cif
#   From: 2010.05.17/outbox.cif.g08.bks.cpg/sg2_247_cif.got.tgz:493344.got - 2010.06.03 11:33:40.
