data_PCOD9035342
_publ_section_title
;
Structure prediction by ZEFSAII (Michael W. Deem and Ramdas Pophale) SiO2 
 PCOD9035342
Probable space group: P -1
;
_chemical_formula_sum "Si O2"
_cell_formula_units_Z 14
_cell_length_a 11.528507
_cell_length_b 9.606521
_cell_length_c 8.825895
_cell_angle_alpha 96.065582
_cell_angle_beta 56.969844
_cell_angle_gamma 132.222243
_cell_volume 550.802501
_symmetry_space_group_name_H-M "P -1"
_symmetry_group_IT_number 2
_symmetry_cell_setting 'triclinic'
loop_
_space_group_symop_operation_xyz
x,y,z
-x,-y,-z
loop_
_atom_site_type_symbol
_atom_site_label
_atom_site_fract_x
_atom_site_fract_y
_atom_site_fract_z
Si Si1 0.841465 0.699630 0.188121
Si Si2 0.288233 0.668815 0.901115
Si Si3 0.632443 0.976534 0.482241
Si Si4 0.298027 0.163087 0.861968
Si Si5 0.064046 0.418019 0.336248
Si Si6 0.064829 0.197918 0.542036
Si Si7 0.330976 0.972042 0.037343
O O1 0.708657 0.677609 0.149668
O O2 0.820998 0.519222 0.156750
O O3 0.795952 0.703081 0.395556
O O4 0.065755 0.935401 0.033361
O O5 0.250366 0.806918 0.944039
O O6 0.000000 0.500000 0.500000
O O7 0.208822 0.566889 0.111287
O O8 0.855093 0.201160 0.387827
O O9 0.522318 0.838525 0.696685
O O10 0.500000 0.000000 0.500000
O O11 0.638727 0.858126 0.343164
O O12 0.413153 0.172249 0.918613
O O13 0.156282 0.363332 0.366372
O O14 0.000000 0.000000 0.500000
O O15 0.857920 0.124738 0.734954
O O16 0.500000 0.000000 0.000000
#
# Coordination Sequence:
#
# PCOD9035342 Si02
#       7
#     2   2   2   2   2   2   2
#     4  10  24  46  77 107 143 198 256 301 377 457
#     4  12  26  45  76 111 146 195 260 302 379 457
#     4  12  26  42  75 107 152 190 250 316 370 446
#     4  10  22  45  74 104 144 195 248 309 374 446
#     4  12  27  46  75 107 153 198 250 313 380 444
#     4  11  25  45  76 108 150 198 247 310 383 456
#     4  11  24  44  72 108 151 191 247 315 378 445
#
# _framework density 25.417460999999999
#
# number of rings (size 3 to 8) (size 9 to 14) (size 15 to 20)
#    0.000    0.857    4.286    1.714    6.000    3.429 
#    0.000    0.714    0.000    0.000    0.000    0.000 
#    0.000    0.000    0.000    0.000    0.000    0.000 
#
# Total GULP energy -78288.268884 kJ/mol
# GULP energy per Si atom -5592.019206 kJ/mol
# Density = 2.535961 g / cm^3
# Si number density = 25.417461 Si / 1000 Ang^3
#
#
#
# Elastic Constant Matrix: (Units=GPa)
#
#
# Indices 1 2 3 4 5 6 
#
# 1 113.8177 8.7157 0.7790 -25.0847 22.4797 -7.6526
# 2 8.7157 84.8445 9.0341 -8.0322 -3.0513 5.6140
# 3 0.7790 9.0341 145.9388 -34.5248 17.8917 5.5060
# 4 -25.0847 -8.0322 -34.5248 48.7306 -6.2892 0.6672
# 5 22.4797 -3.0513 17.8917 -6.2892 31.0547 -5.1128
# 6 -7.6526 5.6140 5.5060 0.6672 -5.1128 29.6321
#
#
#
# Elastic Compliance Matrix: (Units=1/GPa)
#
#
# Indices 1 2 3 4 5 6 
#
# 1 0.012210 -0.001297 0.002672 0.006795 -0.008930 0.001209
# 2 -0.001297 0.012339 -0.000685 0.001225 0.002439 -0.002152
# 3 0.002672 -0.000685 0.009434 0.007157 -0.006348 -0.002190
# 4 0.006795 0.001225 0.007157 0.028888 -0.003239 -0.001016
# 5 -0.008930 0.002439 -0.006348 -0.003239 0.042874 0.005882
# 6 0.001209 -0.002152 -0.002190 -0.001016 0.005882 0.035912
#
#
# Mechanical properties :
#
#
# Convention : Reuss Voigt Hill
#
# Bulk Modulus (GPa) = 28.27800 42.40651 35.34225
# Shear Modulus (GPa) = 32.88112 43.62163 38.25137
#
# Velocity S-wave (km/s) = 3.60063 4.14721 3.88354
# Velocity P-wave (km/s) = 5.33250 6.29704 5.83473
#
# Compressibility (1/GPa) = 0.03536318
#
# Stress axis : x y z
#
# Youngs Moduli (GPa) = 81.90327 81.04708 105.99565
#
# Poissons Ratio (x) = 0.10508 -0.28320
# Poissons Ratio (y) = 0.10619 0.07259
# Poissons Ratio (z) = -0.21883 0.05550
#
# Static dielectric constant tensor:
#      x y z
#    x 2.161400 0.045260 0.038050 
#    y 0.045260 2.024070 -0.002890 
#    z 0.038050 -0.002890 2.034880 
# 
# From -- ./inp_files/252863.got.cif
#   From: 2010.05.17/outbox.cif.g08.bks.cpg/sg2_127_cif.got.tgz:252863.got - 2010.06.03 11:33:40.
