data_PCOD9035167
_publ_section_title
;
Structure prediction by ZEFSAII (Michael W. Deem and Ramdas Pophale) SiO2 
 PCOD9035167
Probable space group: P -1
;
_chemical_formula_sum "Si O2"
_cell_formula_units_Z 14
_cell_length_a 8.525737
_cell_length_b 15.250956
_cell_length_c 11.021342
_cell_angle_alpha 124.998746
_cell_angle_beta 57.820267
_cell_angle_gamma 146.282374
_cell_volume 646.765573
_symmetry_space_group_name_H-M "P -1"
_symmetry_group_IT_number 2
_symmetry_cell_setting 'triclinic'
loop_
_space_group_symop_operation_xyz
x,y,z
-x,-y,-z
loop_
_atom_site_type_symbol
_atom_site_label
_atom_site_fract_x
_atom_site_fract_y
_atom_site_fract_z
Si Si1 0.419476 0.640460 0.672004
Si Si2 0.684214 0.314907 0.996772
Si Si3 0.096788 0.285194 0.583675
Si Si4 0.897005 0.845385 0.288747
Si Si5 0.182427 0.114408 0.897908
Si Si6 0.481735 0.039745 0.699891
Si Si7 0.505191 0.819590 0.572816
O O1 0.425849 0.718160 0.848086
O O2 0.211120 0.452514 0.641549
O O3 0.718205 0.715887 0.572930
O O4 0.326424 0.666327 0.613528
O O5 0.475105 0.288047 0.971530
O O6 0.625919 0.168264 0.857343
O O7 0.000000 0.500000 0.000000
O O8 0.151139 0.274130 0.693033
O O9 0.759922 0.137738 0.582698
O O10 0.922826 0.854245 0.139899
O O11 0.629618 0.806049 0.399181
O O12 0.199084 0.023752 0.352993
O O13 0.262882 0.033738 0.743994
O O14 0.000000 0.000000 0.000000
O O15 0.363867 0.871760 0.647312
#
# Coordination Sequence:
#
# PCOD9035167 Si02
#       7
#     2   2   2   2   2   2   2
#     4  10  17  32  58  82 109 141 201 229 274 327
#     4  10  20  36  57  79 117 156 185 229 288 345
#     4   9  18  34  59  82 104 156 194 235 270 347
#     4   9  18  35  54  82 118 140 191 237 292 323
#     4  10  21  36  56  86 120 150 185 243 285 340
#     4   9  20  35  55  84 111 150 193 223 298 330
#     4   9  18  33  58  84 107 152 187 243 274 343
#
# _framework density 21.646173999999998
#
# number of rings (size 3 to 8) (size 9 to 14) (size 15 to 20)
#    0.857    1.714    1.429    1.714    0.000    1.143 
#    2.571    0.714    0.000   24.857    0.000    0.000 
#    0.000    0.000    0.000    0.000    0.000    0.000 
#
# Total GULP energy -77958.567357 kJ/mol
# GULP energy per Si atom -5568.469097 kJ/mol
# Density = 2.159691 g / cm^3
# Si number density = 21.646174 Si / 1000 Ang^3
#
#
#
# Elastic Constant Matrix: (Units=GPa)
#
#
# Indices 1 2 3 4 5 6 
#
# 1 58.6446 37.6171 12.3495 -16.0872 10.8964 -22.6193
# 2 37.6171 99.7775 16.9425 -15.8941 15.1220 -32.4978
# 3 12.3495 16.9425 88.9435 -23.4094 5.7129 -12.7448
# 4 -16.0872 -15.8941 -23.4094 28.6496 -7.8177 3.7081
# 5 10.8964 15.1220 5.7129 -7.8177 35.7386 -0.8233
# 6 -22.6193 -32.4978 -12.7448 3.7081 -0.8233 42.9577
#
#
#
# Elastic Compliance Matrix: (Units=1/GPa)
#
#
# Indices 1 2 3 4 5 6 
#
# 1 0.027853 -0.004938 0.002008 0.012151 -0.003826 0.010404
# 2 -0.004938 0.016147 0.000277 0.004046 -0.004272 0.009266
# 3 0.002008 0.000277 0.014968 0.012861 -0.000203 0.004593
# 4 0.012151 0.004046 0.012861 0.054638 0.004679 0.008648
# 5 -0.003826 -0.004272 -0.000203 0.004679 0.031894 -0.005100
# 6 0.010404 0.009266 0.004593 0.008648 -0.005100 0.036285
#
#
# Mechanical properties :
#
#
# Convention : Reuss Voigt Hill
#
# Bulk Modulus (GPa) = 18.63518 42.35377 30.49447
# Shear Modulus (GPa) = 24.39275 33.49962 28.94618
#
# Velocity S-wave (km/s) = 3.36055 3.93822 3.66080
# Velocity P-wave (km/s) = 4.86677 6.34731 5.65569
#
# Compressibility (1/GPa) = 0.05366196
#
# Stress axis : x y z
#
# Youngs Moduli (GPa) = 35.90239 61.93088 66.81021
#
# Poissons Ratio (x) = 0.30581 -0.13414
# Poissons Ratio (y) = 0.17728 -0.01851
# Poissons Ratio (z) = -0.07208 -0.01716
#
# Static dielectric constant tensor:
#      x y z
#    x 1.826950 0.004390 0.001740 
#    y 0.004390 1.812560 -0.003550 
#    z 0.001740 -0.003550 1.863580 
# 
# From -- ./inp_files/394328.got.cif
#   From: 2010.05.17/outbox.cif.g08.bks.cpg/sg2_198_cif.got.tgz:394328.got - 2010.06.03 11:33:40.
