data_PCOD9035366
_publ_section_title
;
Structure prediction by ZEFSAII (Michael W. Deem and Ramdas Pophale) SiO2 
 PCOD9035366
Probable space group: P -1
;
_chemical_formula_sum "Si O2"
_cell_formula_units_Z 16
_cell_length_a 7.599142
_cell_length_b 21.460374
_cell_length_c 7.365661
_cell_angle_alpha 51.638582
_cell_angle_beta 57.187582
_cell_angle_gamma 39.581313
_cell_volume 595.257361
_symmetry_space_group_name_H-M "P -1"
_symmetry_group_IT_number 2
_symmetry_cell_setting 'triclinic'
loop_
_space_group_symop_operation_xyz
x,y,z
-x,-y,-z
loop_
_atom_site_type_symbol
_atom_site_label
_atom_site_fract_x
_atom_site_fract_y
_atom_site_fract_z
Si Si1 0.502570 0.012281 0.697977
Si Si2 0.075721 0.261779 0.487643
Si Si3 0.889861 0.115748 0.390955
Si Si4 0.160330 0.298686 0.972459
Si Si5 0.405095 0.558169 0.142606
Si Si6 0.716473 0.085595 0.902278
Si Si7 0.531566 0.627932 0.428504
Si Si8 0.382359 0.337947 0.260602
O O1 0.340189 0.136298 0.594715
O O2 0.500000 0.000000 0.500000
O O3 0.824161 0.911355 0.734332
O O4 0.357397 0.986833 0.960551
O O5 0.142246 0.331301 0.413145
O O6 0.781914 0.289472 0.630301
O O7 0.058676 0.291247 0.233457
O O8 0.778183 0.130899 0.627983
O O9 0.639353 0.221977 0.242640
O O10 0.000000 0.000000 0.500000
O O11 0.457490 0.184748 0.975288
O O12 0.235112 0.373909 0.789105
O O13 0.917832 0.337699 0.895365
O O14 0.415009 0.479795 0.408339
O O15 0.500000 0.500000 0.000000
O O16 0.606005 0.584093 0.005268
O O17 0.000000 0.000000 0.000000
O O18 0.553038 0.649492 0.591355
#
# Coordination Sequence:
#
# PCOD9035366 Si02
#       8
#     2   2   2   2   2   2   2   2
#     4  12  22  39  66  92 135 181 224 274 337 402
#     4  12  24  43  67 102 137 182 226 286 344 407
#     4  12  24  44  62  99 140 176 224 283 337 403
#     4  12  22  43  74  98 136 184 230 284 348 412
#     4  10  22  45  74  98 133 187 226 286 357 404
#     4  12  24  39  69 100 133 186 230 273 342 416
#     4  11  24  47  70  99 138 177 233 286 346 413
#     4  11  23  45  68  98 141 179 227 285 343 410
#
# _framework density 26.879131000000001
#
# number of rings (size 3 to 8) (size 9 to 14) (size 15 to 20)
#    0.000    0.500    7.500    2.625    0.000    1.000 
#    2.250    0.625    0.000    0.000    0.000    0.000 
#    0.000    0.000    0.000    0.000    0.000    0.000 
#
# Total GULP energy -89427.787552 kJ/mol
# GULP energy per Si atom -5589.236722 kJ/mol
# Density = 2.681795 g / cm^3
# Si number density = 26.879131 Si / 1000 Ang^3
#
#
#
# Elastic Constant Matrix: (Units=GPa)
#
#
# Indices 1 2 3 4 5 6 
#
# 1 107.2015 11.0679 0.9369 10.6585 -22.2006 1.3087
# 2 11.0679 84.2309 9.0808 -8.5690 4.2949 -5.7364
# 3 0.9369 9.0808 111.4459 -9.8337 -32.3753 1.5082
# 4 10.6585 -8.5690 -9.8337 48.3563 0.5335 -17.5704
# 5 -22.2006 4.2949 -32.3753 0.5335 41.7436 0.1581
# 6 1.3087 -5.7364 1.5082 -17.5704 0.1581 34.6095
#
#
#
# Elastic Compliance Matrix: (Units=1/GPa)
#
#
# Indices 1 2 3 4 5 6 
#
# 1 0.011739 -0.002800 0.002258 -0.003796 0.008342 -0.002972
# 2 -0.002800 0.013451 -0.002079 0.004313 -0.004558 0.004636
# 3 0.002258 -0.002079 0.012470 0.001442 0.011069 -0.000292
# 4 -0.003796 0.004313 0.001442 0.028062 -0.001760 0.015050
# 5 0.008342 -0.004558 0.011069 -0.001760 0.037479 -0.002618
# 6 -0.002972 0.004636 -0.000292 0.015050 -0.002618 0.037440
#
#
# Mechanical properties :
#
#
# Convention : Reuss Voigt Hill
#
# Bulk Modulus (GPa) = 30.84596 38.33883 34.59239
# Shear Modulus (GPa) = 31.91063 43.72808 37.81935
#
# Velocity S-wave (km/s) = 3.44930 4.03779 3.75509
# Velocity P-wave (km/s) = 5.23109 6.00272 5.63014
#
# Compressibility (1/GPa) = 0.03241916
#
# Stress axis : x y z
#
# Youngs Moduli (GPa) = 85.18673 74.34370 80.19182
#
# Poissons Ratio (x) = 0.20815 -0.18109
# Poissons Ratio (y) = 0.23851 0.16670
# Poissons Ratio (z) = -0.19237 0.15454
#
# Static dielectric constant tensor:
#      x y z
#    x 2.157940 0.405310 -0.002910 
#    y 0.405310 2.410220 -0.134920 
#    z -0.002910 -0.134920 2.072470 
# 
# From -- ./inp_files/226093.got.cif
#   From: 2010.05.17/outbox.cif.g08.bks.cpg/sg2_114_cif.got.tgz:226093.got - 2010.06.03 11:33:40.
