data_PCOD9035826
_publ_section_title
;
Structure prediction by ZEFSAII (Michael W. Deem and Ramdas Pophale) SiO2 
 PCOD9035826
Probable space group: P -1
;
_chemical_formula_sum "Si O2"
_cell_formula_units_Z 12
_cell_length_a 14.170821
_cell_length_b 9.334895
_cell_length_c 9.006354
_cell_angle_alpha 87.287211
_cell_angle_beta 48.010841
_cell_angle_gamma 126.208203
_cell_volume 482.259217
_symmetry_space_group_name_H-M "P -1"
_symmetry_group_IT_number 2
_symmetry_cell_setting 'triclinic'
loop_
_space_group_symop_operation_xyz
x,y,z
-x,-y,-z
loop_
_atom_site_type_symbol
_atom_site_label
_atom_site_fract_x
_atom_site_fract_y
_atom_site_fract_z
Si Si1 0.425364 0.015735 0.429433
Si Si2 0.131754 0.490172 0.702487
Si Si3 0.799572 0.231786 0.816959
Si Si4 0.210530 0.266221 0.172764
Si Si5 0.518498 0.294095 0.915825
Si Si6 0.649519 0.506274 0.282829
O O1 0.463558 0.217400 0.420591
O O2 0.500000 0.000000 0.500000
O O3 0.176052 0.701830 0.678800
O O4 0.602494 0.145553 0.102306
O O5 0.195139 0.439477 0.768344
O O6 0.902274 0.253046 0.856705
O O7 0.332391 0.642873 0.367039
O O8 0.000000 0.500000 0.500000
O O9 0.694070 0.015763 0.824896
O O10 0.412793 0.338990 0.958751
O O11 0.314009 0.498708 0.140280
O O12 0.174637 0.273210 0.040868
O O13 0.000000 0.000000 0.500000
O O14 0.500000 0.500000 0.500000
#
# Coordination Sequence:
#
# PCOD9035826 Si02
#       6
#     2   2   2   2   2   2
#     4   9  23  43  69 101 145 180 234 296 356 421
#     4  10  22  46  73 102 145 184 235 296 361 432
#     4  11  25  42  76 107 138 189 244 291 361 426
#     4  11  24  43  73 104 143 187 240 294 358 424
#     4  10  23  44  69 102 147 178 235 305 349 424
#     4  11  23  45  74 103 143 195 234 295 363 419
#
# _framework density 24.882883
#
# number of rings (size 3 to 8) (size 9 to 14) (size 15 to 20)
#    0.000    1.667    1.667    1.000    7.000    4.000 
#    0.000   13.333    0.000    0.000    0.000    0.000 
#    0.000    0.000    0.000    0.000    0.000    0.000 
#
# Total GULP energy -67085.428515 kJ/mol
# GULP energy per Si atom -5590.452376 kJ/mol
# Density = 2.482625 g / cm^3
# Si number density = 24.882883 Si / 1000 Ang^3
#
#
#
# Elastic Constant Matrix: (Units=GPa)
#
#
# Indices 1 2 3 4 5 6 
#
# 1 137.7858 51.0970 42.5605 -2.8007 14.6781 5.1730
# 2 51.0970 171.7763 61.7867 -9.6242 12.0348 -16.7953
# 3 42.5605 61.7867 104.9610 -12.8253 23.8381 -7.4816
# 4 -2.8007 -9.6242 -12.8253 28.1552 -3.2264 -6.7742
# 5 14.6781 12.0348 23.8381 -3.2264 34.7584 -1.1300
# 6 5.1730 -16.7953 -7.4816 -6.7742 -1.1300 39.5859
#
#
#
# Elastic Compliance Matrix: (Units=1/GPa)
#
#
# Indices 1 2 3 4 5 6 
#
# 1 0.009043 -0.002056 -0.002512 -0.001831 -0.001648 -0.002889
# 2 -0.002056 0.008128 -0.003687 0.001799 0.000859 0.003353
# 3 -0.002512 -0.003687 0.015220 0.005111 -0.007552 0.002299
# 4 -0.001831 0.001799 0.005111 0.040504 0.000695 0.008920
# 5 -0.001648 0.000859 -0.007552 0.000695 0.034420 0.000254
# 6 -0.002889 0.003353 0.002299 0.008920 0.000254 0.029030
#
#
# Mechanical properties :
#
#
# Convention : Reuss Voigt Hill
#
# Bulk Modulus (GPa) = 62.97056 80.60129 71.78593
# Shear Modulus (GPa) = 31.61596 37.77182 34.69389
#
# Velocity S-wave (km/s) = 3.56840 3.90036 3.73807
# Velocity P-wave (km/s) = 6.50690 7.26267 6.89514
#
# Compressibility (1/GPa) = 0.01588044
#
# Stress axis : x y z
#
# Youngs Moduli (GPa) = 110.58505 123.03506 65.70415
#
# Poissons Ratio (x) = 0.25296 0.16504
# Poissons Ratio (y) = 0.22737 0.24225
# Poissons Ratio (z) = 0.27778 0.45363
#
# Static dielectric constant tensor:
#      x y z
#    x 2.006060 0.039920 -0.003450 
#    y 0.039920 2.041510 -0.028840 
#    z -0.003450 -0.028840 1.980600 
# 
# From -- ./inp_files/36971.got.cif
#   From: 2010.05.17/outbox.cif.g08.bks.cpg/sg2_19_cif.got.tgz:36971.got - 2010.06.03 11:33:40.
