data_PCOD9035611
_publ_section_title
;
Structure prediction by ZEFSAII (Michael W. Deem and Ramdas Pophale) SiO2 
 PCOD9035611
Probable space group: P -1
;
_chemical_formula_sum "Si O2"
_cell_formula_units_Z 13
_cell_length_a 8.021495
_cell_length_b 5.145628
_cell_length_c 13.936612
_cell_angle_alpha 71.347756
_cell_angle_beta 76.650345
_cell_angle_gamma 98.411473
_cell_volume 514.962146
_symmetry_space_group_name_H-M "P -1"
_symmetry_group_IT_number 2
_symmetry_cell_setting 'triclinic'
loop_
_space_group_symop_operation_xyz
x,y,z
-x,-y,-z
loop_
_atom_site_type_symbol
_atom_site_label
_atom_site_fract_x
_atom_site_fract_y
_atom_site_fract_z
Si Si1 0.066381 0.121172 0.226680
Si Si2 0.909673 0.756687 0.465977
Si Si3 0.087969 0.345885 0.830274
Si Si4 0.500000 0.500000 0.500000
Si Si5 0.619432 0.425132 0.868969
Si Si6 0.566302 0.811826 0.258208
Si Si7 0.721374 0.397217 0.061683
O O1 0.272438 0.252838 0.195204
O O2 0.987677 0.393021 0.225833
O O3 0.976528 0.884440 0.339613
O O4 0.022840 0.958707 0.151629
O O5 0.697093 0.658431 0.500809
O O6 0.000000 0.500000 0.500000
O O7 0.000000 0.000000 0.500000
O O8 0.285134 0.366799 0.759991
O O9 0.111816 0.403835 0.933050
O O10 0.520041 0.751189 0.382506
O O11 0.594783 0.290588 0.783102
O O12 0.424456 0.419427 0.931026
O O13 0.714136 0.314938 0.960130
O O14 0.660924 0.123635 0.170316
#
# Coordination Sequence:
#
# PCOD9035611 Si02
#       7
#     2   2   2   1   2   2   2
#     4  12  25  47  68 106 148 185 244 312 365 446
#     4  12  28  48  74 112 148 199 262 309 374 455
#     4  11  23  45  70  98 148 182 237 297 365 446
#     4  12  26  48  80 110 154 210 244 324 386 440
#     4  10  25  41  74 104 145 191 242 311 368 441
#     4  11  23  47  71 104 143 194 248 296 374 453
#     4  10  22  46  69 107 140 195 244 298 369 456
#
# _framework density 25.244574
#
# number of rings (size 3 to 8) (size 9 to 14) (size 15 to 20)
#    0.000    0.923    3.077    2.308    4.308    1.846 
#    0.000    0.000    0.000    0.000    0.000    0.000 
#    0.000    0.000    0.000    0.000    0.000    0.000 
#
# Total GULP energy -72392.492546 kJ/mol
# GULP energy per Si atom -5568.653273 kJ/mol
# Density = 2.518712 g / cm^3
# Si number density = 25.244574 Si / 1000 Ang^3
#
#
#
# Elastic Constant Matrix: (Units=GPa)
#
#
# Indices 1 2 3 4 5 6 
#
# 1 85.1509 51.8352 -7.9926 11.4903 7.0339 20.1595
# 2 51.8352 166.0000 29.1055 -2.4675 18.4862 29.7713
# 3 -7.9926 29.1055 137.2933 -13.5359 18.6223 3.3075
# 4 11.4903 -2.4675 -13.5359 34.3741 10.0398 15.7878
# 5 7.0339 18.4862 18.6223 10.0398 34.1213 -1.2837
# 6 20.1595 29.7713 3.3075 15.7878 -1.2837 54.6825
#
#
#
# Elastic Compliance Matrix: (Units=1/GPa)
#
#
# Indices 1 2 3 4 5 6 
#
# 1 0.015968 -0.004881 0.001715 -0.003825 -0.000542 -0.002241
# 2 -0.004881 0.009298 -0.000801 0.005919 -0.005526 -0.005053
# 3 0.001715 -0.000801 0.009161 0.006222 -0.006852 -0.002708
# 4 -0.003825 0.005919 0.006222 0.046506 -0.020103 -0.016087
# 5 -0.000542 -0.005526 -0.006852 -0.020103 0.042460 0.010424
# 6 -0.002241 -0.005053 -0.002708 -0.016087 0.010424 0.026918
#
#
# Mechanical properties :
#
#
# Convention : Reuss Voigt Hill
#
# Bulk Modulus (GPa) = 37.74568 59.37115 48.55842
# Shear Modulus (GPa) = 29.92645 45.66866 37.79756
#
# Velocity S-wave (km/s) = 3.44679 4.25791 3.87364
# Velocity P-wave (km/s) = 5.55202 6.90959 6.26767
#
# Compressibility (1/GPa) = 0.02649310
#
# Stress axis : x y z
#
# Youngs Moduli (GPa) = 62.62583 107.54631 109.15476
#
# Poissons Ratio (x) = 0.52497 -0.18717
# Poissons Ratio (y) = 0.30570 0.08738
# Poissons Ratio (z) = -0.10739 0.08610
#
# Static dielectric constant tensor:
#      x y z
#    x 2.077400 0.020650 0.027660 
#    y 0.020650 2.032230 0.105980 
#    z 0.027660 0.105980 2.047400 
# 
# From -- ./inp_files/486354.got.cif
#   From: 2010.05.17/outbox.cif.g08.bks.cpg/sg2_244_cif.got.tgz:486354.got - 2010.06.03 11:33:40.
