data_PCOD9035127
_publ_section_title
;
Structure prediction by ZEFSAII (Michael W. Deem and Ramdas Pophale) SiO2 
 PCOD9035127
Probable space group: P -1
;
_chemical_formula_sum "Si O2"
_cell_formula_units_Z 15
_cell_length_a 11.397182
_cell_length_b 11.344104
_cell_length_c 9.359534
_cell_angle_alpha 38.208103
_cell_angle_beta 101.219070
_cell_angle_gamma 80.680112
_cell_volume 627.585863
_symmetry_space_group_name_H-M "P -1"
_symmetry_group_IT_number 2
_symmetry_cell_setting 'triclinic'
loop_
_space_group_symop_operation_xyz
x,y,z
-x,-y,-z
loop_
_atom_site_type_symbol
_atom_site_label
_atom_site_fract_x
_atom_site_fract_y
_atom_site_fract_z
Si Si1 0.000000 0.500000 0.500000
Si Si2 0.133328 0.618548 0.158089
Si Si3 0.617080 0.534142 0.836372
Si Si4 0.841890 0.832610 0.796669
Si Si5 0.306386 0.754617 0.452618
Si Si6 0.661318 0.674695 0.025258
Si Si7 0.651617 0.049513 0.279139
Si Si8 0.177637 0.007806 0.896921
O O1 0.099446 0.523087 0.379162
O O2 0.056888 0.242444 0.703152
O O3 0.280432 0.468315 0.257328
O O4 0.006016 0.678491 0.961618
O O5 0.124797 0.850148 0.972346
O O6 0.456181 0.695369 0.604757
O O7 0.649611 0.590514 0.945632
O O8 0.638531 0.288191 0.078076
O O9 0.786761 0.722566 0.004570
O O10 0.806863 0.064660 0.638161
O O11 0.746569 0.890739 0.579955
O O12 0.307506 0.525077 0.671729
O O13 0.277364 0.865197 0.186955
O O14 0.508682 0.888686 0.816321
O O15 0.730605 0.968025 0.226680
#
# Coordination Sequence:
#
# PCOD9035127 Si02
#       8
#     1   2   2   2   2   2   2   2
#     4  12  26  48  66 100 140 190 224 288 356 410
#     4  11  28  45  67 104 146 184 230 291 344 423
#     4  10  22  45  71 105 142 182 233 292 346 408
#     4  12  24  42  71 102 140 192 234 273 357 407
#     4  11  23  46  72 102 138 188 234 283 356 411
#     4  11  23  41  75 106 141 182 230 298 336 417
#     4  10  22  46  71 106 142 181 234 295 343 409
#     4  11  27  47  73 100 146 180 235 293 348 417
#
# _framework density 23.901112999999999
#
# number of rings (size 3 to 8) (size 9 to 14) (size 15 to 20)
#    0.000    1.067    4.000    1.600    3.733    7.467 
#    0.000    1.333    0.000    0.000    0.000    0.000 
#    0.000    0.000    0.000    0.000    0.000    0.000 
#
# Total GULP energy -83819.476968 kJ/mol
# GULP energy per Si atom -5587.965131 kJ/mol
# Density = 2.384671 g / cm^3
# Si number density = 23.901113 Si / 1000 Ang^3
#
#
#
# Elastic Constant Matrix: (Units=GPa)
#
#
# Indices 1 2 3 4 5 6 
#
# 1 78.4108 3.8802 37.8970 21.0599 4.2088 -5.6091
# 2 3.8802 89.1344 25.0595 6.4832 3.5872 -13.7127
# 3 37.8970 25.0595 6.8905 -43.4772 -40.6535 -20.8851
# 4 21.0599 6.4832 -43.4772 -14.9845 -19.5529 -25.6739
# 5 4.2088 3.5872 -40.6535 -19.5529 33.0664 -4.0718
# 6 -5.6091 -13.7127 -20.8851 -25.6739 -4.0718 38.1606
#
#
#
# Elastic Compliance Matrix: (Units=1/GPa)
#
#
# Indices 1 2 3 4 5 6 
#
# 1 0.011726 -0.000043 -0.000404 0.005618 0.002012 0.005481
# 2 -0.000043 0.012685 -0.002942 0.005016 -0.001260 0.006182
# 3 -0.000404 -0.002942 0.010916 -0.020047 0.000886 -0.008535
# 4 0.005618 0.005016 -0.020047 0.017796 -0.015135 0.002014
# 5 0.002012 -0.001260 0.000886 -0.015135 0.021329 -0.007579
# 6 0.005481 0.006182 -0.008535 0.002014 -0.007579 0.025107
#
#
# Mechanical properties :
#
#
# Convention : Reuss Voigt Hill
#
# Bulk Modulus (GPa) = 35.02804 34.23434 34.63119
# Shear Modulus (GPa) = 43.15752 18.42178 30.78965
#
# Velocity S-wave (km/s) = 4.25393 2.77925 3.59306
# Velocity P-wave (km/s) = 6.23018 4.96522 5.63332
#
# Compressibility (1/GPa) = 0.02854856
#
# Stress axis : x y z
#
# Youngs Moduli (GPa) = 85.28005 78.83354 91.60572
#
# Poissons Ratio (x) = 0.00340 0.03702
# Poissons Ratio (y) = 0.00368 0.26951
# Poissons Ratio (z) = 0.03447 0.23193
#
# Static dielectric constant tensor:
#      x y z
#    x 1.900890 0.027670 0.030140 
#    y 0.027670 1.869430 0.003810 
#    z 0.030140 0.003810 2.043850 
# 
# From -- ./inp_files/255884.got.cif
#   From: 2010.05.17/outbox.cif.g08.bks.cpg/sg2_128_cif.got.tgz:255884.got - 2010.06.03 11:33:40.
