data_PCOD9035914
_publ_section_title
;
Structure prediction by ZEFSAII (Michael W. Deem and Ramdas Pophale) SiO2 
 PCOD9035914
Probable space group: P -1
;
_chemical_formula_sum "Si O2"
_cell_formula_units_Z 13
_cell_length_a 8.709581
_cell_length_b 15.447781
_cell_length_c 11.433301
_cell_angle_alpha 31.621525
_cell_angle_beta 40.828320
_cell_angle_gamma 52.609361
_cell_volume 524.209452
_symmetry_space_group_name_H-M "P -1"
_symmetry_group_IT_number 2
_symmetry_cell_setting 'triclinic'
loop_
_space_group_symop_operation_xyz
x,y,z
-x,-y,-z
loop_
_atom_site_type_symbol
_atom_site_label
_atom_site_fract_x
_atom_site_fract_y
_atom_site_fract_z
Si Si1 0.965346 0.187483 0.340663
Si Si2 0.680015 0.665696 0.843864
Si Si3 0.500000 0.000000 0.500000
Si Si4 0.655406 0.311994 0.786789
Si Si5 0.963173 0.555219 0.199169
Si Si6 0.528943 0.960862 0.164988
Si Si7 0.986385 0.187890 0.916373
O O1 0.682891 0.177009 0.521587
O O2 0.095634 0.236507 0.329508
O O3 0.000000 0.000000 0.500000
O O4 0.061219 0.323510 0.034820
O O5 0.551913 0.802833 0.692229
O O6 0.795804 0.528442 0.862452
O O7 0.496159 0.604002 0.124618
O O8 0.229352 0.941001 0.767060
O O9 0.738953 0.418665 0.503638
O O10 0.897953 0.267047 0.758082
O O11 0.513391 0.133677 0.043987
O O12 0.972206 0.666481 0.180738
O O13 0.777512 0.900511 0.123329
O O14 0.500000 0.000000 0.000000
#
# Coordination Sequence:
#
# PCOD9035914 Si02
#       7
#     2   2   1   2   2   2   2
#     4  12  25  49  74 110 149 200 253 310 375 447
#     4  11  25  47  75 115 150 198 252 306 388 436
#     4  10  22  46  76 102 152 194 246 304 360 458
#     4  11  26  48  74 107 152 194 251 317 370 455
#     4  12  27  47  75 108 158 193 250 315 378 452
#     4  12  25  47  79 109 148 199 257 311 372 454
#     4  11  26  46  75 110 149 202 250 308 384 441
#
# _framework density 24.799246
#
# number of rings (size 3 to 8) (size 9 to 14) (size 15 to 20)
#    0.000    0.615    1.538    6.000    4.308    4.308 
#    2.769    0.000    0.000    0.000    0.000    0.000 
#    0.000    0.000    0.000    0.000    0.000    0.000 
#
# Total GULP energy -72620.010040 kJ/mol
# GULP energy per Si atom -5586.154618 kJ/mol
# Density = 2.474280 g / cm^3
# Si number density = 24.799246 Si / 1000 Ang^3
#
#
#
# Elastic Constant Matrix: (Units=GPa)
#
#
# Indices 1 2 3 4 5 6 
#
# 1 50.1004 -0.3469 11.0142 4.1501 -3.3345 -14.8168
# 2 -0.3469 129.1908 30.6455 4.6335 6.2851 -23.2879
# 3 11.0142 30.6455 125.7253 12.8768 -4.1948 -29.0707
# 4 4.1501 4.6335 12.8768 28.3755 -17.8908 -14.5871
# 5 -3.3345 6.2851 -4.1948 -17.8908 26.4440 -0.6711
# 6 -14.8168 -23.2879 -29.0707 -14.5871 -0.6711 47.6746
#
#
#
# Elastic Compliance Matrix: (Units=1/GPa)
#
#
# Indices 1 2 3 4 5 6 
#
# 1 0.022767 0.001335 -0.000549 0.005405 0.006355 0.009137
# 2 0.001335 0.008894 -0.001461 -0.000793 -0.002623 0.003589
# 3 -0.000549 -0.001461 0.009579 -0.000623 0.001498 0.004787
# 4 0.005405 -0.000793 -0.000623 0.088245 0.061204 0.028774
# 5 0.006355 -0.002623 0.001498 0.061204 0.081431 0.021480
# 6 0.009137 0.003589 0.004787 0.028774 0.021480 0.037593
#
#
# Mechanical properties :
#
#
# Convention : Reuss Voigt Hill
#
# Bulk Modulus (GPa) = 25.06922 43.07137 34.07029
# Shear Modulus (GPa) = 19.00020 38.07906 28.53963
#
# Velocity S-wave (km/s) = 2.77096 3.92279 3.39606
# Velocity P-wave (km/s) = 4.51314 6.15820 5.39870
#
# Compressibility (1/GPa) = 0.03988956
#
# Stress axis : x y z
#
# Youngs Moduli (GPa) = 43.92298 112.43985 104.39776
#
# Poissons Ratio (x) = -0.15014 0.05731
# Poissons Ratio (y) = -0.05865 0.15256
# Poissons Ratio (z) = 0.02411 0.16431
#
# Static dielectric constant tensor:
#      x y z
#    x 1.975030 -0.001320 0.015950 
#    y -0.001320 1.954340 0.007060 
#    z 0.015950 0.007060 1.988140 
# 
# From -- ./inp_files/398013.got.cif
#   From: 2010.05.17/outbox.cif.g08.bks.cpg/sg2_200_cif.got.tgz:398013.got - 2010.06.03 11:33:40.
