data_PCOD9035415
_publ_section_title
;
Structure prediction by ZEFSAII (Michael W. Deem and Ramdas Pophale) SiO2 
 PCOD9035415
Probable space group: P -1
;
_chemical_formula_sum "Si O2"
_cell_formula_units_Z 14
_cell_length_a 15.402106
_cell_length_b 9.163695
_cell_length_c 5.538727
_cell_angle_alpha 126.166594
_cell_angle_beta 106.967983
_cell_angle_gamma 72.682892
_cell_volume 595.608826
_symmetry_space_group_name_H-M "P -1"
_symmetry_group_IT_number 2
_symmetry_cell_setting 'triclinic'
loop_
_space_group_symop_operation_xyz
x,y,z
-x,-y,-z
loop_
_atom_site_type_symbol
_atom_site_label
_atom_site_fract_x
_atom_site_fract_y
_atom_site_fract_z
Si Si1 0.055806 0.455471 0.252008
Si Si2 0.655413 0.466291 0.015747
Si Si3 0.180224 0.692603 0.341257
Si Si4 0.526005 0.300775 0.435016
Si Si5 0.694026 0.153468 0.104912
Si Si6 0.405039 0.127483 0.459607
Si Si7 0.005473 0.890091 0.146391
O O1 0.135357 0.573736 0.386290
O O2 0.000000 0.500000 0.500000
O O3 0.000000 0.500000 0.000000
O O4 0.073604 0.236519 0.051945
O O5 0.693384 0.349042 0.164912
O O6 0.625034 0.682949 0.234773
O O7 0.732086 0.425449 0.831169
O O8 0.572669 0.355453 0.772758
O O9 0.217101 0.861419 0.667770
O O10 0.105238 0.762716 0.142133
O O11 0.500000 0.500000 0.500000
O O12 0.603628 0.179540 0.224837
O O13 0.437989 0.206557 0.312066
O O14 0.676434 0.991297 0.754389
O O15 0.500000 0.000000 0.500000
O O16 0.000000 0.000000 0.500000
O O17 0.000000 0.000000 0.000000
#
# Coordination Sequence:
#
# PCOD9035415 Si02
#       7
#     2   2   2   2   2   2   2
#     4  10  22  45  77 102 137 196 237 284 373 451
#     4  11  24  44  66 103 145 193 233 307 376 410
#     4  10  26  47  70 100 150 185 236 303 368 450
#     4  11  21  42  68  94 138 189 248 297 353 434
#     4  11  24  43  67 103 145 189 240 305 372 418
#     4  12  23  43  74 100 138 195 252 294 352 439
#     4  11  24  47  77 112 140 184 246 302 364 448
#
# _framework density 23.505361000000001
#
# number of rings (size 3 to 8) (size 9 to 14) (size 15 to 20)
#    0.000    1.143    2.857    3.429    6.000    0.000 
#    5.143    0.000    0.000    0.000    0.000    0.000 
#    0.000    0.000    0.000    0.000    0.000    0.000 
#
# Total GULP energy -78139.990527 kJ/mol
# GULP energy per Si atom -5581.427895 kJ/mol
# Density = 2.345186 g / cm^3
# Si number density = 23.505361 Si / 1000 Ang^3
#
#
#
# Elastic Constant Matrix: (Units=GPa)
#
#
# Indices 1 2 3 4 5 6 
#
# 1 109.4255 39.0180 54.4231 8.4073 0.4418 20.3239
# 2 39.0180 125.0638 47.3897 6.8587 7.6684 20.8267
# 3 54.4231 47.3897 146.1703 18.8306 0.7435 6.2302
# 4 8.4073 6.8587 18.8306 46.8639 0.9897 -1.3020
# 5 0.4418 7.6684 0.7435 0.9897 47.4547 -4.4978
# 6 20.3239 20.8267 6.2302 -1.3020 -4.4978 31.8839
#
#
#
# Elastic Compliance Matrix: (Units=1/GPa)
#
#
# Indices 1 2 3 4 5 6 
#
# 1 0.012892 -0.001334 -0.003992 -0.000689 -0.000459 -0.006659
# 2 -0.001334 0.010528 -0.002609 -0.000369 -0.002194 -0.005841
# 3 -0.003992 -0.002609 0.009407 -0.002628 0.000592 0.002387
# 4 -0.000689 -0.000369 -0.002628 0.022634 -0.000166 0.002094
# 5 -0.000459 -0.002194 0.000592 -0.000166 0.021870 0.004688
# 6 -0.006659 -0.005841 0.002387 0.002094 0.004688 0.039704
#
#
# Mechanical properties :
#
#
# Convention : Reuss Voigt Hill
#
# Bulk Modulus (GPa) = 58.97630 73.59125 66.28377
# Shear Modulus (GPa) = 36.08584 41.22909 38.65746
#
# Velocity S-wave (km/s) = 3.92244 4.19266 4.05980
# Velocity P-wave (km/s) = 6.75715 7.40365 7.08778
#
# Compressibility (1/GPa) = 0.01695596
#
# Stress axis : x y z
#
# Youngs Moduli (GPa) = 77.57027 94.98196 106.29874
#
# Poissons Ratio (x) = 0.12675 0.42439
# Poissons Ratio (y) = 0.10351 0.27732
# Poissons Ratio (z) = 0.30969 0.24779
#
# Static dielectric constant tensor:
#      x y z
#    x 1.989040 -0.018520 0.017470 
#    y -0.018520 2.057000 -0.132410 
#    z 0.017470 -0.132410 2.104470 
# 
# From -- ./inp_files/106007.got.cif
#   From: 2010.05.17/outbox.cif.g08.bks.cpg/sg2_54_cif.got.tgz:106007.got - 2010.06.03 11:33:40.
