data_PCOD9035113
_publ_section_title
;
Structure prediction by ZEFSAII (Michael W. Deem and Ramdas Pophale) SiO2 
 PCOD9035113
Probable space group: P -1
;
_chemical_formula_sum "Si O2"
_cell_formula_units_Z 13
_cell_length_a 11.199414
_cell_length_b 12.151119
_cell_length_c 9.279424
_cell_angle_alpha 144.024005
_cell_angle_beta 106.735812
_cell_angle_gamma 51.274805
_cell_volume 508.862976
_symmetry_space_group_name_H-M "P -1"
_symmetry_group_IT_number 2
_symmetry_cell_setting 'triclinic'
loop_
_space_group_symop_operation_xyz
x,y,z
-x,-y,-z
loop_
_atom_site_type_symbol
_atom_site_label
_atom_site_fract_x
_atom_site_fract_y
_atom_site_fract_z
Si Si1 0.548364 0.858498 0.017290
Si Si2 0.599298 0.451764 0.131406
Si Si3 0.500000 0.500000 0.500000
Si Si4 0.759479 0.988273 0.288115
Si Si5 0.105462 0.133520 0.483953
Si Si6 0.326615 0.220474 0.574301
Si Si7 0.869023 0.136122 0.230107
O O1 0.707914 0.822391 0.089937
O O2 0.386355 0.068351 0.285372
O O3 0.551920 0.634250 0.757088
O O4 0.500000 0.000000 0.000000
O O5 0.681940 0.342831 0.308707
O O6 0.430579 0.707312 0.439767
O O7 0.701210 0.534540 0.209839
O O8 0.500000 0.500000 0.000000
O O9 0.871212 0.923437 0.397738
O O10 0.839409 0.987897 0.168530
O O11 0.156256 0.296740 0.653691
O O12 0.255771 0.864421 0.163274
O O13 0.930121 0.238837 0.465805
O O14 0.500000 0.000000 0.500000
O O15 0.000000 0.000000 0.000000
#
# Coordination Sequence:
#
# PCOD9035113 Si02
#       7
#     2   2   1   2   2   2   2
#     4  11  23  42  70 102 141 191 238 287 358 436
#     4   9  19  37  71 104 140 188 224 286 368 417
#     4  12  28  50  76 100 144 198 238 292 380 416
#     4  10  22  45  71 103 146 189 235 302 355 421
#     4  11  23  44  69 109 148 182 244 297 353 431
#     4  11  20  37  69 109 143 180 242 294 350 430
#     4  12  28  46  73 107 143 190 245 298 353 438
#
# _framework density 25.547152000000001
#
# number of rings (size 3 to 8) (size 9 to 14) (size 15 to 20)
#    0.000    1.231    6.154    1.385    4.308    0.000 
#    2.769    1.538    0.000    0.000    0.000    0.000 
#    0.000    0.000    0.000    0.000    0.000    0.000 
#
# Total GULP energy -72373.719330 kJ/mol
# GULP energy per Si atom -5567.209179 kJ/mol
# Density = 2.548901 g / cm^3
# Si number density = 25.547152 Si / 1000 Ang^3
#
#
#
# Elastic Constant Matrix: (Units=GPa)
#
#
# Indices 1 2 3 4 5 6 
#
# 1 186.2335 33.0787 35.7792 -1.6842 22.1968 0.2914
# 2 33.0787 49.2279 13.5708 -4.7205 7.6745 18.3106
# 3 35.7792 13.5708 139.5939 1.6926 19.6881 7.6262
# 4 -1.6842 -4.7205 1.6926 42.2846 13.8560 15.7975
# 5 22.1968 7.6745 19.6881 13.8560 60.6183 -0.6893
# 6 0.2914 18.3106 7.6262 15.7975 -0.6893 48.6787
#
#
#
# Elastic Compliance Matrix: (Units=1/GPa)
#
#
# Indices 1 2 3 4 5 6 
#
# 1 0.006576 -0.004738 -0.001152 -0.000585 -0.001276 0.002095
# 2 -0.004738 0.030885 -0.000454 0.010356 -0.004565 -0.014944
# 3 -0.001152 -0.000454 0.007891 0.000850 -0.002293 -0.001367
# 4 -0.000585 0.010356 0.000850 0.033347 -0.009165 -0.014977
# 5 -0.001276 -0.004565 -0.002293 -0.009165 0.020443 0.005348
# 6 0.002095 -0.014944 -0.001367 -0.014977 0.005348 0.031302
#
#
# Mechanical properties :
#
#
# Convention : Reuss Voigt Hill
#
# Bulk Modulus (GPa) = 30.61342 59.99031 45.30186
# Shear Modulus (GPa) = 32.46365 49.82478 41.14421
#
# Velocity S-wave (km/s) = 3.56860 4.42102 4.01748
# Velocity P-wave (km/s) = 5.38415 7.04228 6.26828
#
# Compressibility (1/GPa) = 0.03266542
#
# Stress axis : x y z
#
# Youngs Moduli (GPa) = 152.06812 32.37785 126.72846
#
# Poissons Ratio (x) = 0.15339 0.14603
# Poissons Ratio (y) = 0.72043 0.05748
# Poissons Ratio (z) = 0.17522 0.01469
#
# Static dielectric constant tensor:
#      x y z
#    x 1.499050 -0.480970 0.009110 
#    y -0.480970 1.805060 0.046300 
#    z 0.009110 0.046300 1.958830 
# 
# From -- ./inp_files/251074.got.cif
#   From: 2010.05.17/outbox.cif.g08.bks.cpg/sg2_126_cif.got.tgz:251074.got - 2010.06.03 11:33:40.
