data_PCOD9035282
_publ_section_title
;
Structure prediction by ZEFSAII (Michael W. Deem and Ramdas Pophale) SiO2 
 PCOD9035282
Probable space group: P -1
;
_chemical_formula_sum "Si O2"
_cell_formula_units_Z 12
_cell_length_a 10.613645
_cell_length_b 5.782913
_cell_length_c 8.136349
_cell_angle_alpha 94.260093
_cell_angle_beta 104.170305
_cell_angle_gamma 63.490172
_cell_volume 432.934005
_symmetry_space_group_name_H-M "P -1"
_symmetry_group_IT_number 2
_symmetry_cell_setting 'triclinic'
loop_
_space_group_symop_operation_xyz
x,y,z
-x,-y,-z
loop_
_atom_site_type_symbol
_atom_site_label
_atom_site_fract_x
_atom_site_fract_y
_atom_site_fract_z
Si Si1 0.537671 0.300038 0.354916
Si Si2 0.729887 0.431784 0.223391
Si Si3 0.646373 0.839119 0.935088
Si Si4 0.865222 0.004625 0.848292
Si Si5 0.811711 0.752259 0.497009
Si Si6 0.019507 0.119635 0.678623
O O1 0.500000 0.500000 0.500000
O O2 0.580477 0.416756 0.213661
O O3 0.407978 0.237592 0.253357
O O4 0.674909 0.032253 0.433959
O O5 0.754247 0.546907 0.411375
O O6 0.849685 0.140047 0.224046
O O7 0.728906 0.598435 0.072600
O O8 0.740385 0.988070 0.917851
O O9 0.500000 0.000000 0.000000
O O10 0.873892 0.795629 0.694917
O O11 0.872369 0.223269 0.740958
O O12 0.000000 0.000000 0.000000
O O13 0.920254 0.696206 0.370171
O O14 0.000000 0.000000 0.500000
#
# Coordination Sequence:
#
# PCOD9035282 Si02
#       6
#     2   2   2   2   2   2
#     4  11  25  43  72 109 142 192 247 297 360 436
#     4  11  23  43  75 102 146 191 241 299 373 425
#     4  12  26  45  73 107 153 194 237 299 372 437
#     4  11  25  42  71 103 143 191 242 301 358 434
#     4  10  22  45  73 105 142 191 243 304 361 432
#     4   9  22  44  69 100 138 185 244 299 357 424
#
# _framework density 27.717851
#
# number of rings (size 3 to 8) (size 9 to 14) (size 15 to 20)
#    0.000    1.333    1.667    2.500    4.667    6.000 
#    0.000    6.667    0.000    0.000    0.000    0.000 
#    0.000    0.000    0.000    0.000    0.000    0.000 
#
# Total GULP energy -66871.020321 kJ/mol
# GULP energy per Si atom -5572.585027 kJ/mol
# Density = 2.765476 g / cm^3
# Si number density = 27.717851 Si / 1000 Ang^3
#
#
#
# Elastic Constant Matrix: (Units=GPa)
#
#
# Indices 1 2 3 4 5 6 
#
# 1 210.5226 60.7231 75.0370 1.2864 -14.9080 41.1163
# 2 60.7231 101.9907 43.0672 -2.5956 -8.5314 -13.4603
# 3 75.0370 43.0672 191.7485 27.7872 19.9365 1.0290
# 4 1.2864 -2.5956 27.7872 56.6448 17.8569 -4.1224
# 5 -14.9080 -8.5314 19.9365 17.8569 61.6111 11.6731
# 6 41.1163 -13.4603 1.0290 -4.1224 11.6731 42.8794
#
#
#
# Elastic Compliance Matrix: (Units=1/GPa)
#
#
# Indices 1 2 3 4 5 6 
#
# 1 0.011069 -0.006749 -0.003076 -0.002022 0.006074 -0.014507
# 2 -0.006749 0.015850 -0.001195 0.003092 -0.002297 0.012398
# 3 -0.003076 -0.001195 0.007344 -0.002365 -0.003176 0.003036
# 4 -0.002022 0.003092 -0.002365 0.021678 -0.006891 0.006926
# 5 0.006074 -0.002297 -0.003176 -0.006891 0.022942 -0.013377
# 6 -0.014507 0.012398 0.003036 0.006926 -0.013377 0.045358
#
#
# Mechanical properties :
#
#
# Convention : Reuss Voigt Hill
#
# Bulk Modulus (GPa) = 81.81262 95.76848 88.79055
# Shear Modulus (GPa) = 33.25434 53.92270 43.58852
#
# Velocity S-wave (km/s) = 3.46749 4.41547 3.96988
# Velocity P-wave (km/s) = 6.75364 7.78597 7.28811
#
# Compressibility (1/GPa) = 0.01222305
#
# Stress axis : x y z
#
# Youngs Moduli (GPa) = 90.34238 63.08983 136.16378
#
# Poissons Ratio (x) = 0.42580 0.41890
# Poissons Ratio (y) = 0.60973 0.16268
# Poissons Ratio (z) = 0.27793 0.07538
#
# Static dielectric constant tensor:
#      x y z
#    x -40.330840 -28.928710 0.732490 
#    y -28.928710 -17.490610 0.433480 
#    z 0.732490 0.433480 2.311390 
# 
# From -- ./inp_files/228351.got.cif
#   From: 2010.05.17/outbox.cif.g08.bks.cpg/sg2_115_cif.got.tgz:228351.got - 2010.06.03 11:33:40.
