data_PCOD9035053
_publ_section_title
;
Structure prediction by ZEFSAII (Michael W. Deem and Ramdas Pophale) SiO2 
 PCOD9035053
Probable space group: P -1
;
_chemical_formula_sum "Si O2"
_cell_formula_units_Z 12
_cell_length_a 7.373608
_cell_length_b 10.049358
_cell_length_c 11.113568
_cell_angle_alpha 62.622162
_cell_angle_beta 73.528099
_cell_angle_gamma 121.530565
_cell_volume 449.761983
_symmetry_space_group_name_H-M "P -1"
_symmetry_group_IT_number 2
_symmetry_cell_setting 'triclinic'
loop_
_space_group_symop_operation_xyz
x,y,z
-x,-y,-z
loop_
_atom_site_type_symbol
_atom_site_label
_atom_site_fract_x
_atom_site_fract_y
_atom_site_fract_z
Si Si1 0.801972 0.995831 0.918327
Si Si2 0.754138 0.990263 0.414608
Si Si3 0.808062 0.512092 0.269384
Si Si4 0.892127 0.100553 0.597358
Si Si5 0.773203 0.643515 0.980133
Si Si6 0.779847 0.413326 0.685501
O O1 0.836700 0.841072 0.951434
O O2 0.728529 0.018928 0.789511
O O3 0.551751 0.847598 0.129999
O O4 0.086847 0.266071 0.786836
O O5 0.472206 0.740045 0.515269
O O6 0.987228 0.994882 0.383639
O O7 0.706307 0.020551 0.545866
O O8 0.931587 0.213849 0.208040
O O9 0.076666 0.565983 0.228258
O O10 0.726666 0.494744 0.154509
O O11 0.178386 0.382425 0.412321
O O12 0.500000 0.500000 0.000000
O O13 0.000000 0.500000 0.500000
#
# Coordination Sequence:
#
# PCOD9035053 Si02
#       6
#     2   2   2   2   2   2
#     4  11  24  43  69  97 135 176 223 275 327 389
#     4  10  23  43  70  99 130 174 227 268 331 386
#     4  12  25  40  68 103 132 174 221 273 332 397
#     4  10  22  45  70  94 136 176 217 276 328 390
#     4  11  24  45  71  98 135 172 224 278 324 391
#     4  12  26  43  67  96 141 177 217 272 336 395
#
# _framework density 26.680781
#
# number of rings (size 3 to 8) (size 9 to 14) (size 15 to 20)
#    0.000    1.000    1.667    6.000    2.333    3.333 
#    0.000    5.833    0.000    0.000    0.000    0.000 
#    0.000    0.000    0.000    0.000    0.000    0.000 
#
# Total GULP energy -67110.852555 kJ/mol
# GULP energy per Si atom -5592.571046 kJ/mol
# Density = 2.662005 g / cm^3
# Si number density = 26.680781 Si / 1000 Ang^3
#
#
#
# Elastic Constant Matrix: (Units=GPa)
#
#
# Indices 1 2 3 4 5 6 
#
# 1 46.9133 9.2607 15.0001 12.7763 9.3256 5.1313
# 2 9.2607 101.8129 65.1222 -7.0936 -8.5805 5.3206
# 3 15.0001 65.1222 169.3883 -7.2043 -5.2935 10.8403
# 4 12.7763 -7.0936 -7.2043 54.6877 6.8383 4.8583
# 5 9.3256 -8.5805 -5.2935 6.8383 40.8675 -7.7084
# 6 5.1313 5.3206 10.8403 4.8583 -7.7084 35.2403
#
#
#
# Elastic Compliance Matrix: (Units=1/GPa)
#
#
# Indices 1 2 3 4 5 6 
#
# 1 0.025288 -0.001922 -0.001695 -0.005300 -0.006165 -0.003488
# 2 -0.001922 0.013388 -0.004856 0.001231 0.002436 0.000116
# 3 -0.001695 -0.004856 0.008066 0.000983 -0.000064 -0.001651
# 4 -0.005300 0.001231 0.000983 0.020383 -0.002391 -0.003050
# 5 -0.006165 0.002436 -0.000064 -0.002391 0.028105 0.007027
# 6 -0.003488 0.000116 -0.001651 -0.003050 0.007027 0.031332
#
#
# Mechanical properties :
#
#
# Convention : Reuss Voigt Hill
#
# Bulk Modulus (GPa) = 33.56256 55.20896 44.38576
# Shear Modulus (GPa) = 32.58622 41.40787 36.99705
#
# Velocity S-wave (km/s) = 3.49855 3.94378 3.72782
# Velocity P-wave (km/s) = 5.37833 6.44013 5.93303
#
# Compressibility (1/GPa) = 0.02979511
#
# Stress axis : x y z
#
# Youngs Moduli (GPa) = 39.54489 74.69582 123.97814
#
# Poissons Ratio (x) = 0.14360 0.21015
# Poissons Ratio (y) = 0.07602 0.60199
# Poissons Ratio (z) = 0.06703 0.36269
#
# Static dielectric constant tensor:
#      x y z
#    x 2.110110 -0.023190 -0.008240 
#    y -0.023190 2.184870 0.081720 
#    z -0.008240 0.081720 2.089260 
# 
# From -- ./inp_files/389424.got.cif
#   From: 2010.05.17/outbox.cif.g08.bks.cpg/sg2_195_cif.got.tgz:389424.got - 2010.06.03 11:33:40.
