data_PCOD9035471
_publ_section_title
;
Structure prediction by ZEFSAII (Michael W. Deem and Ramdas Pophale) SiO2 
 PCOD9035471
Probable space group: P -1
;
_chemical_formula_sum "Si O2"
_cell_formula_units_Z 14
_cell_length_a 23.626253
_cell_length_b 6.721105
_cell_length_c 9.460069
_cell_angle_alpha 130.027009
_cell_angle_beta 143.847591
_cell_angle_gamma 56.829838
_cell_volume 677.315960
_symmetry_space_group_name_H-M "P -1"
_symmetry_group_IT_number 2
_symmetry_cell_setting 'triclinic'
loop_
_space_group_symop_operation_xyz
x,y,z
-x,-y,-z
loop_
_atom_site_type_symbol
_atom_site_label
_atom_site_fract_x
_atom_site_fract_y
_atom_site_fract_z
Si Si1 0.951443 0.397190 0.496600
Si Si2 0.373596 0.290827 0.084772
Si Si3 0.097300 0.129293 0.209503
Si Si4 0.315062 0.308685 0.285076
Si Si5 0.888079 0.829594 0.065928
Si Si6 0.586493 0.131994 0.552110
Si Si7 0.695006 0.101911 0.466054
O O1 0.888299 0.632767 0.546925
O O2 0.000000 0.500000 0.500000
O O3 0.033441 0.310373 0.736409
O O4 0.895736 0.140763 0.236649
O O5 0.307876 0.290571 0.092563
O O6 0.479128 0.185625 0.302377
O O7 0.381644 0.592582 0.197161
O O8 0.340250 0.107154 0.810442
O O9 0.189428 0.927507 0.310132
O O10 0.090881 0.232674 0.083645
O O11 0.000000 0.000000 0.000000
O O12 0.338527 0.602168 0.503925
O O13 0.395957 0.099430 0.408048
O O14 0.215544 0.247068 0.128511
O O15 0.652630 0.057579 0.515433
#
# Coordination Sequence:
#
# PCOD9035471 Si02
#       7
#     2   2   2   2   2   2   2
#     4  11  25  42  68  92 125 174 220 268 322 387
#     4  10  24  41  70  95 129 170 219 267 327 391
#     4  12  24  42  66  89 134 173 212 269 324 379
#     4  11  24  40  66  95 134 166 214 269 326 384
#     4  11  25  43  63  96 128 170 218 271 323 387
#     4  10  22  46  65  95 131 171 212 275 327 378
#     4  11  25  40  65  99 129 173 218 264 322 392
#
# _framework density 20.669822
#
# number of rings (size 3 to 8) (size 9 to 14) (size 15 to 20)
#    0.000    1.143    2.857    2.143    4.000    2.857 
#    0.000    0.000    0.000    0.000    0.000    0.000 
#    0.000    0.000    0.000    0.000    0.000    0.000 
#
# Total GULP energy -78326.801359 kJ/mol
# GULP energy per Si atom -5594.771526 kJ/mol
# Density = 2.062278 g / cm^3
# Si number density = 20.669822 Si / 1000 Ang^3
#
#
#
# Elastic Constant Matrix: (Units=GPa)
#
#
# Indices 1 2 3 4 5 6 
#
# 1 85.3187 16.8016 20.9542 10.4813 -7.8320 -9.9509
# 2 16.8016 116.3190 27.3874 8.4149 -19.5272 5.3598
# 3 20.9542 27.3874 86.0043 19.2075 -20.7682 1.4269
# 4 10.4813 8.4149 19.2075 24.5555 -9.4843 -1.6446
# 5 -7.8320 -19.5272 -20.7682 -9.4843 33.6167 3.8338
# 6 -9.9509 5.3598 1.4269 -1.6446 3.8338 24.6463
#
#
#
# Elastic Compliance Matrix: (Units=1/GPa)
#
#
# Indices 1 2 3 4 5 6 
#
# 1 0.013636 -0.001579 -0.002367 -0.003350 -0.000819 0.005890
# 2 -0.001579 0.010199 -0.001632 0.000147 0.004992 -0.003528
# 3 -0.002367 -0.001632 0.016320 -0.008926 0.006423 -0.003140
# 4 -0.003350 0.000147 -0.008926 0.052431 0.008433 0.001319
# 5 -0.000819 0.004992 0.006423 0.008433 0.039647 -0.007393
# 6 0.005890 -0.003528 -0.003140 0.001319 -0.007393 0.045139
#
#
# Mechanical properties :
#
#
# Convention : Reuss Voigt Hill
#
# Bulk Modulus (GPa) = 34.48282 46.43651 40.45967
# Shear Modulus (GPa) = 25.22769 31.39694 28.31231
#
# Velocity S-wave (km/s) = 3.49737 3.90163 3.70502
# Velocity P-wave (km/s) = 5.74697 6.54306 6.15789
#
# Compressibility (1/GPa) = 0.02899995
#
# Stress axis : x y z
#
# Youngs Moduli (GPa) = 73.33354 98.04511 61.27355
#
# Poissons Ratio (x) = 0.15481 0.14503
# Poissons Ratio (y) = 0.11579 0.10000
# Poissons Ratio (z) = 0.17358 0.16001
#
# Static dielectric constant tensor:
#      x y z
#    x 1.729900 -0.020660 0.009150 
#    y -0.020660 1.750560 -0.011930 
#    z 0.009150 -0.011930 1.715840 
# 
# From -- ./inp_files/35643.got.cif
#   From: 2010.05.17/outbox.cif.g08.bks.cpg/sg2_18_cif.got.tgz:35643.got - 2010.06.03 11:33:40.
