data_PCOD9035788
_publ_section_title
;
Structure prediction by ZEFSAII (Michael W. Deem and Ramdas Pophale) SiO2 
 PCOD9035788
Probable space group: P -1
;
_chemical_formula_sum "Si O2"
_cell_formula_units_Z 16
_cell_length_a 8.446930
_cell_length_b 18.415729
_cell_length_c 10.337987
_cell_angle_alpha 49.137977
_cell_angle_beta 42.299200
_cell_angle_gamma 77.559698
_cell_volume 695.382841
_symmetry_space_group_name_H-M "P -1"
_symmetry_group_IT_number 2
_symmetry_cell_setting 'triclinic'
loop_
_space_group_symop_operation_xyz
x,y,z
-x,-y,-z
loop_
_atom_site_type_symbol
_atom_site_label
_atom_site_fract_x
_atom_site_fract_y
_atom_site_fract_z
Si Si1 0.669658 0.356128 0.688202
Si Si2 0.786602 0.027681 0.666783
Si Si3 0.297186 0.171334 0.913224
Si Si4 0.857886 0.708757 0.802693
Si Si5 0.354944 0.917856 0.563490
Si Si6 0.471757 0.254753 0.418945
Si Si7 0.956063 0.553569 0.093696
Si Si8 0.788124 0.620502 0.678763
O O1 0.483388 0.250600 0.826711
O O2 0.744385 0.462601 0.428130
O O3 0.956453 0.377236 0.546181
O O4 0.462859 0.332167 0.958117
O O5 0.584520 0.015366 0.687313
O O6 0.948653 0.157542 0.460954
O O7 0.000000 0.000000 0.500000
O O8 0.688750 0.941085 0.945262
O O9 0.416495 0.225513 0.638788
O O10 0.980852 0.143788 0.145617
O O11 0.910783 0.657069 0.706040
O O12 0.890606 0.646907 0.977969
O O13 0.472513 0.835496 0.575629
O O14 0.500000 0.000000 0.500000
O O15 0.247150 0.278949 0.469158
O O16 0.751388 0.375498 0.096877
O O17 0.000000 0.500000 0.000000
O O18 0.500000 0.500000 0.000000
#
# Coordination Sequence:
#
# PCOD9035788 Si02
#       8
#     2   2   2   2   2   2   2   2
#     4  12  24  45  77 103 137 191 237 287 352 429
#     4  10  22  46  72 105 140 177 246 290 336 428
#     4  11  25  46  75 105 136 190 242 282 354 426
#     4  12  24  46  77 102 138 194 234 289 357 411
#     4  11  26  47  72 105 145 180 233 303 347 413
#     4  12  25  46  69 102 148 186 226 294 368 405
#     4  12  21  45  73 105 142 177 237 296 341 428
#     4  12  28  47  66 107 151 180 234 297 349 420
#
# _framework density 23.00891
#
# number of rings (size 3 to 8) (size 9 to 14) (size 15 to 20)
#    0.000    0.500    7.500    0.375    3.500    3.500 
#    0.000    0.000    0.000    0.000    0.000    0.000 
#    0.000    0.000    0.000    0.000    0.000    0.000 
#
# Total GULP energy -89456.767495 kJ/mol
# GULP energy per Si atom -5591.047968 kJ/mol
# Density = 2.295654 g / cm^3
# Si number density = 23.008910 Si / 1000 Ang^3
#
#
#
# Elastic Constant Matrix: (Units=GPa)
#
#
# Indices 1 2 3 4 5 6 
#
# 1 75.7683 10.4977 13.1092 -13.7585 0.4231 -29.2032
# 2 10.4977 72.1196 9.1200 -13.5934 -1.2354 -18.0752
# 3 13.1092 9.1200 85.0537 -5.0403 4.6406 -17.4364
# 4 -13.7585 -13.5934 -5.0403 42.8716 -13.0053 3.7058
# 5 0.4231 -1.2354 4.6406 -13.0053 37.1950 -1.4918
# 6 -29.2032 -18.0752 -17.4364 3.7058 -1.4918 47.3746
#
#
#
# Elastic Compliance Matrix: (Units=1/GPa)
#
#
# Indices 1 2 3 4 5 6 
#
# 1 0.018584 0.001414 -0.000445 0.006128 0.002492 0.011430
# 2 0.001414 0.016559 -0.000436 0.005970 0.002943 0.006654
# 3 -0.000445 -0.000436 0.012832 0.000477 -0.001275 0.004205
# 4 0.006128 0.005970 0.000477 0.030147 0.010779 0.004212
# 5 0.002492 0.002943 -0.001275 0.010779 0.030976 0.002322
# 6 0.011430 0.006654 0.004205 0.004212 0.002322 0.031984
#
#
# Mechanical properties :
#
#
# Convention : Reuss Voigt Hill
#
# Bulk Modulus (GPa) = 20.39183 33.15504 26.77344
# Shear Modulus (GPa) = 31.97676 38.83590 35.40633
#
# Velocity S-wave (km/s) = 3.73199 4.11282 3.92702
# Velocity P-wave (km/s) = 5.23948 6.08232 5.67656
#
# Compressibility (1/GPa) = 0.04903924
#
# Stress axis : x y z
#
# Youngs Moduli (GPa) = 53.81087 60.39129 77.92719
#
# Poissons Ratio (x) = -0.08538 0.03471
# Poissons Ratio (y) = -0.07607 0.03398
# Poissons Ratio (z) = 0.02397 0.02633
#
# Static dielectric constant tensor:
#      x y z
#    x 1.882890 -0.033320 0.013070 
#    y -0.033320 3.016220 0.469580 
#    z 0.013070 0.469580 2.056540 
# 
# From -- ./inp_files/405373.got.cif
#   From: 2010.05.17/outbox.cif.g08.bks.cpg/sg2_203_cif.got.tgz:405373.got - 2010.06.03 11:33:40.
