data_PCOD9035668
_publ_section_title
;
Structure prediction by ZEFSAII (Michael W. Deem and Ramdas Pophale) SiO2 
 PCOD9035668
Probable space group: P -1
;
_chemical_formula_sum "Si O2"
_cell_formula_units_Z 13
_cell_length_a 9.415877
_cell_length_b 4.945430
_cell_length_c 16.108588
_cell_angle_alpha 106.595939
_cell_angle_beta 122.185787
_cell_angle_gamma 109.447309
_cell_volume 487.586641
_symmetry_space_group_name_H-M "P -1"
_symmetry_group_IT_number 2
_symmetry_cell_setting 'triclinic'
loop_
_space_group_symop_operation_xyz
x,y,z
-x,-y,-z
loop_
_atom_site_type_symbol
_atom_site_label
_atom_site_fract_x
_atom_site_fract_y
_atom_site_fract_z
Si Si1 0.272341 0.194499 0.440950
Si Si2 0.390761 0.670796 0.233984
Si Si3 0.000000 0.500000 0.000000
Si Si4 0.412340 0.635359 0.831372
Si Si5 0.768093 0.406557 0.071515
Si Si6 0.789691 0.448927 0.406530
Si Si7 0.881265 0.570588 0.718427
O O1 0.500000 0.500000 0.500000
O O2 0.235055 0.282748 0.528473
O O3 0.108323 0.194167 0.330665
O O4 0.225829 0.819152 0.385946
O O5 0.453678 0.470179 0.180054
O O6 0.282478 0.476440 0.268789
O O7 0.593188 0.066001 0.341691
O O8 0.211825 0.667319 0.132589
O O9 0.089725 0.369660 0.942370
O O10 0.315242 0.460710 0.874656
O O11 0.240685 0.544912 0.701112
O O12 0.569799 0.047332 0.938197
O O13 0.907966 0.319630 0.159817
O O14 0.000000 0.500000 0.500000
#
# Coordination Sequence:
#
# PCOD9035668 Si02
#       7
#     2   2   1   2   2   2   2
#     4  12  25  46  73 105 153 196 255 305 372 450
#     4  11  25  43  74 105 146 192 252 308 377 447
#     4  10  22  46  70 106 138 182 242 308 372 444
#     4  11  25  48  69 109 144 195 247 311 386 446
#     4  10  24  46  75 105 147 185 253 310 381 451
#     4  12  27  45  70 104 151 197 247 307 373 456
#     4  11  26  46  75 111 143 203 250 316 373 443
#
# _framework density 26.661930000000002
#
# number of rings (size 3 to 8) (size 9 to 14) (size 15 to 20)
#    0.000    0.923    3.077    2.308    4.308    6.154 
#    0.000    0.000    0.000    0.000    0.000    0.000 
#    0.000    0.000    0.000    0.000    0.000    0.000 
#
# Total GULP energy -72713.231700 kJ/mol
# GULP energy per Si atom -5593.325515 kJ/mol
# Density = 2.660125 g / cm^3
# Si number density = 26.661930 Si / 1000 Ang^3
#
#
#
# Elastic Constant Matrix: (Units=GPa)
#
#
# Indices 1 2 3 4 5 6 
#
# 1 171.5765 24.9912 87.5515 1.6497 -35.7935 -5.3542
# 2 24.9912 62.7819 35.0296 8.9810 -8.7148 -1.2702
# 3 87.5515 35.0296 175.4855 -4.0565 6.3540 4.2576
# 4 1.6497 8.9810 -4.0565 33.3501 -2.0836 -3.6024
# 5 -35.7935 -8.7148 6.3540 -2.0836 81.0058 -16.0365
# 6 -5.3542 -1.2702 4.2576 -3.6024 -16.0365 32.0812
#
#
#
# Elastic Compliance Matrix: (Units=1/GPa)
#
#
# Indices 1 2 3 4 5 6 
#
# 1 0.009906 -0.000062 -0.005272 -0.000186 0.005816 0.005237
# 2 -0.000062 0.019422 -0.004115 -0.005343 0.002649 0.002029
# 3 -0.005272 -0.004115 0.009450 0.001790 -0.004309 -0.004250
# 4 -0.000186 -0.005343 0.001790 0.032071 0.000717 0.003479
# 5 0.005816 0.002649 -0.004309 0.000717 0.017644 0.010547
# 6 0.005237 0.002029 -0.004250 0.003479 0.010547 0.038352
#
#
# Mechanical properties :
#
#
# Convention : Reuss Voigt Hill
#
# Bulk Modulus (GPa) = 50.29836 78.33206 64.31521
# Shear Modulus (GPa) = 32.81510 46.77220 39.79365
#
# Velocity S-wave (km/s) = 3.51206 4.19294 3.86751
# Velocity P-wave (km/s) = 5.94578 7.27218 6.64217
#
# Compressibility (1/GPa) = 0.01988137
#
# Stress axis : x y z
#
# Youngs Moduli (GPa) = 100.95113 51.48889 105.81601
#
# Poissons Ratio (x) = 0.00319 0.55782
# Poissons Ratio (y) = 0.00626 0.43539
# Poissons Ratio (z) = 0.53218 0.21185
#
# Static dielectric constant tensor:
#      x y z
#    x 2.037320 -0.001080 0.006710 
#    y -0.001080 2.056240 0.009370 
#    z 0.006710 0.009370 2.073960 
# 
# From -- ./inp_files/58877.got.cif
#   From: 2010.05.17/outbox.cif.g08.bks.cpg/sg2_30_cif.got.tgz:58877.got - 2010.06.03 11:33:40.
