data_PCOD9035811
_publ_section_title
;
Structure prediction by ZEFSAII (Michael W. Deem and Ramdas Pophale) SiO2 
 PCOD9035811
Probable space group: P -1
;
_chemical_formula_sum "Si O2"
_cell_formula_units_Z 15
_cell_length_a 8.961518
_cell_length_b 11.567772
_cell_length_c 18.790470
_cell_angle_alpha 41.325472
_cell_angle_beta 44.459718
_cell_angle_gamma 76.937947
_cell_volume 668.601087
_symmetry_space_group_name_H-M "P -1"
_symmetry_group_IT_number 2
_symmetry_cell_setting 'triclinic'
loop_
_space_group_symop_operation_xyz
x,y,z
-x,-y,-z
loop_
_atom_site_type_symbol
_atom_site_label
_atom_site_fract_x
_atom_site_fract_y
_atom_site_fract_z
Si Si1 0.409289 0.574383 0.561582
Si Si2 0.215280 0.791596 0.437798
Si Si3 0.278507 0.695467 0.923184
Si Si4 0.054081 0.905072 0.818408
Si Si5 0.000000 0.500000 0.500000
Si Si6 0.569546 0.586768 0.230186
Si Si7 0.833658 0.162699 0.335585
Si Si8 0.303779 0.234891 0.357111
O O1 0.500000 0.500000 0.500000
O O2 0.241592 0.644316 0.551939
O O3 0.286074 0.399959 0.751589
O O4 0.695826 0.818662 0.383407
O O5 0.158031 0.680199 0.431629
O O6 0.945961 0.762654 0.563837
O O7 0.505927 0.069318 0.211438
O O8 0.154858 0.769799 0.874978
O O9 0.478756 0.666675 0.827071
O O10 0.010177 0.436308 0.163035
O O11 0.008238 0.853938 0.774470
O O12 0.790425 0.813850 0.000007
O O13 0.707081 0.454021 0.637141
O O14 0.475038 0.379564 0.304241
O O15 0.500000 0.000000 0.500000
O O16 0.825100 0.028757 0.466408
#
# Coordination Sequence:
#
# PCOD9035811 Si02
#       8
#     2   2   2   2   1   2   2   2
#     4  11  23  44  68  97 130 177 236 284 338 399
#     4  10  24  43  69 101 139 180 227 286 344 405
#     4  11  23  40  65 104 141 177 231 276 338 415
#     4  11  23  39  66 104 132 174 231 279 337 409
#     4  10  22  46  72  92 136 182 224 288 354 390
#     4  11  22  42  73  96 130 182 224 285 342 406
#     4  12  22  38  67 103 140 186 222 272 342 416
#     4  11  22  41  69  99 145 180 219 282 344 414
#
# _framework density 22.434902000000001
#
# number of rings (size 3 to 8) (size 9 to 14) (size 15 to 20)
#    0.000    1.067    5.333    1.600    0.000    1.067 
#    0.000    3.333    2.933    0.000    0.000    0.000 
#    0.000    0.000    0.000    0.000    0.000    0.000 
#
# Total GULP energy -83609.400409 kJ/mol
# GULP energy per Si atom -5573.960027 kJ/mol
# Density = 2.238384 g / cm^3
# Si number density = 22.434902 Si / 1000 Ang^3
#
#
#
# Elastic Constant Matrix: (Units=GPa)
#
#
# Indices 1 2 3 4 5 6 
#
# 1 77.2171 42.2672 30.5326 4.8806 -18.0242 5.7457
# 2 42.2672 112.5089 23.9471 14.8395 -12.6342 13.8438
# 3 30.5326 23.9471 84.2292 3.0012 -5.0042 2.2232
# 4 4.8806 14.8395 3.0012 17.5564 0.0773 -7.6982
# 5 -18.0242 -12.6342 -5.0042 0.0773 19.5741 3.5666
# 6 5.7457 13.8438 2.2232 -7.6982 3.5666 47.6705
#
#
#
# Elastic Compliance Matrix: (Units=1/GPa)
#
#
# Indices 1 2 3 4 5 6 
#
# 1 0.021721 -0.004517 -0.005467 -0.002528 0.016185 -0.002670
# 2 -0.004517 0.013948 -0.001376 -0.012933 0.005627 -0.005952
# 3 -0.005467 -0.001376 0.014061 0.000589 -0.002455 0.000682
# 4 -0.002528 -0.012933 0.000589 0.076176 -0.013993 0.017382
# 5 0.016185 0.005627 -0.002455 -0.013993 0.071064 -0.011047
# 6 -0.002670 -0.005952 0.000682 0.017382 -0.011047 0.026629
#
#
# Mechanical properties :
#
#
# Convention : Reuss Voigt Hill
#
# Bulk Modulus (GPa) = 37.02449 51.93876 44.48162
# Shear Modulus (GPa) = 19.58304 28.77409 24.17857
#
# Velocity S-wave (km/s) = 2.95766 3.58517 3.28643
# Velocity P-wave (km/s) = 5.31061 6.35130 5.85413
#
# Compressibility (1/GPa) = 0.02700915
#
# Stress axis : x y z
#
# Youngs Moduli (GPa) = 46.03788 71.69456 71.12029
#
# Poissons Ratio (x) = 0.32384 0.38885
# Poissons Ratio (y) = 0.20795 0.09786
# Poissons Ratio (z) = 0.25171 0.09865
#
# Static dielectric constant tensor:
#      x y z
#    x 1.845140 0.002830 -0.002020 
#    y 0.002830 1.815760 0.000060 
#    z -0.002020 0.000060 1.868030 
# 
# From -- ./inp_files/373083.got.cif
#   From: 2010.05.17/outbox.cif.g08.bks.cpg/sg2_187_cif.got.tgz:373083.got - 2010.06.03 11:33:40.
