data_PCOD9035144
_publ_section_title
;
Structure prediction by ZEFSAII (Michael W. Deem and Ramdas Pophale) SiO2 
 PCOD9035144
Probable space group: P -1
;
_chemical_formula_sum "Si O2"
_cell_formula_units_Z 11
_cell_length_a 8.584887
_cell_length_b 8.273571
_cell_length_c 11.029539
_cell_angle_alpha 66.394456
_cell_angle_beta 137.062359
_cell_angle_gamma 91.642682
_cell_volume 442.931881
_symmetry_space_group_name_H-M "P -1"
_symmetry_group_IT_number 2
_symmetry_cell_setting 'triclinic'
loop_
_space_group_symop_operation_xyz
x,y,z
-x,-y,-z
loop_
_atom_site_type_symbol
_atom_site_label
_atom_site_fract_x
_atom_site_fract_y
_atom_site_fract_z
Si Si1 0.067342 0.910928 0.431953
Si Si2 0.449892 0.307237 0.523766
Si Si3 0.000000 0.000000 0.000000
Si Si4 0.759858 0.694415 0.339768
Si Si5 0.932797 0.745907 0.838713
Si Si6 0.460970 0.495041 0.122843
O O1 0.323757 0.711295 0.646369
O O2 0.833400 0.859443 0.279578
O O3 0.080884 0.067932 0.302465
O O4 0.000000 0.000000 0.500000
O O5 0.500000 0.500000 0.500000
O O6 0.716469 0.130381 0.752699
O O7 0.273458 0.301007 0.536577
O O8 0.314427 0.280449 0.334439
O O9 0.983553 0.801663 0.985499
O O10 0.523404 0.668412 0.160093
O O11 0.000000 0.500000 0.500000
O O12 0.173552 0.558938 0.979244
O O13 0.500000 0.500000 0.000000
#
# Coordination Sequence:
#
# PCOD9035144 Si02
#       6
#     2   2   1   2   2   2
#     4  11  22  43  77 110 146 184 243 321 368 435
#     4  12  28  51  74 106 154 198 250 313 371 452
#     4  12  30  50  74 108 150 210 252 296 376 462
#     4  10  22  45  71 110 146 186 244 304 382 432
#     4  12  26  50  72 113 150 197 257 301 377 448
#     4  11  22  43  72 111 148 189 240 311 384 436
#
# _framework density 24.834517000000002
#
# number of rings (size 3 to 8) (size 9 to 14) (size 15 to 20)
#    0.000    0.727    5.455    1.636    5.091    2.909 
#    3.273    0.000    0.000    0.000    0.000    0.000 
#    0.000    0.000    0.000    0.000    0.000    0.000 
#
# Total GULP energy -61343.724633 kJ/mol
# GULP energy per Si atom -5576.702239 kJ/mol
# Density = 2.477799 g / cm^3
# Si number density = 24.834517 Si / 1000 Ang^3
#
#
#
# Elastic Constant Matrix: (Units=GPa)
#
#
# Indices 1 2 3 4 5 6 
#
# 1 87.3353 37.2122 45.6259 -6.8634 15.5843 -5.4451
# 2 37.2122 134.6195 41.7625 14.5997 10.1506 9.5933
# 3 45.6259 41.7625 146.1601 0.1106 37.7923 2.9965
# 4 -6.8634 14.5997 0.1106 70.1221 -1.7045 -3.9840
# 5 15.5843 10.1506 37.7923 -1.7045 48.4478 -7.4241
# 6 -5.4451 9.5933 2.9965 -3.9840 -7.4241 48.0593
#
#
#
# Elastic Compliance Matrix: (Units=1/GPa)
#
#
# Indices 1 2 3 4 5 6 
#
# 1 0.015348 -0.003504 -0.003620 0.002371 -0.000877 0.002725
# 2 -0.003504 0.009297 -0.001483 -0.002414 -0.000113 -0.002378
# 3 -0.003620 -0.001483 0.010180 -0.000329 -0.006756 -0.001820
# 4 0.002371 -0.002414 -0.000329 0.015140 0.000864 0.002160
# 5 -0.000877 -0.000113 -0.006756 0.000864 0.026949 0.004579
# 6 0.002725 -0.002378 -0.001820 0.002160 0.004579 0.022591
#
#
# Mechanical properties :
#
#
# Convention : Reuss Voigt Hill
#
# Bulk Modulus (GPa) = 56.78678 68.59069 62.68873
# Shear Modulus (GPa) = 40.78665 49.56012 45.17338
#
# Velocity S-wave (km/s) = 4.05697 4.47208 4.26957
# Velocity P-wave (km/s) = 6.69784 7.37191 7.04294
#
# Compressibility (1/GPa) = 0.01760973
#
# Stress axis : x y z
#
# Youngs Moduli (GPa) = 65.15718 107.56364 98.23065
#
# Poissons Ratio (x) = 0.37695 0.35563
# Poissons Ratio (y) = 0.22834 0.14563
# Poissons Ratio (z) = 0.23589 0.15946
#
# Static dielectric constant tensor:
#      x y z
#    x 2.234860 0.035050 -0.004490 
#    y 0.035050 2.034110 0.029890 
#    z -0.004490 0.029890 1.940490 
# 
# From -- ./inp_files/166905.got.cif
#   From: 2010.05.17/outbox.cif.g08.bks.cpg/sg2_84_cif.got.tgz:166905.got - 2010.06.03 11:33:40.
