data_PCOD9035239
_publ_section_title
;
Structure prediction by ZEFSAII (Michael W. Deem and Ramdas Pophale) SiO2 
 PCOD9035239
Probable space group: P -1
;
_chemical_formula_sum "Si O2"
_cell_formula_units_Z 13
_cell_length_a 5.136320
_cell_length_b 10.405556
_cell_length_c 13.017835
_cell_angle_alpha 43.378905
_cell_angle_beta 112.222205
_cell_angle_gamma 106.348475
_cell_volume 442.341051
_symmetry_space_group_name_H-M "P -1"
_symmetry_group_IT_number 2
_symmetry_cell_setting 'triclinic'
loop_
_space_group_symop_operation_xyz
x,y,z
-x,-y,-z
loop_
_atom_site_type_symbol
_atom_site_label
_atom_site_fract_x
_atom_site_fract_y
_atom_site_fract_z
Si Si1 0.442139 0.744035 0.163567
Si Si2 0.475148 0.219762 0.322886
Si Si3 0.000000 0.500000 0.000000
Si Si4 0.015662 0.092066 0.765554
Si Si5 0.797455 0.993887 0.375198
Si Si6 0.381918 0.643050 0.530979
Si Si7 0.800744 0.740322 0.025824
O O1 0.678772 0.894627 0.146674
O O2 0.520873 0.564277 0.347406
O O3 0.108305 0.753272 0.119827
O O4 0.536215 0.706234 0.080584
O O5 0.672368 0.327319 0.371948
O O6 0.500000 0.000000 0.500000
O O7 0.610201 0.177492 0.257149
O O8 0.201827 0.348668 0.190623
O O9 0.139282 0.405449 0.971667
O O10 0.046633 0.998140 0.713530
O O11 0.880158 0.291345 0.611297
O O12 0.794003 0.957506 0.865437
O O13 0.626531 0.798257 0.459767
O O14 0.000000 0.000000 0.500000
#
# Coordination Sequence:
#
# PCOD9035239 Si02
#       7
#     2   2   1   2   2   2   2
#     4  12  30  52  77 117 166 211 277 337 403 501
#     4  10  22  45  72 114 157 201 263 334 409 485
#     4  12  26  48  82 114 158 212 268 344 418 474
#     4  12  28  49  81 110 158 227 261 339 415 490
#     4  11  25  44  83 118 160 206 276 344 417 492
#     4  11  25  48  76 115 159 207 275 339 409 493
#     4  12  30  51  79 116 163 211 275 341 409 500
#
# _framework density 29.389091000000001
#
# number of rings (size 3 to 8) (size 9 to 14) (size 15 to 20)
#    0.000    0.615    3.077    3.231   10.769    2.462 
#    0.000    0.000    0.000    0.000    0.000    0.000 
#    0.000    0.000    0.000    0.000    0.000    0.000 
#
# Total GULP energy -72569.402738 kJ/mol
# GULP energy per Si atom -5582.261749 kJ/mol
# Density = 2.932220 g / cm^3
# Si number density = 29.389091 Si / 1000 Ang^3
#
#
#
# Elastic Constant Matrix: (Units=GPa)
#
#
# Indices 1 2 3 4 5 6 
#
# 1 126.1908 2.7705 29.2392 -5.9940 8.8319 -11.0743
# 2 2.7705 82.6957 8.9338 8.1024 -4.8171 0.0162
# 3 29.2392 8.9338 157.2314 1.6963 30.9555 -1.2116
# 4 -5.9940 8.1024 1.6963 52.0442 1.6591 0.7059
# 5 8.8319 -4.8171 30.9555 1.6591 54.2046 5.4976
# 6 -11.0743 0.0162 -1.2116 0.7059 5.4976 61.8272
#
#
#
# Elastic Compliance Matrix: (Units=1/GPa)
#
#
# Indices 1 2 3 4 5 6 
#
# 1 0.008500 -0.000285 -0.001407 0.001073 -0.000797 0.001554
# 2 -0.000285 0.012511 -0.000994 -0.002003 0.001809 -0.000212
# 3 -0.001407 -0.000994 0.007502 -0.000123 -0.004167 0.000267
# 4 0.001073 -0.002003 -0.000123 0.019682 -0.000890 0.000045
# 5 -0.000797 0.001809 -0.004167 -0.000890 0.021360 -0.002114
# 6 0.001554 -0.000212 0.000267 0.000045 -0.002114 0.016645
#
#
# Mechanical properties :
#
#
# Convention : Reuss Voigt Hill
#
# Bulk Modulus (GPa) = 43.21308 49.77835 46.49572
# Shear Modulus (GPa) = 50.35974 55.29348 52.82661
#
# Velocity S-wave (km/s) = 4.14400 4.34225 4.24428
# Velocity P-wave (km/s) = 6.13455 6.48958 6.31456
#
# Compressibility (1/GPa) = 0.02314114
#
# Stress axis : x y z
#
# Youngs Moduli (GPa) = 117.64809 79.92908 133.29919
#
# Poissons Ratio (x) = 0.02275 0.18758
# Poissons Ratio (y) = 0.03349 0.13251
# Poissons Ratio (z) = 0.16555 0.07945
#
# Static dielectric constant tensor:
#      x y z
#    x 2.499490 -0.020440 -0.098150 
#    y -0.020440 2.295060 0.049630 
#    z -0.098150 0.049630 2.387020 
# 
# From -- ./inp_files/481972.got.cif
#   From: 2010.05.17/outbox.cif.g08.bks.cpg/sg2_241_cif.got.tgz:481972.got - 2010.06.03 11:33:40.
