data_PCOD9035783
_publ_section_title
;
Structure prediction by ZEFSAII (Michael W. Deem and Ramdas Pophale) SiO2 
 PCOD9035783
Probable space group: P -1
;
_chemical_formula_sum "Si O2"
_cell_formula_units_Z 15
_cell_length_a 9.737291
_cell_length_b 9.270367
_cell_length_c 8.218022
_cell_angle_alpha 108.054505
_cell_angle_beta 122.586004
_cell_angle_gamma 73.702974
_cell_volume 588.258497
_symmetry_space_group_name_H-M "P -1"
_symmetry_group_IT_number 2
_symmetry_cell_setting 'triclinic'
loop_
_space_group_symop_operation_xyz
x,y,z
-x,-y,-z
loop_
_atom_site_type_symbol
_atom_site_label
_atom_site_fract_x
_atom_site_fract_y
_atom_site_fract_z
Si Si1 0.140601 0.525722 0.230258
Si Si2 0.367291 0.462194 0.769577
Si Si3 0.960335 0.360128 0.276966
Si Si4 0.902744 0.175848 0.859106
Si Si5 0.110390 0.933672 0.699823
Si Si6 0.532211 0.683627 0.742319
Si Si7 0.464709 0.828765 0.397992
Si Si8 0.500000 0.000000 0.000000
O O1 0.128449 0.707642 0.273138
O O2 0.307303 0.439382 0.230797
O O3 0.110648 0.452327 0.361307
O O4 0.000000 0.500000 0.000000
O O5 0.193927 0.507002 0.761955
O O6 0.400145 0.583153 0.693149
O O7 0.417383 0.286834 0.682345
O O8 0.500000 0.500000 0.000000
O O9 0.934466 0.237021 0.354330
O O10 0.963826 0.259330 0.081508
O O11 0.719420 0.149885 0.780234
O O12 0.029944 0.034180 0.835405
O O13 0.304398 0.954560 0.825119
O O14 0.000000 0.000000 0.500000
O O15 0.479161 0.756082 0.559973
O O16 0.570781 0.823832 0.929291
O O17 0.500000 0.000000 0.500000
#
# Coordination Sequence:
#
# PCOD9035783 Si02
#       8
#     2   2   2   2   2   2   2   1
#     4  10  22  46  72 104 145 207 262 326 400 475
#     4  12  24  50  78 111 157 212 278 338 400 499
#     4  11  24  47  78 114 149 212 270 330 404 487
#     4  11  24  49  75 107 164 210 262 331 415 482
#     4  12  28  49  78 119 171 213 271 347 407 492
#     4  12  26  47  77 110 157 215 265 334 408 492
#     4  12  29  47  78 119 161 209 274 338 416 491
#     4  12  26  48  82 114 160 216 276 322 428 470
#
# _framework density 25.498992999999999
#
# number of rings (size 3 to 8) (size 9 to 14) (size 15 to 20)
#    0.000    0.533    4.000    4.000    5.600    0.000 
#    2.400    1.333    0.000    0.000    0.000    0.000 
#    0.000    0.000    0.000    0.000    0.000    0.000 
#
# Total GULP energy -83714.494808 kJ/mol
# GULP energy per Si atom -5580.966321 kJ/mol
# Density = 2.544096 g / cm^3
# Si number density = 25.498993 Si / 1000 Ang^3
#
#
#
# Elastic Constant Matrix: (Units=GPa)
#
#
# Indices 1 2 3 4 5 6 
#
# 1 133.7735 56.1697 11.9192 5.5361 -2.0307 -10.6935
# 2 56.1697 158.0481 40.5386 24.9192 -6.2115 -0.7471
# 3 11.9192 40.5386 78.3485 11.9031 -12.2368 7.1632
# 4 5.5361 24.9192 11.9031 56.3407 -4.3047 -8.0629
# 5 -2.0307 -6.2115 -12.2368 -4.3047 39.4783 12.2458
# 6 -10.6935 -0.7471 7.1632 -8.0629 12.2458 42.4101
#
#
#
# Elastic Compliance Matrix: (Units=1/GPa)
#
#
# Indices 1 2 3 4 5 6 
#
# 1 0.009057 -0.003345 -0.000166 0.000943 -0.000838 0.002674
# 2 -0.003345 0.008897 -0.003591 -0.002940 -0.000008 -0.000637
# 3 -0.000166 -0.003591 0.016322 -0.002108 0.005786 -0.004933
# 4 0.000943 -0.002940 -0.002108 0.020015 -0.000256 0.004421
# 5 -0.000838 -0.000008 0.005786 -0.000256 0.030134 -0.009939
# 6 0.002674 -0.000637 -0.004933 0.004421 -0.009939 0.028786
#
#
# Mechanical properties :
#
#
# Convention : Reuss Voigt Hill
#
# Bulk Modulus (GPa) = 49.82183 65.26945 57.54564
# Shear Modulus (GPa) = 37.28398 45.08199 41.18298
#
# Velocity S-wave (km/s) = 3.82799 4.20931 4.02317
# Velocity P-wave (km/s) = 6.25453 7.01975 6.64816
#
# Compressibility (1/GPa) = 0.02007152
#
# Stress axis : x y z
#
# Youngs Moduli (GPa) = 110.41543 112.39300 61.26801
#
# Poissons Ratio (x) = 0.37598 0.01015
# Poissons Ratio (y) = 0.36937 0.22003
# Poissons Ratio (z) = 0.01829 0.40363
#
# Static dielectric constant tensor:
#      x y z
#    x 1.897860 0.092610 0.042390 
#    y 0.092610 2.024110 -0.013230 
#    z 0.042390 -0.013230 2.010480 
# 
# From -- ./inp_files/159960.got.cif
#   From: 2010.05.17/outbox.cif.g08.bks.cpg/sg2_80_cif.got.tgz:159960.got - 2010.06.03 11:33:40.
