data_PCOD9035304
_publ_section_title
;
Structure prediction by ZEFSAII (Michael W. Deem and Ramdas Pophale) SiO2 
 PCOD9035304
Probable space group: P -1
;
_chemical_formula_sum "Si O2"
_cell_formula_units_Z 16
_cell_length_a 5.214593
_cell_length_b 28.125047
_cell_length_c 5.434790
_cell_angle_alpha 64.972295
_cell_angle_beta 83.986190
_cell_angle_gamma 57.346965
_cell_volume 600.062461
_symmetry_space_group_name_H-M "P -1"
_symmetry_group_IT_number 2
_symmetry_cell_setting 'triclinic'
loop_
_space_group_symop_operation_xyz
x,y,z
-x,-y,-z
loop_
_atom_site_type_symbol
_atom_site_label
_atom_site_fract_x
_atom_site_fract_y
_atom_site_fract_z
Si Si1 0.740870 0.102146 0.901076
Si Si2 0.224932 0.132988 0.255951
Si Si3 0.340784 0.309949 0.990856
Si Si4 0.706547 0.214977 0.803862
Si Si5 0.704044 0.569966 0.191049
Si Si6 0.383893 0.459300 0.232462
Si Si7 0.005661 0.748179 0.675283
Si Si8 0.674645 0.015860 0.748910
O O1 0.420041 0.126989 0.010832
O O2 0.737475 0.164505 0.715529
O O3 0.773461 0.060733 0.756653
O O4 0.008368 0.051034 0.171587
O O5 0.216814 0.182038 0.340538
O O6 0.407352 0.062067 0.487284
O O7 0.877025 0.168264 0.118243
O O8 0.154759 0.289880 0.217768
O O9 0.681975 0.284165 0.121565
O O10 0.390079 0.273499 0.809642
O O11 0.198219 0.383270 0.832054
O O12 0.889317 0.243976 0.618075
O O13 0.504207 0.567559 0.441943
O O14 0.018766 0.503675 0.238838
O O15 0.554358 0.588602 0.890672
O O16 0.500000 0.500000 0.000000
O O17 0.500000 0.000000 0.000000
#
# Coordination Sequence:
#
# PCOD9035304 Si02
#       8
#     2   2   2   2   2   2   2   2
#     4  11  23  41  66  92 131 175 226 294 361 443
#     4  11  23  43  64  94 131 174 231 287 365 433
#     4  11  27  46  72 110 144 193 246 303 363 441
#     4  11  26  45  70  97 137 184 235 298 367 439
#     4  10  24  43  71 114 148 202 258 309 370 449
#     4  10  22  45  73 109 156 203 250 313 376 435
#     4  11  26  46  72 102 145 188 241 299 371 431
#     4  11  25  41  63  96 128 175 227 289 371 443
#
# _framework density 26.663893000000002
#
# number of rings (size 3 to 8) (size 9 to 14) (size 15 to 20)
#    0.000    1.250    1.250    3.000    7.000    4.000 
#    0.000    0.000    0.000    0.000    0.000    0.000 
#    0.000    0.000    0.000    0.000    0.000    0.000 
#
# Total GULP energy -89461.349715 kJ/mol
# GULP energy per Si atom -5591.334357 kJ/mol
# Density = 2.660320 g / cm^3
# Si number density = 26.663893 Si / 1000 Ang^3
#
#
#
# Elastic Constant Matrix: (Units=GPa)
#
#
# Indices 1 2 3 4 5 6 
#
# 1 68.6116 24.9292 22.9818 5.5759 -14.8736 15.2594
# 2 24.9292 132.1194 40.0229 0.4330 -13.5332 20.5969
# 3 22.9818 40.0229 125.2431 22.2714 -31.6843 9.8336
# 4 5.5759 0.4330 22.2714 36.8570 3.2790 -6.5600
# 5 -14.8736 -13.5332 -31.6843 3.2790 51.3891 -8.1585
# 6 15.2594 20.5969 9.8336 -6.5600 -8.1585 36.2086
#
#
#
# Elastic Compliance Matrix: (Units=1/GPa)
#
#
# Indices 1 2 3 4 5 6 
#
# 1 0.017912 -0.001840 -0.000654 -0.003711 0.003549 -0.006197
# 2 -0.001840 0.009237 -0.002624 0.001140 -0.000369 -0.003643
# 3 -0.000654 -0.002624 0.012277 -0.008172 0.006976 -0.001474
# 4 -0.003711 0.001140 -0.008172 0.034623 -0.006770 0.007882
# 5 0.003549 -0.000369 0.006976 -0.006770 0.025329 0.001300
# 6 -0.006197 -0.003643 -0.001474 0.007882 0.001300 0.034423
#
#
# Mechanical properties :
#
#
# Convention : Reuss Voigt Hill
#
# Bulk Modulus (GPa) = 34.25918 55.76020 45.00969
# Shear Modulus (GPa) = 32.51647 40.76028 36.63837
#
# Velocity S-wave (km/s) = 3.49591 3.91406 3.71088
# Velocity P-wave (km/s) = 5.40108 6.43305 5.93952
#
# Compressibility (1/GPa) = 0.02918926
#
# Stress axis : x y z
#
# Youngs Moduli (GPa) = 55.82954 108.25483 81.45322
#
# Poissons Ratio (x) = 0.19915 0.05330
# Poissons Ratio (y) = 0.10271 0.21376
# Poissons Ratio (z) = 0.03654 0.28410
#
# Static dielectric constant tensor:
#      x y z
#    x 2.206770 0.040090 0.144830 
#    y 0.040090 2.099650 0.022020 
#    z 0.144830 0.022020 2.181950 
# 
# From -- ./inp_files/14378.got.cif
#   From: 2010.05.17/outbox.cif.g08.bks.cpg/sg2_8_cif.got.tgz:14378.got - 2010.06.03 11:33:40.
