data_PCOD9035816
_publ_section_title
;
Structure prediction by ZEFSAII (Michael W. Deem and Ramdas Pophale) SiO2 
 PCOD9035816
Probable space group: P -1
;
_chemical_formula_sum "Si O2"
_cell_formula_units_Z 13
_cell_length_a 13.383098
_cell_length_b 8.809672
_cell_length_c 8.648615
_cell_angle_alpha 56.185726
_cell_angle_beta 123.050109
_cell_angle_gamma 136.800774
_cell_volume 562.171164
_symmetry_space_group_name_H-M "P -1"
_symmetry_group_IT_number 2
_symmetry_cell_setting 'triclinic'
loop_
_space_group_symop_operation_xyz
x,y,z
-x,-y,-z
loop_
_atom_site_type_symbol
_atom_site_label
_atom_site_fract_x
_atom_site_fract_y
_atom_site_fract_z
Si Si1 0.842814 0.445821 0.853623
Si Si2 0.231351 0.921920 0.243236
Si Si3 0.579601 0.854053 0.433774
Si Si4 0.000000 0.500000 0.500000
Si Si5 0.678146 0.643974 0.102906
Si Si6 0.731411 0.314327 0.170217
Si Si7 0.722888 0.660504 0.492755
O O1 0.760387 0.225913 0.795972
O O2 0.858257 0.654962 0.661514
O O3 0.755172 0.391790 0.970687
O O4 0.000000 0.500000 0.000000
O O5 0.087513 0.732133 0.330735
O O6 0.371364 0.048982 0.406717
O O7 0.232873 0.120197 0.052366
O O8 0.695972 0.813520 0.485493
O O9 0.421342 0.604556 0.446438
O O10 0.593773 0.047804 0.232584
O O11 0.876585 0.348833 0.343062
O O12 0.717877 0.478770 0.173827
O O13 0.717484 0.700382 0.284532
O O14 0.500000 0.500000 0.000000
#
# Coordination Sequence:
#
# PCOD9035816 Si02
#       7
#     2   2   2   1   2   2   2
#     4  12  26  46  71 105 141 194 241 293 354 434
#     4  11  23  46  72 104 146 182 244 292 358 430
#     4  10  23  44  75 104 139 192 235 302 362 422
#     4  10  22  46  72  98 138 192 240 286 350 422
#     4  12  26  44  73 112 142 188 238 300 366 429
#     4  11  25  45  70 104 146 187 244 295 358 423
#     4  11  24  45  71 106 149 181 244 294 362 428
#
# _framework density 23.12463
#
# number of rings (size 3 to 8) (size 9 to 14) (size 15 to 20)
#    0.000    0.923    3.077    3.692    4.308    2.462 
#    5.538    1.538    0.000    0.000    0.000    0.000 
#    0.000    0.000    0.000    0.000    0.000    0.000 
#
# Total GULP energy -72501.275195 kJ/mol
# GULP energy per Si atom -5577.021169 kJ/mol
# Density = 2.307200 g / cm^3
# Si number density = 23.124630 Si / 1000 Ang^3
#
#
#
# Elastic Constant Matrix: (Units=GPa)
#
#
# Indices 1 2 3 4 5 6 
#
# 1 49.2644 20.6024 21.0373 5.9215 -3.0763 -12.1733
# 2 20.6024 88.2998 23.1917 -14.5631 -11.5244 -6.1088
# 3 21.0373 23.1917 140.9968 -5.5901 -25.1226 10.6824
# 4 5.9215 -14.5631 -5.5901 59.4457 -1.2247 -14.6588
# 5 -3.0763 -11.5244 -25.1226 -1.2247 34.2091 -2.9782
# 6 -12.1733 -6.1088 10.6824 -14.6588 -2.9782 38.8848
#
#
#
# Elastic Compliance Matrix: (Units=1/GPa)
#
#
# Indices 1 2 3 4 5 6 
#
# 1 0.026212 -0.005181 -0.004040 -0.002464 -0.001796 0.007435
# 2 -0.005181 0.014294 -0.000878 0.004754 0.004133 0.002973
# 3 -0.004040 -0.000878 0.009134 0.000341 0.005770 -0.003342
# 4 -0.002464 0.004754 0.000341 0.020236 0.003029 0.007742
# 5 -0.001796 0.004133 0.005770 0.003029 0.035011 0.002325
# 6 0.007435 0.002973 -0.003342 0.007742 0.002325 0.032527
#
#
# Mechanical properties :
#
#
# Convention : Reuss Voigt Hill
#
# Bulk Modulus (GPa) = 33.96558 45.35820 39.66189
# Shear Modulus (GPa) = 29.86396 40.75657 35.31027
#
# Velocity S-wave (km/s) = 3.59755 4.20274 3.91187
# Velocity P-wave (km/s) = 5.65477 6.57327 6.13125
#
# Compressibility (1/GPa) = 0.02944157
#
# Stress axis : x y z
#
# Youngs Moduli (GPa) = 38.15089 69.96029 109.47630
#
# Poissons Ratio (x) = 0.36247 0.44225
# Poissons Ratio (y) = 0.19766 0.09616
# Poissons Ratio (z) = 0.15412 0.06145
#
# Static dielectric constant tensor:
#      x y z
#    x 1.924160 0.052750 0.076380 
#    y 0.052750 1.842290 0.028950 
#    z 0.076380 0.028950 1.889490 
# 
# From -- ./inp_files/172491.got.cif
#   From: 2010.05.17/outbox.cif.g08.bks.cpg/sg2_87_cif.got.tgz:172491.got - 2010.06.03 11:33:40.
