data_PCOD9035807
_publ_section_title
;
Structure prediction by ZEFSAII (Michael W. Deem and Ramdas Pophale) SiO2 
 PCOD9035807
Probable space group: P -1
;
_chemical_formula_sum "Si O2"
_cell_formula_units_Z 14
_cell_length_a 9.510496
_cell_length_b 9.320066
_cell_length_c 8.315602
_cell_angle_alpha 90.799438
_cell_angle_beta 52.682934
_cell_angle_gamma 99.061368
_cell_volume 575.753403
_symmetry_space_group_name_H-M "P -1"
_symmetry_group_IT_number 2
_symmetry_cell_setting 'triclinic'
loop_
_space_group_symop_operation_xyz
x,y,z
-x,-y,-z
loop_
_atom_site_type_symbol
_atom_site_label
_atom_site_fract_x
_atom_site_fract_y
_atom_site_fract_z
Si Si1 0.241395 0.602340 0.011465
Si Si2 0.228609 0.278837 0.018765
Si Si3 0.223517 0.201812 0.664220
Si Si4 0.113224 0.461186 0.572309
Si Si5 0.597719 0.359523 0.439544
Si Si6 0.421262 0.849083 0.141684
Si Si7 0.087491 0.915825 0.576748
O O1 0.287262 0.646715 0.798961
O O2 0.674937 0.270764 0.922247
O O3 0.304406 0.449620 0.999196
O O4 0.030320 0.557825 0.185764
O O5 0.063999 0.213784 0.249686
O O6 0.163048 0.254820 0.879276
O O7 0.399208 0.201209 0.920032
O O8 0.187135 0.309252 0.543247
O O9 0.438034 0.222642 0.538633
O O10 0.137949 0.037067 0.682130
O O11 0.274239 0.595139 0.497458
O O12 0.000000 0.500000 0.500000
O O13 0.500000 0.500000 0.500000
O O14 0.268236 0.876303 0.374513
O O15 0.500000 0.000000 0.000000
O O16 0.000000 0.000000 0.500000
#
# Coordination Sequence:
#
# PCOD9035807 Si02
#       7
#     2   2   2   2   2   2   2
#     4  12  26  47  77 115 159 199 270 329 394 475
#     4  12  28  48  80 117 159 209 269 332 401 468
#     4  11  26  52  76 112 162 207 266 332 398 481
#     4  11  26  43  78 116 153 206 260 330 404 467
#     4  10  22  46  72 110 155 199 257 320 400 464
#     4  12  28  50  78 118 161 213 263 326 405 477
#     4  12  27  52  79 112 159 213 269 329 399 477
#
# _framework density 24.315966
#
# number of rings (size 3 to 8) (size 9 to 14) (size 15 to 20)
#    0.000    0.571    4.286    3.000    6.000    1.714 
#    0.000    0.000    0.000    0.000    0.000    0.000 
#    0.000    0.000    0.000    0.000    0.000    0.000 
#
# Total GULP energy -78370.672210 kJ/mol
# GULP energy per Si atom -5597.905158 kJ/mol
# Density = 2.426062 g / cm^3
# Si number density = 24.315966 Si / 1000 Ang^3
#
#
#
# Elastic Constant Matrix: (Units=GPa)
#
#
# Indices 1 2 3 4 5 6 
#
# 1 132.0112 41.0022 28.0755 3.6488 4.0180 -9.2523
# 2 41.0022 126.1972 24.6272 -1.3653 6.2909 1.1417
# 3 28.0755 24.6272 122.7500 -1.1488 -14.5899 5.8683
# 4 3.6488 -1.3653 -1.1488 37.4366 4.0223 -3.4081
# 5 4.0180 6.2909 -14.5899 4.0223 40.0173 9.5082
# 6 -9.2523 1.1417 5.8683 -3.4081 9.5082 40.7374
#
#
#
# Elastic Compliance Matrix: (Units=1/GPa)
#
#
# Indices 1 2 3 4 5 6 
#
# 1 0.009024 -0.002499 -0.001916 -0.000583 -0.001811 0.002770
# 2 -0.002499 0.009115 -0.001451 0.000706 -0.001747 -0.000147
# 3 -0.001916 -0.001451 0.009560 -0.000332 0.004623 -0.002878
# 4 -0.000583 0.000706 -0.000332 0.027454 -0.003657 0.003046
# 5 -0.001811 -0.001747 0.004623 -0.003657 0.029449 -0.008208
# 6 0.002770 -0.000147 -0.002878 0.003046 -0.008208 0.027766
#
#
# Mechanical properties :
#
#
# Convention : Reuss Voigt Hill
#
# Bulk Modulus (GPa) = 62.62838 63.15203 62.89021
# Shear Modulus (GPa) = 38.63295 42.78850 40.71073
#
# Velocity S-wave (km/s) = 3.99029 4.19941 4.09618
# Velocity P-wave (km/s) = 6.85871 7.03855 6.94921
#
# Compressibility (1/GPa) = 0.01596720
#
# Stress axis : x y z
#
# Youngs Moduli (GPa) = 110.81400 109.70474 104.60290
#
# Poissons Ratio (x) = 0.27418 0.20039
# Poissons Ratio (y) = 0.27695 0.15180
# Poissons Ratio (z) = 0.21229 0.15920
#
# Static dielectric constant tensor:
#      x y z
#    x 1.961950 -0.046370 0.032920 
#    y -0.046370 1.971010 0.000910 
#    z 0.032920 0.000910 1.960290 
# 
# From -- ./inp_files/157854.got.cif
#   From: 2010.05.17/outbox.cif.g08.bks.cpg/sg2_79_cif.got.tgz:157854.got - 2010.06.03 11:33:40.
