data_PCOD9035252
_publ_section_title
;
Structure prediction by ZEFSAII (Michael W. Deem and Ramdas Pophale) SiO2 
 PCOD9035252
Probable space group: P -1
;
_chemical_formula_sum "Si O2"
_cell_formula_units_Z 15
_cell_length_a 9.178519
_cell_length_b 9.204973
_cell_length_c 17.370602
_cell_angle_alpha 58.095114
_cell_angle_beta 149.366106
_cell_angle_gamma 111.400910
_cell_volume 620.995357
_symmetry_space_group_name_H-M "P -1"
_symmetry_group_IT_number 2
_symmetry_cell_setting 'triclinic'
loop_
_space_group_symop_operation_xyz
x,y,z
-x,-y,-z
loop_
_atom_site_type_symbol
_atom_site_label
_atom_site_fract_x
_atom_site_fract_y
_atom_site_fract_z
Si Si1 0.345827 0.000412 0.733158
Si Si2 0.869474 0.269787 0.522156
Si Si3 0.954565 0.262148 0.978763
Si Si4 0.008721 0.878515 0.124289
Si Si5 0.500000 0.000000 0.500000
Si Si6 0.567119 0.511165 0.855023
Si Si7 0.972320 0.570554 0.303542
Si Si8 0.167789 0.190658 0.440039
O O1 0.314722 0.069627 0.611975
O O2 0.179671 0.160644 0.664897
O O3 0.154661 0.852904 0.697433
O O4 0.670524 0.929350 0.929678
O O5 0.694794 0.137541 0.518972
O O6 0.674643 0.350518 0.339346
O O7 0.916920 0.414404 0.563738
O O8 0.730912 0.367534 0.908938
O O9 0.834705 0.217718 0.853609
O O10 0.193183 0.380817 0.038903
O O11 0.080782 0.066922 0.125371
O O12 0.031963 0.740239 0.240353
O O13 0.338831 0.141384 0.453107
O O14 0.375750 0.428027 0.851715
O O15 0.134787 0.392933 0.388265
#
# Coordination Sequence:
#
# PCOD9035252 Si02
#       8
#     2   2   2   2   1   2   2   2
#     4  10  22  45  72  98 142 189 235 277 360 415
#     4  11  25  43  71 105 138 186 234 297 345 412
#     4  10  26  45  69  97 148 187 229 283 372 407
#     4  11  26  45  68 105 143 189 232 291 348 429
#     4  10  26  42  66 102 142 174 228 292 356 406
#     4  11  24  47  71 101 139 190 236 294 343 427
#     4  12  26  44  72 108 140 181 246 289 347 414
#     4  10  23  43  70 105 136 185 230 294 346 419
#
# _framework density 24.154769000000002
#
# number of rings (size 3 to 8) (size 9 to 14) (size 15 to 20)
#    0.000    1.333    1.333    2.000    9.333    5.867 
#    4.800    0.000    0.000    0.000    0.000    0.000 
#    0.000    0.000    0.000    0.000    0.000    0.000 
#
# Total GULP energy -83792.251224 kJ/mol
# GULP energy per Si atom -5586.150082 kJ/mol
# Density = 2.409979 g / cm^3
# Si number density = 24.154769 Si / 1000 Ang^3
#
#
#
# Elastic Constant Matrix: (Units=GPa)
#
#
# Indices 1 2 3 4 5 6 
#
# 1 112.1639 32.7240 -2.7987 -17.7542 20.0312 -9.8914
# 2 32.7240 135.9938 2.1222 -5.0924 13.2618 -13.6449
# 3 -2.7987 2.1222 35.0221 5.4234 9.4817 1.1953
# 4 -17.7542 -5.0924 5.4234 29.0892 2.7446 4.6804
# 5 20.0312 13.2618 9.4817 2.7446 26.7972 -10.6388
# 6 -9.8914 -13.6449 1.1953 4.6804 -10.6388 47.3381
#
#
#
# Elastic Compliance Matrix: (Units=1/GPa)
#
#
# Indices 1 2 3 4 5 6 
#
# 1 0.012633 -0.001845 0.002847 0.008072 -0.010840 -0.001198
# 2 -0.001845 0.008158 -0.000187 0.000290 -0.002032 0.001485
# 3 0.002847 -0.000187 0.033344 -0.002557 -0.014923 -0.003402
# 4 0.008072 0.000290 -0.002557 0.041697 -0.011476 -0.004867
# 5 -0.010840 -0.002032 -0.014923 -0.011476 0.057478 0.011578
# 6 -0.001198 0.001485 -0.003402 -0.004867 0.011578 0.024472
#
#
# Mechanical properties :
#
#
# Convention : Reuss Voigt Hill
#
# Bulk Modulus (GPa) = 17.93258 38.58610 28.25934
# Shear Modulus (GPa) = 25.67515 37.38707 31.53111
#
# Velocity S-wave (km/s) = 3.26382 3.93849 3.61692
# Velocity P-wave (km/s) = 4.65226 6.05735 5.40069
#
# Compressibility (1/GPa) = 0.05576442
#
# Stress axis : x y z
#
# Youngs Moduli (GPa) = 79.15909 122.57576 29.99014
#
# Poissons Ratio (x) = 0.22617 -0.08538
# Poissons Ratio (y) = 0.14606 0.00562
# Poissons Ratio (z) = -0.22536 0.02295
#
# Static dielectric constant tensor:
#      x y z
#    x 1.947560 0.029740 0.013590 
#    y 0.029740 1.939390 0.047690 
#    z 0.013590 0.047690 1.946420 
# 
# From -- ./inp_files/542502.got.cif
#   From: 2010.05.17/outbox.cif.g08.bks.cpg/sg2_272_cif.got.tgz:542502.got - 2010.06.03 11:33:40.
