data_PCOD9035340
_publ_section_title
;
Structure prediction by ZEFSAII (Michael W. Deem and Ramdas Pophale) SiO2 
 PCOD9035340
Probable space group: P -1
;
_chemical_formula_sum "Si O2"
_cell_formula_units_Z 14
_cell_length_a 17.835590
_cell_length_b 6.224458
_cell_length_c 9.597846
_cell_angle_alpha 124.236028
_cell_angle_beta 101.041683
_cell_angle_gamma 54.312556
_cell_volume 700.495456
_symmetry_space_group_name_H-M "P -1"
_symmetry_group_IT_number 2
_symmetry_cell_setting 'triclinic'
loop_
_space_group_symop_operation_xyz
x,y,z
-x,-y,-z
loop_
_atom_site_type_symbol
_atom_site_label
_atom_site_fract_x
_atom_site_fract_y
_atom_site_fract_z
Si Si1 0.217614 0.278602 0.038221
Si Si2 0.479333 0.290366 0.325721
Si Si3 0.670623 0.668940 0.130095
Si Si4 0.189408 0.736732 0.739102
Si Si5 0.303821 0.318434 0.364572
Si Si6 0.425001 0.599045 0.131312
Si Si7 0.011045 0.800776 0.076934
O O1 0.245208 0.306478 0.213736
O O2 0.119738 0.619902 0.090949
O O3 0.301924 0.202718 0.940838
O O4 0.203653 0.004451 0.894976
O O5 0.500000 0.500000 0.500000
O O6 0.376791 0.386143 0.359243
O O7 0.477575 0.348797 0.182409
O O8 0.568247 0.927927 0.252456
O O9 0.752553 0.536924 0.223761
O O10 0.658093 0.409735 0.965934
O O11 0.237777 0.572738 0.550878
O O12 0.077572 0.911767 0.763230
O O13 0.375143 0.950736 0.306387
O O14 0.500000 0.500000 0.000000
O O15 0.000000 0.500000 0.000000
O O16 0.000000 0.000000 0.000000
#
# Coordination Sequence:
#
# PCOD9035340 Si02
#       7
#     2   2   2   2   2   2   2
#     4  11  23  44  70  92 135 175 225 279 351 407
#     4  12  26  39  59  94 133 172 223 278 334 404
#     4  12  22  40  66  90 130 179 222 276 336 415
#     4  11  25  42  69  99 130 175 230 280 348 409
#     4  12  25  42  65  98 133 176 227 279 335 412
#     4  12  24  41  63  91 133 180 226 270 340 405
#     4  10  22  45  74 104 138 182 233 291 356 421
#
# _framework density 19.985855000000001
#
# number of rings (size 3 to 8) (size 9 to 14) (size 15 to 20)
#    0.000    0.571    5.714    3.000    2.000    1.714 
#    0.000    0.000    0.000    4.286    0.000    0.000 
#    0.000    0.000    0.000    0.000    0.000    0.000 
#
# Total GULP energy -77988.777064 kJ/mol
# GULP energy per Si atom -5570.626933 kJ/mol
# Density = 1.994037 g / cm^3
# Si number density = 19.985855 Si / 1000 Ang^3
#
#
#
# Elastic Constant Matrix: (Units=GPa)
#
#
# Indices 1 2 3 4 5 6 
#
# 1 70.1764 8.0400 33.7334 13.0101 -15.0267 -8.5875
# 2 8.0400 85.5895 33.0468 10.4770 -7.4748 -18.2064
# 3 33.7334 33.0468 123.0976 10.8486 -11.7180 -10.5234
# 4 13.0101 10.4770 10.8486 20.2667 -5.8959 -6.2122
# 5 -15.0267 -7.4748 -11.7180 -5.8959 40.9554 6.7978
# 6 -8.5875 -18.2064 -10.5234 -6.2122 6.7978 33.5825
#
#
#
# Elastic Compliance Matrix: (Units=1/GPa)
#
#
# Indices 1 2 3 4 5 6 
#
# 1 0.018948 0.001762 -0.004295 -0.008896 0.004447 0.001909
# 2 0.001762 0.014853 -0.003439 -0.004826 0.000615 0.006408
# 3 -0.004295 -0.003439 0.010357 -0.000823 0.000641 0.000001
# 4 -0.008896 -0.004826 -0.000823 0.060639 0.003458 0.005369
# 5 0.004447 0.000615 0.000641 0.003458 0.027378 -0.003231
# 6 0.001909 0.006408 0.000001 0.005369 -0.003231 0.035387
#
#
# Mechanical properties :
#
#
# Convention : Reuss Voigt Hill
#
# Bulk Modulus (GPa) = 31.04147 47.61154 39.32651
# Shear Modulus (GPa) = 26.28190 32.56381 29.42285
#
# Velocity S-wave (km/s) = 3.63026 4.04089 3.84107
# Velocity P-wave (km/s) = 5.75649 6.75619 6.27627
#
# Compressibility (1/GPa) = 0.03221497
#
# Stress axis : x y z
#
# Youngs Moduli (GPa) = 52.77724 67.32428 96.54959
#
# Poissons Ratio (x) = -0.11861 0.41466
# Poissons Ratio (y) = -0.09298 0.33200
# Poissons Ratio (z) = 0.22667 0.23151
#
# Static dielectric constant tensor:
#      x y z
#    x 1.749560 0.062580 0.036720 
#    y 0.062580 1.807030 0.018610 
#    z 0.036720 0.018610 1.688320 
# 
# From -- ./inp_files/32762.got.cif
#   From: 2010.05.17/outbox.cif.g08.bks.cpg/sg2_17_cif.got.tgz:32762.got - 2010.06.03 11:33:40.
