data_PCOD9035659
_publ_section_title
;
Structure prediction by ZEFSAII (Michael W. Deem and Ramdas Pophale) SiO2 
 PCOD9035659
Probable space group: P -1
;
_chemical_formula_sum "Si O2"
_cell_formula_units_Z 15
_cell_length_a 11.922195
_cell_length_b 8.121665
_cell_length_c 13.610259
_cell_angle_alpha 101.511689
_cell_angle_beta 128.880914
_cell_angle_gamma 117.895428
_cell_volume 632.091659
_symmetry_space_group_name_H-M "P -1"
_symmetry_group_IT_number 2
_symmetry_cell_setting 'triclinic'
loop_
_space_group_symop_operation_xyz
x,y,z
-x,-y,-z
loop_
_atom_site_type_symbol
_atom_site_label
_atom_site_fract_x
_atom_site_fract_y
_atom_site_fract_z
Si Si1 0.755355 0.711650 0.622626
Si Si2 0.089318 0.738536 0.366639
Si Si3 0.998163 0.368737 0.136518
Si Si4 0.511389 0.106011 0.121915
Si Si5 0.385454 0.286220 0.655008
Si Si6 0.072525 0.208209 0.985679
Si Si7 0.315147 0.396937 0.810375
Si Si8 0.000000 0.500000 0.500000
O O1 0.500000 0.500000 0.500000
O O2 0.873367 0.652708 0.725428
O O3 0.715976 0.680138 0.479958
O O4 0.913157 0.008930 0.783563
O O5 0.085061 0.626903 0.252430
O O6 0.897355 0.711050 0.265579
O O7 0.010085 0.548647 0.391136
O O8 0.326923 0.049599 0.553064
O O9 0.033083 0.343084 0.040761
O O10 0.728856 0.121842 0.982752
O O11 0.571573 0.354161 0.163214
O O12 0.723516 0.223415 0.310494
O O13 0.500000 0.000000 0.000000
O O14 0.655360 0.554400 0.853729
O O15 0.259012 0.199843 0.678781
O O16 0.000000 0.000000 0.000000
O O17 0.500000 0.500000 0.000000
#
# Coordination Sequence:
#
# PCOD9035659 Si02
#       8
#     2   2   2   2   2   2   2   1
#     4  11  24  46  75 105 143 194 246 290 358 438
#     4  11  27  44  70 108 141 189 247 296 375 425
#     4  11  23  44  75 103 146 185 247 301 359 433
#     4  11  23  44  71 101 139 181 243 292 361 436
#     4  12  26  45  71 104 146 192 246 294 363 432
#     4  10  22  46  70 103 140 187 242 293 359 427
#     4  11  26  44  69 103 144 187 238 304 367 429
#     4  10  24  46  66  96 146 184 234 288 364 430
#
# _framework density 23.730736
#
# number of rings (size 3 to 8) (size 9 to 14) (size 15 to 20)
#    0.000    1.067    5.333    2.000    9.333    0.533 
#    0.000    0.667    0.000    0.000    0.000    0.000 
#    0.000    0.000    0.000    0.000    0.000    0.000 
#
# Total GULP energy -83662.293489 kJ/mol
# GULP energy per Si atom -5577.486233 kJ/mol
# Density = 2.367672 g / cm^3
# Si number density = 23.730736 Si / 1000 Ang^3
#
#
#
# Elastic Constant Matrix: (Units=GPa)
#
#
# Indices 1 2 3 4 5 6 
#
# 1 150.9082 11.6357 78.5319 -0.4572 -10.3661 -12.5989
# 2 11.6357 39.3390 15.6431 13.9351 -11.0554 -3.1264
# 3 78.5319 15.6431 201.3483 5.6057 5.9780 -2.9304
# 4 -0.4572 13.9351 5.6057 42.5865 8.5052 -13.7941
# 5 -10.3661 -11.0554 5.9780 8.5052 43.7029 5.1318
# 6 -12.5989 -3.1264 -2.9304 -13.7941 5.1318 27.0961
#
#
#
# Elastic Compliance Matrix: (Units=1/GPa)
#
#
# Indices 1 2 3 4 5 6 
#
# 1 0.008993 -0.001344 -0.003437 0.002193 0.001305 0.004524
# 2 -0.001344 0.035635 -0.002286 -0.016461 0.013107 -0.007623
# 3 -0.003437 -0.002286 0.006539 0.000067 -0.002219 -0.000701
# 4 0.002193 -0.016461 0.000067 0.038515 -0.013652 0.021321
# 5 0.001305 0.013107 -0.002219 -0.013652 0.030747 -0.010894
# 6 0.004524 -0.007623 -0.000701 0.021321 -0.010894 0.050971
#
#
# Mechanical properties :
#
#
# Convention : Reuss Voigt Hill
#
# Bulk Modulus (GPa) = 27.00336 67.02408 47.01372
# Shear Modulus (GPa) = 25.26813 41.72944 33.49879
#
# Velocity S-wave (km/s) = 3.26664 4.19794 3.76123
# Velocity P-wave (km/s) = 5.06278 7.19735 6.22228
#
# Compressibility (1/GPa) = 0.03703243
#
# Stress axis : x y z
#
# Youngs Moduli (GPa) = 111.20050 28.06205 152.94023
#
# Poissons Ratio (x) = 0.03771 0.52566
# Poissons Ratio (y) = 0.14943 0.34966
# Poissons Ratio (z) = 0.38220 0.06416
#
# Static dielectric constant tensor:
#      x y z
#    x 3.050170 -0.890970 -1.007740 
#    y -0.890970 2.595020 0.722890 
#    z -1.007740 0.722890 2.721660 
# 
# From -- ./inp_files/514538.got.cif
#   From: 2010.05.17/outbox.cif.g08.bks.cpg/sg2_258_cif.got.tgz:514538.got - 2010.06.03 11:33:40.
