data_PCOD9035557
_publ_section_title
;
Structure prediction by ZEFSAII (Michael W. Deem and Ramdas Pophale) SiO2 
 PCOD9035557
Probable space group: P -1
;
_chemical_formula_sum "Si O2"
_cell_formula_units_Z 13
_cell_length_a 13.362529
_cell_length_b 8.620658
_cell_length_c 7.598941
_cell_angle_alpha 143.140831
_cell_angle_beta 93.005727
_cell_angle_gamma 100.566185
_cell_volume 485.846715
_symmetry_space_group_name_H-M "P -1"
_symmetry_group_IT_number 2
_symmetry_cell_setting 'triclinic'
loop_
_space_group_symop_operation_xyz
x,y,z
-x,-y,-z
loop_
_atom_site_type_symbol
_atom_site_label
_atom_site_fract_x
_atom_site_fract_y
_atom_site_fract_z
Si Si1 0.603600 0.224115 0.515911
Si Si2 0.111339 0.732056 0.794899
Si Si3 0.294376 0.514114 0.682392
Si Si4 0.010828 0.235732 0.858507
Si Si5 0.500000 0.000000 0.000000
Si Si6 0.411377 0.251103 0.656727
Si Si7 0.779461 0.763583 0.948990
O O1 0.607429 0.051051 0.186343
O O2 0.481324 0.217890 0.462329
O O3 0.675408 0.545257 0.837152
O O4 0.614069 0.040343 0.510789
O O5 0.203458 0.642960 0.812794
O O6 0.000000 0.500000 0.500000
O O7 0.070465 0.869818 0.078537
O O8 0.164702 0.908646 0.784811
O O9 0.308569 0.315247 0.654225
O O10 0.254232 0.336521 0.342833
O O11 0.419066 0.720704 0.849823
O O12 0.127156 0.319297 0.034355
O O13 0.000000 0.000000 0.500000
O O14 0.000000 0.500000 0.000000
O O15 0.500000 0.500000 0.000000
#
# Coordination Sequence:
#
# PCOD9035557 Si02
#       7
#     2   2   2   2   1   2   2
#     4  10  25  47  74 114 161 208 273 330 421 497
#     4  12  27  53  83 117 164 221 290 347 427 504
#     4  11  26  43  83 112 157 216 276 341 412 507
#     4  12  29  54  81 121 168 216 286 365 430 505
#     4  10  22  46  68 116 152 202 264 326 404 492
#     4  11  24  47  73 111 164 208 264 340 409 492
#     4  11  27  49  78 112 154 221 276 347 413 515
#
# _framework density 26.757407000000001
#
# number of rings (size 3 to 8) (size 9 to 14) (size 15 to 20)
#    0.000    0.923    3.077    1.385    6.462    3.692 
#    0.000    0.000    0.000    0.000    0.000    0.000 
#    0.000    0.000    0.000    0.000    0.000    0.000 
#
# Total GULP energy -72443.956860 kJ/mol
# GULP energy per Si atom -5572.612066 kJ/mol
# Density = 2.669651 g / cm^3
# Si number density = 26.757407 Si / 1000 Ang^3
#
#
#
# Elastic Constant Matrix: (Units=GPa)
#
#
# Indices 1 2 3 4 5 6 
#
# 1 134.2664 80.6862 39.0844 21.5639 19.1405 -16.0869
# 2 80.6862 145.7454 43.0989 26.1259 8.2130 -29.9993
# 3 39.0844 43.0989 129.7526 16.9499 20.2455 -4.6440
# 4 21.5639 26.1259 16.9499 50.8244 2.7954 3.4396
# 5 19.1405 8.2130 20.2455 2.7954 41.9760 4.5209
# 6 -16.0869 -29.9993 -4.6440 3.4396 4.5209 55.4500
#
#
#
# Elastic Compliance Matrix: (Units=1/GPa)
#
#
# Indices 1 2 3 4 5 6 
#
# 1 0.012080 -0.005748 -0.000865 -0.001717 -0.003933 0.000749
# 2 -0.005748 0.012192 -0.001797 -0.003608 0.000811 0.004935
# 3 -0.000865 -0.001797 0.009344 -0.001622 -0.003648 -0.000042
# 4 -0.001717 -0.003608 -0.001622 0.023012 0.001181 -0.004109
# 5 -0.003933 0.000811 -0.003648 0.001181 0.027497 -0.003323
# 6 0.000749 0.004935 -0.000042 -0.004109 -0.003323 0.021444
#
#
# Mechanical properties :
#
#
# Convention : Reuss Voigt Hill
#
# Bulk Modulus (GPa) = 59.53733 81.72261 70.62997
# Shear Modulus (GPa) = 39.06624 46.10974 42.58799
#
# Velocity S-wave (km/s) = 3.82516 4.15571 3.99386
# Velocity P-wave (km/s) = 6.46593 7.32359 6.90808
#
# Compressibility (1/GPa) = 0.01679619
#
# Stress axis : x y z
#
# Youngs Moduli (GPa) = 82.77998 82.02187 107.02181
#
# Poissons Ratio (x) = 0.47150 0.09254
# Poissons Ratio (y) = 0.47586 0.19229
# Poissons Ratio (z) = 0.07158 0.14737
#
# Static dielectric constant tensor:
#      x y z
#    x 1.851840 -0.076020 0.497770 
#    y -0.076020 2.090150 0.488580 
#    z 0.497770 0.488580 1.156060 
# 
# From -- ./inp_files/297193.got.cif
#   From: 2010.05.17/outbox.cif.g08.bks.cpg/sg2_149_cif.got.tgz:297193.got - 2010.06.03 11:33:40.
