data_PCOD9035979
_publ_section_title
;
Structure prediction by ZEFSAII (Michael W. Deem and Ramdas Pophale) SiO2 
 PCOD9035979
Probable space group: P -1
;
_chemical_formula_sum "Si O2"
_cell_formula_units_Z 13
_cell_length_a 5.017593
_cell_length_b 13.229514
_cell_length_c 11.464975
_cell_angle_alpha 97.320597
_cell_angle_beta 117.970360
_cell_angle_gamma 119.935917
_cell_volume 513.417679
_symmetry_space_group_name_H-M "P -1"
_symmetry_group_IT_number 2
_symmetry_cell_setting 'triclinic'
loop_
_space_group_symop_operation_xyz
x,y,z
-x,-y,-z
loop_
_atom_site_type_symbol
_atom_site_label
_atom_site_fract_x
_atom_site_fract_y
_atom_site_fract_z
Si Si1 0.157532 0.584489 0.662620
Si Si2 0.254299 0.846842 0.700878
Si Si3 0.053574 0.903739 0.440230
Si Si4 0.531383 0.622295 0.068555
Si Si5 0.281096 0.477039 0.207803
Si Si6 0.887721 0.886881 0.146947
Si Si7 0.500000 0.000000 0.000000
O O1 0.246353 0.723615 0.695537
O O2 0.534385 0.595275 0.768029
O O3 0.000000 0.500000 0.500000
O O4 0.825961 0.506957 0.683460
O O5 0.007173 0.818983 0.529074
O O6 0.182154 0.897349 0.811031
O O7 0.688293 0.981858 0.780801
O O8 0.808328 0.859077 0.263965
O O9 0.500000 0.000000 0.500000
O O10 0.000000 0.000000 0.500000
O O11 0.575284 0.611637 0.214156
O O12 0.851665 0.759507 0.089055
O O13 0.500000 0.500000 0.000000
O O14 0.132629 0.597686 0.954630
O O15 0.600827 0.902006 0.026069
#
# Coordination Sequence:
#
# PCOD9035979 Si02
#       7
#     2   2   2   2   2   2   1
#     4  12  28  50  77 111 157 206 259 317 382 462
#     4  11  27  45  77 110 157 196 260 315 390 457
#     4  10  22  47  65 103 143 190 241 299 366 450
#     4  11  25  48  80 109 156 200 254 322 380 466
#     4  11  26  50  74 113 150 203 260 313 383 459
#     4  11  26  45  75 111 149 198 253 313 387 446
#     4  12  24  44  70 112 152 196 238 320 382 454
#
# _framework density 25.320519000000001
#
# number of rings (size 3 to 8) (size 9 to 14) (size 15 to 20)
#    0.000    0.923    3.077    1.846    6.462    3.692 
#    5.538    0.000    0.000    0.000    0.000    0.000 
#    0.000    0.000    0.000    0.000    0.000    0.000 
#
# Total GULP energy -72382.821731 kJ/mol
# GULP energy per Si atom -5567.909364 kJ/mol
# Density = 2.526289 g / cm^3
# Si number density = 25.320519 Si / 1000 Ang^3
#
#
#
# Elastic Constant Matrix: (Units=GPa)
#
#
# Indices 1 2 3 4 5 6 
#
# 1 106.9746 55.1455 17.4540 -7.2351 -14.3352 -27.0619
# 2 55.1455 189.0274 36.4137 -7.6202 -2.3322 -18.7969
# 3 17.4540 36.4137 118.1362 -9.9735 -14.5852 -9.5410
# 4 -7.2351 -7.6202 -9.9735 38.4527 -13.3738 -0.1332
# 5 -14.3352 -2.3322 -14.5852 -13.3738 41.0882 -6.6559
# 6 -27.0619 -18.7969 -9.5410 -0.1332 -6.6559 39.1139
#
#
#
# Elastic Compliance Matrix: (Units=1/GPa)
#
#
# Indices 1 2 3 4 5 6 
#
# 1 0.015179 -0.003247 0.001255 0.005772 0.009190 0.010831
# 2 -0.003247 0.006566 -0.001719 -0.000245 -0.001410 0.000249
# 3 0.001255 -0.001719 0.010245 0.004681 0.006083 0.003592
# 4 0.005772 -0.000245 0.004681 0.033830 0.015944 0.007846
# 5 0.009190 -0.001410 0.006083 0.015944 0.037002 0.013516
# 6 0.010831 0.000249 0.003592 0.007846 0.013516 0.036383
#
#
# Mechanical properties :
#
#
# Convention : Reuss Voigt Hill
#
# Bulk Modulus (GPa) = 40.70174 70.24054 55.47114
# Shear Modulus (GPa) = 32.29628 44.07261 38.18445
#
# Velocity S-wave (km/s) = 3.57529 4.17656 3.88757
# Velocity P-wave (km/s) = 5.75787 7.14556 6.48892
#
# Compressibility (1/GPa) = 0.02456898
#
# Stress axis : x y z
#
# Youngs Moduli (GPa) = 65.88069 152.29872 97.60428
#
# Poissons Ratio (x) = 0.49448 -0.12248
# Poissons Ratio (y) = 0.21390 0.16776
# Poissons Ratio (z) = -0.08267 0.26177
#
# Static dielectric constant tensor:
#      x y z
#    x 1.975680 0.078060 0.110640 
#    y 0.078060 2.026530 -0.113610 
#    z 0.110640 -0.113610 0.180080 
# 
# From -- ./inp_files/362159.got.cif
#   From: 2010.05.17/outbox.cif.g08.bks.cpg/sg2_182_cif.got.tgz:362159.got - 2010.06.03 11:33:40.
