data_PCOD9035657
_publ_section_title
;
Structure prediction by ZEFSAII (Michael W. Deem and Ramdas Pophale) SiO2 
 PCOD9035657
Probable space group: P -1
;
_chemical_formula_sum "Si O2"
_cell_formula_units_Z 14
_cell_length_a 10.216524
_cell_length_b 11.568206
_cell_length_c 13.439074
_cell_angle_alpha 158.795820
_cell_angle_beta 82.939854
_cell_angle_gamma 91.122706
_cell_volume 549.800138
_symmetry_space_group_name_H-M "P -1"
_symmetry_group_IT_number 2
_symmetry_cell_setting 'triclinic'
loop_
_space_group_symop_operation_xyz
x,y,z
-x,-y,-z
loop_
_atom_site_type_symbol
_atom_site_label
_atom_site_fract_x
_atom_site_fract_y
_atom_site_fract_z
Si Si1 0.226632 0.871703 0.059636
Si Si2 0.150516 0.376831 0.293475
Si Si3 0.491401 0.333053 0.617236
Si Si4 0.897421 0.869838 0.297312
Si Si5 0.622471 0.214610 0.703506
Si Si6 0.915213 0.659906 0.403154
Si Si7 0.737331 0.000945 0.212197
O O1 0.379381 0.656744 0.857443
O O2 0.129017 0.623550 0.879989
O O3 0.178845 0.104142 0.156715
O O4 0.215474 0.077589 0.327498
O O5 0.194349 0.701898 0.582291
O O6 0.997003 0.480520 0.349023
O O7 0.235494 0.234843 0.073280
O O8 0.598041 0.374600 0.724370
O O9 0.578979 0.151770 0.372388
O O10 0.419757 0.102499 0.503902
O O11 0.787555 0.030476 0.524193
O O12 0.810100 0.851327 0.189348
O O13 0.985723 0.135557 0.486837
O O14 0.000000 0.500000 0.000000
O O15 0.500000 0.500000 0.000000
#
# Coordination Sequence:
#
# PCOD9035657 Si02
#       7
#     2   2   2   2   2   2   2
#     4  12  25  43  69 100 137 180 228 287 330 419
#     4  11  23  44  69  97 136 181 227 282 347 397
#     4  10  25  43  64 100 133 177 230 277 348 408
#     4  10  22  46  70 103 137 180 232 286 344 413
#     4  10  23  45  71  95 136 183 225 288 347 410
#     4  11  24  42  67 100 137 178 227 279 347 401
#     4  10  24  43  69 100 136 181 223 285 343 412
#
# _framework density 25.463797
#
# number of rings (size 3 to 8) (size 9 to 14) (size 15 to 20)
#    0.000    1.429    0.000    4.286    8.000    1.143 
#    2.571    7.143    0.000    0.000    0.000    0.000 
#    0.000    0.000    0.000    0.000    0.000    0.000 
#
# Total GULP energy -78244.972873 kJ/mol
# GULP energy per Si atom -5588.926634 kJ/mol
# Density = 2.540584 g / cm^3
# Si number density = 25.463797 Si / 1000 Ang^3
#
#
#
# Elastic Constant Matrix: (Units=GPa)
#
#
# Indices 1 2 3 4 5 6 
#
# 1 46.0085 26.3296 31.9794 -3.9644 -29.3480 13.5868
# 2 26.3296 96.4941 56.4264 -10.9171 -11.3747 13.4876
# 3 31.9794 56.4264 144.3479 -1.9625 -35.2744 9.2288
# 4 -3.9644 -10.9171 -1.9625 45.5583 7.4447 -7.4306
# 5 -29.3480 -11.3747 -35.2744 7.4447 57.5517 -5.9583
# 6 13.5868 13.4876 9.2288 -7.4306 -5.9583 24.3627
#
#
#
# Elastic Compliance Matrix: (Units=1/GPa)
#
#
# Indices 1 2 3 4 5 6 
#
# 1 0.042836 -0.006908 -0.001288 -0.003641 0.018487 -0.016166
# 2 -0.006908 0.015680 -0.005467 0.003183 -0.004485 -0.002883
# 3 -0.001288 -0.005467 0.010513 -0.001707 0.004975 0.000458
# 4 -0.003641 0.003183 -0.001707 0.024255 -0.004669 0.007171
# 5 0.018487 -0.004485 0.004975 -0.004669 0.029155 -0.004005
# 6 -0.016166 -0.002883 0.000458 0.007171 -0.004005 0.052692
#
#
# Mechanical properties :
#
#
# Convention : Reuss Voigt Hill
#
# Bulk Modulus (GPa) = 23.97938 57.36903 40.67421
# Shear Modulus (GPa) = 23.10968 36.96887 30.03927
#
# Velocity S-wave (km/s) = 3.01583 3.81441 3.43838
# Velocity P-wave (km/s) = 4.64375 6.47906 5.63660
#
# Compressibility (1/GPa) = 0.04170249
#
# Stress axis : x y z
#
# Youngs Moduli (GPa) = 23.34459 63.77621 95.11666
#
# Poissons Ratio (x) = 0.44059 0.12251
# Poissons Ratio (y) = 0.16127 0.52003
# Poissons Ratio (z) = 0.03007 0.34868
#
# Static dielectric constant tensor:
#      x y z
#    x 2.163710 -0.055770 -0.056060 
#    y -0.055770 1.978590 -0.028280 
#    z -0.056060 -0.028280 2.052330 
# 
# From -- ./inp_files/52757.got.cif
#   From: 2010.05.17/outbox.cif.g08.bks.cpg/sg2_27_cif.got.tgz:52757.got - 2010.06.03 11:33:40.
