data_PCOD9035760
_publ_section_title
;
Structure prediction by ZEFSAII (Michael W. Deem and Ramdas Pophale) SiO2 
 PCOD9035760
Probable space group: P -1
;
_chemical_formula_sum "Si O2"
_cell_formula_units_Z 15
_cell_length_a 8.372076
_cell_length_b 16.866671
_cell_length_c 8.684683
_cell_angle_alpha 142.633601
_cell_angle_beta 58.279958
_cell_angle_gamma 106.624680
_cell_volume 612.142350
_symmetry_space_group_name_H-M "P -1"
_symmetry_group_IT_number 2
_symmetry_cell_setting 'triclinic'
loop_
_space_group_symop_operation_xyz
x,y,z
-x,-y,-z
loop_
_atom_site_type_symbol
_atom_site_label
_atom_site_fract_x
_atom_site_fract_y
_atom_site_fract_z
Si Si1 0.285472 0.906347 0.789032
Si Si2 0.130575 0.123150 0.960307
Si Si3 0.231788 0.702803 0.239486
Si Si4 0.105781 0.380719 0.542451
Si Si5 0.000000 0.500000 0.500000
Si Si6 0.496273 0.771101 0.734581
Si Si7 0.196673 0.929953 0.375750
Si Si8 0.582850 0.487677 0.764684
O O1 0.299330 0.791608 0.475794
O O2 0.469038 0.869554 0.751264
O O3 0.236272 0.048991 0.945239
O O4 0.083172 0.904819 0.975420
O O5 0.244550 0.046089 0.639134
O O6 0.101638 0.283014 0.240987
O O7 0.149031 0.813713 0.326221
O O8 0.074864 0.631571 0.280194
O O9 0.420487 0.595155 0.918921
O O10 0.091091 0.514599 0.659845
O O11 0.296399 0.313034 0.437780
O O12 0.212490 0.480646 0.288846
O O13 0.397832 0.658066 0.541984
O O14 0.371141 0.857863 0.066539
O O15 0.000000 0.000000 0.500000
O O16 0.500000 0.500000 0.000000
#
# Coordination Sequence:
#
# PCOD9035760 Si02
#       8
#     2   2   2   2   1   2   2   2
#     4   9  17  37  69  94 132 188 238 283 349 431
#     4   9  19  40  65  91 141 193 229 283 364 422
#     4  10  22  46  71  98 142 195 227 289 374 415
#     4  11  25  43  68 106 143 187 244 291 351 435
#     4  12  26  46  76 106 134 192 244 284 360 430
#     4  12  25  42  68 110 139 179 246 300 346 421
#     4  11  23  40  68 103 137 187 240 296 351 414
#     4  12  24  50  76 101 143 187 233 299 360 422
#
# _framework density 24.504104999999999
#
# number of rings (size 3 to 8) (size 9 to 14) (size 15 to 20)
#    0.000    1.333    4.000    2.400    0.000    3.733 
#    2.400    0.000    0.000    0.000    0.000    0.000 
#    0.000    0.000    0.000    0.000    0.000    0.000 
#
# Total GULP energy -83686.281988 kJ/mol
# GULP energy per Si atom -5579.085466 kJ/mol
# Density = 2.444833 g / cm^3
# Si number density = 24.504105 Si / 1000 Ang^3
#
#
#
# Elastic Constant Matrix: (Units=GPa)
#
#
# Indices 1 2 3 4 5 6 
#
# 1 117.7183 39.1490 15.1937 -10.5328 -39.9547 -26.7387
# 2 39.1490 62.2393 4.8728 -15.6281 -16.1050 -16.6290
# 3 15.1937 4.8728 108.5484 -5.3127 -11.7697 10.7521
# 4 -10.5328 -15.6281 -5.3127 31.6077 0.2750 -5.2347
# 5 -39.9547 -16.1050 -11.7697 0.2750 43.8784 8.2791
# 6 -26.7387 -16.6290 10.7521 -5.2347 8.2791 47.5270
#
#
#
# Elastic Compliance Matrix: (Units=1/GPa)
#
#
# Indices 1 2 3 4 5 6 
#
# 1 0.015533 -0.004253 -0.001189 0.003771 0.011109 0.006000
# 2 -0.004253 0.024510 -0.000210 0.011774 0.003694 0.006884
# 3 -0.001189 -0.000210 0.009977 0.000611 0.002136 -0.003304
# 4 0.003771 0.011774 0.000611 0.040345 0.005869 0.009524
# 5 0.011109 0.003694 0.002136 0.005869 0.034477 0.001700
# 6 0.006000 0.006884 -0.003304 0.009524 0.001700 0.028325
#
#
# Mechanical properties :
#
#
# Convention : Reuss Voigt Hill
#
# Bulk Modulus (GPa) = 25.82818 45.21521 35.52170
# Shear Modulus (GPa) = 28.18845 39.88866 34.03855
#
# Velocity S-wave (km/s) = 3.39537 4.03902 3.73110
# Velocity P-wave (km/s) = 5.09260 6.34380 5.75232
#
# Compressibility (1/GPa) = 0.03871739
#
# Stress axis : x y z
#
# Youngs Moduli (GPa) = 64.37754 40.79900 100.22919
#
# Poissons Ratio (x) = 0.17353 0.11913
# Poissons Ratio (y) = 0.27381 0.02105
# Poissons Ratio (z) = 0.07652 0.00857
#
# Static dielectric constant tensor:
#      x y z
#    x 1.992870 0.026090 0.083240 
#    y 0.026090 1.264730 -0.347650 
#    z 0.083240 -0.347650 1.798390 
# 
# From -- ./inp_files/218807.got.cif
#   From: 2010.05.17/outbox.cif.g08.bks.cpg/sg2_110_cif.got.tgz:218807.got - 2010.06.03 11:33:40.
