data_PCOD9035481
_publ_section_title
;
Structure prediction by ZEFSAII (Michael W. Deem and Ramdas Pophale) SiO2 
 PCOD9035481
Probable space group: P -1
;
_chemical_formula_sum "Si O2"
_cell_formula_units_Z 15
_cell_length_a 12.350178
_cell_length_b 11.418152
_cell_length_c 14.666794
_cell_angle_alpha 33.085854
_cell_angle_beta 141.722597
_cell_angle_gamma 120.804748
_cell_volume 631.245418
_symmetry_space_group_name_H-M "P -1"
_symmetry_group_IT_number 2
_symmetry_cell_setting 'triclinic'
loop_
_space_group_symop_operation_xyz
x,y,z
-x,-y,-z
loop_
_atom_site_type_symbol
_atom_site_label
_atom_site_fract_x
_atom_site_fract_y
_atom_site_fract_z
Si Si1 0.256487 0.373231 0.034283
Si Si2 0.343999 0.423549 0.402425
Si Si3 0.392993 0.965582 0.640349
Si Si4 0.500000 0.000000 0.000000
Si Si5 0.460407 0.640559 0.073615
Si Si6 0.038099 0.136711 0.163310
Si Si7 0.901988 0.332932 0.579586
Si Si8 0.124745 0.389497 0.458422
O O1 0.439645 0.202969 0.207262
O O2 0.324314 0.507336 0.066449
O O3 0.154264 0.227821 0.109859
O O4 0.090550 0.569758 0.733920
O O5 0.500000 0.500000 0.500000
O O6 0.250766 0.348564 0.476723
O O7 0.426279 0.196340 0.539513
O O8 0.165973 0.642729 0.096749
O O9 0.182713 0.047234 0.402663
O O10 0.407353 0.820738 0.836301
O O11 0.543177 0.213447 0.934456
O O12 0.265154 0.163895 0.755983
O O13 0.678894 0.445829 0.329066
O O14 0.004428 0.929840 0.225404
O O15 0.900045 0.370861 0.662369
O O16 0.000000 0.500000 0.500000
#
# Coordination Sequence:
#
# PCOD9035481 Si02
#       8
#     2   2   2   1   2   2   2   2
#     4  11  25  44  75 106 143 187 240 305 353 428
#     4  11  27  45  69 102 145 193 235 297 357 429
#     4  12  24  46  70 106 144 189 237 297 357 434
#     4  10  22  46  66 100 144 180 232 292 348 430
#     4  11  24  44  73 105 140 187 239 295 362 418
#     4  11  27  47  71 105 143 191 240 295 362 429
#     4  11  25  43  73 106 141 185 239 298 355 428
#     4  10  24  44  68 105 138 184 242 286 363 418
#
# _framework density 23.762547999999999
#
# number of rings (size 3 to 8) (size 9 to 14) (size 15 to 20)
#    0.000    1.067    2.667    2.000    7.467    2.667 
#    0.000    0.000    0.000    0.000    0.000    0.000 
#    0.000    0.000    0.000    0.000    0.000    0.000 
#
# Total GULP energy -83726.896404 kJ/mol
# GULP energy per Si atom -5581.793094 kJ/mol
# Density = 2.370846 g / cm^3
# Si number density = 23.762548 Si / 1000 Ang^3
#
#
#
# Elastic Constant Matrix: (Units=GPa)
#
#
# Indices 1 2 3 4 5 6 
#
# 1 45.2530 30.6337 31.4568 -6.9263 6.9629 2.2616
# 2 30.6337 171.1178 38.6298 -16.5658 19.4590 0.8740
# 3 31.4568 38.6298 68.0875 8.4312 22.4203 5.5561
# 4 -6.9263 -16.5658 8.4312 49.8091 -2.1270 6.7318
# 5 6.9629 19.4590 22.4203 -2.1270 25.1546 -2.8591
# 6 2.2616 0.8740 5.5561 6.7318 -2.8591 32.8603
#
#
#
# Elastic Compliance Matrix: (Units=1/GPa)
#
#
# Indices 1 2 3 4 5 6 
#
# 1 0.037681 -0.002513 -0.020473 0.008297 0.010480 0.000147
# 2 -0.002513 0.007384 -0.002415 0.002448 -0.002698 -0.000351
# 3 -0.020473 -0.002415 0.035568 -0.010128 -0.025556 -0.004689
# 4 0.008297 0.002448 -0.010128 0.024493 0.006525 -0.003374
# 5 0.010480 -0.002698 -0.025556 0.006525 0.063160 0.007830
# 6 0.000147 -0.000351 -0.004689 -0.003374 0.007830 0.032596
#
#
# Mechanical properties :
#
#
# Convention : Reuss Voigt Hill
#
# Bulk Modulus (GPa) = 33.52225 53.98877 43.75551
# Shear Modulus (GPa) = 19.11107 33.81398 26.46253
#
# Velocity S-wave (km/s) = 2.83901 3.77635 3.34072
# Velocity P-wave (km/s) = 4.98843 6.46405 5.77357
#
# Compressibility (1/GPa) = 0.02983094
#
# Stress axis : x y z
#
# Youngs Moduli (GPa) = 26.53857 135.41999 28.11539
#
# Poissons Ratio (x) = 0.34033 0.57562
# Poissons Ratio (y) = 0.06669 0.06789
# Poissons Ratio (z) = 0.54333 0.32699
#
# Static dielectric constant tensor:
#      x y z
#    x 1.788150 0.015230 -0.126830 
#    y 0.015230 1.858770 0.027310 
#    z -0.126830 0.027310 1.976860 
# 
# From -- ./inp_files/154210.got.cif
#   From: 2010.05.17/outbox.cif.g08.bks.cpg/sg2_78_cif.got.tgz:154210.got - 2010.06.03 11:33:40.
