data_PCOD9035965
_publ_section_title
;
Structure prediction by ZEFSAII (Michael W. Deem and Ramdas Pophale) SiO2 
 PCOD9035965
Probable space group: P -1
;
_chemical_formula_sum "Si O2"
_cell_formula_units_Z 12
_cell_length_a 9.355543
_cell_length_b 10.645655
_cell_length_c 7.188398
_cell_angle_alpha 39.602171
_cell_angle_beta 107.581726
_cell_angle_gamma 102.659031
_cell_volume 434.947525
_symmetry_space_group_name_H-M "P -1"
_symmetry_group_IT_number 2
_symmetry_cell_setting 'triclinic'
loop_
_space_group_symop_operation_xyz
x,y,z
-x,-y,-z
loop_
_atom_site_type_symbol
_atom_site_label
_atom_site_fract_x
_atom_site_fract_y
_atom_site_fract_z
Si Si1 0.419804 0.219622 0.016614
Si Si2 0.524325 0.246567 0.414621
Si Si3 0.673390 0.310219 0.749505
Si Si4 0.098962 0.370988 0.838065
Si Si5 0.196943 0.383825 0.257950
Si Si6 0.074345 0.001543 0.822346
O O1 0.519043 0.299717 0.135721
O O2 0.508529 0.284616 0.797223
O O3 0.248359 0.286028 0.892225
O O4 0.431382 0.983855 0.299074
O O5 0.639955 0.356167 0.467735
O O6 0.354309 0.278825 0.379006
O O7 0.763677 0.453656 0.756255
O O8 0.762565 0.103505 0.007842
O O9 0.000000 0.500000 0.500000
O O10 0.134879 0.470269 0.938237
O O11 0.024978 0.167966 0.113839
O O12 0.094743 0.215353 0.500635
O O13 0.000000 0.000000 0.000000
#
# Coordination Sequence:
#
# PCOD9035965 Si02
#       6
#     2   2   2   2   2   2
#     4  10  23  48  83 122 161 215 271 340 412 491
#     4  10  22  46  82 123 161 209 273 340 413 486
#     4  12  26  47  87 120 162 211 274 343 418 486
#     4  11  28  53  82 120 170 217 275 340 413 495
#     4  11  27  52  82 124 164 215 278 338 412 495
#     4  12  29  52  80 118 166 221 272 338 410 495
#
# _framework density 27.589535999999999
#
# number of rings (size 3 to 8) (size 9 to 14) (size 15 to 20)
#    0.000    1.000    1.667    2.500    4.667    6.000 
#    6.000    0.000    0.000    0.000    0.000    0.000 
#    0.000    0.000    0.000    0.000    0.000    0.000 
#
# Total GULP energy -67271.266549 kJ/mol
# GULP energy per Si atom -5605.938879 kJ/mol
# Density = 2.752674 g / cm^3
# Si number density = 27.589536 Si / 1000 Ang^3
#
#
#
# Elastic Constant Matrix: (Units=GPa)
#
#
# Indices 1 2 3 4 5 6 
#
# 1 145.9757 59.2237 91.4151 -2.0400 21.9525 -9.1166
# 2 59.2237 210.3206 67.8612 19.7247 23.8629 20.8412
# 3 91.4151 67.8612 178.7557 13.0316 23.5696 -2.3914
# 4 -2.0400 19.7247 13.0316 40.0266 -8.2162 4.1482
# 5 21.9525 23.8629 23.5696 -8.2162 53.0004 -0.3528
# 6 -9.1166 20.8412 -2.3914 4.1482 -0.3528 59.2181
#
#
#
# Elastic Compliance Matrix: (Units=1/GPa)
#
#
# Indices 1 2 3 4 5 6 
#
# 1 0.011024 -0.001815 -0.004968 0.002643 -0.001117 0.001944
# 2 -0.001815 0.006359 -0.001007 -0.003098 -0.002160 -0.002354
# 3 -0.004968 -0.001007 0.009007 -0.003111 -0.001975 0.000159
# 4 0.002643 -0.003098 -0.003111 0.028989 0.006173 -0.000622
# 5 -0.001117 -0.002160 -0.001975 0.006173 0.022140 0.000208
# 6 0.001944 -0.002354 0.000159 -0.000622 0.000208 0.018066
#
#
# Mechanical properties :
#
#
# Convention : Reuss Voigt Hill
#
# Bulk Modulus (GPa) = 92.50599 108.00577 100.25588
# Shear Modulus (GPa) = 43.56579 51.55249 47.55914
#
# Velocity S-wave (km/s) = 3.97806 4.32737 4.15638
# Velocity P-wave (km/s) = 7.39609 8.01252 7.71047
#
# Compressibility (1/GPa) = 0.01081011
#
# Stress axis : x y z
#
# Youngs Moduli (GPa) = 90.70804 157.24572 111.02943
#
# Poissons Ratio (x) = 0.28541 0.55161
# Poissons Ratio (y) = 0.16464 0.11180
# Poissons Ratio (z) = 0.45065 0.15834
#
# Static dielectric constant tensor:
#      x y z
#    x 2.163650 0.066660 -0.001840 
#    y 0.066660 2.199670 -0.038340 
#    z -0.001840 -0.038340 2.127380 
# 
# From -- ./inp_files/506037.got.cif
#   From: 2010.05.17/outbox.cif.g08.bks.cpg/sg2_254_cif.got.tgz:506037.got - 2010.06.03 11:33:40.
