data_PCOD9035587
_publ_section_title
;
Structure prediction by ZEFSAII (Michael W. Deem and Ramdas Pophale) SiO2 
 PCOD9035587
Probable space group: P -1
;
_chemical_formula_sum "Si O2"
_cell_formula_units_Z 16
_cell_length_a 8.730576
_cell_length_b 11.912651
_cell_length_c 21.856121
_cell_angle_alpha 28.618522
_cell_angle_beta 38.605117
_cell_angle_gamma 46.524474
_cell_volume 679.324009
_symmetry_space_group_name_H-M "P -1"
_symmetry_group_IT_number 2
_symmetry_cell_setting 'triclinic'
loop_
_space_group_symop_operation_xyz
x,y,z
-x,-y,-z
loop_
_atom_site_type_symbol
_atom_site_label
_atom_site_fract_x
_atom_site_fract_y
_atom_site_fract_z
Si Si1 0.056494 0.080067 0.013449
Si Si2 0.566673 0.333920 0.715044
Si Si3 0.717667 0.420171 0.036779
Si Si4 0.601893 0.286451 0.262183
Si Si5 0.768610 0.789211 0.749195
Si Si6 0.682768 0.189168 0.424074
Si Si7 0.163833 0.612953 0.275446
Si Si8 0.307309 0.696648 0.443788
O O1 0.856308 0.250134 0.026429
O O2 0.077303 0.842524 0.158276
O O3 0.316489 0.212612 0.872999
O O4 0.000000 0.000000 0.000000
O O5 0.501889 0.607779 0.594770
O O6 0.785065 0.323085 0.700597
O O7 0.630707 0.231888 0.678747
O O8 0.780613 0.346836 0.121460
O O9 0.426720 0.368496 0.149296
O O10 0.755963 0.680118 0.874257
O O11 0.710260 0.223552 0.325242
O O12 0.423987 0.509691 0.221115
O O13 0.433940 0.061526 0.407513
O O14 0.050354 0.770600 0.650117
O O15 0.689925 0.059072 0.638558
O O16 0.960923 0.416392 0.421587
O O17 0.500000 0.500000 0.500000
#
# Coordination Sequence:
#
# PCOD9035587 Si02
#       8
#     2   2   2   2   2   2   2   2
#     4  12  26  47  67 101 141 178 223 280 335 408
#     4  11  25  45  70  97 136 180 226 279 340 404
#     4  11  26  43  67 100 132 179 224 271 337 401
#     4  10  24  43  71  99 135 172 224 278 333 401
#     4  11  24  44  65  97 133 175 225 273 336 393
#     4  10  22  46  68  99 134 174 223 281 331 393
#     4  11  25  45  69 100 134 179 226 279 344 397
#     4  12  26  45  68 103 135 179 226 283 340 403
#
# _framework density 23.552826
#
# number of rings (size 3 to 8) (size 9 to 14) (size 15 to 20)
#    0.000    1.000    2.500    3.000    8.750    3.000 
#    0.000    0.000    0.000    0.000    0.000    0.000 
#    0.000    0.000    0.000    0.000    0.000    0.000 
#
# Total GULP energy -89568.399266 kJ/mol
# GULP energy per Si atom -5598.024954 kJ/mol
# Density = 2.349922 g / cm^3
# Si number density = 23.552826 Si / 1000 Ang^3
#
#
#
# Elastic Constant Matrix: (Units=GPa)
#
#
# Indices 1 2 3 4 5 6 
#
# 1 85.2811 25.9931 32.8449 4.3219 -4.5993 -2.1445
# 2 25.9931 93.2507 30.9652 -40.5267 31.4966 3.4228
# 3 32.8449 30.9652 88.2098 -17.7656 7.7739 -9.0568
# 4 4.3219 -40.5267 -17.7656 71.1770 -12.8951 5.6567
# 5 -4.5993 31.4966 7.7739 -12.8951 52.3958 3.9246
# 6 -2.1445 3.4228 -9.0568 5.6567 3.9246 30.5682
#
#
#
# Elastic Compliance Matrix: (Units=1/GPa)
#
#
# Indices 1 2 3 4 5 6 
#
# 1 0.016351 -0.006893 -0.005106 -0.005353 0.004962 0.000760
# 2 -0.006893 0.021748 -0.002448 0.010651 -0.010373 -0.004283
# 3 -0.005106 -0.002448 0.015041 0.002167 -0.000982 0.004097
# 4 -0.005353 0.010651 0.002167 0.021043 -0.001670 -0.004606
# 5 0.004962 -0.010373 -0.000982 -0.001670 0.025623 -0.001762
# 6 0.000760 -0.004283 0.004097 -0.004606 -0.001762 0.035539
#
#
# Mechanical properties :
#
#
# Convention : Reuss Voigt Hill
#
# Bulk Modulus (GPa) = 41.24434 49.59422 45.41928
# Shear Modulus (GPa) = 29.01537 42.62407 35.81972
#
# Velocity S-wave (km/s) = 3.51369 4.25870 3.90401
# Velocity P-wave (km/s) = 5.83188 6.72936 6.29663
#
# Compressibility (1/GPa) = 0.02424575
#
# Stress axis : x y z
#
# Youngs Moduli (GPa) = 61.15698 45.98141 66.48487
#
# Poissons Ratio (x) = 0.31693 0.33949
# Poissons Ratio (y) = 0.42153 0.16278
# Poissons Ratio (z) = 0.31229 0.11258
#
# Static dielectric constant tensor:
#      x y z
#    x 1.927220 0.042760 0.026180 
#    y 0.042760 1.882000 0.024160 
#    z 0.026180 0.024160 1.862570 
# 
# From -- ./inp_files/186646.got.cif
#   From: 2010.05.17/outbox.cif.g08.bks.cpg/sg2_94_cif.got.tgz:186646.got - 2010.06.03 11:33:40.
