data_PCOD9035615
_publ_section_title
;
Structure prediction by ZEFSAII (Michael W. Deem and Ramdas Pophale) SiO2 
 PCOD9035615
Probable space group: P -1
;
_chemical_formula_sum "Si O2"
_cell_formula_units_Z 10
_cell_length_a 8.056969
_cell_length_b 11.606901
_cell_length_c 11.165049
_cell_angle_alpha 26.325581
_cell_angle_beta 68.539376
_cell_angle_gamma 81.710646
_cell_volume 385.870644
_symmetry_space_group_name_H-M "P -1"
_symmetry_group_IT_number 2
_symmetry_cell_setting 'triclinic'
loop_
_space_group_symop_operation_xyz
x,y,z
-x,-y,-z
loop_
_atom_site_type_symbol
_atom_site_label
_atom_site_fract_x
_atom_site_fract_y
_atom_site_fract_z
Si Si1 0.596558 0.239115 0.147742
Si Si2 0.366376 0.172254 0.872120
Si Si3 0.885534 0.240868 0.866010
Si Si4 0.227829 0.101185 0.246494
Si Si5 0.026824 0.440288 0.896519
O O1 0.414228 0.299170 0.096655
O O2 0.500000 0.000000 0.500000
O O3 0.680365 0.178628 0.053609
O O4 0.813261 0.446100 0.950292
O O5 0.500000 0.500000 0.500000
O O6 0.293838 0.156902 0.039799
O O7 0.500000 0.000000 0.000000
O O8 0.195947 0.034680 0.943624
O O9 0.000000 0.500000 0.500000
O O10 0.030002 0.344571 0.846943
O O11 0.182662 0.764495 0.585217
O O12 0.050295 0.199283 0.196493
#
# Coordination Sequence:
#
# PCOD9035615 Si02
#       5
#     2   2   2   2   2
#     4  10  25  48  74 105 148 194 246 304 367 440
#     4  12  23  39  70 105 141 187 243 295 363 437
#     4  10  22  46  69 109 151 188 239 312 362 434
#     4  12  24  45  74 105 145 194 243 301 374 433
#     4  10  26  44  73 109 144 187 248 303 362 440
#
# _framework density 25.915419
#
# number of rings (size 3 to 8) (size 9 to 14) (size 15 to 20)
#    1.200    0.000    4.000    1.200    0.000    7.200 
#    0.000    2.000    0.000    0.000    0.000    0.000 
#    0.000    0.000    0.000    0.000    0.000    0.000 
#
# Total GULP energy -55734.475105 kJ/mol
# GULP energy per Si atom -5573.447510 kJ/mol
# Density = 2.585643 g / cm^3
# Si number density = 25.915419 Si / 1000 Ang^3
#
#
#
# Elastic Constant Matrix: (Units=GPa)
#
#
# Indices 1 2 3 4 5 6 
#
# 1 144.5203 53.0517 17.7286 -4.4466 23.2644 26.2514
# 2 53.0517 151.8460 51.7565 16.2362 5.7171 20.7673
# 3 17.7286 51.7565 122.8027 -15.2054 8.4506 5.6057
# 4 -4.4466 16.2362 -15.2054 53.6584 5.4454 -8.4142
# 5 23.2644 5.7171 8.4506 5.4454 47.2436 6.4298
# 6 26.2514 20.7673 5.6057 -8.4142 6.4298 49.1109
#
#
#
# Elastic Compliance Matrix: (Units=1/GPa)
#
#
# Indices 1 2 3 4 5 6 
#
# 1 0.009206 -0.003077 0.000607 0.001836 -0.004095 -0.002838
# 2 -0.003077 0.010132 -0.004483 -0.005331 0.002158 -0.003324
# 3 0.000607 -0.004483 0.010651 0.004910 -0.002434 0.001515
# 4 0.001836 -0.005331 0.004910 0.023075 -0.004512 0.005257
# 5 -0.004095 0.002158 -0.002434 -0.004512 0.024203 -0.002388
# 6 -0.002838 -0.003324 0.001515 0.005257 -0.002388 0.024325
#
#
# Mechanical properties :
#
#
# Convention : Reuss Voigt Hill
#
# Bulk Modulus (GPa) = 62.18083 73.80474 67.99279
# Shear Modulus (GPa) = 41.37035 49.77808 45.57422
#
# Velocity S-wave (km/s) = 3.99978 4.38744 4.19809
# Velocity P-wave (km/s) = 6.73624 7.36254 7.05634
#
# Compressibility (1/GPa) = 0.01608213
#
# Stress axis : x y z
#
# Youngs Moduli (GPa) = 108.62728 98.69612 93.88658
#
# Poissons Ratio (x) = 0.30370 -0.05695
# Poissons Ratio (y) = 0.33425 0.42089
# Poissons Ratio (z) = -0.06589 0.44245
#
# Static dielectric constant tensor:
#      x y z
#    x 2.204650 -0.092180 -0.038210 
#    y -0.092180 1.985620 0.021480 
#    z -0.038210 0.021480 1.911280 
# 
# From -- ./inp_files/30489.got.cif
#   From: 2010.05.17/outbox.cif.g08.bks.cpg/sg2_16_cif.got.tgz:30489.got - 2010.06.03 11:33:40.
