data_PCOD9035916
_publ_section_title
;
Structure prediction by ZEFSAII (Michael W. Deem and Ramdas Pophale) SiO2 
 PCOD9035916
Probable space group: P -1
;
_chemical_formula_sum "Si O2"
_cell_formula_units_Z 16
_cell_length_a 19.953921
_cell_length_b 16.866104
_cell_length_c 11.633778
_cell_angle_alpha 141.158972
_cell_angle_beta 148.525332
_cell_angle_gamma 20.451261
_cell_volume 709.881545
_symmetry_space_group_name_H-M "P -1"
_symmetry_group_IT_number 2
_symmetry_cell_setting 'triclinic'
loop_
_space_group_symop_operation_xyz
x,y,z
-x,-y,-z
loop_
_atom_site_type_symbol
_atom_site_label
_atom_site_fract_x
_atom_site_fract_y
_atom_site_fract_z
Si Si1 0.241547 0.599203 0.045306
Si Si2 0.463241 0.404445 0.566759
Si Si3 0.896425 0.656287 0.347922
Si Si4 0.721738 0.283126 0.159998
Si Si5 0.825588 0.920418 0.979554
Si Si6 0.067187 0.095058 0.283738
Si Si7 0.902267 0.483166 0.934592
Si Si8 0.351602 0.241338 0.696250
O O1 0.351845 0.373970 0.918094
O O2 0.100687 0.750672 0.895043
O O3 0.424538 0.563084 0.295147
O O4 0.047738 0.733147 0.009395
O O5 0.287088 0.604629 0.627958
O O6 0.333380 0.399926 0.305035
O O7 0.683409 0.159533 0.673565
O O8 0.917566 0.784800 0.493074
O O9 0.701800 0.811752 0.339136
O O10 0.133335 0.422373 0.495804
O O11 0.866291 0.594543 0.123555
O O12 0.734268 0.138355 0.077423
O O13 0.945282 0.103422 0.204456
O O14 0.500000 0.500000 0.000000
O O15 0.589988 0.035757 0.743956
O O16 0.917568 0.779179 0.070870
O O17 0.000000 0.500000 0.000000
#
# Coordination Sequence:
#
# PCOD9035916 Si02
#       8
#     2   2   2   2   2   2   2   2
#     4  11  21  44  71 111 135 173 242 301 365 411
#     4  12  25  44  70 102 147 190 230 294 348 431
#     4  10  23  48  70 104 141 187 239 290 359 423
#     4  12  22  43  74 112 141 170 237 304 358 418
#     4  12  25  44  74 106 141 187 231 302 362 408
#     4  11  23  41  74 105 141 184 229 301 367 404
#     4  12  30  50  66 103 149 197 247 274 339 447
#     4  10  22  46  76 103 138 173 239 315 349 413
#
# _framework density 22.538972000000001
#
# number of rings (size 3 to 8) (size 9 to 14) (size 15 to 20)
#    0.000    0.750    5.000    2.625    1.750    3.000 
#    2.250    0.000    0.000    0.000    0.000    0.000 
#    0.000    0.000    0.000    0.000    0.000    0.000 
#
# Total GULP energy -89313.763807 kJ/mol
# GULP energy per Si atom -5582.110238 kJ/mol
# Density = 2.248767 g / cm^3
# Si number density = 22.538972 Si / 1000 Ang^3
#
#
#
# Elastic Constant Matrix: (Units=GPa)
#
#
# Indices 1 2 3 4 5 6 
#
# 1 115.9860 20.8430 34.8266 -0.6268 18.1228 3.5019
# 2 20.8430 65.0677 13.1184 8.8987 4.5529 10.4602
# 3 34.8266 13.1184 129.2003 17.1183 18.7015 2.0795
# 4 -0.6268 8.8987 17.1183 27.3509 -7.0463 1.2603
# 5 18.1228 4.5529 18.7015 -7.0463 26.5868 -1.6429
# 6 3.5019 10.4602 2.0795 1.2603 -1.6429 40.5558
#
#
#
# Elastic Compliance Matrix: (Units=1/GPa)
#
#
# Indices 1 2 3 4 5 6 
#
# 1 0.010503 -0.002704 -0.001959 0.001059 -0.005059 -0.000347
# 2 -0.002704 0.018059 0.000412 -0.006934 -0.003647 -0.004378
# 3 -0.001959 0.000412 0.010700 -0.009093 -0.008706 -0.000556
# 4 0.001059 -0.006934 -0.009093 0.049648 0.020108 0.001435
# 5 -0.005059 -0.003647 -0.008706 0.020108 0.053346 0.003360
# 6 -0.000347 -0.004378 -0.000556 0.001435 0.003360 0.025936
#
#
# Mechanical properties :
#
#
# Convention : Reuss Voigt Hill
#
# Bulk Modulus (GPa) = 32.51023 49.75889 41.13456
# Shear Modulus (GPa) = 26.74546 34.99642 30.87094
#
# Velocity S-wave (km/s) = 3.44849 3.94472 3.70492
# Velocity P-wave (km/s) = 5.50558 6.54771 6.04913
#
# Compressibility (1/GPa) = 0.03075955
#
# Stress axis : x y z
#
# Youngs Moduli (GPa) = 95.21504 55.37405 93.45718
#
# Poissons Ratio (x) = 0.14976 0.18308
# Poissons Ratio (y) = 0.25751 -0.03855
# Poissons Ratio (z) = 0.18653 -0.02284
#
# Static dielectric constant tensor:
#      x y z
#    x 1.846580 0.026790 0.037630 
#    y 0.026790 1.891900 0.025600 
#    z 0.037630 0.025600 1.868160 
# 
# From -- ./inp_files/472442.got.cif
#   From: 2010.05.17/outbox.cif.g08.bks.cpg/sg2_237_cif.got.tgz:472442.got - 2010.06.03 11:33:40.
