data_PCOD9035323
_publ_section_title
;
Structure prediction by ZEFSAII (Michael W. Deem and Ramdas Pophale) SiO2 
 PCOD9035323
Probable space group: P -1
;
_chemical_formula_sum "Si O2"
_cell_formula_units_Z 14
_cell_length_a 9.363208
_cell_length_b 17.974272
_cell_length_c 8.108441
_cell_angle_alpha 77.902319
_cell_angle_beta 67.382690
_cell_angle_gamma 30.000481
_cell_volume 606.892983
_symmetry_space_group_name_H-M "P -1"
_symmetry_group_IT_number 2
_symmetry_cell_setting 'triclinic'
loop_
_space_group_symop_operation_xyz
x,y,z
-x,-y,-z
loop_
_atom_site_type_symbol
_atom_site_label
_atom_site_fract_x
_atom_site_fract_y
_atom_site_fract_z
Si Si1 0.447336 0.338006 0.580666
Si Si2 0.313637 0.144894 0.922532
Si Si3 0.224575 0.927408 0.285661
Si Si4 0.788658 0.326237 0.519836
Si Si5 0.285294 0.663843 0.069792
Si Si6 0.151846 0.301583 0.242922
Si Si7 0.367162 0.789311 0.792361
O O1 0.526333 0.248161 0.738151
O O2 0.743757 0.269184 0.461254
O O3 0.436379 0.302805 0.424040
O O4 0.133918 0.518692 0.675681
O O5 0.151856 0.269325 0.072323
O O6 0.572453 0.086481 0.750336
O O7 0.059038 0.213589 0.892544
O O8 0.500000 0.000000 0.000000
O O9 0.000000 0.000000 0.500000
O O10 0.991432 0.039333 0.183703
O O11 0.500000 0.500000 0.500000
O O12 0.722840 0.329517 0.733005
O O13 0.088282 0.252007 0.400744
O O14 0.500000 0.500000 0.000000
O O15 0.378244 0.704016 0.924227
O O16 0.467301 0.212340 0.184718
#
# Coordination Sequence:
#
# PCOD9035323 Si02
#       7
#     2   2   2   2   2   2   2
#     4  10  22  45  73  99 145 188 235 297 353 420
#     4  12  27  49  70 102 150 192 233 296 359 427
#     4  10  25  44  72  97 147 188 238 281 362 415
#     4  10  23  44  67 102 139 180 234 292 354 417
#     4  12  25  43  75 104 144 191 238 291 357 422
#     4  11  25  43  73 106 140 182 247 295 351 421
#     4  11  24  45  70 108 146 186 236 297 352 421
#
# _framework density 23.068314999999998
#
# number of rings (size 3 to 8) (size 9 to 14) (size 15 to 20)
#    0.000    1.143    1.429    4.714   10.000    2.286 
#    0.000    1.429    0.000    0.000    0.000    0.000 
#    0.000    0.000    0.000    0.000    0.000    0.000 
#
# Total GULP energy -78264.174769 kJ/mol
# GULP energy per Si atom -5590.298198 kJ/mol
# Density = 2.301581 g / cm^3
# Si number density = 23.068315 Si / 1000 Ang^3
#
#
#
# Elastic Constant Matrix: (Units=GPa)
#
#
# Indices 1 2 3 4 5 6 
#
# 1 114.0403 14.3316 18.0117 -13.0674 -26.3697 -15.3619
# 2 14.3316 88.1750 22.3518 -14.4942 -12.9667 -9.1867
# 3 18.0117 22.3518 93.9297 -9.2793 -11.9281 -0.8784
# 4 -13.0674 -14.4942 -9.2793 43.5327 7.9517 -1.4857
# 5 -26.3697 -12.9667 -11.9281 7.9517 58.0742 -2.7510
# 6 -15.3619 -9.1867 -0.8784 -1.4857 -2.7510 32.1087
#
#
#
# Elastic Compliance Matrix: (Units=1/GPa)
#
#
# Indices 1 2 3 4 5 6 
#
# 1 0.011122 0.000239 -0.001283 0.002472 0.004780 0.005878
# 2 0.000239 0.013322 -0.002524 0.003701 0.002258 0.004222
# 3 -0.001283 -0.002524 0.011725 0.001047 0.001077 -0.000875
# 4 0.002472 0.003701 0.001047 0.025497 -0.001168 0.003350
# 5 0.004780 0.002258 0.001077 -0.001168 0.020496 0.004664
# 6 0.005878 0.004222 -0.000875 0.003350 0.004664 0.035695
#
#
# Mechanical properties :
#
#
# Convention : Reuss Voigt Hill
#
# Bulk Modulus (GPa) = 34.44408 45.05946 39.75177
# Shear Modulus (GPa) = 37.12742 42.83978 39.98360
#
# Velocity S-wave (km/s) = 4.01615 4.31406 4.16777
# Velocity P-wave (km/s) = 6.03902 6.66261 6.35846
#
# Compressibility (1/GPa) = 0.02903257
#
# Stress axis : x y z
#
# Youngs Moduli (GPa) = 89.91323 75.06174 85.28727
#
# Poissons Ratio (x) = -0.01797 0.10946
# Poissons Ratio (y) = -0.02152 0.21529
# Poissons Ratio (z) = 0.11540 0.18948
#
# Static dielectric constant tensor:
#      x y z
#    x 1.914080 -0.004110 -0.008650 
#    y -0.004110 1.917900 0.015620 
#    z -0.008650 0.015620 1.883850 
# 
# From -- ./inp_files/217269.got.cif
#   From: 2010.05.17/outbox.cif.g08.bks.cpg/sg2_109_cif.got.tgz:217269.got - 2010.06.03 11:33:40.
