data_PCOD9035065
_publ_section_title
;
Structure prediction by ZEFSAII (Michael W. Deem and Ramdas Pophale) SiO2 
 PCOD9035065
Probable space group: P -1
;
_chemical_formula_sum "Si O2"
_cell_formula_units_Z 14
_cell_length_a 8.430556
_cell_length_b 11.940571
_cell_length_c 9.224729
_cell_angle_alpha 103.660826
_cell_angle_beta 81.575465
_cell_angle_gamma 139.390198
_cell_volume 586.549512
_symmetry_space_group_name_H-M "P -1"
_symmetry_group_IT_number 2
_symmetry_cell_setting 'triclinic'
loop_
_space_group_symop_operation_xyz
x,y,z
-x,-y,-z
loop_
_atom_site_type_symbol
_atom_site_label
_atom_site_fract_x
_atom_site_fract_y
_atom_site_fract_z
Si Si1 0.468186 0.437961 0.325783
Si Si2 0.977280 0.872066 0.054395
Si Si3 0.939008 0.327834 0.040855
Si Si4 0.954998 0.562770 0.250752
Si Si5 0.197317 0.083027 0.371199
Si Si6 0.468914 0.640318 0.166193
Si Si7 0.431345 0.827162 0.437332
O O1 0.500000 0.500000 0.500000
O O2 0.728401 0.524713 0.278080
O O3 0.263996 0.230092 0.309683
O O4 0.409856 0.516003 0.260522
O O5 0.688389 0.708126 0.065706
O O6 0.094248 0.821546 0.953963
O O7 0.083578 0.937436 0.222726
O O8 0.000000 0.000000 0.000000
O O9 0.227864 0.512803 0.064762
O O10 0.844040 0.375745 0.173639
O O11 0.884327 0.313079 0.873939
O O12 0.139763 0.663208 0.393176
O O13 0.441319 0.166588 0.440748
O O14 0.000000 0.000000 0.500000
O O15 0.527652 0.795667 0.281698
O O16 0.500000 0.000000 0.500000
#
# Coordination Sequence:
#
# PCOD9035065 Si02
#       7
#     2   2   2   2   2   2   2
#     4  12  24  44  74 100 136 185 242 288 341 425
#     4  12  24  41  71 105 140 181 235 294 350 416
#     4  10  22  45  70  96 139 183 231 290 350 420
#     4  10  24  43  72 101 137 187 236 286 352 420
#     4  12  26  47  70 107 141 183 236 295 358 414
#     4  11  23  45  70 101 133 187 242 285 346 424
#     4  11  24  43  69 101 143 184 222 295 356 408
#
# _framework density 23.868402
#
# number of rings (size 3 to 8) (size 9 to 14) (size 15 to 20)
#    0.000    0.857    4.286    2.143    4.000    0.571 
#    2.571    0.714    0.000    0.000    0.000    0.000 
#    0.000    0.000    0.000    0.000    0.000    0.000 
#
# Total GULP energy -78202.704185 kJ/mol
# GULP energy per Si atom -5585.907442 kJ/mol
# Density = 2.381408 g / cm^3
# Si number density = 23.868402 Si / 1000 Ang^3
#
#
#
# Elastic Constant Matrix: (Units=GPa)
#
#
# Indices 1 2 3 4 5 6 
#
# 1 109.1301 31.0212 45.2404 11.8038 3.0972 -30.2528
# 2 31.0212 79.5513 26.8183 -1.2653 1.4351 -32.4002
# 3 45.2404 26.8183 91.0704 16.8932 7.2401 -7.9373
# 4 11.8038 -1.2653 16.8932 38.0702 -8.5966 1.1862
# 5 3.0972 1.4351 7.2401 -8.5966 43.9266 14.4239
# 6 -30.2528 -32.4002 -7.9373 1.1862 14.4239 53.3982
#
#
#
# Elastic Compliance Matrix: (Units=1/GPa)
#
#
# Indices 1 2 3 4 5 6 
#
# 1 0.014123 -0.000485 -0.005374 -0.002991 -0.003259 0.007855
# 2 -0.000485 0.018990 -0.004392 0.001628 -0.003304 0.011451
# 3 -0.005374 -0.004392 0.016051 -0.006085 -0.002488 -0.002517
# 4 -0.002991 0.001628 -0.006085 0.032132 0.009012 -0.004759
# 5 -0.003259 -0.003304 -0.002488 0.009012 0.029330 -0.012343
# 6 0.007855 0.011451 -0.002517 -0.004759 -0.012343 0.033191
#
#
# Mechanical properties :
#
#
# Convention : Reuss Voigt Hill
#
# Bulk Modulus (GPa) = 34.89228 53.99017 44.44123
# Shear Modulus (GPa) = 28.75664 38.85713 33.80689
#
# Velocity S-wave (km/s) = 3.47479 4.03919 3.76757
# Velocity P-wave (km/s) = 5.54520 6.66502 6.13073
#
# Compressibility (1/GPa) = 0.02865963
#
# Stress axis : x y z
#
# Youngs Moduli (GPa) = 70.80837 52.66023 62.30151
#
# Poissons Ratio (x) = 0.02554 0.33483
# Poissons Ratio (y) = 0.03434 0.27365
# Poissons Ratio (z) = 0.38055 0.23131
#
# Static dielectric constant tensor:
#      x y z
#    x 1.559490 -0.010130 -0.032020 
#    y -0.010130 1.699950 0.037250 
#    z -0.032020 0.037250 1.931330 
# 
# From -- ./inp_files/183783.got.cif
#   From: 2010.05.17/outbox.cif.g08.bks.cpg/sg2_92_cif.got.tgz:183783.got - 2010.06.03 11:33:40.
