data_PCOD9035131
_publ_section_title
;
Structure prediction by ZEFSAII (Michael W. Deem and Ramdas Pophale) SiO2 
 PCOD9035131
Probable space group: P -1
;
_chemical_formula_sum "Si O2"
_cell_formula_units_Z 12
_cell_length_a 5.319181
_cell_length_b 17.028045
_cell_length_c 5.095726
_cell_angle_alpha 93.122920
_cell_angle_beta 99.828252
_cell_angle_gamma 82.977199
_cell_volume 451.094422
_symmetry_space_group_name_H-M "P -1"
_symmetry_group_IT_number 2
_symmetry_cell_setting 'triclinic'
loop_
_space_group_symop_operation_xyz
x,y,z
-x,-y,-z
loop_
_atom_site_type_symbol
_atom_site_label
_atom_site_fract_x
_atom_site_fract_y
_atom_site_fract_z
Si Si1 0.276562 0.307880 0.498541
Si Si2 0.630558 0.855521 0.721917
Si Si3 0.076525 0.549064 0.773097
Si Si4 0.552522 0.341095 0.042166
Si Si5 0.182387 0.983430 0.284291
Si Si6 0.808089 0.176256 0.960003
O O1 0.280873 0.212970 0.489476
O O2 0.051743 0.362142 0.318061
O O3 0.314068 0.342607 0.798767
O O4 0.499361 0.318048 0.327250
O O5 0.372147 0.841831 0.828188
O O6 0.886576 0.838263 0.949506
O O7 0.628654 0.948587 0.681484
O O8 0.000000 0.500000 0.500000
O O9 0.000000 0.500000 0.000000
O O10 0.353317 0.573911 0.899525
O O11 0.732523 0.269305 0.919552
O O12 0.270858 0.889520 0.269281
O O13 0.000000 0.000000 0.500000
O O14 0.000000 0.000000 0.000000
#
# Coordination Sequence:
#
# PCOD9035131 Si02
#       6
#     2   2   2   2   2   2
#     4  11  25  45  70 103 141 189 237 297 363 437
#     4  10  22  45  71 105 147 195 247 303 362 433
#     4  12  26  46  72 105 140 181 236 304 366 440
#     4  11  25  45  70 103 141 189 237 297 363 437
#     4  10  23  42  68 104 146 193 245 301 360 426
#     4  10  22  45  71 105 147 195 247 303 362 433
#
# _framework density 26.601969
#
# number of rings (size 3 to 8) (size 9 to 14) (size 15 to 20)
#    0.000    1.333    1.667    2.500    0.000   14.667 
#    3.000    7.500    0.000    0.000    0.000    0.000 
#    0.000    0.000    0.000    0.000    0.000    0.000 
#
# Total GULP energy -67036.018072 kJ/mol
# GULP energy per Si atom -5586.334839 kJ/mol
# Density = 2.654142 g / cm^3
# Si number density = 26.601969 Si / 1000 Ang^3
#
#
#
# Elastic Constant Matrix: (Units=GPa)
#
#
# Indices 1 2 3 4 5 6 
#
# 1 30.6415 31.3966 16.4837 -3.5873 -7.2246 -1.2025
# 2 31.3966 160.1995 54.9112 18.2843 17.1523 -11.3961
# 3 16.4837 54.9112 173.8385 16.3175 0.1346 26.1949
# 4 -3.5873 18.2843 16.3175 62.9730 3.6228 14.4040
# 5 -7.2246 17.1523 0.1346 3.6228 32.4394 4.3429
# 6 -1.2025 -11.3961 26.1949 14.4040 4.3429 59.3092
#
#
#
# Elastic Compliance Matrix: (Units=1/GPa)
#
#
# Indices 1 2 3 4 5 6 
#
# 1 0.050840 -0.012600 -0.000889 0.006658 0.017769 -0.003916
# 2 -0.012600 0.011403 -0.002752 -0.003884 -0.009027 0.004755
# 3 -0.000889 -0.002752 0.007315 -0.000376 0.001780 -0.003817
# 4 0.006658 -0.003884 -0.000376 0.018528 0.002152 -0.005102
# 5 0.017769 -0.009027 0.001780 0.002152 0.040061 -0.005616
# 6 -0.003916 0.004755 -0.003817 -0.005102 -0.005616 0.021031
#
#
# Mechanical properties :
#
#
# Convention : Reuss Voigt Hill
#
# Bulk Modulus (GPa) = 26.97243 63.36250 45.16746
# Shear Modulus (GPa) = 25.77062 48.40352 37.08707
#
# Velocity S-wave (km/s) = 3.11585 4.27024 3.73788
# Velocity P-wave (km/s) = 4.80687 6.94145 5.97033
#
# Compressibility (1/GPa) = 0.03707489
#
# Stress axis : x y z
#
# Youngs Moduli (GPa) = 19.66965 87.69598 136.70118
#
# Poissons Ratio (x) = 1.10496 0.12159
# Poissons Ratio (y) = 0.24784 0.37623
# Poissons Ratio (z) = 0.01750 0.24136
#
# Static dielectric constant tensor:
#      x y z
#    x 2.227580 -0.064210 0.097740 
#    y -0.064210 2.154720 0.020930 
#    z 0.097740 0.020930 2.034370 
# 
# From -- ./inp_files/8172.got.cif
#   From: 2010.05.17/outbox.cif.g08.bks.cpg/sg2_5_cif.got.tgz:8172.got - 2010.06.03 11:33:40.
