data_PCOD9035667
_publ_section_title
;
Structure prediction by ZEFSAII (Michael W. Deem and Ramdas Pophale) SiO2 
 PCOD9035667
Probable space group: P -1
;
_chemical_formula_sum "Si O2"
_cell_formula_units_Z 16
_cell_length_a 11.645258
_cell_length_b 5.025094
_cell_length_c 11.986961
_cell_angle_alpha 83.563520
_cell_angle_beta 102.660960
_cell_angle_gamma 111.782576
_cell_volume 635.168812
_symmetry_space_group_name_H-M "P -1"
_symmetry_group_IT_number 2
_symmetry_cell_setting 'triclinic'
loop_
_space_group_symop_operation_xyz
x,y,z
-x,-y,-z
loop_
_atom_site_type_symbol
_atom_site_label
_atom_site_fract_x
_atom_site_fract_y
_atom_site_fract_z
Si Si1 0.190792 0.017676 0.092865
Si Si2 0.839200 0.802383 0.290337
Si Si3 0.937301 0.650876 0.111355
Si Si4 0.625584 0.610115 0.715751
Si Si5 0.481137 0.988932 0.759844
Si Si6 0.138778 0.702914 0.555216
Si Si7 0.619784 0.919438 0.492208
Si Si8 0.705796 0.061092 0.095523
O O1 0.080208 0.711425 0.102677
O O2 0.248373 0.179399 0.209815
O O3 0.300132 0.005749 0.032952
O O4 0.125007 0.200808 0.998986
O O5 0.947646 0.811358 0.224912
O O6 0.802801 0.503840 0.359205
O O7 0.874404 0.055681 0.375593
O O8 0.731211 0.814070 0.183099
O O9 0.836958 0.333045 0.122539
O O10 0.598496 0.289915 0.765975
O O11 0.621011 0.652013 0.579459
O O12 0.521221 0.733712 0.734397
O O13 0.394885 0.078796 0.644856
O O14 0.409980 0.905598 0.865756
O O15 0.000000 0.500000 0.500000
O O16 0.239058 0.850658 0.472978
O O17 0.500000 0.000000 0.500000
#
# Coordination Sequence:
#
# PCOD9035667 Si02
#       8
#     2   2   2   2   2   2   2   2
#     4  10  25  43  69 104 143 178 237 289 359 412
#     4  11  23  43  70  99 138 181 226 285 345 423
#     4  10  22  46  70 106 133 192 225 291 355 433
#     4  11  27  45  67 105 137 186 228 297 340 421
#     4  11  25  45  72  99 137 184 240 279 353 415
#     4  12  26  44  69 111 141 181 236 296 351 415
#     4  10  24  46  72 100 142 189 231 283 354 425
#     4  11  23  42  78  95 138 183 236 284 347 425
#
# _framework density 25.190152999999999
#
# number of rings (size 3 to 8) (size 9 to 14) (size 15 to 20)
#    0.000    1.250    2.500    1.125   10.500    3.000 
#    4.500    0.000    0.000    0.000    0.000    0.000 
#    0.000    0.000    0.000    0.000    0.000    0.000 
#
# Total GULP energy -89455.819301 kJ/mol
# GULP energy per Si atom -5590.988706 kJ/mol
# Density = 2.513282 g / cm^3
# Si number density = 25.190153 Si / 1000 Ang^3
#
#
#
# Elastic Constant Matrix: (Units=GPa)
#
#
# Indices 1 2 3 4 5 6 
#
# 1 77.3496 25.6916 24.7069 -10.0361 -17.0158 16.8310
# 2 25.6916 121.9095 39.7516 -7.7294 2.7313 -0.2687
# 3 24.7069 39.7516 101.6933 -4.9741 -3.8077 4.7746
# 4 -10.0361 -7.7294 -4.9741 40.4813 -2.5933 3.0802
# 5 -17.0158 2.7313 -3.8077 -2.5933 26.0891 2.9511
# 6 16.8310 -0.2687 4.7746 3.0802 2.9511 45.0317
#
#
#
# Elastic Compliance Matrix: (Units=1/GPa)
#
#
# Indices 1 2 3 4 5 6 
#
# 1 0.021002 -0.003635 -0.002396 0.005888 0.015335 -0.009025
# 2 -0.003635 0.010165 -0.003330 0.000212 -0.004129 0.002028
# 3 -0.002396 -0.003330 0.011773 0.000287 0.000582 -0.000430
# 4 0.005888 0.000212 0.000287 0.027036 0.007061 -0.004542
# 5 0.015335 -0.004129 0.000582 0.007061 0.050639 -0.009619
# 6 -0.009025 0.002028 -0.000430 -0.004542 -0.009619 0.026579
#
#
# Mechanical properties :
#
#
# Convention : Reuss Voigt Hill
#
# Bulk Modulus (GPa) = 41.28964 53.47250 47.38107
# Shear Modulus (GPa) = 28.73755 36.37391 32.55573
#
# Velocity S-wave (km/s) = 3.38127 3.80409 3.59890
# Velocity P-wave (km/s) = 5.62768 6.36933 6.00996
#
# Compressibility (1/GPa) = 0.02421915
#
# Stress axis : x y z
#
# Youngs Moduli (GPa) = 47.61417 98.37630 84.93874
#
# Poissons Ratio (x) = 0.35760 0.20349
# Poissons Ratio (y) = 0.17308 0.28283
# Poissons Ratio (z) = 0.11407 0.32758
#
# Static dielectric constant tensor:
#      x y z
#    x 2.041300 0.054340 -0.016840 
#    y 0.054340 2.003980 0.038400 
#    z -0.016840 0.038400 2.019850 
# 
# From -- ./inp_files/410298.got.cif
#   From: 2010.05.17/outbox.cif.g08.bks.cpg/sg2_206_cif.got.tgz:410298.got - 2010.06.03 11:33:40.
