data_PCOD9035647
_publ_section_title
;
Structure prediction by ZEFSAII (Michael W. Deem and Ramdas Pophale) SiO2 
 PCOD9035647
Probable space group: P -1
;
_chemical_formula_sum "Si O2"
_cell_formula_units_Z 16
_cell_length_a 6.422861
_cell_length_b 11.916934
_cell_length_c 10.444449
_cell_angle_alpha 104.736553
_cell_angle_beta 60.208081
_cell_angle_gamma 90.800227
_cell_volume 664.903385
_symmetry_space_group_name_H-M "P -1"
_symmetry_group_IT_number 2
_symmetry_cell_setting 'triclinic'
loop_
_space_group_symop_operation_xyz
x,y,z
-x,-y,-z
loop_
_atom_site_type_symbol
_atom_site_label
_atom_site_fract_x
_atom_site_fract_y
_atom_site_fract_z
Si Si1 0.543056 0.634692 0.555972
Si Si2 0.388614 0.251284 0.152526
Si Si3 0.896921 0.185051 0.383414
Si Si4 0.226646 0.899661 0.917979
Si Si5 0.084950 0.253164 0.888690
Si Si6 0.053737 0.709385 0.344127
Si Si7 0.339202 0.011495 0.677869
Si Si8 0.445555 0.386025 0.913717
O O1 0.500000 0.500000 0.500000
O O2 0.542052 0.673237 0.719979
O O3 0.343426 0.727721 0.567102
O O4 0.815709 0.648636 0.429236
O O5 0.565897 0.128852 0.049926
O O6 0.118240 0.230104 0.257393
O O7 0.412745 0.306972 0.024372
O O8 0.944021 0.191727 0.521576
O O9 0.892914 0.048965 0.312447
O O10 0.401335 0.926416 0.754343
O O11 0.084290 0.787578 0.960189
O O12 0.000000 0.000000 0.000000
O O13 0.201485 0.371020 0.908142
O O14 0.958365 0.256764 0.790824
O O15 0.297495 0.144006 0.775471
O O16 0.322306 0.640547 0.256197
O O17 0.500000 0.000000 0.500000
O O18 0.500000 0.500000 0.000000
#
# Coordination Sequence:
#
# PCOD9035647 Si02
#       8
#     2   2   2   2   2   2   2   2
#     4  11  26  44  74 100 147 190 236 304 356 418
#     4  11  25  46  74 108 139 190 245 292 360 431
#     4  11  25  46  73 105 143 184 247 289 361 434
#     4  10  22  46  70 101 146 190 227 293 364 424
#     4  11  25  47  66 101 147 180 232 300 352 427
#     4  11  25  45  69 105 140 185 240 292 364 419
#     4  11  22  43  75  96 139 186 230 295 352 420
#     4  12  28  44  72 106 144 187 243 295 358 432
#
# _framework density 24.063645999999999
#
# number of rings (size 3 to 8) (size 9 to 14) (size 15 to 20)
#    0.000    1.000    2.500    3.000    7.000    2.000 
#    4.500    3.750    0.000    0.000    0.000    0.000 
#    0.000    0.000    0.000    0.000    0.000    0.000 
#
# Total GULP energy -89070.850491 kJ/mol
# GULP energy per Si atom -5566.928156 kJ/mol
# Density = 2.400888 g / cm^3
# Si number density = 24.063646 Si / 1000 Ang^3
#
#
#
# Elastic Constant Matrix: (Units=GPa)
#
#
# Indices 1 2 3 4 5 6 
#
# 1 73.8823 13.4615 24.6620 -2.2525 7.0345 16.0744
# 2 13.4615 43.3251 1.6255 11.8184 -5.7009 24.0756
# 3 24.6620 1.6255 107.9697 -9.9002 -11.8301 10.2175
# 4 -2.2525 11.8184 -9.9002 24.2738 7.5979 5.6518
# 5 7.0345 -5.7009 -11.8301 7.5979 54.3176 -2.4274
# 6 16.0744 24.0756 10.2175 5.6518 -2.4274 31.9142
#
#
#
# Elastic Compliance Matrix: (Units=1/GPa)
#
#
# Indices 1 2 3 4 5 6 
#
# 1 0.017180 -0.003820 -0.003340 0.004803 -0.004288 -0.005878
# 2 -0.003820 0.046739 0.002227 -0.017283 0.006942 -0.030459
# 3 -0.003340 0.002227 0.010917 0.003202 0.002423 -0.003876
# 4 0.004803 -0.017283 0.003202 0.054483 -0.009394 -0.000769
# 5 -0.004288 0.006942 0.002423 -0.009394 0.021511 -0.000553
# 6 -0.005878 -0.030459 -0.003876 -0.000769 -0.000553 0.058608
#
#
# Mechanical properties :
#
#
# Convention : Reuss Voigt Hill
#
# Bulk Modulus (GPa) = 15.39170 33.85282 24.62226
# Shear Modulus (GPa) = 20.75039 34.46301 27.60670
#
# Velocity S-wave (km/s) = 2.93970 3.78850 3.39076
# Velocity P-wave (km/s) = 4.23469 5.76502 5.05807
#
# Compressibility (1/GPa) = 0.06497009
#
# Stress axis : x y z
#
# Youngs Moduli (GPa) = 58.20887 21.39546 91.59969
#
# Poissons Ratio (x) = 0.08174 0.30591
# Poissons Ratio (y) = 0.22237 -0.20401
# Poissons Ratio (z) = 0.19440 -0.04765
#
# Static dielectric constant tensor:
#      x y z
#    x 2.843130 0.988200 2.205890 
#    y 0.988200 3.125510 2.636620 
#    z 2.205890 2.636620 7.394080 
# 
# From -- ./inp_files/106833.got.cif
#   From: 2010.05.17/outbox.cif.g08.bks.cpg/sg2_54_cif.got.tgz:106833.got - 2010.06.03 11:33:40.
