data_PCOD9035677
_publ_section_title
;
Structure prediction by ZEFSAII (Michael W. Deem and Ramdas Pophale) SiO2 
 PCOD9035677
Probable space group: P -1
;
_chemical_formula_sum "Si O2"
_cell_formula_units_Z 15
_cell_length_a 11.164933
_cell_length_b 12.592754
_cell_length_c 4.834308
_cell_angle_alpha 57.425571
_cell_angle_beta 78.093971
_cell_angle_gamma 88.882713
_cell_volume 556.981305
_symmetry_space_group_name_H-M "P -1"
_symmetry_group_IT_number 2
_symmetry_cell_setting 'triclinic'
loop_
_space_group_symop_operation_xyz
x,y,z
-x,-y,-z
loop_
_atom_site_type_symbol
_atom_site_label
_atom_site_fract_x
_atom_site_fract_y
_atom_site_fract_z
Si Si1 0.953155 0.760574 0.881819
Si Si2 0.360192 0.487721 0.381201
Si Si3 0.660623 0.131451 0.211539
Si Si4 0.890800 0.269817 0.611052
Si Si5 0.804069 0.514109 0.041992
Si Si6 0.713757 0.885789 0.798940
Si Si7 0.500000 0.000000 0.000000
Si Si8 0.468415 0.278681 0.289716
O O1 0.843179 0.843077 0.886124
O O2 0.054505 0.816891 0.528643
O O3 0.883865 0.640963 0.918797
O O4 0.018086 0.719992 0.185611
O O5 0.321181 0.493543 0.707719
O O6 0.414812 0.358606 0.448507
O O7 0.236665 0.489366 0.251249
O O8 0.449685 0.610789 0.078657
O O9 0.554634 0.076693 0.135159
O O10 0.576097 0.183576 0.425852
O O11 0.732340 0.021065 0.448214
O O12 0.758476 0.224251 0.870525
O O13 0.870884 0.395937 0.273999
O O14 0.641473 0.786560 0.757327
O O15 0.624995 0.918378 0.043061
#
# Coordination Sequence:
#
# PCOD9035677 Si02
#       8
#     2   2   2   2   2   2   1   2
#     4  12  28  49  76 106 149 195 252 308 359 440
#     4  11  24  43  79 112 155 187 240 313 370 451
#     4  11  26  48  75 110 147 200 243 306 371 440
#     4  12  28  49  76 106 149 195 252 308 359 440
#     4  12  24  48  73 108 151 196 248 300 378 432
#     4  11  26  48  75 110 147 200 243 306 371 440
#     4  10  24  46  80 104 146 192 246 302 370 440
#     4  10  22  46  70 118 148 191 242 307 376 441
#
# _framework density 26.930886999999998
#
# number of rings (size 3 to 8) (size 9 to 14) (size 15 to 20)
#    0.000    0.800    2.667    4.000    3.733    5.333 
#    0.000    0.000    0.000    0.000    0.000    0.000 
#    0.000    0.000    0.000    0.000    0.000    0.000 
#
# Total GULP energy -83999.659775 kJ/mol
# GULP energy per Si atom -5599.977318 kJ/mol
# Density = 2.686959 g / cm^3
# Si number density = 26.930887 Si / 1000 Ang^3
#
#
#
# Elastic Constant Matrix: (Units=GPa)
#
#
# Indices 1 2 3 4 5 6 
#
# 1 148.7249 49.6141 36.7509 3.5858 31.7745 -28.6806
# 2 49.6141 98.7662 15.7314 4.2604 6.5407 -27.6024
# 3 36.7509 15.7314 71.5983 14.8933 14.7377 -1.6228
# 4 3.5858 4.2604 14.8933 47.2967 -10.4490 0.6116
# 5 31.7745 6.5407 14.7377 -10.4490 50.8903 11.0883
# 6 -28.6806 -27.6024 -1.6228 0.6116 11.0883 62.6320
#
#
#
# Elastic Compliance Matrix: (Units=1/GPa)
#
#
# Indices 1 2 3 4 5 6 
#
# 1 0.010961 -0.003175 -0.003201 -0.001094 -0.006768 0.004746
# 2 -0.003175 0.013177 -0.000859 -0.000868 -0.000610 0.004448
# 3 -0.003201 -0.000859 0.017967 -0.006271 -0.004259 -0.000563
# 4 -0.001094 -0.000868 -0.006271 0.025167 0.008383 -0.002776
# 5 -0.006768 -0.000610 -0.004259 0.008383 0.028795 -0.008658
# 6 0.004746 0.004448 -0.000563 -0.002776 -0.008658 0.021645
#
#
# Mechanical properties :
#
#
# Convention : Reuss Voigt Hill
#
# Bulk Modulus (GPa) = 36.18302 58.14246 47.16274
# Shear Modulus (GPa) = 35.36229 46.63002 40.99615
#
# Velocity S-wave (km/s) = 3.62757 4.16561 3.90586
# Velocity P-wave (km/s) = 5.56869 6.69124 6.15561
#
# Compressibility (1/GPa) = 0.02763727
#
# Stress axis : x y z
#
# Youngs Moduli (GPa) = 91.22962 75.88763 55.65809
#
# Poissons Ratio (x) = 0.24092 0.17814
# Poissons Ratio (y) = 0.28963 0.04780
# Poissons Ratio (z) = 0.29200 0.06517
#
# Static dielectric constant tensor:
#      x y z
#    x 2.062550 -0.127310 0.062460 
#    y -0.127310 1.712370 0.702750 
#    z 0.062460 0.702750 0.501830 
# 
# From -- ./inp_files/68432.got.cif
#   From: 2010.05.17/outbox.cif.g08.bks.cpg/sg2_35_cif.got.tgz:68432.got - 2010.06.03 11:33:40.
