data_PCOD9035661
_publ_section_title
;
Structure prediction by ZEFSAII (Michael W. Deem and Ramdas Pophale) SiO2 
 PCOD9035661
Probable space group: P -1
;
_chemical_formula_sum "Si O2"
_cell_formula_units_Z 15
_cell_length_a 20.880439
_cell_length_b 13.615120
_cell_length_c 5.014100
_cell_angle_alpha 88.694172
_cell_angle_beta 94.883364
_cell_angle_gamma 23.059833
_cell_volume 537.317435
_symmetry_space_group_name_H-M "P -1"
_symmetry_group_IT_number 2
_symmetry_cell_setting 'triclinic'
loop_
_space_group_symop_operation_xyz
x,y,z
-x,-y,-z
loop_
_atom_site_type_symbol
_atom_site_label
_atom_site_fract_x
_atom_site_fract_y
_atom_site_fract_z
Si Si1 0.899208 0.931995 0.866066
Si Si2 0.487360 0.634800 0.424928
Si Si3 0.000000 0.500000 0.500000
Si Si4 0.844413 0.211724 0.632115
Si Si5 0.761551 0.016710 0.282807
Si Si6 0.302053 0.080334 0.194354
Si Si7 0.357767 0.307951 0.408603
Si Si8 0.742392 0.662601 0.105306
O O1 0.826524 0.987395 0.566988
O O2 0.083636 0.621861 0.950684
O O3 0.901776 0.045667 0.863847
O O4 0.777872 0.072268 0.052571
O O5 0.500000 0.500000 0.500000
O O6 0.674930 0.404086 0.430900
O O7 0.419253 0.765456 0.683765
O O8 0.367783 0.876038 0.183409
O O9 0.099074 0.264735 0.681922
O O10 0.143141 0.299009 0.319731
O O11 0.770102 0.420081 0.691534
O O12 0.000000 0.000000 0.500000
O O13 0.464851 0.901583 0.403281
O O14 0.256272 0.221001 0.928260
O O15 0.275298 0.354842 0.604133
O O16 0.387974 0.207401 0.149793
#
# Coordination Sequence:
#
# PCOD9035661 Si02
#       8
#     2   2   1   2   2   2   2   2
#     4  12  25  44  76 103 149 187 245 295 364 429
#     4  10  22  48  76 106 149 195 244 300 363 434
#     4  10  22  46  70 104 144 182 242 298 360 422
#     4  11  24  45  73 110 145 193 245 299 362 433
#     4  11  25  47  72 107 140 197 236 303 355 436
#     4  10  23  44  73 110 141 191 244 298 360 435
#     4  11  26  46  73 106 144 191 238 297 362 435
#     4  12  24  46  74 105 147 187 237 300 366 426
#
# _framework density 27.916457000000001
#
# number of rings (size 3 to 8) (size 9 to 14) (size 15 to 20)
#    0.000    1.067    4.000    1.600    0.000    2.667 
#    0.000    6.667    0.000    0.000    0.000    0.000 
#    0.000    0.000    0.000    0.000    0.000    0.000 
#
# Total GULP energy -83810.144037 kJ/mol
# GULP energy per Si atom -5587.342936 kJ/mol
# Density = 2.785292 g / cm^3
# Si number density = 27.916457 Si / 1000 Ang^3
#
#
#
# Elastic Constant Matrix: (Units=GPa)
#
#
# Indices 1 2 3 4 5 6 
#
# 1 144.2605 49.5322 56.6162 0.6189 -47.3889 34.5059
# 2 49.5322 202.7106 12.5854 -16.1844 -31.3233 27.3283
# 3 56.6162 12.5854 115.3416 8.7751 -44.3008 22.1036
# 4 0.6189 -16.1844 8.7751 52.9207 8.4266 -22.8202
# 5 -47.3889 -31.3233 -44.3008 8.4266 53.0096 -0.9863
# 6 34.5059 27.3283 22.1036 -22.8202 -0.9863 65.3408
#
#
#
# Elastic Compliance Matrix: (Units=1/GPa)
#
#
# Indices 1 2 3 4 5 6 
#
# 1 0.013339 -0.000567 0.000802 -0.006497 0.013123 -0.009149
# 2 -0.000567 0.006066 0.002143 -0.000613 0.004908 -0.003103
# 3 0.000802 0.002143 0.017760 -0.009694 0.018172 -0.010439
# 4 -0.006497 -0.000613 -0.009694 0.030936 -0.018864 0.017487
# 5 0.013123 0.004908 0.018172 -0.018864 0.051292 -0.020944
# 6 -0.009149 -0.003103 -0.010439 0.017487 -0.020944 0.030756
#
#
# Mechanical properties :
#
#
# Convention : Reuss Voigt Hill
#
# Bulk Modulus (GPa) = 23.85395 77.75337 50.80366
# Shear Modulus (GPa) = 31.37418 57.15949 44.26684
#
# Velocity S-wave (km/s) = 3.35604 4.52986 3.98639
# Velocity P-wave (km/s) = 4.85599 7.43452 6.27904
#
# Compressibility (1/GPa) = 0.04192179
#
# Stress axis : x y z
#
# Youngs Moduli (GPa) = 74.97022 164.84246 56.30632
#
# Poissons Ratio (x) = 0.09340 -0.04517
# Poissons Ratio (y) = 0.04248 -0.12065
# Poissons Ratio (z) = -0.06015 -0.35321
#
# Static dielectric constant tensor:
#      x y z
#    x 2.402180 -0.183950 0.122420 
#    y -0.183950 2.253700 -0.149720 
#    z 0.122420 -0.149720 2.266100 
# 
# From -- ./inp_files/124003.got.cif
#   From: 2010.05.17/outbox.cif.g08.bks.cpg/sg2_63_cif.got.tgz:124003.got - 2010.06.03 11:33:40.
