data_PCOD9035655
_publ_section_title
;
Structure prediction by ZEFSAII (Michael W. Deem and Ramdas Pophale) SiO2 
 PCOD9035655
Probable space group: P -1
;
_chemical_formula_sum "Si O2"
_cell_formula_units_Z 16
_cell_length_a 5.027808
_cell_length_b 11.050817
_cell_length_c 12.527373
_cell_angle_alpha 103.479918
_cell_angle_beta 113.282461
_cell_angle_gamma 73.615166
_cell_volume 607.524908
_symmetry_space_group_name_H-M "P -1"
_symmetry_group_IT_number 2
_symmetry_cell_setting 'triclinic'
loop_
_space_group_symop_operation_xyz
x,y,z
-x,-y,-z
loop_
_atom_site_type_symbol
_atom_site_label
_atom_site_fract_x
_atom_site_fract_y
_atom_site_fract_z
Si Si1 0.307015 0.630407 0.455673
Si Si2 0.671745 0.267946 0.968696
Si Si3 0.457455 0.639323 0.261284
Si Si4 0.395360 0.225280 0.319532
Si Si5 0.060492 0.000941 0.667849
Si Si6 0.787866 0.822379 0.453991
Si Si7 0.271044 0.639619 0.772352
Si Si8 0.226169 0.101109 0.927485
O O1 0.500000 0.500000 0.500000
O O2 0.240611 0.620128 0.318821
O O3 0.509376 0.730834 0.540053
O O4 0.017033 0.689058 0.487230
O O5 0.661318 0.344996 0.873138
O O6 0.393553 0.199705 0.915973
O O7 0.987394 0.167047 0.990740
O O8 0.647239 0.348750 0.088847
O O9 0.537200 0.772020 0.338565
O O10 0.709009 0.508929 0.280117
O O11 0.609176 0.089065 0.306999
O O12 0.505302 0.310801 0.261870
O O13 0.044289 0.263492 0.267690
O O14 0.815412 0.922590 0.573189
O O15 0.057603 0.111524 0.604428
O O16 0.044903 0.043894 0.796360
O O17 0.500000 0.000000 0.000000
#
# Coordination Sequence:
#
# PCOD9035655 Si02
#       8
#     2   2   2   2   2   2   2   2
#     4  11  23  44  70 106 145 190 241 304 365 440
#     4  12  27  47  73 108 146 192 250 295 363 433
#     4  12  26  44  75 105 151 191 242 302 370 434
#     4  11  26  45  74 107 146 189 245 300 365 430
#     4  10  22  46  70 102 146 188 241 298 363 435
#     4  10  23  45  69 104 143 190 238 296 370 432
#     4  12  26  48  73 108 146 195 244 301 361 432
#     4  12  25  48  75 105 147 193 245 301 357 430
#
# _framework density 26.336366000000002
#
# number of rings (size 3 to 8) (size 9 to 14) (size 15 to 20)
#    0.000    0.750    2.500    4.500    3.500    2.000 
#    4.500    5.000    0.000    0.000    0.000    0.000 
#    0.000    0.000    0.000    0.000    0.000    0.000 
#
# Total GULP energy -89555.284212 kJ/mol
# GULP energy per Si atom -5597.205263 kJ/mol
# Density = 2.627642 g / cm^3
# Si number density = 26.336366 Si / 1000 Ang^3
#
#
#
# Elastic Constant Matrix: (Units=GPa)
#
#
# Indices 1 2 3 4 5 6 
#
# 1 112.5901 24.0100 12.4598 12.6946 -9.8006 -9.2229
# 2 24.0100 104.4519 23.0029 10.4241 2.8374 -9.7022
# 3 12.4598 23.0029 169.4730 9.6572 -21.1687 3.1521
# 4 12.6946 10.4241 9.6572 46.2040 -5.6371 0.4474
# 5 -9.8006 2.8374 -21.1687 -5.6371 39.7517 -1.1360
# 6 -9.2229 -9.7022 3.1521 0.4474 -1.1360 22.8141
#
#
#
# Elastic Compliance Matrix: (Units=1/GPa)
#
#
# Indices 1 2 3 4 5 6 
#
# 1 0.010000 -0.001803 -0.000147 -0.002060 0.002322 0.003452
# 2 -0.001803 0.010977 -0.001602 -0.001960 -0.002242 0.004087
# 3 -0.000147 -0.001602 0.006623 -0.000543 0.003486 -0.001472
# 4 -0.002060 -0.001960 -0.000543 0.023096 0.002563 -0.001916
# 5 0.002322 -0.002242 0.003486 0.002563 0.028133 0.000854
# 6 0.003452 0.004087 -0.001472 -0.001916 0.000854 0.047250
#
#
# Mechanical properties :
#
#
# Convention : Reuss Voigt Hill
#
# Bulk Modulus (GPa) = 48.79156 56.16226 52.47691
# Shear Modulus (GPa) = 35.71070 43.55677 39.63374
#
# Velocity S-wave (km/s) = 3.68631 4.07118 3.88352
# Velocity P-wave (km/s) = 6.05682 6.59323 6.33071
#
# Compressibility (1/GPa) = 0.02049535
#
# Stress axis : x y z
#
# Youngs Moduli (GPa) = 100.00247 91.09849 150.99864
#
# Poissons Ratio (x) = 0.16425 0.02223
# Poissons Ratio (y) = 0.18031 0.24187
# Poissons Ratio (z) = 0.01472 0.14592
#
# Static dielectric constant tensor:
#      x y z
#    x 2.328410 0.107090 0.048290 
#    y 0.107090 2.086540 -0.014700 
#    z 0.048290 -0.014700 2.034610 
# 
# From -- ./inp_files/364838.got.cif
#   From: 2010.05.17/outbox.cif.g08.bks.cpg/sg2_183_cif.got.tgz:364838.got - 2010.06.03 11:33:40.
