data_PCOD9035917
_publ_section_title
;
Structure prediction by ZEFSAII (Michael W. Deem and Ramdas Pophale) SiO2 
 PCOD9035917
Probable space group: P -1
;
_chemical_formula_sum "Si O2"
_cell_formula_units_Z 16
_cell_length_a 27.977402
_cell_length_b 13.508961
_cell_length_c 9.352497
_cell_angle_alpha 138.452873
_cell_angle_beta 143.562752
_cell_angle_gamma 16.586872
_cell_volume 593.963607
_symmetry_space_group_name_H-M "P -1"
_symmetry_group_IT_number 2
_symmetry_cell_setting 'triclinic'
loop_
_space_group_symop_operation_xyz
x,y,z
-x,-y,-z
loop_
_atom_site_type_symbol
_atom_site_label
_atom_site_fract_x
_atom_site_fract_y
_atom_site_fract_z
Si Si1 0.780839 0.323458 0.006191
Si Si2 0.931982 0.537045 0.726450
Si Si3 0.658763 0.476281 0.489650
Si Si4 0.235133 0.167089 0.879691
Si Si5 0.331252 0.539318 0.806076
Si Si6 0.466471 0.691698 0.519323
Si Si7 0.875366 0.385344 0.073160
Si Si8 0.275173 0.289597 0.377970
O O1 0.562470 0.671843 0.810104
O O2 0.847693 0.368955 0.148909
O O3 0.791387 0.255773 0.123601
O O4 0.911892 0.987793 0.872729
O O5 0.858368 0.507703 0.588251
O O6 0.747171 0.928301 0.636703
O O7 0.000000 0.500000 0.000000
O O8 0.094024 0.277228 0.715955
O O9 0.736518 0.283337 0.317671
O O10 0.599933 0.457731 0.448065
O O11 0.769540 0.432074 0.775436
O O12 0.453161 0.887112 0.401897
O O13 0.190715 0.335790 0.812921
O O14 0.196407 0.360594 0.116756
O O15 0.457209 0.760791 0.978430
O O16 0.340475 0.347853 0.589259
O O17 0.500000 0.500000 0.500000
#
# Coordination Sequence:
#
# PCOD9035917 Si02
#       8
#     2   2   2   2   2   2   2   2
#     4  10  24  34  55  84 119 152 195 245 300 354
#     4   9  19  33  59  89 111 151 209 240 272 356
#     4   9  17  33  59  83 112 156 202 240 279 355
#     4  10  17  32  60  81 109 151 197 240 287 343
#     4  11  19  35  58  90 118 146 196 255 297 333
#     4  10  20  39  59  81 120 167 195 230 307 370
#     4  10  18  37  53  79 111 155 203 231 291 362
#     4   9  16  32  56  89 115 148 190 243 298 338
#
# _framework density 26.937676
#
# number of rings (size 3 to 8) (size 9 to 14) (size 15 to 20)
#    0.000    2.250    2.500    2.250    0.000    1.000 
#    0.000    1.250    8.250    0.000    0.000    0.000 
#    0.000    0.000    0.000    0.000    0.000    0.000 
#
# Total GULP energy -89424.344685 kJ/mol
# GULP energy per Si atom -5589.021543 kJ/mol
# Density = 2.687636 g / cm^3
# Si number density = 26.937676 Si / 1000 Ang^3
#
#
#
# Elastic Constant Matrix: (Units=GPa)
#
#
# Indices 1 2 3 4 5 6 
#
# 1 236.2895 52.5124 36.8907 -6.8132 -5.8937 -48.4395
# 2 52.5124 88.1563 25.2237 -16.5984 -12.2765 -35.0404
# 3 36.8907 25.2237 72.5820 -0.0072 -25.4630 -18.1134
# 4 -6.8132 -16.5984 -0.0072 33.9888 -6.8353 -6.3920
# 5 -5.8937 -12.2765 -25.4630 -6.8353 46.3954 0.4643
# 6 -48.4395 -35.0404 -18.1134 -6.3920 0.4643 48.8576
#
#
#
# Elastic Compliance Matrix: (Units=1/GPa)
#
#
# Indices 1 2 3 4 5 6 
#
# 1 0.005642 -0.000786 -0.001456 0.001611 -0.000100 0.004702
# 2 -0.000786 0.023061 -0.000426 0.016018 0.007952 0.017622
# 3 -0.001456 -0.000426 0.020026 0.002845 0.011053 0.005943
# 4 0.001611 0.016018 0.002845 0.043745 0.012251 0.019746
# 5 -0.000100 0.007952 0.011053 0.012251 0.031406 0.011006
# 6 0.004702 0.017622 0.005943 0.019746 0.011006 0.042450
#
#
# Mechanical properties :
#
#
# Convention : Reuss Voigt Hill
#
# Bulk Modulus (GPa) = 23.04429 69.58682 46.31555
# Shear Modulus (GPa) = 26.86286 44.67511 35.76898
#
# Velocity S-wave (km/s) = 3.16131 4.07684 3.64791
# Velocity P-wave (km/s) = 4.67957 6.93177 5.91388
#
# Compressibility (1/GPa) = 0.04339469
#
# Stress axis : x y z
#
# Youngs Moduli (GPa) = 177.24471 43.36282 49.93387
#
# Poissons Ratio (x) = 0.03407 0.07270
# Poissons Ratio (y) = 0.13928 0.02126
# Poissons Ratio (z) = 0.25807 0.01846
#
# Static dielectric constant tensor:
#      x y z
#    x 2.165550 -0.062630 -0.072930 
#    y -0.062630 2.114010 0.023850 
#    z -0.072930 0.023850 2.182380 
# 
# From -- ./inp_files/357419.got.cif
#   From: 2010.05.17/outbox.cif.g08.bks.cpg/sg2_179_cif.got.tgz:357419.got - 2010.06.03 11:33:40.
