data_PCOD9035401
_publ_section_title
;
Structure prediction by ZEFSAII (Michael W. Deem and Ramdas Pophale) SiO2 
 PCOD9035401
Probable space group: P -1
;
_chemical_formula_sum "Si O2"
_cell_formula_units_Z 12
_cell_length_a 15.262931
_cell_length_b 10.578086
_cell_length_c 8.045568
_cell_angle_alpha 116.970933
_cell_angle_beta 117.497308
_cell_angle_gamma 26.959394
_cell_volume 519.518674
_symmetry_space_group_name_H-M "P -1"
_symmetry_group_IT_number 2
_symmetry_cell_setting 'triclinic'
loop_
_space_group_symop_operation_xyz
x,y,z
-x,-y,-z
loop_
_atom_site_type_symbol
_atom_site_label
_atom_site_fract_x
_atom_site_fract_y
_atom_site_fract_z
Si Si1 0.019013 0.815225 0.622553
Si Si2 0.992304 0.172486 0.778364
Si Si3 0.448286 0.223620 0.754735
Si Si4 0.587717 0.796370 0.811252
Si Si5 0.566366 0.328307 0.116156
Si Si6 0.402037 0.785126 0.433810
O O1 0.038298 0.797745 0.429479
O O2 0.217947 0.502587 0.680351
O O3 0.998107 0.007975 0.764786
O O4 0.824187 0.973552 0.597179
O O5 0.810400 0.487870 0.866143
O O6 0.202774 0.979186 0.873283
O O7 0.553533 0.176202 0.668003
O O8 0.555318 0.943410 0.714705
O O9 0.466200 0.302639 0.980635
O O10 0.483854 0.778723 0.652970
O O11 0.500000 0.000000 0.000000
O O12 0.515467 0.496425 0.324015
O O13 0.500000 0.500000 0.000000
#
# Coordination Sequence:
#
# PCOD9035401 Si02
#       6
#     2   2   2   2   2   2
#     4  11  24  44  83 104 141 195 250 292 361 428
#     4  11  23  46  71 110 146 190 241 306 352 429
#     4  11  25  51  71 111 151 186 240 308 359 428
#     4  12  29  47  71 110 155 188 238 305 371 429
#     4  10  22  45  76 105 138 190 241 299 354 420
#     4  11  24  47  78 104 141 200 241 291 365 433
#
# _framework density 23.098303999999999
#
# number of rings (size 3 to 8) (size 9 to 14) (size 15 to 20)
#    0.000    1.000    5.000    1.500    4.667    6.000 
#    0.000    0.000    0.000    0.000    0.000    0.000 
#    0.000    0.000    0.000    0.000    0.000    0.000 
#
# Total GULP energy -67150.301108 kJ/mol
# GULP energy per Si atom -5595.858426 kJ/mol
# Density = 2.304573 g / cm^3
# Si number density = 23.098304 Si / 1000 Ang^3
#
#
#
# Elastic Constant Matrix: (Units=GPa)
#
#
# Indices 1 2 3 4 5 6 
#
# 1 96.8183 30.7417 22.4817 10.4951 9.4385 -5.1599
# 2 30.7417 143.7558 34.3007 8.3130 15.9146 -13.1777
# 3 22.4817 34.3007 123.0858 8.9717 11.5163 -14.4024
# 4 10.4951 8.3130 8.9717 40.6197 -6.5662 0.7341
# 5 9.4385 15.9146 11.5163 -6.5662 32.0164 -2.3725
# 6 -5.1599 -13.1777 -14.4024 0.7341 -2.3725 45.4864
#
#
#
# Elastic Compliance Matrix: (Units=1/GPa)
#
#
# Indices 1 2 3 4 5 6 
#
# 1 0.011746 -0.001732 -0.001153 -0.002877 -0.002750 0.000369
# 2 -0.001732 0.008253 -0.001379 -0.001497 -0.003284 0.001611
# 3 -0.001153 -0.001379 0.009375 -0.001949 -0.002574 0.002336
# 4 -0.002877 -0.001497 -0.001949 0.027386 0.007805 -0.001412
# 5 -0.002750 -0.003284 -0.002574 0.007805 0.036180 -0.000317
# 6 0.000369 0.001611 0.002336 -0.001412 -0.000317 0.023239
#
#
# Mechanical properties :
#
#
# Convention : Reuss Voigt Hill
#
# Bulk Modulus (GPa) = 47.96753 59.85647 53.91200
# Shear Modulus (GPa) = 37.97788 42.03354 40.00571
#
# Velocity S-wave (km/s) = 4.05925 4.27050 4.16622
# Velocity P-wave (km/s) = 6.54078 7.09128 6.82159
#
# Compressibility (1/GPa) = 0.02084743
#
# Stress axis : x y z
#
# Youngs Moduli (GPa) = 85.13643 121.16227 106.66298
#
# Poissons Ratio (x) = 0.20988 0.12293
# Poissons Ratio (y) = 0.14748 0.14707
# Poissons Ratio (z) = 0.09812 0.16706
#
# Static dielectric constant tensor:
#      x y z
#    x 2.207160 0.164920 -0.185140 
#    y 0.164920 1.866680 -0.054040 
#    z -0.185140 -0.054040 2.005810 
# 
# From -- ./inp_files/160016.got.cif
#   From: 2010.05.17/outbox.cif.g08.bks.cpg/sg2_81_cif.got.tgz:160016.got - 2010.06.03 11:33:40.
