data_PCOD9035756
_publ_section_title
;
Structure prediction by ZEFSAII (Michael W. Deem and Ramdas Pophale) SiO2 
 PCOD9035756
Probable space group: P -1
;
_chemical_formula_sum "Si O2"
_cell_formula_units_Z 10
_cell_length_a 5.231406
_cell_length_b 4.990992
_cell_length_c 14.172821
_cell_angle_alpha 76.373628
_cell_angle_beta 89.896593
_cell_angle_gamma 89.506053
_cell_volume 359.621694
_symmetry_space_group_name_H-M "P -1"
_symmetry_group_IT_number 2
_symmetry_cell_setting 'triclinic'
loop_
_space_group_symop_operation_xyz
x,y,z
-x,-y,-z
loop_
_atom_site_type_symbol
_atom_site_label
_atom_site_fract_x
_atom_site_fract_y
_atom_site_fract_z
Si Si1 0.064074 0.911280 0.706573
Si Si2 0.320018 0.250124 0.943924
Si Si3 0.195236 0.525162 0.122128
Si Si4 0.705610 0.175826 0.546283
Si Si5 0.663166 0.545046 0.345945
O O1 0.906046 0.729137 0.795379
O O2 0.308806 0.723250 0.695685
O O3 0.914628 0.967316 0.604504
O O4 0.158820 0.210542 0.710677
O O5 0.523199 0.372714 0.858358
O O6 0.031821 0.244079 0.903160
O O7 0.257231 0.424947 0.023802
O O8 0.500000 0.000000 0.000000
O O9 0.764535 0.430861 0.456855
O O10 0.597567 0.313233 0.632043
O O11 0.500000 0.000000 0.500000
#
# Coordination Sequence:
#
# PCOD9035756 Si02
#       5
#     2   2   2   2   2
#     4  12  27  42  68 102 137 179 234 293 336 420
#     4  10  22  46  71  98 138 183 219 287 356 426
#     4  10  25  42  69 104 136 176 235 281 352 416
#     4  11  25  44  69  96 137 188 230 288 345 415
#     4  11  26  43  66  96 138 181 230 282 354 399
#
# _framework density 27.806996999999999
#
# number of rings (size 3 to 8) (size 9 to 14) (size 15 to 20)
#    0.000    1.200    2.000    1.800   11.200    1.600 
#    0.000    0.000    0.000    0.000    0.000    0.000 
#    0.000    0.000    0.000    0.000    0.000    0.000 
#
# Total GULP energy -55895.899379 kJ/mol
# GULP energy per Si atom -5589.589938 kJ/mol
# Density = 2.774371 g / cm^3
# Si number density = 27.806997 Si / 1000 Ang^3
#
#
#
# Elastic Constant Matrix: (Units=GPa)
#
#
# Indices 1 2 3 4 5 6 
#
# 1 131.1098 58.6012 39.8154 -16.1160 8.7945 -43.8042
# 2 58.6012 126.9349 28.3158 -16.8112 -1.8016 -27.0435
# 3 39.8154 28.3158 157.1244 -33.6653 -28.0368 -19.6055
# 4 -16.1160 -16.8112 -33.6653 50.9882 -5.9049 2.5796
# 5 8.7945 -1.8016 -28.0368 -5.9049 58.0825 -4.3376
# 6 -43.8042 -27.0435 -19.6055 2.5796 -4.3376 53.4886
#
#
#
# Elastic Compliance Matrix: (Units=1/GPa)
#
#
# Indices 1 2 3 4 5 6 
#
# 1 0.012631 -0.003725 -0.001776 0.000950 -0.002222 0.007584
# 2 -0.003725 0.010382 0.000093 0.002349 0.001336 0.002227
# 3 -0.001776 0.000093 0.009404 0.006217 0.005607 0.002194
# 4 0.000950 0.002349 0.006217 0.025282 0.005761 0.003492
# 5 -0.002222 0.001336 0.005607 0.005761 0.021062 0.002341
# 6 0.007584 0.002227 0.002194 0.003492 0.002341 0.026858
#
#
# Mechanical properties :
#
#
# Convention : Reuss Voigt Hill
#
# Bulk Modulus (GPa) = 46.29730 74.29267 60.29499
# Shear Modulus (GPa) = 40.44128 51.74096 46.09112
#
# Velocity S-wave (km/s) = 3.81774 4.31828 4.07570
# Velocity P-wave (km/s) = 6.00992 7.18601 6.62412
#
# Compressibility (1/GPa) = 0.02159953
#
# Stress axis : x y z
#
# Youngs Moduli (GPa) = 79.16885 96.32353 106.33792
#
# Poissons Ratio (x) = 0.35882 0.18886
# Poissons Ratio (y) = 0.29491 -0.00984
# Poissons Ratio (z) = 0.14061 -0.00891
#
# Static dielectric constant tensor:
#      x y z
#    x 2.245600 0.046740 -0.055780 
#    y 0.046740 2.140000 0.028210 
#    z -0.055780 0.028210 2.237230 
# 
# From -- ./inp_files/2572.got.cif
#   From: 2010.05.17/outbox.cif.g08.bks.cpg/sg2_2_cif.got.tgz:2572.got - 2010.06.03 11:33:40.
