data_PCOD9035279
_publ_section_title
;
Structure prediction by ZEFSAII (Michael W. Deem and Ramdas Pophale) SiO2 
 PCOD9035279
Probable space group: P -1
;
_chemical_formula_sum "Si O2"
_cell_formula_units_Z 10
_cell_length_a 13.230899
_cell_length_b 8.232513
_cell_length_c 9.346172
_cell_angle_alpha 75.100395
_cell_angle_beta 143.535259
_cell_angle_gamma 78.840718
_cell_volume 419.262192
_symmetry_space_group_name_H-M "P -1"
_symmetry_group_IT_number 2
_symmetry_cell_setting 'triclinic'
loop_
_space_group_symop_operation_xyz
x,y,z
-x,-y,-z
loop_
_atom_site_type_symbol
_atom_site_label
_atom_site_fract_x
_atom_site_fract_y
_atom_site_fract_z
Si Si1 0.758927 0.739657 0.245213
Si Si2 0.356358 0.749945 0.850160
Si Si3 0.177796 0.804915 0.954695
Si Si4 0.963065 0.463938 0.125587
Si Si5 0.301683 0.052645 0.160960
O O1 0.849488 0.740370 0.501229
O O2 0.000000 0.500000 0.500000
O O3 0.545424 0.765070 0.033130
O O4 0.663256 0.929186 0.970611
O O5 0.302376 0.749320 0.955470
O O6 0.500000 0.500000 0.000000
O O7 0.099206 0.951531 0.438034
O O8 0.201719 0.589584 0.063915
O O9 0.267657 0.876163 0.160789
O O10 0.000000 0.500000 0.000000
O O11 0.911178 0.681013 0.091112
O O12 0.500000 0.000000 0.500000
#
# Coordination Sequence:
#
# PCOD9035279 Si02
#       5
#     2   2   2   2   2
#     4  10  22  45  73 103 147 192 243 310 369 437
#     4  11  22  44  81 112 145 197 254 314 381 450
#     4  11  26  46  74 111 152 198 250 309 384 449
#     4  11  26  48  72 108 151 196 253 313 373 449
#     4  11  26  48  72 108 151 196 253 313 373 449
#
# _framework density 23.851426
#
# number of rings (size 3 to 8) (size 9 to 14) (size 15 to 20)
#    0.000    1.200    0.000    7.200    5.600    3.200 
#    3.600    0.000    0.000    0.000    0.000    0.000 
#    0.000    0.000    0.000    0.000    0.000    0.000 
#
# Total GULP energy -55717.153528 kJ/mol
# GULP energy per Si atom -5571.715353 kJ/mol
# Density = 2.379714 g / cm^3
# Si number density = 23.851426 Si / 1000 Ang^3
#
#
#
# Elastic Constant Matrix: (Units=GPa)
#
#
# Indices 1 2 3 4 5 6 
#
# 1 158.5169 51.7062 43.3750 13.0443 0.7943 -1.8250
# 2 51.7062 185.9599 44.4406 21.4585 17.1667 -0.9567
# 3 43.3750 44.4406 103.6597 12.6462 3.9053 -13.3690
# 4 13.0443 21.4585 12.6462 37.9962 -16.5483 10.1081
# 5 0.7943 17.1667 3.9053 -16.5483 46.4992 4.9000
# 6 -1.8250 -0.9567 -13.3690 10.1081 4.9000 40.3895
#
#
#
# Elastic Compliance Matrix: (Units=1/GPa)
#
#
# Indices 1 2 3 4 5 6 
#
# 1 0.007517 -0.001463 -0.002517 -0.000604 0.000454 -0.000432
# 2 -0.001463 0.007200 -0.001419 -0.005540 -0.004653 0.001586
# 3 -0.002517 -0.001419 0.012855 -0.005522 -0.003096 0.005865
# 4 -0.000604 -0.005540 -0.005522 0.044283 0.019911 -0.015484
# 5 0.000454 -0.004653 -0.003096 0.019911 0.031608 -0.009932
# 6 -0.000432 0.001586 0.005865 -0.015484 -0.009932 0.031799
#
#
# Mechanical properties :
#
#
# Convention : Reuss Voigt Hill
#
# Bulk Modulus (GPa) = 59.61574 80.79778 70.20676
# Shear Modulus (GPa) = 32.97000 45.55130 39.26065
#
# Velocity S-wave (km/s) = 3.72197 4.37486 4.06156
# Velocity P-wave (km/s) = 6.59694 7.71156 7.17593
#
# Compressibility (1/GPa) = 0.01677409
#
# Stress axis : x y z
#
# Youngs Moduli (GPa) = 133.03309 138.88160 77.78832
#
# Poissons Ratio (x) = 0.20317 0.19582
# Poissons Ratio (y) = 0.19461 0.11039
# Poissons Ratio (z) = 0.33489 0.19709
#
# Static dielectric constant tensor:
#      x y z
#    x 1.894290 0.173380 -0.010660 
#    y 0.173380 2.909020 -0.361180 
#    z -0.010660 -0.361180 2.112680 
# 
# From -- ./inp_files/152529.got.cif
#   From: 2010.05.17/outbox.cif.g08.bks.cpg/sg2_77_cif.got.tgz:152529.got - 2010.06.03 11:33:40.
