data_PCOD9035356
_publ_section_title
;
Structure prediction by ZEFSAII (Michael W. Deem and Ramdas Pophale) SiO2 
 PCOD9035356
Probable space group: P -1
;
_chemical_formula_sum "Si O2"
_cell_formula_units_Z 14
_cell_length_a 7.213608
_cell_length_b 7.919794
_cell_length_c 14.971576
_cell_angle_alpha 50.345435
_cell_angle_beta 101.202856
_cell_angle_gamma 70.960985
_cell_volume 518.661248
_symmetry_space_group_name_H-M "P -1"
_symmetry_group_IT_number 2
_symmetry_cell_setting 'triclinic'
loop_
_space_group_symop_operation_xyz
x,y,z
-x,-y,-z
loop_
_atom_site_type_symbol
_atom_site_label
_atom_site_fract_x
_atom_site_fract_y
_atom_site_fract_z
Si Si1 0.446480 0.211211 0.542828
Si Si2 0.122189 0.751812 0.439625
Si Si3 0.209675 0.540566 0.701505
Si Si4 0.207939 0.033632 0.826791
Si Si5 0.009911 0.786506 0.970549
Si Si6 0.391934 0.372226 0.285649
Si Si7 0.739200 0.586982 0.051582
O O1 0.280274 0.437239 0.524647
O O2 0.696176 0.170097 0.579772
O O3 0.333040 0.334404 0.393177
O O4 0.493981 0.921402 0.651017
O O5 0.054114 0.752072 0.535741
O O6 0.098832 0.080260 0.702892
O O7 0.235667 0.268004 0.772388
O O8 0.438269 0.537012 0.718590
O O9 0.157490 0.568443 0.792492
O O10 0.024358 0.034886 0.874018
O O11 0.460646 0.745397 0.963642
O O12 0.772451 0.826336 0.959393
O O13 0.186587 0.583090 0.130456
O O14 0.110800 0.625683 0.940724
#
# Coordination Sequence:
#
# PCOD9035356 Si02
#       7
#     2   2   2   2   2   2   2
#     4   9  22  45  74 109 149 190 252 290 360 442
#     4  10  24  45  76 109 145 194 241 301 368 421
#     4  11  25  47  70 110 147 191 241 297 362 431
#     4  12  26  48  73 110 150 188 237 306 358 438
#     4  11  27  46  76 105 143 201 238 296 371 422
#     4  10  22  45  74 107 147 195 241 304 354 428
#     4  11  27  48  71 105 151 186 248 292 362 436
#
# _framework density 26.992569
#
# number of rings (size 3 to 8) (size 9 to 14) (size 15 to 20)
#    0.000    1.429    1.429    1.286    8.000    2.857 
#    0.000    1.429    0.000    0.857    0.000    0.000 
#    0.000    0.000    0.000    0.000    0.000    0.000 
#
# Total GULP energy -78570.872677 kJ/mol
# GULP energy per Si atom -5612.205191 kJ/mol
# Density = 2.693113 g / cm^3
# Si number density = 26.992569 Si / 1000 Ang^3
#
#
#
# Elastic Constant Matrix: (Units=GPa)
#
#
# Indices 1 2 3 4 5 6 
#
# 1 125.1954 40.6133 55.0136 8.6574 -22.2497 14.8060
# 2 40.6133 144.7955 83.8309 19.7790 2.8190 10.7896
# 3 55.0136 83.8309 133.1166 25.7967 -3.8931 5.2192
# 4 8.6574 19.7790 25.7967 58.6463 17.4077 -13.8896
# 5 -22.2497 2.8190 -3.8931 17.4077 53.2953 1.4052
# 6 14.8060 10.7896 5.2192 -13.8896 1.4052 39.1723
#
#
#
# Elastic Compliance Matrix: (Units=1/GPa)
#
#
# Indices 1 2 3 4 5 6 
#
# 1 0.011474 -0.000558 -0.003492 -0.002797 0.005608 -0.004911
# 2 -0.000558 0.011192 -0.006533 -0.001119 -0.000874 -0.002367
# 3 -0.003492 -0.006533 0.013824 -0.003710 0.001112 -0.000078
# 4 -0.002797 -0.001119 -0.003710 0.025021 -0.009845 0.011085
# 5 0.005608 -0.000874 0.001112 -0.009845 0.024616 -0.006401
# 6 -0.004911 -0.002367 -0.000078 0.011085 -0.006401 0.032207
#
#
# Mechanical properties :
#
#
# Convention : Reuss Voigt Hill
#
# Bulk Modulus (GPa) = 65.25835 84.66924 74.96380
# Shear Modulus (GPa) = 34.57635 45.13277 39.85456
#
# Velocity S-wave (km/s) = 3.58293 4.09350 3.84670
# Velocity P-wave (km/s) = 6.43004 7.33335 6.89650
#
# Compressibility (1/GPa) = 0.01532371
#
# Stress axis : x y z
#
# Youngs Moduli (GPa) = 87.15651 89.35325 72.33624
#
# Poissons Ratio (x) = 0.04983 0.25259
# Poissons Ratio (y) = 0.04860 0.47259
# Poissons Ratio (z) = 0.30435 0.58377
#
# Static dielectric constant tensor:
#      x y z
#    x 2.097270 0.039960 -0.045000 
#    y 0.039960 2.135590 -0.038960 
#    z -0.045000 -0.038960 2.065780 
# 
# From -- ./inp_files/554889.got.cif
#   From: 2010.05.17/outbox.cif.g08.bks.cpg/sg2_278_cif.got.tgz:554889.got - 2010.06.03 11:33:40.
