data_PCOD9035472
_publ_section_title
;
Structure prediction by ZEFSAII (Michael W. Deem and Ramdas Pophale) SiO2 
 PCOD9035472
Probable space group: P -1
;
_chemical_formula_sum "Si O2"
_cell_formula_units_Z 16
_cell_length_a 22.148049
_cell_length_b 18.403342
_cell_length_c 11.899582
_cell_angle_alpha 150.332573
_cell_angle_beta 153.921017
_cell_angle_gamma 18.056662
_cell_volume 656.901053
_symmetry_space_group_name_H-M "P -1"
_symmetry_group_IT_number 2
_symmetry_cell_setting 'triclinic'
loop_
_space_group_symop_operation_xyz
x,y,z
-x,-y,-z
loop_
_atom_site_type_symbol
_atom_site_label
_atom_site_fract_x
_atom_site_fract_y
_atom_site_fract_z
Si Si1 0.565663 0.897617 0.297117
Si Si2 0.076946 0.014423 0.035368
Si Si3 0.804413 0.014716 0.208246
Si Si4 0.154514 0.774950 0.293004
Si Si5 0.850405 0.485721 0.765062
Si Si6 0.892564 0.457552 0.407110
Si Si7 0.444644 0.332527 0.696677
Si Si8 0.256345 0.358208 0.967906
O O1 0.775837 0.652907 0.380405
O O2 0.581399 0.861486 0.140255
O O3 0.517181 0.102300 0.524562
O O4 0.367718 0.959170 0.085999
O O5 0.057587 0.203859 0.285675
O O6 0.326497 0.773725 0.087007
O O7 0.900367 0.134374 0.802734
O O8 0.000000 0.000000 0.000000
O O9 0.701045 0.229134 0.401123
O O10 0.925001 0.977712 0.251456
O O11 0.984299 0.775466 0.260660
O O12 0.223466 0.548684 0.117891
O O13 0.709577 0.540872 0.501215
O O14 0.694573 0.662112 0.846471
O O15 0.000000 0.500000 0.000000
O O16 0.712523 0.514431 0.252772
O O17 0.030310 0.452814 0.709630
#
# Coordination Sequence:
#
# PCOD9035472 Si02
#       8
#     2   2   2   2   2   2   2   2
#     4  12  22  41  71 104 127 177 230 275 347 393
#     4  12  28  47  68 102 138 178 226 284 339 405
#     4  10  23  42  71  96 135 183 221 283 331 404
#     4  10  22  46  65  95 137 174 225 279 335 394
#     4  11  22  43  64 101 138 174 229 274 331 408
#     4  12  24  45  72 100 138 171 228 283 333 408
#     4  12  25  44  72 100 135 183 224 276 347 396
#     4  11  22  41  70  97 136 176 220 287 330 400
#
# _framework density 24.356786
#
# number of rings (size 3 to 8) (size 9 to 14) (size 15 to 20)
#    0.000    0.750    5.000    3.000    1.750    2.500 
#    6.750    0.000    0.000    0.000    0.000    0.000 
#    0.000    0.000    0.000    0.000    0.000    0.000 
#
# Total GULP energy -89593.325912 kJ/mol
# GULP energy per Si atom -5599.582870 kJ/mol
# Density = 2.430135 g / cm^3
# Si number density = 24.356786 Si / 1000 Ang^3
#
#
#
# Elastic Constant Matrix: (Units=GPa)
#
#
# Indices 1 2 3 4 5 6 
#
# 1 114.8101 11.2289 6.2117 -4.8869 -6.3011 5.1785
# 2 11.2289 60.7882 4.0085 1.3450 0.6597 0.1954
# 3 6.2117 4.0085 51.7511 8.3599 8.0689 2.1129
# 4 -4.8869 1.3450 8.3599 35.5831 -7.0001 -3.0885
# 5 -6.3011 0.6597 8.0689 -7.0001 44.0611 -2.2494
# 6 5.1785 0.1954 2.1129 -3.0885 -2.2494 46.8062
#
#
#
# Elastic Compliance Matrix: (Units=1/GPa)
#
#
# Indices 1 2 3 4 5 6 
#
# 1 0.009179 -0.001655 -0.001565 0.002004 0.001906 -0.000714
# 2 -0.001655 0.016838 -0.000925 -0.000723 -0.000430 0.000086
# 3 -0.001565 -0.000925 0.021490 -0.006386 -0.005235 -0.001466
# 4 0.002004 -0.000723 -0.006386 0.031415 0.006583 0.002459
# 5 0.001906 -0.000430 -0.005235 0.006583 0.025064 0.001666
# 6 -0.000714 0.000086 -0.001466 0.002459 0.001666 0.021752
#
#
# Mechanical properties :
#
#
# Convention : Reuss Voigt Hill
#
# Bulk Modulus (GPa) = 25.49978 30.02751 27.76364
# Shear Modulus (GPa) = 33.99034 39.01677 36.50356
#
# Velocity S-wave (km/s) = 3.73972 4.00670 3.87551
# Velocity P-wave (km/s) = 5.39808 5.81032 5.60799
#
# Compressibility (1/GPa) = 0.03921602
#
# Stress axis : x y z
#
# Youngs Moduli (GPa) = 108.94791 59.39059 46.53222
#
# Poissons Ratio (x) = 0.09829 0.07283
# Poissons Ratio (y) = 0.18031 0.04305
# Poissons Ratio (z) = 0.17053 0.05495
#
# Static dielectric constant tensor:
#      x y z
#    x 1.935190 -0.046850 0.022750 
#    y -0.046850 1.930310 -0.004330 
#    z 0.022750 -0.004330 1.985880 
# 
# From -- ./inp_files/472529.got.cif
#   From: 2010.05.17/outbox.cif.g08.bks.cpg/sg2_237_cif.got.tgz:472529.got - 2010.06.03 11:33:40.
