data_PCOD9035050
_publ_section_title
;
Structure prediction by ZEFSAII (Michael W. Deem and Ramdas Pophale) SiO2 
 PCOD9035050
Probable space group: P -1
;
_chemical_formula_sum "Si O2"
_cell_formula_units_Z 14
_cell_length_a 11.980518
_cell_length_b 12.371590
_cell_length_c 12.535055
_cell_angle_alpha 142.532597
_cell_angle_beta 41.866870
_cell_angle_gamma 140.506182
_cell_volume 675.526490
_symmetry_space_group_name_H-M "P -1"
_symmetry_group_IT_number 2
_symmetry_cell_setting 'triclinic'
loop_
_space_group_symop_operation_xyz
x,y,z
-x,-y,-z
loop_
_atom_site_type_symbol
_atom_site_label
_atom_site_fract_x
_atom_site_fract_y
_atom_site_fract_z
Si Si1 0.216270 0.438996 0.854473
Si Si2 0.496874 0.243604 0.872273
Si Si3 0.487240 0.368366 0.742429
Si Si4 0.318417 0.778455 0.689872
Si Si5 0.126564 0.207894 0.519397
Si Si6 0.510094 0.207191 0.188740
Si Si7 0.057130 0.545046 0.236845
O O1 0.294157 0.322325 0.784088
O O2 0.176825 0.344152 0.693873
O O3 0.379901 0.652158 0.876464
O O4 0.059907 0.467057 0.053351
O O5 0.456893 0.247711 0.778443
O O6 0.724798 0.349103 0.802955
O O7 0.400078 0.016851 0.804844
O O8 0.434906 0.399603 0.095644
O O9 0.605363 0.311371 0.529211
O O10 0.393014 0.739921 0.721452
O O11 0.093547 0.649060 0.747993
O O12 0.310465 0.207059 0.339690
O O13 0.020309 0.291127 0.581522
O O14 0.000000 0.000000 0.500000
O O15 0.500000 0.000000 0.000000
#
# Coordination Sequence:
#
# PCOD9035050 Si02
#       7
#     2   2   2   2   2   2   2
#     4  11  22  43  61  94 132 168 214 267 330 391
#     4  10  24  47  68  95 132 175 223 278 329 385
#     4  10  22  45  70  92 132 176 225 272 326 400
#     4  12  23  43  68  96 132 176 220 271 336 387
#     4  12  23  38  62  96 132 167 216 269 329 390
#     4  12  24  40  65  93 133 177 214 264 333 398
#     4  11  25  41  65 100 131 169 222 274 323 398
#
# _framework density 20.724577
#
# number of rings (size 3 to 8) (size 9 to 14) (size 15 to 20)
#    0.000    0.857    2.857    5.571    2.000    0.571 
#    0.000    6.429    0.000    0.000    0.000    0.000 
#    0.000    0.000    0.000    0.000    0.000    0.000 
#
# Total GULP energy -78164.053302 kJ/mol
# GULP energy per Si atom -5583.146664 kJ/mol
# Density = 2.067741 g / cm^3
# Si number density = 20.724577 Si / 1000 Ang^3
#
#
#
# Elastic Constant Matrix: (Units=GPa)
#
#
# Indices 1 2 3 4 5 6 
#
# 1 61.7413 22.3888 10.9055 1.2706 -2.7272 -19.3262
# 2 22.3888 130.8900 38.3668 2.0826 -20.3891 -1.9271
# 3 10.9055 38.3668 133.5028 -8.6557 -9.1318 -3.4680
# 4 1.2706 2.0826 -8.6557 23.5807 -4.5672 1.7192
# 5 -2.7272 -20.3891 -9.1318 -4.5672 31.1677 -5.3618
# 6 -19.3262 -1.9271 -3.4680 1.7192 -5.3618 25.3592
#
#
#
# Elastic Compliance Matrix: (Units=1/GPa)
#
#
# Indices 1 2 3 4 5 6 
#
# 1 0.023239 -0.003121 -0.000474 -0.001951 0.002682 0.018108
# 2 -0.003121 0.009620 -0.002206 -0.000430 0.005169 -0.000827
# 3 -0.000474 -0.002206 0.008532 0.003622 0.001675 0.000746
# 4 -0.001951 -0.000430 0.003622 0.045392 0.006803 -0.002663
# 5 0.002682 0.005169 0.001675 0.006803 0.038985 0.010448
# 6 0.018108 -0.000827 0.000746 -0.002663 0.010448 0.055662
#
#
# Mechanical properties :
#
#
# Convention : Reuss Voigt Hill
#
# Bulk Modulus (GPa) = 33.56824 52.16179 42.86502
# Shear Modulus (GPa) = 24.63534 32.98636 28.81085
#
# Velocity S-wave (km/s) = 3.45150 3.99388 3.73255
# Velocity P-wave (km/s) = 5.66712 6.81849 6.26929
#
# Compressibility (1/GPa) = 0.02979006
#
# Stress axis : x y z
#
# Youngs Moduli (GPa) = 43.03183 103.94913 117.20818
#
# Poissons Ratio (x) = 0.32437 0.05558
# Poissons Ratio (y) = 0.13428 0.25851
# Poissons Ratio (z) = 0.02040 0.22927
#
# Static dielectric constant tensor:
#      x y z
#    x 1.796270 -0.013720 -0.003750 
#    y -0.013720 1.844990 0.003970 
#    z -0.003750 0.003970 1.719790 
# 
# From -- ./inp_files/180902.got.cif
#   From: 2010.05.17/outbox.cif.g08.bks.cpg/sg2_91_cif.got.tgz:180902.got - 2010.06.03 11:33:40.
