data_PCOD9035148
_publ_section_title
;
Structure prediction by ZEFSAII (Michael W. Deem and Ramdas Pophale) SiO2 
 PCOD9035148
Probable space group: P -1
;
_chemical_formula_sum "Si O2"
_cell_formula_units_Z 16
_cell_length_a 8.322684
_cell_length_b 7.688157
_cell_length_c 19.022070
_cell_angle_alpha 132.531843
_cell_angle_beta 71.781191
_cell_angle_gamma 126.963994
_cell_volume 707.489625
_symmetry_space_group_name_H-M "P -1"
_symmetry_group_IT_number 2
_symmetry_cell_setting 'triclinic'
loop_
_space_group_symop_operation_xyz
x,y,z
-x,-y,-z
loop_
_atom_site_type_symbol
_atom_site_label
_atom_site_fract_x
_atom_site_fract_y
_atom_site_fract_z
Si Si1 0.884937 0.611660 0.003801
Si Si2 0.659602 0.142334 0.453377
Si Si3 0.378388 0.892441 0.772705
Si Si4 0.556755 0.885466 0.026805
Si Si5 0.977508 0.815554 0.777937
Si Si6 0.416038 0.208417 0.391391
Si Si7 0.730508 0.532593 0.861396
Si Si8 0.944162 0.827624 0.623974
O O1 0.947184 0.910319 0.108620
O O2 0.648116 0.394766 0.993640
O O3 0.899373 0.588260 0.911455
O O4 0.000000 0.500000 0.000000
O O5 0.516073 0.077480 0.387783
O O6 0.804587 0.484954 0.538142
O O7 0.824422 0.058476 0.398760
O O8 0.500000 0.000000 0.500000
O O9 0.361728 0.897382 0.860214
O O10 0.531072 0.222479 0.818922
O O11 0.158745 0.767500 0.735672
O O12 0.483654 0.743099 0.686000
O O13 0.693810 0.776751 0.952949
O O14 0.500000 0.000000 0.000000
O O15 0.797351 0.567967 0.781443
O O16 0.935067 0.869965 0.720245
O O17 0.500000 0.500000 0.500000
O O18 0.174981 0.059539 0.371597
#
# Coordination Sequence:
#
# PCOD9035148 Si02
#       8
#     2   2   2   2   2   2   2   2
#     4  11  23  40  60  91 133 174 219 273 322 390
#     4  10  22  45  71  91 128 172 213 277 344 393
#     4  11  23  44  64  93 135 179 222 278 336 394
#     4  11  23  41  64  95 134 177 224 272 327 403
#     4  12  23  40  67  92 132 172 220 274 334 403
#     4  10  23  45  67  94 137 172 218 287 337 392
#     4  11  24  41  62  93 130 178 222 265 334 396
#     4  10  24  41  65 101 126 166 222 268 336 408
#
# _framework density 22.615174
#
# number of rings (size 3 to 8) (size 9 to 14) (size 15 to 20)
#    0.000    1.250    3.750    1.875    8.750    0.500 
#    0.000    2.500    0.000    0.000    0.000    0.000 
#    0.000    0.000    0.000    0.000    0.000    0.000 
#
# Total GULP energy -89383.998543 kJ/mol
# GULP energy per Si atom -5586.499909 kJ/mol
# Density = 2.256370 g / cm^3
# Si number density = 22.615174 Si / 1000 Ang^3
#
#
#
# Elastic Constant Matrix: (Units=GPa)
#
#
# Indices 1 2 3 4 5 6 
#
# 1 153.6042 23.2961 34.9223 -28.0211 6.3086 16.5701
# 2 23.2961 74.0628 20.2450 -25.6793 1.0687 17.9500
# 3 34.9223 20.2450 104.9382 -21.3696 0.8941 3.4528
# 4 -28.0211 -25.6793 -21.3696 34.2722 -1.2346 -5.6462
# 5 6.3086 1.0687 0.8941 -1.2346 39.2915 -7.7752
# 6 16.5701 17.9500 3.4528 -5.6462 -7.7752 28.0616
#
#
#
# Elastic Compliance Matrix: (Units=1/GPa)
#
#
# Indices 1 2 3 4 5 6 
#
# 1 0.008379 0.000986 -0.001642 0.005696 -0.002108 -0.004814
# 2 0.000986 0.021296 -0.001177 0.013959 -0.002643 -0.011983
# 3 -0.001642 -0.001177 0.011283 0.005074 0.000494 0.001492
# 4 0.005696 0.013959 0.005074 0.046828 -0.000666 -0.003680
# 5 -0.002108 -0.002643 0.000494 -0.000666 0.027901 0.010472
# 6 -0.004814 -0.011983 0.001492 -0.003680 0.010472 0.048122
#
#
# Mechanical properties :
#
#
# Convention : Reuss Voigt Hill
#
# Bulk Modulus (GPa) = 26.81621 54.39244 40.60432
# Shear Modulus (GPa) = 27.79200 37.26784 32.52992
#
# Velocity S-wave (km/s) = 3.50938 4.06385 3.79675
# Velocity P-wave (km/s) = 5.32019 6.79142 6.10032
#
# Compressibility (1/GPa) = 0.03729088
#
# Stress axis : x y z
#
# Youngs Moduli (GPa) = 119.34290 46.95658 88.62861
#
# Poissons Ratio (x) = -0.04628 0.14555
# Poissons Ratio (y) = -0.11761 0.10432
# Poissons Ratio (z) = 0.19600 0.05527
#
# Static dielectric constant tensor:
#      x y z
#    x 1.888790 -0.041320 0.012420 
#    y -0.041320 1.914220 -0.054100 
#    z 0.012420 -0.054100 1.882190 
# 
# From -- ./inp_files/356537.got.cif
#   From: 2010.05.17/outbox.cif.g08.bks.cpg/sg2_179_cif.got.tgz:356537.got - 2010.06.03 11:33:40.
