data_PCOD9035221
_publ_section_title
;
Structure prediction by ZEFSAII (Michael W. Deem and Ramdas Pophale) SiO2 
 PCOD9035221
Probable space group: P -1
;
_chemical_formula_sum "Si O2"
_cell_formula_units_Z 14
_cell_length_a 17.754413
_cell_length_b 5.247948
_cell_length_c 9.587391
_cell_angle_alpha 124.012012
_cell_angle_beta 112.091701
_cell_angle_gamma 51.358002
_cell_volume 577.860399
_symmetry_space_group_name_H-M "P -1"
_symmetry_group_IT_number 2
_symmetry_cell_setting 'triclinic'
loop_
_space_group_symop_operation_xyz
x,y,z
-x,-y,-z
loop_
_atom_site_type_symbol
_atom_site_label
_atom_site_fract_x
_atom_site_fract_y
_atom_site_fract_z
Si Si1 0.451193 0.132113 0.356081
Si Si2 0.632270 0.162787 0.998837
Si Si3 0.951870 0.934885 0.074230
Si Si4 0.257339 0.894771 0.448054
Si Si5 0.793044 0.906026 0.838704
Si Si6 0.376885 0.084557 0.772020
Si Si7 0.064469 0.925791 0.388442
O O1 0.561491 0.151877 0.832509
O O2 0.344716 0.482581 0.417055
O O3 0.477450 0.815469 0.677503
O O4 0.500000 0.000000 0.500000
O O5 0.630403 0.533802 0.104938
O O6 0.735008 0.867593 0.911485
O O7 0.622498 0.058170 0.116328
O O8 0.981625 0.103078 0.268603
O O9 0.842440 0.098907 0.003806
O O10 0.000000 0.500000 0.000000
O O11 0.000000 0.000000 0.000000
O O12 0.291372 0.124691 0.627919
O O13 0.150330 0.001009 0.452946
O O14 0.262077 0.915561 0.289179
O O15 0.875021 0.508056 0.723998
O O16 0.000000 0.000000 0.500000
#
# Coordination Sequence:
#
# PCOD9035221 Si02
#       7
#     2   2   2   2   2   2   2
#     4  12  26  53  82 111 158 208 258 317 389 465
#     4  12  27  49  78 111 158 198 257 319 384 462
#     4  10  22  45  72 105 143 192 247 310 381 446
#     4  12  26  49  77 113 157 203 263 318 390 460
#     4  11  25  47  76 108 151 207 257 316 389 463
#     4  12  29  46  76 118 155 202 256 319 384 457
#     4  11  26  48  77 109 154 200 261 325 387 463
#
# _framework density 24.227305000000001
#
# number of rings (size 3 to 8) (size 9 to 14) (size 15 to 20)
#    0.000    0.571    2.857    3.857    4.000    2.857 
#    2.571    0.000    0.000    0.000    0.000    0.000 
#    0.000    0.000    0.000    0.000    0.000    0.000 
#
# Total GULP energy -78266.185247 kJ/mol
# GULP energy per Si atom -5590.441803 kJ/mol
# Density = 2.417216 g / cm^3
# Si number density = 24.227305 Si / 1000 Ang^3
#
#
#
# Elastic Constant Matrix: (Units=GPa)
#
#
# Indices 1 2 3 4 5 6 
#
# 1 200.3002 25.6502 113.4859 -11.0506 -13.2924 4.7222
# 2 25.6502 84.3891 48.6710 -4.1200 -6.2723 11.3291
# 3 113.4859 48.6710 211.2644 -35.6453 7.2706 4.0193
# 4 -11.0506 -4.1200 -35.6453 46.2193 2.3422 -8.5520
# 5 -13.2924 -6.2723 7.2706 2.3422 72.4121 -0.3336
# 6 4.7222 11.3291 4.0193 -8.5520 -0.3336 39.2932
#
#
#
# Elastic Compliance Matrix: (Units=1/GPa)
#
#
# Indices 1 2 3 4 5 6 
#
# 1 0.007550 0.000512 -0.004549 -0.001940 0.001945 -0.000995
# 2 0.000512 0.014644 -0.004070 -0.002623 0.001836 -0.004423
# 3 -0.004549 -0.004070 0.009190 0.006142 -0.002299 0.002097
# 4 -0.001940 -0.002623 0.006142 0.026926 -0.002042 0.006204
# 5 0.001945 0.001836 -0.002299 -0.002042 0.014619 -0.000848
# 6 -0.000995 -0.004423 0.002097 0.006204 -0.000848 0.027973
#
#
# Mechanical properties :
#
#
# Convention : Reuss Voigt Hill
#
# Bulk Modulus (GPa) = 65.92047 96.84087 81.38067
# Shear Modulus (GPa) = 40.92562 52.12803 46.52683
#
# Velocity S-wave (km/s) = 4.11449 4.64359 4.38702
# Velocity P-wave (km/s) = 7.05976 8.29513 7.70225
#
# Compressibility (1/GPa) = 0.01516980
#
# Stress axis : x y z
#
# Youngs Moduli (GPa) = 132.45499 68.28811 108.81148
#
# Poissons Ratio (x) = -0.03498 0.49497
# Poissons Ratio (y) = -0.06786 0.44290
# Poissons Ratio (z) = 0.60253 0.27796
#
# Static dielectric constant tensor:
#      x y z
#    x 1.985670 -0.083820 0.122750 
#    y -0.083820 2.058590 -0.082890 
#    z 0.122750 -0.082890 2.105570 
# 
# From -- ./inp_files/289224.got.cif
#   From: 2010.05.17/outbox.cif.g08.bks.cpg/sg2_145_cif.got.tgz:289224.got - 2010.06.03 11:33:40.
