data_PCOD9035721
_publ_section_title
;
Structure prediction by ZEFSAII (Michael W. Deem and Ramdas Pophale) SiO2 
 PCOD9035721
Probable space group: P -1
;
_chemical_formula_sum "Si O2"
_cell_formula_units_Z 12
_cell_length_a 5.121166
_cell_length_b 9.891823
_cell_length_c 16.462684
_cell_angle_alpha 36.014224
_cell_angle_beta 67.449645
_cell_angle_gamma 66.319491
_cell_volume 446.399894
_symmetry_space_group_name_H-M "P -1"
_symmetry_group_IT_number 2
_symmetry_cell_setting 'triclinic'
loop_
_space_group_symop_operation_xyz
x,y,z
-x,-y,-z
loop_
_atom_site_type_symbol
_atom_site_label
_atom_site_fract_x
_atom_site_fract_y
_atom_site_fract_z
Si Si1 0.694593 0.986913 0.864183
Si Si2 0.971897 0.266978 0.570561
Si Si3 0.697574 0.188605 0.298860
Si Si4 0.850712 0.273713 0.405694
Si Si5 0.671045 0.704401 0.859119
Si Si6 0.860832 0.768652 0.108412
O O1 0.910482 0.118354 0.728103
O O2 0.464135 0.165445 0.853192
O O3 0.544250 0.887320 0.854441
O O4 0.838402 0.783494 0.006042
O O5 0.763191 0.297106 0.500512
O O6 0.000000 0.500000 0.500000
O O7 0.224339 0.092130 0.580930
O O8 0.638105 0.294842 0.343157
O O9 0.433399 0.240253 0.245734
O O10 0.986848 0.286047 0.186125
O O11 0.980060 0.517363 0.255744
O O12 0.000000 0.000000 0.500000
O O13 0.500000 0.500000 0.000000
O O14 0.000000 0.000000 0.000000
#
# Coordination Sequence:
#
# PCOD9035721 Si02
#       6
#     2   2   2   2   2   2
#     4  10  25  42  67 113 132 195 244 304 373 432
#     4  10  22  46  71 103 144 188 248 299 366 440
#     4  10  24  44  67 104 140 189 241 295 365 434
#     4  10  23  46  69 104 144 194 242 300 372 439
#     4  11  23  41  72  99 145 185 241 298 365 437
#     4  11  24  43  74 100 151 183 247 307 370 439
#
# _framework density 26.881724999999999
#
# number of rings (size 3 to 8) (size 9 to 14) (size 15 to 20)
#    0.000    1.667    0.000    2.500    9.333    0.667 
#    9.000   10.833    0.000    0.000    0.000    0.000 
#    0.000    0.000    0.000    0.000    0.000    0.000 
#
# Total GULP energy -66870.114503 kJ/mol
# GULP energy per Si atom -5572.509542 kJ/mol
# Density = 2.682054 g / cm^3
# Si number density = 26.881725 Si / 1000 Ang^3
#
#
#
# Elastic Constant Matrix: (Units=GPa)
#
#
# Indices 1 2 3 4 5 6 
#
# 1 73.5613 29.8845 33.6086 -0.6056 -8.5737 7.0810
# 2 29.8845 172.8605 54.4115 0.1087 -5.4401 26.7696
# 3 33.6086 54.4115 157.9211 -4.1428 -16.4661 -3.2391
# 4 -0.6056 0.1087 -4.1428 67.9792 6.4069 0.9821
# 5 -8.5737 -5.4401 -16.4661 6.4069 38.0164 11.0791
# 6 7.0810 26.7696 -3.2391 0.9821 11.0791 30.2728
#
#
#
# Elastic Compliance Matrix: (Units=1/GPa)
#
#
# Indices 1 2 3 4 5 6 
#
# 1 0.016160 -0.001127 -0.002772 -0.000300 0.003613 -0.004392
# 2 -0.001127 0.008053 -0.002477 -0.000265 0.002175 -0.007910
# 3 -0.002772 -0.002477 0.008007 0.000278 0.001530 0.003127
# 4 -0.000300 -0.000265 0.000278 0.014973 -0.002759 0.000858
# 5 0.003613 0.002175 0.001530 -0.002759 0.032788 -0.014515
# 6 -0.004392 -0.007910 0.003127 0.000858 -0.014515 0.046674
#
#
# Mechanical properties :
#
#
# Convention : Reuss Voigt Hill
#
# Bulk Modulus (GPa) = 51.36852 71.12801 61.24826
# Shear Modulus (GPa) = 34.27075 46.34955 40.31015
#
# Velocity S-wave (km/s) = 3.57441 4.15686 3.87659
# Velocity P-wave (km/s) = 6.01546 7.03963 6.54760
#
# Compressibility (1/GPa) = 0.01946718
#
# Stress axis : x y z
#
# Youngs Moduli (GPa) = 61.88139 124.17342 124.89482
#
# Poissons Ratio (x) = 0.13995 0.34621
# Poissons Ratio (y) = 0.06975 0.30940
# Poissons Ratio (z) = 0.17154 0.30761
#
# Static dielectric constant tensor:
#      x y z
#    x 2.504790 0.137960 -0.395090 
#    y 0.137960 2.200760 -0.348150 
#    z -0.395090 -0.348150 3.155810 
# 
# From -- ./inp_files/480157.got.cif
#   From: 2010.05.17/outbox.cif.g08.bks.cpg/sg2_241_cif.got.tgz:480157.got - 2010.06.03 11:33:40.
