data_PCOD9035183
_publ_section_title
;
Structure prediction by ZEFSAII (Michael W. Deem and Ramdas Pophale) SiO2 
 PCOD9035183
Probable space group: P -1
;
_chemical_formula_sum "Si O2"
_cell_formula_units_Z 14
_cell_length_a 7.952211
_cell_length_b 8.159503
_cell_length_c 11.524924
_cell_angle_alpha 85.341796
_cell_angle_beta 117.431745
_cell_angle_gamma 123.617118
_cell_volume 537.213744
_symmetry_space_group_name_H-M "P -1"
_symmetry_group_IT_number 2
_symmetry_cell_setting 'triclinic'
loop_
_space_group_symop_operation_xyz
x,y,z
-x,-y,-z
loop_
_atom_site_type_symbol
_atom_site_label
_atom_site_fract_x
_atom_site_fract_y
_atom_site_fract_z
Si Si1 0.628672 0.420539 0.475367
Si Si2 0.154632 0.003014 0.943960
Si Si3 0.032790 0.245075 0.756855
Si Si4 0.928310 0.156564 0.464315
Si Si5 0.481053 0.653513 0.830128
Si Si6 0.582812 0.168518 0.682478
Si Si7 0.831833 0.553709 0.890718
O O1 0.500000 0.500000 0.500000
O O2 0.548592 0.354031 0.319743
O O3 0.571847 0.230481 0.543213
O O4 0.894611 0.623622 0.549409
O O5 0.138825 0.122529 0.827004
O O6 0.408876 0.140200 0.074506
O O7 0.020120 0.771085 0.879460
O O8 0.000000 0.000000 0.000000
O O9 0.232718 0.481860 0.814347
O O10 0.946595 0.209485 0.601321
O O11 0.805891 0.164447 0.766134
O O12 0.662646 0.028828 0.346704
O O13 0.000000 0.000000 0.500000
O O14 0.661670 0.589857 0.907497
O O15 0.651301 0.365437 0.763949
O O16 0.000000 0.500000 0.000000
#
# Coordination Sequence:
#
# PCOD9035183 Si02
#       7
#     2   2   2   2   2   2   2
#     4  11  22  43  73 104 141 182 227 283 355 404
#     4  10  23  42  72  95 132 189 225 280 350 404
#     4  11  25  45  67 104 142 177 233 286 347 411
#     4  11  24  41  70 104 138 189 228 280 348 415
#     4  10  22  45  71  99 139 185 227 285 347 416
#     4  12  24  44  70 103 144 179 229 292 337 417
#     4  11  24  46  67  99 135 180 236 284 338 414
#
# _framework density 26.060390999999999
#
# number of rings (size 3 to 8) (size 9 to 14) (size 15 to 20)
#    0.000    1.143    2.857    3.429    6.000    2.286 
#   10.286    1.429    0.000    0.000    0.000    0.000 
#    0.000    0.000    0.000    0.000    0.000    0.000 
#
# Total GULP energy -78358.945658 kJ/mol
# GULP energy per Si atom -5597.067547 kJ/mol
# Density = 2.600108 g / cm^3
# Si number density = 26.060391 Si / 1000 Ang^3
#
#
#
# Elastic Constant Matrix: (Units=GPa)
#
#
# Indices 1 2 3 4 5 6 
#
# 1 73.0793 26.6632 16.0801 14.2586 18.7294 17.3736
# 2 26.6632 141.5850 35.4966 42.7747 21.0528 34.1725
# 3 16.0801 35.4966 101.2857 19.3836 13.5814 15.6902
# 4 14.2586 42.7747 19.3836 59.9264 1.5936 15.9672
# 5 18.7294 21.0528 13.5814 1.5936 33.0842 7.0420
# 6 17.3736 34.1725 15.6902 15.9672 7.0420 34.1909
#
#
#
# Elastic Compliance Matrix: (Units=1/GPa)
#
#
# Indices 1 2 3 4 5 6 
#
# 1 0.017848 0.000253 -0.000325 -0.002426 -0.008684 -0.006252
# 2 0.000253 0.011649 -0.001146 -0.005889 -0.005223 -0.007420
# 3 -0.000325 -0.001146 0.011525 -0.002128 -0.003221 -0.002321
# 4 -0.002426 -0.005889 -0.002128 0.023025 0.005701 -0.003832
# 5 -0.008684 -0.005223 -0.003221 0.005701 0.039444 0.000325
# 6 -0.006252 -0.007420 -0.002321 -0.003832 0.000325 0.042628
#
#
# Mechanical properties :
#
#
# Convention : Reuss Voigt Hill
#
# Bulk Modulus (GPa) = 25.91582 52.49220 39.20401
# Shear Modulus (GPa) = 30.97553 41.28765 36.13159
#
# Velocity S-wave (km/s) = 3.45136 3.98465 3.72755
# Velocity P-wave (km/s) = 5.08415 6.43088 5.79676
#
# Compressibility (1/GPa) = 0.03858647
#
# Stress axis : x y z
#
# Youngs Moduli (GPa) = 56.02842 85.84482 86.76695
#
# Poissons Ratio (x) = -0.02176 0.02822
# Poissons Ratio (y) = -0.01420 0.09944
# Poissons Ratio (z) = 0.01822 0.09838
#
# Static dielectric constant tensor:
#      x y z
#    x 2.124750 -0.061990 0.005770 
#    y -0.061990 2.086090 0.005140 
#    z 0.005770 0.005140 2.106320 
# 
# From -- ./inp_files/382082.got.cif
#   From: 2010.05.17/outbox.cif.g08.bks.cpg/sg2_192_cif.got.tgz:382082.got - 2010.06.03 11:33:40.
