data_PCOD9035815
_publ_section_title
;
Structure prediction by ZEFSAII (Michael W. Deem and Ramdas Pophale) SiO2 
 PCOD9035815
Probable space group: P -1
;
_chemical_formula_sum "Si O2"
_cell_formula_units_Z 15
_cell_length_a 8.178521
_cell_length_b 18.797512
_cell_length_c 9.466205
_cell_angle_alpha 31.194733
_cell_angle_beta 51.730769
_cell_angle_gamma 49.840124
_cell_volume 567.581961
_symmetry_space_group_name_H-M "P -1"
_symmetry_group_IT_number 2
_symmetry_cell_setting 'triclinic'
loop_
_space_group_symop_operation_xyz
x,y,z
-x,-y,-z
loop_
_atom_site_type_symbol
_atom_site_label
_atom_site_fract_x
_atom_site_fract_y
_atom_site_fract_z
Si Si1 0.000000 0.000000 0.500000
Si Si2 0.329396 0.153214 0.222866
Si Si3 0.127255 0.436011 0.704793
Si Si4 0.447761 0.729376 0.681072
Si Si5 0.313649 0.073640 0.682584
Si Si6 0.931907 0.221959 0.005424
Si Si7 0.098653 0.705653 0.400872
Si Si8 0.443329 0.550112 0.711207
O O1 0.153316 0.074041 0.403168
O O2 0.106782 0.070755 0.180763
O O3 0.378621 0.126553 0.406209
O O4 0.548346 0.091062 0.117028
O O5 0.223986 0.320018 0.969877
O O6 0.992275 0.583127 0.601506
O O7 0.334604 0.457306 0.476480
O O8 0.003884 0.354495 0.804451
O O9 0.590171 0.837072 0.408379
O O10 0.417061 0.656114 0.677563
O O11 0.211964 0.818564 0.719542
O O12 0.533739 0.603483 0.965833
O O13 0.059226 0.148499 0.703020
O O14 0.819259 0.248982 0.869796
O O15 0.258336 0.617006 0.582995
#
# Coordination Sequence:
#
# PCOD9035815 Si02
#       8
#     1   2   2   2   2   2   2   2
#     4  10  22  46  72  98 132 188 230 270 342 414
#     4  10  24  44  70  97 141 183 226 285 346 404
#     4  11  24  44  69  98 142 179 228 283 348 403
#     4  11  24  44  70  97 141 182 230 280 343 410
#     4  11  25  44  68 102 140 181 232 281 343 411
#     4  11  24  44  71  99 139 182 224 287 344 405
#     4  12  26  42  72 106 139 176 233 288 341 404
#     4  11  26  42  68 106 139 180 229 287 343 406
#
# _framework density 26.427900000000001
#
# number of rings (size 3 to 8) (size 9 to 14) (size 15 to 20)
#    0.000    1.067    2.667    2.400    9.333    1.067 
#    2.400    3.333    0.000    0.000    0.000    0.000 
#    0.000    0.000    0.000    0.000    0.000    0.000 
#
# Total GULP energy -83720.750228 kJ/mol
# GULP energy per Si atom -5581.383349 kJ/mol
# Density = 2.636775 g / cm^3
# Si number density = 26.427900 Si / 1000 Ang^3
#
#
#
# Elastic Constant Matrix: (Units=GPa)
#
#
# Indices 1 2 3 4 5 6 
#
# 1 105.8371 20.1628 29.3430 -9.9203 22.6493 12.6633
# 2 20.1628 123.8359 21.1583 -19.3943 3.3142 -1.1975
# 3 29.3430 21.1583 81.1485 -13.0763 15.7178 22.6916
# 4 -9.9203 -19.3943 -13.0763 39.8972 4.8146 0.7032
# 5 22.6493 3.3142 15.7178 4.8146 51.5078 2.4788
# 6 12.6633 -1.1975 22.6916 0.7032 2.4788 42.5472
#
#
#
# Elastic Compliance Matrix: (Units=1/GPa)
#
#
# Indices 1 2 3 4 5 6 
#
# 1 0.011678 -0.001088 -0.002088 0.002276 -0.004536 -0.002166
# 2 -0.001088 0.009135 -0.001851 0.003530 0.000053 0.001507
# 3 -0.002088 -0.001851 0.017653 0.005051 -0.004404 -0.008672
# 4 0.002276 0.003530 0.005051 0.029712 -0.005381 -0.003450
# 5 -0.004536 0.000053 -0.004404 -0.005381 0.023135 0.002442
# 6 -0.002166 0.001507 -0.008672 -0.003450 0.002442 0.028730
#
#
# Mechanical properties :
#
#
# Convention : Reuss Voigt Hill
#
# Bulk Modulus (GPa) = 35.19649 50.23886 42.71767
# Shear Modulus (GPa) = 35.82507 42.80094 39.31301
#
# Velocity S-wave (km/s) = 3.68581 4.02871 3.86107
# Velocity P-wave (km/s) = 5.60896 6.37901 6.00634
#
# Compressibility (1/GPa) = 0.02841193
#
# Stress axis : x y z
#
# Youngs Moduli (GPa) = 85.63178 109.47368 56.64839
#
# Poissons Ratio (x) = 0.11907 0.11828
# Poissons Ratio (y) = 0.09314 0.10486
# Poissons Ratio (z) = 0.17879 0.20264
#
# Static dielectric constant tensor:
#      x y z
#    x 2.155970 -0.091680 0.040480 
#    y -0.091680 2.131380 -0.078060 
#    z 0.040480 -0.078060 2.184540 
# 
# From -- ./inp_files/211603.got.cif
#   From: 2010.05.17/outbox.cif.g08.bks.cpg/sg2_106_cif.got.tgz:211603.got - 2010.06.03 11:33:40.
