data_PCOD9035084
_publ_section_title
;
Structure prediction by ZEFSAII (Michael W. Deem and Ramdas Pophale) SiO2 
 PCOD9035084
Probable space group: P -1
;
_chemical_formula_sum "Si O2"
_cell_formula_units_Z 16
_cell_length_a 17.678907
_cell_length_b 12.372840
_cell_length_c 15.785643
_cell_angle_alpha 152.591559
_cell_angle_beta 26.211562
_cell_angle_gamma 138.514352
_cell_volume 682.762277
_symmetry_space_group_name_H-M "P -1"
_symmetry_group_IT_number 2
_symmetry_cell_setting 'triclinic'
loop_
_space_group_symop_operation_xyz
x,y,z
-x,-y,-z
loop_
_atom_site_type_symbol
_atom_site_label
_atom_site_fract_x
_atom_site_fract_y
_atom_site_fract_z
Si Si1 0.195769 0.024949 0.303468
Si Si2 0.307292 0.062037 0.404584
Si Si3 0.183220 0.629879 0.320776
Si Si4 0.290925 0.583014 0.771941
Si Si5 0.856818 0.182363 0.330324
Si Si6 0.677405 0.047791 0.114680
Si Si7 0.876819 0.603211 0.506442
Si Si8 0.521367 0.854886 0.292197
O O1 0.303490 0.015753 0.275395
O O2 0.174044 0.275827 0.448659
O O3 0.000000 0.000000 0.500000
O O4 0.260883 0.793145 0.017552
O O5 0.216619 0.349394 0.704072
O O6 0.221150 0.868332 0.403184
O O7 0.501395 0.035820 0.229483
O O8 0.083626 0.706337 0.564738
O O9 0.079450 0.514338 0.271218
O O10 0.361620 0.420556 0.013619
O O11 0.500000 0.500000 0.500000
O O12 0.249234 0.718086 0.817783
O O13 0.783060 0.398445 0.488479
O O14 0.685597 0.115174 0.497554
O O15 0.000000 0.000000 0.000000
O O16 0.622657 0.998987 0.228791
O O17 0.820253 0.826122 0.781784
O O18 0.500000 0.000000 0.500000
#
# Coordination Sequence:
#
# PCOD9035084 Si02
#       8
#     2   2   2   2   2   2   2   2
#     4  11  24  45  68 103 138 182 240 285 353 412
#     4  11  23  45  75 101 143 190 227 294 358 416
#     4  12  24  45  73  99 148 186 223 293 361 410
#     4   9  23  42  69 101 135 181 235 287 343 420
#     4  12  26  44  70 108 138 183 238 286 356 423
#     4  10  22  45  70  99 143 181 238 287 356 418
#     4  11  24  44  69 100 143 179 232 298 343 418
#     4  12  26  44  73 105 137 189 236 288 352 428
#
# _framework density 23.434218000000001
#
# number of rings (size 3 to 8) (size 9 to 14) (size 15 to 20)
#    0.000    1.000    3.750    2.250    1.750    9.000 
#    2.250    0.000    0.000    0.000    0.000    0.000 
#    0.000    0.000    0.000    0.000    0.000    0.000 
#
# Total GULP energy -89183.781705 kJ/mol
# GULP energy per Si atom -5573.986357 kJ/mol
# Density = 2.338088 g / cm^3
# Si number density = 23.434218 Si / 1000 Ang^3
#
#
#
# Elastic Constant Matrix: (Units=GPa)
#
#
# Indices 1 2 3 4 5 6 
#
# 1 96.0943 37.2271 19.3187 4.1284 16.0725 -28.7486
# 2 37.2271 79.5458 18.5045 25.6664 20.3928 -31.5149
# 3 19.3187 18.5045 117.6643 3.3134 13.3341 -19.7895
# 4 4.1284 25.6664 3.3134 33.9940 2.6756 -2.0784
# 5 16.0725 20.3928 13.3341 2.6756 26.6100 -7.0810
# 6 -28.7486 -31.5149 -19.7895 -2.0784 -7.0810 45.0131
#
#
#
# Elastic Compliance Matrix: (Units=1/GPa)
#
#
# Indices 1 2 3 4 5 6 
#
# 1 0.014305 -0.003933 -0.000364 0.001939 -0.004132 0.005662
# 2 -0.003933 0.031703 0.000838 -0.021284 -0.015786 0.016586
# 3 -0.000364 0.000838 0.009569 -0.000962 -0.004090 0.003873
# 4 0.001939 -0.021284 -0.000962 0.044032 0.008336 -0.010742
# 5 -0.004132 -0.015786 -0.004090 0.008336 0.051522 -0.006999
# 6 0.005662 0.016586 0.003873 -0.010742 -0.006999 0.037550
#
#
# Mechanical properties :
#
#
# Convention : Reuss Voigt Hill
#
# Bulk Modulus (GPa) = 20.55177 49.26721 34.90949
# Shear Modulus (GPa) = 23.60494 35.67370 29.63932
#
# Velocity S-wave (km/s) = 3.17722 3.90589 3.56024
# Velocity P-wave (km/s) = 4.71685 6.43510 5.64177
#
# Compressibility (1/GPa) = 0.04865760
#
# Stress axis : x y z
#
# Youngs Moduli (GPa) = 69.90540 31.54254 104.50726
#
# Poissons Ratio (x) = 0.12407 0.03807
# Poissons Ratio (y) = 0.27496 -0.08757
# Poissons Ratio (z) = 0.02546 -0.02643
#
# Static dielectric constant tensor:
#      x y z
#    x 2.855910 0.566740 0.070730 
#    y 0.566740 2.337830 0.125350 
#    z 0.070730 0.125350 2.123840 
# 
# From -- ./inp_files/538483.got.cif
#   From: 2010.05.17/outbox.cif.g08.bks.cpg/sg2_270_cif.got.tgz:538483.got - 2010.06.03 11:33:40.
