data_PCOD9035987
_publ_section_title
;
Structure prediction by ZEFSAII (Michael W. Deem and Ramdas Pophale) SiO2 
 PCOD9035987
Probable space group: P -1
;
_chemical_formula_sum "Si O2"
_cell_formula_units_Z 16
_cell_length_a 5.397939
_cell_length_b 30.782889
_cell_length_c 26.996231
_cell_angle_alpha 10.086445
_cell_angle_beta 120.743407
_cell_angle_gamma 120.150268
_cell_volume 675.194263
_symmetry_space_group_name_H-M "P -1"
_symmetry_group_IT_number 2
_symmetry_cell_setting 'triclinic'
loop_
_space_group_symop_operation_xyz
x,y,z
-x,-y,-z
loop_
_atom_site_type_symbol
_atom_site_label
_atom_site_fract_x
_atom_site_fract_y
_atom_site_fract_z
Si Si1 0.126179 0.739393 0.680039
Si Si2 0.570999 0.436557 0.996932
Si Si3 0.896246 0.751071 0.035056
Si Si4 0.730623 0.937413 0.909367
Si Si5 0.259523 0.257597 0.510551
Si Si6 0.345156 0.494760 0.542949
Si Si7 0.731151 0.746709 0.370595
Si Si8 0.154999 0.277472 0.049680
O O1 0.307033 0.741679 0.747254
O O2 0.028924 0.008480 0.350246
O O3 0.336868 0.613480 0.802194
O O4 0.844094 0.581802 0.840184
O O5 0.418297 0.309365 0.078084
O O6 0.727532 0.770541 0.047264
O O7 0.062562 0.015016 0.754559
O O8 0.755161 0.723096 0.998156
O O9 0.089291 0.506236 0.335658
O O10 0.554910 0.182139 0.598765
O O11 0.041644 0.027910 0.858881
O O12 0.593878 0.767061 0.129049
O O13 0.367484 0.264300 0.570641
O O14 0.075107 0.504229 0.207502
O O15 0.500000 0.500000 0.500000
O O16 0.471592 0.720222 0.335507
O O17 0.000000 0.500000 0.500000
#
# Coordination Sequence:
#
# PCOD9035987 Si02
#       8
#     2   2   2   2   2   2   2   2
#     4  10  23  47  73 101 153 191 244 306 360 425
#     4  10  23  47  73 105 145 199 242 303 364 425
#     4  10  22  47  67 102 146 190 232 302 358 436
#     4  11  25  47  75 100 146 190 240 286 373 432
#     4  10  23  45  69 102 141 191 233 295 360 439
#     4  12  28  48  77 110 142 185 244 301 352 430
#     4  10  24  46  72  99 141 189 228 288 368 424
#     4  11  23  45  68 115 140 188 250 296 366 431
#
# _framework density 23.696881000000001
#
# number of rings (size 3 to 8) (size 9 to 14) (size 15 to 20)
#    0.000    1.500    1.250    1.875    5.250    2.000 
#   29.250    3.750    0.000    0.000    0.000    0.000 
#    0.000    0.000    0.000    0.000    0.000    0.000 
#
# Total GULP energy -89466.374932 kJ/mol
# GULP energy per Si atom -5591.648433 kJ/mol
# Density = 2.364295 g / cm^3
# Si number density = 23.696881 Si / 1000 Ang^3
#
#
#
# Elastic Constant Matrix: (Units=GPa)
#
#
# Indices 1 2 3 4 5 6 
#
# 1 75.2466 28.5270 16.8797 0.5579 25.7231 21.3382
# 2 28.5270 142.8136 5.6647 -10.2324 1.7753 5.8580
# 3 16.8797 5.6647 107.2573 9.7587 13.2818 1.8845
# 4 0.5579 -10.2324 9.7587 27.7585 -4.3279 -6.8202
# 5 25.7231 1.7753 13.2818 -4.3279 15.7458 -36.9998
# 6 21.3382 5.8580 1.8845 -6.8202 -36.9998 -5.0375
#
#
#
# Elastic Compliance Matrix: (Units=1/GPa)
#
#
# Indices 1 2 3 4 5 6 
#
# 1 0.010942 -0.002296 -0.002496 0.002471 0.004258 0.008124
# 2 -0.002296 0.007722 -0.000201 0.002486 -0.000334 -0.001731
# 3 -0.002496 -0.000201 0.010061 -0.003178 -0.000641 0.001966
# 4 0.002471 0.002486 -0.003178 0.036035 -0.004260 -0.005331
# 5 0.004258 -0.000334 -0.000641 -0.004260 0.006047 -0.021241
# 6 0.008124 -0.001731 0.001966 -0.005331 -0.021241 -0.002145
#
#
# Mechanical properties :
#
#
# Convention : Reuss Voigt Hill
#
# Bulk Modulus (GPa) = 53.36196 47.49560 50.42878
# Shear Modulus (GPa) = 58.89763 25.97643 42.43703
#
# Velocity S-wave (km/s) = 4.99085 3.31448 4.23641
# Velocity P-wave (km/s) = 7.46852 5.89357 6.72730
#
# Compressibility (1/GPa) = 0.01873994
#
# Stress axis : x y z
#
# Youngs Moduli (GPa) = 91.39083 129.50096 99.39731
#
# Poissons Ratio (x) = 0.29731 0.24806
# Poissons Ratio (y) = 0.20982 0.01997
# Poissons Ratio (z) = 0.22808 0.02602
#
# Static dielectric constant tensor:
#      x y z
#    x 1.944080 0.015510 0.011390 
#    y 0.015510 1.915980 0.003310 
#    z 0.011390 0.003310 1.918900 
# 
# From -- ./inp_files/9220.got.cif
#   From: 2010.05.17/outbox.cif.g08.bks.cpg/sg2_5_cif.got.tgz:9220.got - 2010.06.03 11:33:40.
