data_PCOD9035057
_publ_section_title
;
Structure prediction by ZEFSAII (Michael W. Deem and Ramdas Pophale) SiO2 
 PCOD9035057
Probable space group: P -1
;
_chemical_formula_sum "Si O2"
_cell_formula_units_Z 16
_cell_length_a 19.656314
_cell_length_b 9.313116
_cell_length_c 15.753907
_cell_angle_alpha 123.616548
_cell_angle_beta 19.677037
_cell_angle_gamma 133.269303
_cell_volume 655.676484
_symmetry_space_group_name_H-M "P -1"
_symmetry_group_IT_number 2
_symmetry_cell_setting 'triclinic'
loop_
_space_group_symop_operation_xyz
x,y,z
-x,-y,-z
loop_
_atom_site_type_symbol
_atom_site_label
_atom_site_fract_x
_atom_site_fract_y
_atom_site_fract_z
Si Si1 0.725828 0.430133 0.395767
Si Si2 0.807714 0.822417 0.103494
Si Si3 0.439852 0.381060 0.891508
Si Si4 0.498442 0.945573 0.247421
Si Si5 0.936639 0.594078 0.762548
Si Si6 0.821193 0.158544 0.088236
Si Si7 0.277052 0.144463 0.259944
Si Si8 0.540165 0.130186 0.096198
O O1 0.485697 0.332649 0.584911
O O2 0.617153 0.414103 0.612367
O O3 0.811161 0.279495 0.221150
O O4 0.951562 0.666154 0.180614
O O5 0.839494 0.972398 0.036892
O O6 0.870345 0.661339 0.948862
O O7 0.000000 0.000000 0.000000
O O8 0.356925 0.165169 0.965113
O O9 0.602240 0.609866 0.820840
O O10 0.195767 0.358730 0.138492
O O11 0.228245 0.743672 0.472146
O O12 0.570593 0.043456 0.288505
O O13 0.537315 0.126275 0.199511
O O14 0.802815 0.345202 0.832205
O O15 0.325152 0.129660 0.300241
O O16 0.000000 0.000000 0.500000
O O17 0.442261 0.064303 0.007741
#
# Coordination Sequence:
#
# PCOD9035057 Si02
#       8
#     2   2   2   2   2   2   2   2
#     4  10  23  42  63  94 134 171 226 266 319 397
#     4  11  23  39  64  92 136 178 220 273 320 383
#     4  10  23  44  68  96 133 177 218 275 330 391
#     4  12  24  40  70 101 132 177 217 272 330 389
#     4  10  23  42  62  97 134 170 221 265 324 391
#     4  11  24  39  65  98 130 182 220 264 334 384
#     4  10  22  45  70  95 131 175 215 273 338 391
#     4  10  25  43  67 101 131 170 222 271 331 395
#
# _framework density 24.402280000000001
#
# number of rings (size 3 to 8) (size 9 to 14) (size 15 to 20)
#    0.000    1.500    2.500    1.875    5.250    6.000 
#    0.000    8.750    0.000    0.000    0.000    0.000 
#    0.000    0.000    0.000    0.000    0.000    0.000 
#
# Total GULP energy -89278.378914 kJ/mol
# GULP energy per Si atom -5579.898682 kJ/mol
# Density = 2.434674 g / cm^3
# Si number density = 24.402280 Si / 1000 Ang^3
#
#
#
# Elastic Constant Matrix: (Units=GPa)
#
#
# Indices 1 2 3 4 5 6 
#
# 1 88.8396 13.1198 30.3422 -13.5785 -18.6161 -20.3299
# 2 13.1198 112.0500 18.2220 -10.3157 1.7851 6.7059
# 3 30.3422 18.2220 71.6289 -27.1402 -24.1649 0.7497
# 4 -13.5785 -10.3157 -27.1402 35.0888 12.0369 -1.0057
# 5 -18.6161 1.7851 -24.1649 12.0369 30.3113 -3.4143
# 6 -20.3299 6.7059 0.7497 -1.0057 -3.4143 38.0523
#
#
#
# Elastic Compliance Matrix: (Units=1/GPa)
#
#
# Indices 1 2 3 4 5 6 
#
# 1 0.017091 -0.002112 -0.003729 0.000442 0.008641 0.010364
# 2 -0.002112 0.010042 -0.002696 0.001699 -0.005079 -0.003256
# 3 -0.003729 -0.002696 0.025571 0.013066 0.013008 -0.000508
# 4 0.000442 0.001699 0.013066 0.041262 -0.005770 0.000252
# 5 0.008641 -0.005079 0.013008 -0.005770 0.052363 0.009801
# 6 0.010364 -0.003256 -0.000508 0.000252 0.009801 0.033287
#
#
# Mechanical properties :
#
#
# Convention : Reuss Voigt Hill
#
# Bulk Modulus (GPa) = 28.06503 43.98739 36.02621
# Shear Modulus (GPa) = 23.97322 34.74612 29.35967
#
# Velocity S-wave (km/s) = 3.13775 3.77754 3.47241
# Velocity P-wave (km/s) = 4.96521 6.09028 5.55629
#
# Compressibility (1/GPa) = 0.03563153
#
# Stress axis : x y z
#
# Youngs Moduli (GPa) = 58.50865 99.57710 39.10742
#
# Poissons Ratio (x) = 0.21031 0.14582
# Poissons Ratio (y) = 0.12357 0.10542
# Poissons Ratio (z) = 0.21816 0.26843
#
# Static dielectric constant tensor:
#      x y z
#    x 2.378340 -0.099920 -0.085570 
#    y -0.099920 1.958340 0.086410 
#    z -0.085570 0.086410 2.054510 
# 
# From -- ./inp_files/577356.got.cif
#   From: 2010.05.17/outbox.cif.g08.bks.cpg/sg2_289_cif.got.tgz:577356.got - 2010.06.03 11:33:40.
