data_PCOD9035754
_publ_section_title
;
Structure prediction by ZEFSAII (Michael W. Deem and Ramdas Pophale) SiO2 
 PCOD9035754
Probable space group: P -1
;
_chemical_formula_sum "Si O2"
_cell_formula_units_Z 14
_cell_length_a 6.037802
_cell_length_b 6.160765
_cell_length_c 24.137518
_cell_angle_alpha 49.344872
_cell_angle_beta 63.472226
_cell_angle_gamma 79.621581
_cell_volume 601.260357
_symmetry_space_group_name_H-M "P -1"
_symmetry_group_IT_number 2
_symmetry_cell_setting 'triclinic'
loop_
_space_group_symop_operation_xyz
x,y,z
-x,-y,-z
loop_
_atom_site_type_symbol
_atom_site_label
_atom_site_fract_x
_atom_site_fract_y
_atom_site_fract_z
Si Si1 0.358216 0.278271 0.477210
Si Si2 0.198936 0.270900 0.815830
Si Si3 0.471341 0.210787 0.250846
Si Si4 0.531337 0.269490 0.111438
Si Si5 0.046800 0.702337 0.391650
Si Si6 0.808075 0.736179 0.305078
Si Si7 0.295987 0.096597 0.047232
O O1 0.136858 0.394057 0.445945
O O2 0.583350 0.530572 0.394825
O O3 0.216289 0.275072 0.552518
O O4 0.500000 0.000000 0.500000
O O5 0.421530 0.494391 0.779872
O O6 0.151538 0.376374 0.741769
O O7 0.297778 0.968149 0.855804
O O8 0.933528 0.166199 0.891300
O O9 0.402860 0.287355 0.182848
O O10 0.245268 0.984991 0.340429
O O11 0.709684 0.039045 0.257704
O O12 0.364769 0.152118 0.095793
O O13 0.704944 0.574621 0.027602
O O14 0.034177 0.736078 0.321561
O O15 0.500000 0.000000 0.000000
#
# Coordination Sequence:
#
# PCOD9035754 Si02
#       7
#     2   2   2   2   2   2   2
#     4  10  23  44  69 107 134 181 232 283 343 410
#     4  11  24  43  68  96 134 176 222 280 337 403
#     4  10  23  42  67  99 135 178 226 281 338 406
#     4  10  23  43  64  97 134 171 230 272 337 398
#     4  10  22  46  71  97 144 181 226 289 339 407
#     4  10  23  43  67  99 135 175 228 281 338 406
#     4  11  24  41  67  98 132 178 223 277 340 402
#
# _framework density 23.284423
#
# number of rings (size 3 to 8) (size 9 to 14) (size 15 to 20)
#    0.000    1.714    0.000    2.571    2.000    9.714 
#    7.714    0.000    0.000    0.000    0.000    0.000 
#    0.000    0.000    0.000    0.000    0.000    0.000 
#
# Total GULP energy -78002.729169 kJ/mol
# GULP energy per Si atom -5571.623512 kJ/mol
# Density = 2.323143 g / cm^3
# Si number density = 23.284423 Si / 1000 Ang^3
#
#
#
# Elastic Constant Matrix: (Units=GPa)
#
#
# Indices 1 2 3 4 5 6 
#
# 1 17.4777 38.0081 43.2799 -22.0851 -3.8627 -8.0023
# 2 38.0081 91.9664 53.9484 -4.9344 10.5896 -10.2955
# 3 43.2799 53.9484 135.3999 -5.6986 6.9332 9.2930
# 4 -22.0851 -4.9344 -5.6986 11.2652 -7.0161 8.2437
# 5 -3.8627 10.5896 6.9332 -7.0161 47.7803 -1.4425
# 6 -8.0023 -10.2955 9.2930 8.2437 -1.4425 23.8556
#
#
#
# Elastic Compliance Matrix: (Units=1/GPa)
#
#
# Indices 1 2 3 4 5 6 
#
# 1 -0.018840 0.007397 0.000628 -0.049180 -0.010082 0.013013
# 2 0.007397 0.013914 -0.007997 0.011220 0.000556 0.007758
# 3 0.000628 -0.007997 0.011725 0.013932 0.001790 -0.012514
# 4 -0.049180 0.011220 0.013932 0.017364 -0.006643 -0.023484
# 5 -0.010082 0.000556 0.001790 -0.006643 0.018743 -0.000410
# 6 0.013013 0.007758 -0.012514 -0.023484 -0.000410 0.062598
#
#
# Mechanical properties :
#
#
# Convention : Reuss Voigt Hill
#
# Bulk Modulus (GPa) = 145.88262 57.25741 101.57002
# Shear Modulus (GPa) = 46.41160 23.88741 35.14950
#
# Velocity S-wave (km/s) = 4.46942 3.20644 3.88954
# Velocity P-wave (km/s) = 9.45636 6.19291 7.99296
#
# Compressibility (1/GPa) = 0.00685483
#
# Stress axis : x y z
#
# Youngs Moduli (GPa) = -53.07838 71.86966 85.29088
#
# Poissons Ratio (x) = -0.53160 -0.05359
# Poissons Ratio (y) = 0.39261 0.68207
# Poissons Ratio (z) = 0.03335 0.57474
#
# Static dielectric constant tensor:
#      x y z
#    x 1.976460 -0.011360 0.007410 
#    y -0.011360 1.935910 0.048440 
#    z 0.007410 0.048440 1.891550 
# 
# From -- ./inp_files/102993.got.cif
#   From: 2010.05.17/outbox.cif.g08.bks.cpg/sg2_52_cif.got.tgz:102993.got - 2010.06.03 11:33:40.
