data_PCOD9035798
_publ_section_title
;
Structure prediction by ZEFSAII (Michael W. Deem and Ramdas Pophale) SiO2 
 PCOD9035798
Probable space group: P -1
;
_chemical_formula_sum "Si O2"
_cell_formula_units_Z 14
_cell_length_a 15.552168
_cell_length_b 8.940747
_cell_length_c 14.887297
_cell_angle_alpha 41.941869
_cell_angle_beta 138.242813
_cell_angle_gamma 154.347449
_cell_volume 578.235709
_symmetry_space_group_name_H-M "P -1"
_symmetry_group_IT_number 2
_symmetry_cell_setting 'triclinic'
loop_
_space_group_symop_operation_xyz
x,y,z
-x,-y,-z
loop_
_atom_site_type_symbol
_atom_site_label
_atom_site_fract_x
_atom_site_fract_y
_atom_site_fract_z
Si Si1 0.733170 0.347133 0.873712
Si Si2 0.092512 0.784931 0.828823
Si Si3 0.792708 0.185072 0.708502
Si Si4 0.438491 0.321276 0.627274
Si Si5 0.782315 0.653585 0.435867
Si Si6 0.100368 0.513212 0.659236
Si Si7 0.527604 0.311302 0.166320
O O1 0.619390 0.423307 0.767128
O O2 0.960507 0.670127 0.865178
O O3 0.605722 0.055653 0.826304
O O4 0.746812 0.192798 0.034243
O O5 0.946556 0.487792 0.770653
O O6 0.200159 0.157352 0.718100
O O7 0.747289 0.344164 0.541515
O O8 0.926223 0.214263 0.731025
O O9 0.595452 0.836332 0.767817
O O10 0.500000 0.500000 0.500000
O O11 0.387328 0.468176 0.578913
O O12 0.243624 0.894464 0.650140
O O13 0.000000 0.000000 0.500000
O O14 0.248346 0.507732 0.747871
O O15 0.000000 0.500000 0.500000
O O16 0.500000 0.500000 0.000000
#
# Coordination Sequence:
#
# PCOD9035798 Si02
#       7
#     2   2   2   2   2   2   2
#     4   9  20  34  59  88 122 155 200 252 307 375
#     4   9  17  35  56  90 119 154 193 249 315 367
#     4  10  21  41  66  88 129 161 208 261 321 371
#     4  11  20  37  60  90 127 155 203 262 313 367
#     4  10  17  32  59  88 115 153 190 251 314 358
#     4  11  24  42  65  92 125 171 217 259 312 387
#     4  10  23  44  60  87 128 172 207 262 312 373
#
# _framework density 24.211580000000001
#
# number of rings (size 3 to 8) (size 9 to 14) (size 15 to 20)
#    0.000    2.000    2.857    3.429    0.000    2.857 
#    5.143    1.429    0.000    0.000    0.000    0.000 
#    0.000    0.000    0.000    0.000    0.000    0.000 
#
# Total GULP energy -78232.873179 kJ/mol
# GULP energy per Si atom -5588.062370 kJ/mol
# Density = 2.415647 g / cm^3
# Si number density = 24.211580 Si / 1000 Ang^3
#
#
#
# Elastic Constant Matrix: (Units=GPa)
#
#
# Indices 1 2 3 4 5 6 
#
# 1 111.5035 49.4130 41.7226 -0.2736 7.2536 35.3571
# 2 49.4130 108.0716 49.8474 -4.1663 5.9429 19.7071
# 3 41.7226 49.8474 166.4088 9.1537 10.3571 44.0869
# 4 -0.2736 -4.1663 9.1537 37.0084 14.4927 -3.8690
# 5 7.2536 5.9429 10.3571 14.4927 27.8196 4.1263
# 6 35.3571 19.7071 44.0869 -3.8690 4.1263 49.4255
#
#
#
# Elastic Compliance Matrix: (Units=1/GPa)
#
#
# Indices 1 2 3 4 5 6 
#
# 1 0.013642 -0.004891 0.000297 -0.001018 -0.000894 -0.008078
# 2 -0.004891 0.012873 -0.003078 0.003210 -0.002231 0.001549
# 3 0.000297 -0.003078 0.008955 -0.003339 0.000060 -0.007239
# 4 -0.001018 0.003210 -0.003339 0.036429 -0.019175 0.006879
# 5 -0.000894 -0.002231 0.000060 -0.019175 0.047211 -0.003967
# 6 -0.008078 0.001549 -0.007239 0.006879 -0.003967 0.032720
#
#
# Mechanical properties :
#
#
# Convention : Reuss Voigt Hill
#
# Bulk Modulus (GPa) = 49.68998 74.21667 61.95333
# Shear Modulus (GPa) = 28.75483 39.18410 33.96947
#
# Velocity S-wave (km/s) = 3.44997 4.02730 3.74976
# Velocity P-wave (km/s) = 6.03635 7.23502 6.66269
#
# Compressibility (1/GPa) = 0.02012478
#
# Stress axis : x y z
#
# Youngs Moduli (GPa) = 73.30185 77.68121 111.67362
#
# Poissons Ratio (x) = 0.37996 -0.03312
# Poissons Ratio (y) = 0.35854 0.34372
# Poissons Ratio (z) = -0.02174 0.23910
#
# Static dielectric constant tensor:
#      x y z
#    x 1.938180 -0.058270 -0.094060 
#    y -0.058270 2.139100 0.172280 
#    z -0.094060 0.172280 2.055570 
# 
# From -- ./inp_files/315380.got.cif
#   From: 2010.05.17/outbox.cif.g08.bks.cpg/sg2_158_cif.got.tgz:315380.got - 2010.06.03 11:33:40.
