data_PCOD9035658
_publ_section_title
;
Structure prediction by ZEFSAII (Michael W. Deem and Ramdas Pophale) SiO2 
 PCOD9035658
Probable space group: P -1
;
_chemical_formula_sum "Si O2"
_cell_formula_units_Z 16
_cell_length_a 10.704947
_cell_length_b 14.854744
_cell_length_c 9.831970
_cell_angle_alpha 57.873564
_cell_angle_beta 67.389094
_cell_angle_gamma 30.912581
_cell_volume 670.891707
_symmetry_space_group_name_H-M "P -1"
_symmetry_group_IT_number 2
_symmetry_cell_setting 'triclinic'
loop_
_space_group_symop_operation_xyz
x,y,z
-x,-y,-z
loop_
_atom_site_type_symbol
_atom_site_label
_atom_site_fract_x
_atom_site_fract_y
_atom_site_fract_z
Si Si1 0.517097 0.799633 0.251240
Si Si2 0.167182 0.844169 0.430662
Si Si3 0.834708 0.912865 0.084347
Si Si4 0.926755 0.621852 0.732618
Si Si5 0.202641 0.274025 0.593459
Si Si6 0.816267 0.367871 0.248330
Si Si7 0.191611 0.794206 0.863976
Si Si8 0.547015 0.696162 0.922901
O O1 0.404404 0.761655 0.377352
O O2 0.553748 0.843932 0.337709
O O3 0.793429 0.600355 0.238730
O O4 0.335665 0.970538 0.076470
O O5 0.219305 0.687837 0.566031
O O6 0.000000 0.000000 0.500000
O O7 0.994665 0.986550 0.262861
O O8 0.881595 0.767403 0.243695
O O9 0.671739 0.082170 0.125194
O O10 0.088792 0.804816 0.031749
O O11 0.790735 0.753313 0.547753
O O12 0.776922 0.619065 0.852109
O O13 0.961234 0.697477 0.760653
O O14 0.000000 0.500000 0.500000
O O15 0.837333 0.275098 0.185424
O O16 0.598459 0.589393 0.118227
O O17 0.457971 0.672112 0.864577
#
# Coordination Sequence:
#
# PCOD9035658 Si02
#       8
#     2   2   2   2   2   2   2   2
#     4  10  22  46  70 103 137 185 227 288 344 418
#     4   9  22  42  70  98 134 174 236 280 339 404
#     4  11  24  45  71 103 139 181 234 286 349 410
#     4  11  26  44  67 105 141 178 235 285 352 404
#     4  10  25  42  70 103 140 180 230 287 346 417
#     4  11  24  45  72  99 136 190 230 284 343 413
#     4  10  25  46  72 100 136 187 232 287 344 416
#     4  12  26  44  71 103 144 179 233 292 343 413
#
# _framework density 23.848856000000001
#
# number of rings (size 3 to 8) (size 9 to 14) (size 15 to 20)
#    0.000    1.500    1.250    1.500    8.750    6.000 
#    0.000    0.000    0.000    0.000    0.000    0.000 
#    0.000    0.000    0.000    0.000    0.000    0.000 
#
# Total GULP energy -89386.899812 kJ/mol
# GULP energy per Si atom -5586.681238 kJ/mol
# Density = 2.379457 g / cm^3
# Si number density = 23.848856 Si / 1000 Ang^3
#
#
#
# Elastic Constant Matrix: (Units=GPa)
#
#
# Indices 1 2 3 4 5 6 
#
# 1 176.8021 33.7333 70.0518 6.2244 -4.0665 -22.9180
# 2 33.7333 68.3267 21.4214 6.6940 -27.5438 -8.1423
# 3 70.0518 21.4214 153.0047 -15.6187 -44.3986 -9.3820
# 4 6.2244 6.6940 -15.6187 10.2710 5.1707 1.6397
# 5 -4.0665 -27.5438 -44.3986 5.1707 49.7602 10.6590
# 6 -22.9180 -8.1423 -9.3820 1.6397 10.6590 22.0366
#
#
#
# Elastic Compliance Matrix: (Units=1/GPa)
#
#
# Indices 1 2 3 4 5 6 
#
# 1 0.011761 -0.004425 -0.008373 -0.013867 -0.010314 0.013052
# 2 -0.004425 0.025076 0.001352 -0.019982 0.017136 -0.001563
# 3 -0.008373 0.001352 0.016008 0.023032 0.014078 -0.009916
# 4 -0.013867 -0.019982 0.023032 0.159075 -0.003423 -0.022180
# 5 -0.010314 0.017136 0.014078 -0.003423 0.046028 -0.020410
# 6 0.013052 -0.001563 -0.009916 -0.022180 -0.020410 0.065676
#
#
# Mechanical properties :
#
#
# Convention : Reuss Voigt Hill
#
# Bulk Modulus (GPa) = 33.38617 72.06074 52.72345
# Shear Modulus (GPa) = 14.02525 34.60871 24.31698
#
# Velocity S-wave (km/s) = 2.42769 3.81355 3.19663
# Velocity P-wave (km/s) = 4.67843 7.04784 5.98163
#
# Compressibility (1/GPa) = 0.02995252
#
# Stress axis : x y z
#
# Youngs Moduli (GPa) = 85.02873 39.87935 62.46766
#
# Poissons Ratio (x) = 0.17647 0.52305
# Poissons Ratio (y) = 0.37626 -0.08447
# Poissons Ratio (z) = 0.71196 -0.05393
#
# Static dielectric constant tensor:
#      x y z
#    x 1.994340 0.044480 0.058090 
#    y 0.044480 1.921600 -0.003330 
#    z 0.058090 -0.003330 1.930300 
# 
# From -- ./inp_files/436609.got.cif
#   From: 2010.05.17/outbox.cif.g08.bks.cpg/sg2_219_cif.got.tgz:436609.got - 2010.06.03 11:33:40.
