data_PCOD9035374
_publ_section_title
;
Structure prediction by ZEFSAII (Michael W. Deem and Ramdas Pophale) SiO2 
 PCOD9035374
Probable space group: P -1
;
_chemical_formula_sum "Si O2"
_cell_formula_units_Z 16
_cell_length_a 7.461818
_cell_length_b 7.409250
_cell_length_c 18.953472
_cell_angle_alpha 133.761035
_cell_angle_beta 65.193541
_cell_angle_gamma 118.997281
_cell_volume 656.017929
_symmetry_space_group_name_H-M "P -1"
_symmetry_group_IT_number 2
_symmetry_cell_setting 'triclinic'
loop_
_space_group_symop_operation_xyz
x,y,z
-x,-y,-z
loop_
_atom_site_type_symbol
_atom_site_label
_atom_site_fract_x
_atom_site_fract_y
_atom_site_fract_z
Si Si1 0.799053 0.107964 0.860891
Si Si2 0.449777 0.320001 0.391224
Si Si3 0.010573 0.945562 0.565887
Si Si4 0.352282 0.728551 0.421368
Si Si5 0.354682 0.916732 0.808213
Si Si6 0.360144 0.457974 0.940559
Si Si7 0.926658 0.592039 0.223794
Si Si8 0.294133 0.463259 0.212125
O O1 0.995835 0.255669 0.820333
O O2 0.592885 0.033663 0.825127
O O3 0.790616 0.831234 0.822394
O O4 0.763003 0.329306 0.978747
O O5 0.500000 0.500000 0.500000
O O6 0.426567 0.501002 0.380144
O O7 0.625068 0.194263 0.303409
O O8 0.221098 0.130345 0.388401
O O9 0.129177 0.727544 0.488321
O O10 0.130647 0.201147 0.659058
O O11 0.000000 0.000000 0.500000
O O12 0.341059 0.672633 0.324894
O O13 0.500000 0.000000 0.500000
O O14 0.247307 0.686357 0.817998
O O15 0.248524 0.147287 0.881998
O O16 0.506106 0.506201 0.861110
O O17 0.500000 0.500000 0.000000
O O18 0.121543 0.522997 0.207624
#
# Coordination Sequence:
#
# PCOD9035374 Si02
#       8
#     2   2   2   2   2   2   2   2
#     4  11  24  48  71 101 138 184 235 293 351 415
#     4  12  25  44  67 100 141 186 237 287 350 422
#     4  12  23  42  66  98 142 185 230 288 349 417
#     4  12  26  41  66 105 137 187 235 281 352 425
#     4  11  23  45  70 102 140 187 228 290 355 416
#     4  10  22  45  75 101 138 188 227 292 361 411
#     4  12  24  45  70 101 146 182 231 292 351 422
#     4  12  23  46  74 101 144 182 235 291 352 420
#
# _framework density 24.389576000000002
#
# number of rings (size 3 to 8) (size 9 to 14) (size 15 to 20)
#    0.000    0.500    6.250    3.000    1.750    0.500 
#    2.250    0.625    0.000    0.000    0.000    0.000 
#    0.000    0.000    0.000    0.000    0.000    0.000 
#
# Total GULP energy -89568.807274 kJ/mol
# GULP energy per Si atom -5598.050455 kJ/mol
# Density = 2.433406 g / cm^3
# Si number density = 24.389576 Si / 1000 Ang^3
#
#
#
# Elastic Constant Matrix: (Units=GPa)
#
#
# Indices 1 2 3 4 5 6 
#
# 1 45.0664 20.0072 19.0070 1.7722 -4.1843 -3.7938
# 2 20.0072 183.1907 59.5601 0.7959 -5.1574 6.5951
# 3 19.0070 59.5601 147.0198 8.9401 -30.2137 -3.2517
# 4 1.7722 0.7959 8.9401 37.8146 -0.4923 -3.6173
# 5 -4.1843 -5.1574 -30.2137 -0.4923 31.8912 3.9985
# 6 -3.7938 6.5951 -3.2517 -3.6173 3.9985 33.5155
#
#
#
# Elastic Compliance Matrix: (Units=1/GPa)
#
#
# Indices 1 2 3 4 5 6 
#
# 1 0.024295 -0.002048 -0.002131 -0.000312 0.000474 0.002856
# 2 -0.002048 0.006605 -0.002815 0.000452 -0.001665 -0.001557
# 3 -0.002131 -0.002815 0.010169 -0.002129 0.008865 0.000012
# 4 -0.000312 0.000452 -0.002129 0.027199 -0.001920 0.002834
# 5 0.000474 -0.001665 0.008865 -0.001920 0.039987 -0.003736
# 6 0.002856 -0.001557 0.000012 0.002834 -0.003736 0.031219
#
#
# Mechanical properties :
#
#
# Convention : Reuss Voigt Hill
#
# Bulk Modulus (GPa) = 36.92913 63.60283 50.26598
# Shear Modulus (GPa) = 30.77092 39.09109 34.93100
#
# Velocity S-wave (km/s) = 3.55581 4.00782 3.78856
# Velocity P-wave (km/s) = 5.65974 6.89574 6.30809
#
# Compressibility (1/GPa) = 0.02707890
#
# Stress axis : x y z
#
# Youngs Moduli (GPa) = 41.16152 151.40019 98.33440
#
# Poissons Ratio (x) = 0.31014 0.20959
# Poissons Ratio (y) = 0.08432 0.27683
# Poissons Ratio (z) = 0.08773 0.42622
#
# Static dielectric constant tensor:
#      x y z
#    x 2.001260 0.081600 -0.045190 
#    y 0.081600 1.984760 -0.037920 
#    z -0.045190 -0.037920 2.158660 
# 
# From -- ./inp_files/588208.got.cif
#   From: 2010.05.17/outbox.cif.g08.bks.cpg/sg2_295_cif.got.tgz:588208.got - 2010.06.03 11:33:40.
