data_PCOD9035118
_publ_section_title
;
Structure prediction by ZEFSAII (Michael W. Deem and Ramdas Pophale) SiO2 
 PCOD9035118
Probable space group: P -1
;
_chemical_formula_sum "Si O2"
_cell_formula_units_Z 15
_cell_length_a 5.307276
_cell_length_b 20.426468
_cell_length_c 9.216293
_cell_angle_alpha 130.787294
_cell_angle_beta 109.468263
_cell_angle_gamma 53.001803
_cell_volume 601.200837
_symmetry_space_group_name_H-M "P -1"
_symmetry_group_IT_number 2
_symmetry_cell_setting 'triclinic'
loop_
_space_group_symop_operation_xyz
x,y,z
-x,-y,-z
loop_
_atom_site_type_symbol
_atom_site_label
_atom_site_fract_x
_atom_site_fract_y
_atom_site_fract_z
Si Si1 0.790608 0.458762 0.828357
Si Si2 0.356183 0.728109 0.572594
Si Si3 0.668397 0.064044 0.613131
Si Si4 0.500000 0.000000 0.000000
Si Si5 0.085783 0.649824 0.020174
Si Si6 0.940141 0.520004 0.350984
Si Si7 0.584947 0.825452 0.991293
Si Si8 0.386670 0.171260 0.436367
O O1 0.443223 0.562367 0.915818
O O2 0.907414 0.431216 0.645226
O O3 0.881040 0.365349 0.822066
O O4 0.000000 0.500000 0.000000
O O5 0.566035 0.606811 0.404784
O O6 0.437803 0.777869 0.527206
O O7 0.985749 0.776696 0.591376
O O8 0.486644 0.757644 0.781664
O O9 0.671337 0.104983 0.833108
O O10 0.452959 0.158576 0.601587
O O11 0.500000 0.000000 0.500000
O O12 0.000000 0.000000 0.500000
O O13 0.536404 0.060293 0.230877
O O14 0.585132 0.901519 0.983026
O O15 0.917252 0.591335 0.850738
O O16 0.908642 0.754054 0.044356
O O17 0.000000 0.500000 0.500000
#
# Coordination Sequence:
#
# PCOD9035118 Si02
#       8
#     2   2   2   1   2   2   2   2
#     4   9  22  42  67  99 146 188 239 304 363 438
#     4  11  27  45  74 109 149 198 246 306 372 451
#     4  12  27  49  75 108 143 193 249 321 374 446
#     4  10  24  46  74 100 148 184 250 308 378 432
#     4  10  22  45  71 104 142 196 240 300 371 440
#     4  11  23  42  65 106 147 188 243 297 367 440
#     4  11  25  47  76 109 147 196 256 305 381 453
#     4  11  26  47  72 108 142 196 249 309 379 437
#
# _framework density 24.950067000000001
#
# number of rings (size 3 to 8) (size 9 to 14) (size 15 to 20)
#    0.000    1.333    2.667    0.800    5.600    5.867 
#    4.800    0.000    0.000    0.000    0.000    0.000 
#    0.000    0.000    0.000    0.000    0.000    0.000 
#
# Total GULP energy -83515.424769 kJ/mol
# GULP energy per Si atom -5567.694985 kJ/mol
# Density = 2.489328 g / cm^3
# Si number density = 24.950067 Si / 1000 Ang^3
#
#
#
# Elastic Constant Matrix: (Units=GPa)
#
#
# Indices 1 2 3 4 5 6 
#
# 1 101.4307 63.3078 3.2971 -2.6224 -29.4819 2.7643
# 2 63.3078 180.8519 57.9337 -26.4453 -18.2154 -4.3187
# 3 3.2971 57.9337 81.6686 -21.3095 -20.6908 22.0302
# 4 -2.6224 -26.4453 -21.3095 59.7258 10.6220 -12.6977
# 5 -29.4819 -18.2154 -20.6908 10.6220 35.0823 1.3209
# 6 2.7643 -4.3187 22.0302 -12.6977 1.3209 28.8755
#
#
#
# Elastic Compliance Matrix: (Units=1/GPa)
#
#
# Indices 1 2 3 4 5 6 
#
# 1 0.033165 -0.019356 0.028888 -0.011260 0.039580 -0.034872
# 2 -0.019356 0.019939 -0.024993 0.009679 -0.024687 0.029288
# 3 0.028888 -0.024993 0.052430 -0.010916 0.047541 -0.053479
# 4 -0.011260 0.009679 -0.010916 0.024887 -0.019264 0.022679
# 5 0.039580 -0.024687 0.047541 -0.019264 0.084932 -0.056108
# 6 -0.034872 0.029288 -0.053479 0.022679 -0.056108 0.095691
#
#
# Mechanical properties :
#
#
# Convention : Reuss Voigt Hill
#
# Bulk Modulus (GPa) = 13.40252 68.11426 40.75839
# Shear Modulus (GPa) = 13.63005 40.69756 27.16380
#
# Velocity S-wave (km/s) = 2.33983 4.04314 3.30317
# Velocity P-wave (km/s) = 3.56134 7.01110 5.56051
#
# Compressibility (1/GPa) = 0.07461284
#
# Stress axis : x y z
#
# Youngs Moduli (GPa) = 30.15252 50.15190 19.07314
#
# Poissons Ratio (x) = 0.97075 -0.55099
# Poissons Ratio (y) = 0.58364 0.47669
# Poissons Ratio (z) = -0.87105 1.25343
#
# Static dielectric constant tensor:
#      x y z
#    x -1.236750 -1.482910 -0.359110 
#    y -1.482910 1.350360 -0.132470 
#    z -0.359110 -0.132470 2.036600 
# 
# From -- ./inp_files/139377.got.cif
#   From: 2010.05.17/outbox.cif.g08.bks.cpg/sg2_70_cif.got.tgz:139377.got - 2010.06.03 11:33:40.
