data_PCOD9035336
_publ_section_title
;
Structure prediction by ZEFSAII (Michael W. Deem and Ramdas Pophale) SiO2 
 PCOD9035336
Probable space group: P -1
;
_chemical_formula_sum "Si O2"
_cell_formula_units_Z 14
_cell_length_a 7.421537
_cell_length_b 12.380079
_cell_length_c 8.748275
_cell_angle_alpha 47.354334
_cell_angle_beta 75.662739
_cell_angle_gamma 87.923998
_cell_volume 562.974344
_symmetry_space_group_name_H-M "P -1"
_symmetry_group_IT_number 2
_symmetry_cell_setting 'triclinic'
loop_
_space_group_symop_operation_xyz
x,y,z
-x,-y,-z
loop_
_atom_site_type_symbol
_atom_site_label
_atom_site_fract_x
_atom_site_fract_y
_atom_site_fract_z
Si Si1 0.263114 0.588710 0.833258
Si Si2 0.221135 0.111404 0.208083
Si Si3 0.120590 0.935920 0.907752
Si Si4 0.653767 0.613673 0.265873
Si Si5 0.894510 0.687953 0.711839
Si Si6 0.516432 0.094965 0.560056
Si Si7 0.988247 0.671777 0.359107
O O1 0.263021 0.489418 0.775787
O O2 0.431682 0.729564 0.653114
O O3 0.073448 0.658767 0.802540
O O4 0.251589 0.470388 0.086977
O O5 0.019636 0.089351 0.184326
O O6 0.689158 0.036770 0.665331
O O7 0.185289 0.179566 0.316098
O O8 0.370295 0.242175 0.966645
O O9 0.318917 0.042058 0.736139
O O10 0.149862 0.779144 0.127069
O O11 0.000000 0.000000 0.000000
O O12 0.500000 0.500000 0.500000
O O13 0.800107 0.684908 0.294906
O O14 0.964112 0.711577 0.501800
O O15 0.500000 0.000000 0.500000
O O16 0.000000 0.500000 0.500000
#
# Coordination Sequence:
#
# PCOD9035336 Si02
#       7
#     2   2   2   2   2   2   2
#     4  10  23  42  71 104 139 187 240 294 358 427
#     4  10  26  48  71 103 147 190 235 302 358 432
#     4  11  29  50  71 110 149 192 240 297 370 431
#     4  10  23  42  67 101 138 179 238 298 353 416
#     4  10  22  45  74 103 140 188 241 300 361 422
#     4  12  29  45  76 109 148 191 244 292 364 442
#     4  11  24  43  75 100 136 186 242 295 355 424
#
# _framework density 24.867919000000001
#
# number of rings (size 3 to 8) (size 9 to 14) (size 15 to 20)
#    0.000    1.429    1.429    0.857   14.000    1.714 
#    0.000    2.857    0.000    0.000    0.000    0.000 
#    0.000    0.000    0.000    0.000    0.000    0.000 
#
# Total GULP energy -78381.783411 kJ/mol
# GULP energy per Si atom -5598.698815 kJ/mol
# Density = 2.481132 g / cm^3
# Si number density = 24.867919 Si / 1000 Ang^3
#
#
#
# Elastic Constant Matrix: (Units=GPa)
#
#
# Indices 1 2 3 4 5 6 
#
# 1 67.4605 33.6657 47.9180 -1.9050 -3.7220 -9.4450
# 2 33.6657 113.4319 44.7284 -6.9783 -0.2743 5.8822
# 3 47.9180 44.7284 191.1220 -31.8476 -17.4803 6.5390
# 4 -1.9050 -6.9783 -31.8476 50.4245 3.9588 0.6626
# 5 -3.7220 -0.2743 -17.4803 3.9588 40.8384 -2.7096
# 6 -9.4450 5.8822 6.5390 0.6626 -2.7096 32.3854
#
#
#
# Elastic Compliance Matrix: (Units=1/GPa)
#
#
# Indices 1 2 3 4 5 6 
#
# 1 0.022217 -0.005218 -0.005128 -0.003288 0.000683 0.008587
# 2 -0.005218 0.011035 -0.001142 0.000747 -0.001189 -0.003410
# 3 -0.005128 -0.001142 0.007829 0.004452 0.002260 -0.002771
# 4 -0.003288 0.000747 0.004452 0.022715 -0.000758 -0.002522
# 5 0.000683 -0.001189 0.002260 -0.000758 0.025723 0.002126
# 6 0.008587 -0.003410 -0.002771 -0.002522 0.002126 0.034791
#
#
# Mechanical properties :
#
#
# Convention : Reuss Voigt Hill
#
# Bulk Modulus (GPa) = 55.23465 69.40430 62.31948
# Shear Modulus (GPa) = 32.61145 41.10980 36.86063
#
# Velocity S-wave (km/s) = 3.62524 4.07028 3.85418
# Velocity P-wave (km/s) = 6.30734 7.07526 6.70231
#
# Compressibility (1/GPa) = 0.01810458
#
# Stress axis : x y z
#
# Youngs Moduli (GPa) = 45.01019 90.62431 127.73575
#
# Poissons Ratio (x) = 0.47284 0.65509
# Poissons Ratio (y) = 0.23484 0.14586
# Poissons Ratio (z) = 0.23083 0.10348
#
# Static dielectric constant tensor:
#      x y z
#    x 2.033640 -0.010660 0.039970 
#    y -0.010660 1.930820 -0.075490 
#    z 0.039970 -0.075490 2.130850 
# 
# From -- ./inp_files/205501.got.cif
#   From: 2010.05.17/outbox.cif.g08.bks.cpg/sg2_103_cif.got.tgz:205501.got - 2010.06.03 11:33:40.
