data_PCOD9035033
_publ_section_title
;
Structure prediction by ZEFSAII (Michael W. Deem and Ramdas Pophale) SiO2 
 PCOD9035033
Probable space group: P -1
;
_chemical_formula_sum "Si O2"
_cell_formula_units_Z 16
_cell_length_a 15.074946
_cell_length_b 8.421113
_cell_length_c 4.920051
_cell_angle_alpha 79.007089
_cell_angle_beta 77.345119
_cell_angle_gamma 89.835770
_cell_volume 597.740694
_symmetry_space_group_name_H-M "P -1"
_symmetry_group_IT_number 2
_symmetry_cell_setting 'triclinic'
loop_
_space_group_symop_operation_xyz
x,y,z
-x,-y,-z
loop_
_atom_site_type_symbol
_atom_site_label
_atom_site_fract_x
_atom_site_fract_y
_atom_site_fract_z
Si Si1 0.078507 0.653105 0.259552
Si Si2 0.713820 0.044263 0.028108
Si Si3 0.911688 0.974101 0.883910
Si Si4 0.892450 0.616703 0.119725
Si Si5 0.654267 0.198729 0.493430
Si Si6 0.444835 0.188281 0.557336
Si Si7 0.417039 0.378716 0.009175
Si Si8 0.741554 0.502939 0.589006
O O1 0.098411 0.553794 0.989957
O O2 0.168273 0.591381 0.364966
O O3 0.968442 0.622570 0.310306
O O4 0.083522 0.842430 0.305798
O O5 0.631602 0.933029 0.233055
O O6 0.697837 0.203693 0.164254
O O7 0.810700 0.982891 0.066974
O O8 0.703737 0.079096 0.706028
O O9 0.913401 0.781082 0.871243
O O10 0.000000 0.000000 0.000000
O O11 0.791585 0.627821 0.307666
O O12 0.547996 0.150767 0.568463
O O13 0.671484 0.374800 0.544306
O O14 0.436233 0.222389 0.234005
O O15 0.425789 0.346561 0.696651
O O16 0.316218 0.421492 0.157243
O O17 0.500000 0.500000 0.000000
#
# Coordination Sequence:
#
# PCOD9035033 Si02
#       8
#     2   2   2   2   2   2   2   2
#     4  10  22  45  70 104 147 188 247 306 373 441
#     4  12  25  46  71 109 141 196 248 305 377 445
#     4  10  22  45  71 104 149 191 244 305 372 441
#     4  10  23  43  72 105 143 195 245 308 367 447
#     4  12  26  44  76 101 148 193 246 308 378 441
#     4  12  26  48  71 104 145 191 253 313 369 449
#     4  12  27  44  70 102 143 190 248 310 375 441
#     4  12  25  40  72 101 147 192 249 302 376 446
#
# _framework density 26.767461000000001
#
# number of rings (size 3 to 8) (size 9 to 14) (size 15 to 20)
#    0.000    0.750    2.500    4.500    3.500    0.000 
#    0.000    0.625    0.000    0.000    0.000    0.000 
#    0.000    0.000    0.000    0.000    0.000    0.000 
#
# Total GULP energy -89203.234261 kJ/mol
# GULP energy per Si atom -5575.202141 kJ/mol
# Density = 2.670654 g / cm^3
# Si number density = 26.767461 Si / 1000 Ang^3
#
#
#
# Elastic Constant Matrix: (Units=GPa)
#
#
# Indices 1 2 3 4 5 6 
#
# 1 170.7983 31.6359 40.9413 -9.7418 -29.1434 -7.2632
# 2 31.6359 64.3179 16.4182 -15.2624 0.3591 2.3048
# 3 40.9413 16.4182 79.9270 8.0762 -15.4053 4.9266
# 4 -9.7418 -15.2624 8.0762 31.3251 1.2312 -7.3817
# 5 -29.1434 0.3591 -15.4053 1.2312 47.2212 -2.3073
# 6 -7.2632 2.3048 4.9266 -7.3817 -2.3073 44.5982
#
#
#
# Elastic Compliance Matrix: (Units=1/GPa)
#
#
# Indices 1 2 3 4 5 6 
#
# 1 0.008037 -0.002669 -0.003193 0.002433 0.003993 0.002409
# 2 -0.002669 0.020586 -0.004667 0.010685 -0.003576 0.000601
# 3 -0.003193 -0.004667 0.016878 -0.008556 0.003629 -0.003372
# 4 0.002433 0.010685 -0.008556 0.041972 -0.002093 0.007628
# 5 0.003993 -0.003576 0.003629 -0.002093 0.024975 0.001380
# 6 0.002409 0.000601 -0.003372 0.007628 0.001380 0.024490
#
#
# Mechanical properties :
#
#
# Convention : Reuss Voigt Hill
#
# Bulk Modulus (GPa) = 40.91460 54.78157 47.84808
# Shear Modulus (GPa) = 30.09424 39.69874 34.89649
#
# Velocity S-wave (km/s) = 3.35667 3.85528 3.61458
# Velocity P-wave (km/s) = 5.50830 6.35041 5.94429
#
# Compressibility (1/GPa) = 0.02444115
#
# Stress axis : x y z
#
# Youngs Moduli (GPa) = 124.41958 48.57609 59.24976
#
# Poissons Ratio (x) = 0.12967 0.18920
# Poissons Ratio (y) = 0.33213 0.27654
# Poissons Ratio (z) = 0.39731 0.22672
#
# Static dielectric constant tensor:
#      x y z
#    x 2.031550 -0.010100 0.055490 
#    y -0.010100 2.303480 -0.104690 
#    z 0.055490 -0.104690 2.130770 
# 
# From -- ./inp_files/90040.got.cif
#   From: 2010.05.17/outbox.cif.g08.bks.cpg/sg2_46_cif.got.tgz:90040.got - 2010.06.03 11:33:40.
