data_PCOD9035954
_publ_section_title
;
Structure prediction by ZEFSAII (Michael W. Deem and Ramdas Pophale) SiO2 
 PCOD9035954
Probable space group: P -1
;
_chemical_formula_sum "Si O2"
_cell_formula_units_Z 14
_cell_length_a 14.309726
_cell_length_b 10.591344
_cell_length_c 9.543783
_cell_angle_alpha 35.182138
_cell_angle_beta 120.005853
_cell_angle_gamma 138.975577
_cell_volume 520.421660
_symmetry_space_group_name_H-M "P -1"
_symmetry_group_IT_number 2
_symmetry_cell_setting 'triclinic'
loop_
_space_group_symop_operation_xyz
x,y,z
-x,-y,-z
loop_
_atom_site_type_symbol
_atom_site_label
_atom_site_fract_x
_atom_site_fract_y
_atom_site_fract_z
Si Si1 0.379059 0.193082 0.054593
Si Si2 0.197609 0.610285 0.955585
Si Si3 0.675315 0.476957 0.106942
Si Si4 0.903171 0.162846 0.998191
Si Si5 0.807630 0.598735 0.558071
Si Si6 0.490039 0.319003 0.526825
Si Si7 0.067550 0.350120 0.684877
O O1 0.312262 0.257929 0.065797
O O2 0.333777 0.972052 0.721953
O O3 0.476537 0.494343 0.756609
O O4 0.498402 0.196094 0.206188
O O5 0.168177 0.490248 0.198895
O O6 0.249226 0.469711 0.032913
O O7 0.846638 0.913964 0.299616
O O8 0.047689 0.479487 0.884843
O O9 0.765765 0.450760 0.306503
O O10 0.754672 0.068137 0.910915
O O11 0.000000 0.500000 0.500000
O O12 0.965505 0.115816 0.950633
O O13 0.629764 0.349187 0.619527
O O14 0.913040 0.671269 0.444428
O O15 0.500000 0.500000 0.500000
#
# Coordination Sequence:
#
# PCOD9035954 Si02
#       7
#     2   2   2   2   2   2   2
#     4  10  22  46  79 105 148 208 250 315 379 457
#     4  11  25  43  75 114 153 194 256 319 377 465
#     4  10  22  47  74 110 146 199 264 301 380 458
#     4  10  23  47  71 110 150 200 251 311 383 449
#     4  11  23  46  74 107 154 202 253 314 386 447
#     4  11  24  45  74 110 157 203 253 315 386 456
#     4  11  24  45  72 109 153 202 251 313 372 456
#
# _framework density 26.901261999999999
#
# number of rings (size 3 to 8) (size 9 to 14) (size 15 to 20)
#    0.000    1.429    2.857    2.143    2.000    4.000 
#   10.286   14.286    0.000    0.000    0.000    0.000 
#    0.000    0.000    0.000    0.000    0.000    0.000 
#
# Total GULP energy -78342.787639 kJ/mol
# GULP energy per Si atom -5595.913403 kJ/mol
# Density = 2.684003 g / cm^3
# Si number density = 26.901262 Si / 1000 Ang^3
#
#
#
# Elastic Constant Matrix: (Units=GPa)
#
#
# Indices 1 2 3 4 5 6 
#
# 1 156.5102 53.1918 31.4860 25.6411 -22.4448 21.2788
# 2 53.1918 223.8508 63.3511 3.3254 -0.7493 42.2940
# 3 31.4860 63.3511 144.9166 2.9801 -23.2986 2.1600
# 4 25.6411 3.3254 2.9801 51.9358 -0.8223 -0.8954
# 5 -22.4448 -0.7493 -23.2986 -0.8223 34.3581 22.1993
# 6 21.2788 42.2940 2.1600 -0.8954 22.1993 55.2432
#
#
#
# Elastic Compliance Matrix: (Units=1/GPa)
#
#
# Indices 1 2 3 4 5 6 
#
# 1 0.010312 -0.000856 0.000319 -0.005005 0.012180 -0.008304
# 2 -0.000856 0.006227 -0.002284 0.000090 0.001132 -0.004801
# 3 0.000319 -0.002284 0.009052 -0.000443 0.007387 -0.001703
# 4 -0.005005 0.000090 -0.000443 0.021730 -0.006061 0.004664
# 5 0.012180 0.001132 0.007387 -0.006061 0.061850 -0.030799
# 6 -0.008304 -0.004801 -0.001703 0.004664 -0.030799 0.037495
#
#
# Mechanical properties :
#
#
# Convention : Reuss Voigt Hill
#
# Bulk Modulus (GPa) = 50.13385 91.25949 70.69667
# Shear Modulus (GPa) = 31.45481 53.45734 42.45607
#
# Velocity S-wave (km/s) = 3.42317 4.46260 3.97699
# Velocity P-wave (km/s) = 5.85669 7.78143 6.88663
#
# Compressibility (1/GPa) = 0.01994660
#
# Stress axis : x y z
#
# Youngs Moduli (GPa) = 96.97506 160.59443 110.47349
#
# Poissons Ratio (x) = 0.13754 -0.03522
# Poissons Ratio (y) = 0.08305 0.25236
# Poissons Ratio (z) = -0.03091 0.36686
#
# Static dielectric constant tensor:
#      x y z
#    x 2.256110 -0.068620 0.093560 
#    y -0.068620 2.096190 -0.062500 
#    z 0.093560 -0.062500 2.122440 
# 
# From -- ./inp_files/177348.got.cif
#   From: 2010.05.17/outbox.cif.g08.bks.cpg/sg2_89_cif.got.tgz:177348.got - 2010.06.03 11:33:40.
