data_PCOD9035272
_publ_section_title
;
Structure prediction by ZEFSAII (Michael W. Deem and Ramdas Pophale) SiO2 
 PCOD9035272
Probable space group: P -1
;
_chemical_formula_sum "Si O2"
_cell_formula_units_Z 16
_cell_length_a 12.051947
_cell_length_b 9.385146
_cell_length_c 21.002906
_cell_angle_alpha 135.808369
_cell_angle_beta 25.997444
_cell_angle_gamma 142.065901
_cell_volume 639.860583
_symmetry_space_group_name_H-M "P -1"
_symmetry_group_IT_number 2
_symmetry_cell_setting 'triclinic'
loop_
_space_group_symop_operation_xyz
x,y,z
-x,-y,-z
loop_
_atom_site_type_symbol
_atom_site_label
_atom_site_fract_x
_atom_site_fract_y
_atom_site_fract_z
Si Si1 0.650057 0.592658 0.781319
Si Si2 0.307738 0.721639 0.901482
Si Si3 0.737468 0.643627 0.976757
Si Si4 0.460893 0.886509 0.350345
Si Si5 0.488176 0.012506 0.786158
Si Si6 0.975568 0.960927 0.194672
Si Si7 0.640932 0.741445 0.417036
Si Si8 0.070779 0.416582 0.673707
O O1 0.549287 0.698973 0.810020
O O2 0.711554 0.388689 0.659737
O O3 0.381459 0.468998 0.929207
O O4 0.898649 0.788382 0.757606
O O5 0.391774 0.785299 0.805201
O O6 0.000000 0.500000 0.000000
O O7 0.249360 0.927784 0.024502
O O8 0.995086 0.600378 0.806965
O O9 0.500000 0.500000 0.000000
O O10 0.740658 0.889927 0.056911
O O11 0.469411 0.000485 0.314346
O O12 0.768237 0.931907 0.233827
O O13 0.345582 0.010070 0.497761
O O14 0.786648 0.213113 0.724156
O O15 0.778304 0.766000 0.285019
O O16 0.820200 0.693672 0.363230
O O17 0.314881 0.548187 0.537106
#
# Coordination Sequence:
#
# PCOD9035272 Si02
#       8
#     2   2   2   2   2   2   2   2
#     4  11  24  46  74 106 142 191 233 304 367 410
#     4  12  25  45  73 112 144 182 235 306 369 422
#     4   9  19  39  73 105 131 180 237 292 354 424
#     4  11  27  46  68 111 137 194 246 285 352 426
#     4  10  24  45  74 104 139 185 238 305 360 419
#     4  12  25  47  71 103 152 185 240 292 362 432
#     4  11  26  44  68 107 145 198 240 292 342 435
#     4  10  22  45  73 102 142 194 243 287 361 421
#
# _framework density 25.005448999999999
#
# number of rings (size 3 to 8) (size 9 to 14) (size 15 to 20)
#    0.000    1.250    1.250    3.750    7.000    4.500 
#    2.250    0.000    0.000    0.000    0.000    0.000 
#    0.000    0.000    0.000    0.000    0.000    0.000 
#
# Total GULP energy -89696.971361 kJ/mol
# GULP energy per Si atom -5606.060710 kJ/mol
# Density = 2.494854 g / cm^3
# Si number density = 25.005449 Si / 1000 Ang^3
#
#
#
# Elastic Constant Matrix: (Units=GPa)
#
#
# Indices 1 2 3 4 5 6 
#
# 1 115.6004 30.7860 24.4750 -21.6477 6.6899 -22.5788
# 2 30.7860 94.7312 10.7837 -15.2112 -4.2849 -2.8738
# 3 24.4750 10.7837 86.2676 -14.2685 5.5882 -15.1824
# 4 -21.6477 -15.2112 -14.2685 37.9909 -10.2169 0.7399
# 5 6.6899 -4.2849 5.5882 -10.2169 34.2463 -12.8003
# 6 -22.5788 -2.8738 -15.1824 0.7399 -12.8003 47.1294
#
#
#
# Elastic Compliance Matrix: (Units=1/GPa)
#
#
# Indices 1 2 3 4 5 6 
#
# 1 0.011531 -0.002546 -0.001237 0.005296 0.001155 0.005201
# 2 -0.002546 0.012270 -0.000271 0.004288 0.003475 0.000317
# 3 -0.001237 -0.000271 0.013313 0.004314 0.000748 0.003815
# 4 0.005296 0.004288 0.004314 0.035784 0.012053 0.006900
# 5 0.001155 0.003475 0.000748 0.012053 0.036938 0.010849
# 6 0.005201 0.000317 0.003815 0.006900 0.010849 0.027797
#
#
# Mechanical properties :
#
#
# Convention : Reuss Voigt Hill
#
# Bulk Modulus (GPa) = 34.47620 47.63208 41.05414
# Shear Modulus (GPa) = 32.17291 39.24361 35.70826
#
# Velocity S-wave (km/s) = 3.59086 3.96587 3.78301
# Velocity P-wave (km/s) = 5.56864 6.32936 5.96115
#
# Compressibility (1/GPa) = 0.02900551
#
# Stress axis : x y z
#
# Youngs Moduli (GPa) = 86.72108 81.49988 75.11415
#
# Poissons Ratio (x) = 0.20752 0.09290
# Poissons Ratio (y) = 0.22082 0.02038
# Poissons Ratio (z) = 0.10725 0.02211
#
# Static dielectric constant tensor:
#      x y z
#    x 1.902900 -0.007270 0.003970 
#    y -0.007270 2.009780 -0.008700 
#    z 0.003970 -0.008700 1.987120 
# 
# From -- ./inp_files/594182.got.cif
#   From: 2010.05.17/outbox.cif.g08.bks.cpg/sg2_298_cif.got.tgz:594182.got - 2010.06.03 11:33:40.
