data_PCOD9035523
_publ_section_title
;
Structure prediction by ZEFSAII (Michael W. Deem and Ramdas Pophale) SiO2 
 PCOD9035523
Probable space group: P -1
;
_chemical_formula_sum "Si O2"
_cell_formula_units_Z 15
_cell_length_a 6.146825
_cell_length_b 13.884345
_cell_length_c 13.381092
_cell_angle_alpha 32.838958
_cell_angle_beta 95.792781
_cell_angle_gamma 81.767419
_cell_volume 558.404418
_symmetry_space_group_name_H-M "P -1"
_symmetry_group_IT_number 2
_symmetry_cell_setting 'triclinic'
loop_
_space_group_symop_operation_xyz
x,y,z
-x,-y,-z
loop_
_atom_site_type_symbol
_atom_site_label
_atom_site_fract_x
_atom_site_fract_y
_atom_site_fract_z
Si Si1 0.284238 0.280957 0.316102
Si Si2 0.398193 0.091319 0.026671
Si Si3 0.389848 0.710219 0.423075
Si Si4 0.500000 0.500000 0.000000
Si Si5 0.416901 0.297017 0.030086
Si Si6 0.893456 0.286700 0.400186
Si Si7 0.104319 0.619342 0.329458
Si Si8 0.186824 0.069256 0.325415
O O1 0.545742 0.112322 0.497041
O O2 0.125987 0.330807 0.365548
O O3 0.142992 0.186378 0.324051
O O4 0.306185 0.454648 0.106653
O O5 0.120842 0.241138 0.867101
O O6 0.505024 0.213223 0.996941
O O7 0.500000 0.000000 0.000000
O O8 0.426239 0.906908 0.255344
O O9 0.255123 0.662396 0.549173
O O10 0.206554 0.742999 0.294250
O O11 0.648909 0.533984 0.573574
O O12 0.411199 0.730881 0.843886
O O13 0.219455 0.217270 0.118917
O O14 0.296002 0.539270 0.832587
O O15 0.958840 0.058109 0.592994
O O16 0.000000 0.500000 0.500000
#
# Coordination Sequence:
#
# PCOD9035523 Si02
#       8
#     2   2   2   1   2   2   2   2
#     4  10  23  44  73 102 147 199 248 322 387 460
#     4  12  25  48  77 113 157 209 265 320 404 475
#     4  11  26  47  75 114 156 205 266 324 399 475
#     4  10  22  48  74 108 150 202 258 320 390 470
#     4  11  25  46  74 109 149 202 256 321 388 470
#     4  12  24  45  71 107 150 194 255 321 388 471
#     4  11  24  48  77 107 155 208 258 329 391 472
#     4  10  22  46  67 105 144 193 257 310 384 473
#
# _framework density 26.862252999999999
#
# number of rings (size 3 to 8) (size 9 to 14) (size 15 to 20)
#    0.000    1.067    4.000    1.600    1.867    5.333 
#    9.600    0.000    0.000    0.000    0.000    0.000 
#    0.000    0.000    0.000    0.000    0.000    0.000 
#
# Total GULP energy -83663.878049 kJ/mol
# GULP energy per Si atom -5577.591870 kJ/mol
# Density = 2.680111 g / cm^3
# Si number density = 26.862253 Si / 1000 Ang^3
#
#
#
# Elastic Constant Matrix: (Units=GPa)
#
#
# Indices 1 2 3 4 5 6 
#
# 1 97.7448 58.7446 41.3985 4.2741 -15.8114 -28.1386
# 2 58.7446 151.1905 27.9314 0.3107 -20.9884 5.8521
# 3 41.3985 27.9314 132.1129 2.3674 -17.6729 -14.6129
# 4 4.2741 0.3107 2.3674 36.8838 3.1113 -9.5857
# 5 -15.8114 -20.9884 -17.6729 3.1113 60.7798 1.0312
# 6 -28.1386 5.8521 -14.6129 -9.5857 1.0312 55.2275
#
#
#
# Elastic Compliance Matrix: (Units=1/GPa)
#
#
# Indices 1 2 3 4 5 6 
#
# 1 0.018568 -0.006803 -0.003164 0.000434 0.001379 0.009393
# 2 -0.006803 0.009706 -0.000209 -0.000637 0.001633 -0.004691
# 3 -0.003164 -0.000209 0.008913 -0.000162 0.001692 0.000708
# 4 0.000434 -0.000637 -0.000162 0.028583 -0.001706 0.005238
# 5 0.001379 0.001633 0.001692 -0.001706 0.017949 0.000346
# 6 0.009393 -0.004691 0.000708 0.005238 0.000346 0.024480
#
#
# Mechanical properties :
#
#
# Convention : Reuss Voigt Hill
#
# Bulk Modulus (GPa) = 59.40574 70.79967 65.10270
# Shear Modulus (GPa) = 37.26820 47.44314 42.35567
#
# Velocity S-wave (km/s) = 3.72880 4.20713 3.97517
# Velocity P-wave (km/s) = 6.37978 7.07204 6.73481
#
# Compressibility (1/GPa) = 0.01683339
#
# Stress axis : x y z
#
# Youngs Moduli (GPa) = 53.85666 103.03269 112.19888
#
# Poissons Ratio (x) = 0.70092 0.35503
# Poissons Ratio (y) = 0.36638 0.02347
# Poissons Ratio (z) = 0.17042 0.02156
#
# Static dielectric constant tensor:
#      x y z
#    x 2.667190 0.604820 0.670440 
#    y 0.604820 2.986480 0.680280 
#    z 0.670440 0.680280 2.793750 
# 
# From -- ./inp_files/484115.got.cif
#   From: 2010.05.17/outbox.cif.g08.bks.cpg/sg2_243_cif.got.tgz:484115.got - 2010.06.03 11:33:40.
