data_PCOD9035796
_publ_section_title
;
Structure prediction by ZEFSAII (Michael W. Deem and Ramdas Pophale) SiO2 
 PCOD9035796
Probable space group: P -1
;
_chemical_formula_sum "Si O2"
_cell_formula_units_Z 14
_cell_length_a 6.431749
_cell_length_b 14.815857
_cell_length_c 7.277288
_cell_angle_alpha 72.894418
_cell_angle_beta 65.879161
_cell_angle_gamma 58.257332
_cell_volume 535.440037
_symmetry_space_group_name_H-M "P -1"
_symmetry_group_IT_number 2
_symmetry_cell_setting 'triclinic'
loop_
_space_group_symop_operation_xyz
x,y,z
-x,-y,-z
loop_
_atom_site_type_symbol
_atom_site_label
_atom_site_fract_x
_atom_site_fract_y
_atom_site_fract_z
Si Si1 0.626273 0.625593 0.890727
Si Si2 0.947481 0.713582 0.184221
Si Si3 0.824576 0.142656 0.932027
Si Si4 0.032129 0.276576 0.262583
Si Si5 0.453046 0.909808 0.663112
Si Si6 0.560706 0.481292 0.704264
Si Si7 0.378666 0.787814 0.420353
O O1 0.562730 0.578346 0.760423
O O2 0.676637 0.714910 0.310003
O O3 0.203213 0.730833 0.553564
O O4 0.640387 0.548184 0.098072
O O5 0.943233 0.826171 0.171015
O O6 0.166229 0.619147 0.278584
O O7 0.878630 0.638068 0.753312
O O8 0.001480 0.705388 0.953104
O O9 0.743645 0.137280 0.756796
O O10 0.779904 0.060896 0.127152
O O11 0.595676 0.257786 0.031019
O O12 0.281029 0.164619 0.284097
O O13 0.386509 0.849902 0.560544
O O14 0.500000 0.000000 0.500000
O O15 0.500000 0.500000 0.500000
#
# Coordination Sequence:
#
# PCOD9035796 Si02
#       7
#     2   2   2   2   2   2   2
#     4   9  21  46  74 106 149 191 244 310 359 430
#     4  11  23  47  77 106 147 197 250 296 365 446
#     4  10  22  46  72 108 145 193 249 297 364 445
#     4  11  24  48  76 107 152 196 241 302 370 438
#     4  11  25  47  78 114 148 190 243 305 366 435
#     4  10  23  47  78 110 146 193 251 310 365 422
#     4  12  24  47  77 107 145 203 240 295 374 435
#
# _framework density 26.146719999999998
#
# number of rings (size 3 to 8) (size 9 to 14) (size 15 to 20)
#    0.000    1.429    4.286    0.857    0.000    6.286 
#   15.429    2.857    0.000    2.571    0.000    0.000 
#    0.000    0.000    0.000    0.000    0.000    0.000 
#
# Total GULP energy -78451.871280 kJ/mol
# GULP energy per Si atom -5603.705091 kJ/mol
# Density = 2.608721 g / cm^3
# Si number density = 26.146720 Si / 1000 Ang^3
#
#
#
# Elastic Constant Matrix: (Units=GPa)
#
#
# Indices 1 2 3 4 5 6 
#
# 1 168.2472 29.1075 83.2346 -13.2335 -36.9514 -9.3727
# 2 29.1075 13.9718 22.0370 -14.7286 -11.9315 -4.9618
# 3 83.2346 22.0370 230.1163 -23.4570 7.3795 -13.2316
# 4 -13.2335 -14.7286 -23.4570 36.2202 -0.4815 1.0068
# 5 -36.9514 -11.9315 7.3795 -0.4815 66.9490 3.7072
# 6 -9.3727 -4.9618 -13.2316 1.0068 3.7072 31.0731
#
#
#
# Elastic Compliance Matrix: (Units=1/GPa)
#
#
# Indices 1 2 3 4 5 6 
#
# 1 0.011920 -0.030441 -0.002550 -0.009593 0.001489 -0.002218
# 2 -0.030441 0.295561 -0.006166 0.104776 0.035771 0.027726
# 3 -0.002550 -0.006166 0.006074 0.000418 -0.003239 0.001206
# 4 -0.009593 0.104776 0.000418 0.066872 0.013245 0.010269
# 5 0.001489 0.035771 -0.003239 0.013245 0.022493 0.001669
# 6 -0.002218 0.027726 0.001206 0.010269 0.001669 0.035922
#
#
# Mechanical properties :
#
#
# Convention : Reuss Voigt Hill
#
# Bulk Modulus (GPa) = 4.25094 75.67704 39.96399
# Shear Modulus (GPa) = 8.39532 45.37890 26.88711
#
# Velocity S-wave (km/s) = 1.79383 4.17051 3.21022
# Velocity P-wave (km/s) = 2.43306 7.22474 5.39058
#
# Compressibility (1/GPa) = 0.23524225
#
# Stress axis : x y z
#
# Youngs Moduli (GPa) = 83.89058 3.38340 164.63086
#
# Poissons Ratio (x) = 0.10299 0.41975
# Poissons Ratio (y) = 2.55370 1.01513
# Poissons Ratio (z) = 0.21389 0.02086
#
# Static dielectric constant tensor:
#      x y z
#    x 2.042540 -0.038290 -0.051370 
#    y -0.038290 2.234620 0.010120 
#    z -0.051370 0.010120 2.032280 
# 
# From -- ./inp_files/50165.got.cif
#   From: 2010.05.17/outbox.cif.g08.bks.cpg/sg2_26_cif.got.tgz:50165.got - 2010.06.03 11:33:40.
