data_PCOD9035044
_publ_section_title
;
Structure prediction by ZEFSAII (Michael W. Deem and Ramdas Pophale) SiO2 
 PCOD9035044
Probable space group: P -1
;
_chemical_formula_sum "Si O2"
_cell_formula_units_Z 14
_cell_length_a 6.434335
_cell_length_b 11.597777
_cell_length_c 19.326622
_cell_angle_alpha 154.331983
_cell_angle_beta 69.553448
_cell_angle_gamma 118.209815
_cell_volume 539.274099
_symmetry_space_group_name_H-M "P -1"
_symmetry_group_IT_number 2
_symmetry_cell_setting 'triclinic'
loop_
_space_group_symop_operation_xyz
x,y,z
-x,-y,-z
loop_
_atom_site_type_symbol
_atom_site_label
_atom_site_fract_x
_atom_site_fract_y
_atom_site_fract_z
Si Si1 0.222451 0.321514 0.956345
Si Si2 0.676343 0.014201 0.422162
Si Si3 0.646836 0.872942 0.017616
Si Si4 0.069632 0.456099 0.248832
Si Si5 0.522711 0.774493 0.559291
Si Si6 0.291784 0.103986 0.242223
Si Si7 0.028205 0.757599 0.275099
O O1 0.115850 0.569265 0.111750
O O2 0.500000 0.500000 0.000000
O O3 0.251819 0.184601 0.952027
O O4 0.996407 0.062970 0.806471
O O5 0.876115 0.335152 0.579989
O O6 0.581514 0.023374 0.361629
O O7 0.500000 0.000000 0.500000
O O8 0.777849 0.768778 0.288225
O O9 0.395863 0.910383 0.078404
O O10 0.708018 0.647906 0.841010
O O11 0.827404 0.181182 0.136061
O O12 0.043972 0.629773 0.278604
O O13 0.374566 0.433072 0.382638
O O14 0.568256 0.845376 0.673272
O O15 0.787273 0.907880 0.566982
#
# Coordination Sequence:
#
# PCOD9035044 Si02
#       7
#     2   2   2   2   2   2   2
#     4  11  26  49  77 110 147 197 259 317 379 447
#     4  12  25  42  73 107 151 196 249 304 359 452
#     4  10  23  44  73 108 151 198 247 309 382 449
#     4  10  22  45  70 110 156 196 251 306 373 453
#     4  11  26  47  73 114 149 204 250 304 383 453
#     4  11  26  48  77 106 158 199 248 317 380 451
#     4  11  25  44  72 109 151 199 249 312 374 441
#
# _framework density 25.960823999999999
#
# number of rings (size 3 to 8) (size 9 to 14) (size 15 to 20)
#    0.000    1.143    1.429    3.000    4.000    4.571 
#    0.000   10.714    0.000    0.000    0.000    0.000 
#    0.000    0.000    0.000    0.000    0.000    0.000 
#
# Total GULP energy -78313.105356 kJ/mol
# GULP energy per Si atom -5593.793240 kJ/mol
# Density = 2.590174 g / cm^3
# Si number density = 25.960824 Si / 1000 Ang^3
#
#
#
# Elastic Constant Matrix: (Units=GPa)
#
#
# Indices 1 2 3 4 5 6 
#
# 1 128.0621 53.7084 56.6573 12.2282 -18.2646 30.7200
# 2 53.7084 120.1584 43.3173 31.6422 -9.6497 6.2909
# 3 56.6573 43.3173 129.4651 24.8469 -4.1065 14.8579
# 4 12.2282 31.6422 24.8469 32.9605 5.5096 -2.6448
# 5 -18.2646 -9.6497 -4.1065 5.5096 40.8975 -4.3728
# 6 30.7200 6.2909 14.8579 -2.6448 -4.3728 52.4218
#
#
#
# Elastic Compliance Matrix: (Units=1/GPa)
#
#
# Indices 1 2 3 4 5 6 
#
# 1 0.012986 -0.004083 -0.003696 0.000803 0.003745 -0.005719
# 2 -0.004083 0.013593 -0.000506 -0.011602 0.002956 0.000566
# 3 -0.003696 -0.000506 0.010887 -0.006457 0.000067 -0.001180
# 4 0.000803 -0.011602 -0.006457 0.047907 -0.009009 0.004417
# 5 0.003745 0.002956 0.000067 -0.009009 0.027968 -0.000690
# 6 -0.005719 0.000566 -0.001180 0.004417 -0.000690 0.022859
#
#
# Mechanical properties :
#
#
# Convention : Reuss Voigt Hill
#
# Bulk Modulus (GPa) = 47.85512 76.11684 61.98598
# Shear Modulus (GPa) = 31.30197 40.18947 35.74572
#
# Velocity S-wave (km/s) = 3.47614 3.93883 3.71470
# Velocity P-wave (km/s) = 5.88090 7.07598 6.50594
#
# Compressibility (1/GPa) = 0.02089641
#
# Stress axis : x y z
#
# Youngs Moduli (GPa) = 77.00772 73.56857 91.85079
#
# Poissons Ratio (x) = 0.30041 0.33945
# Poissons Ratio (y) = 0.31446 0.04643
# Poissons Ratio (z) = 0.28459 0.03719
#
# Static dielectric constant tensor:
#      x y z
#    x 2.295640 -0.064410 0.072910 
#    y -0.064410 2.145030 -0.079000 
#    z 0.072910 -0.079000 2.106450 
# 
# From -- ./inp_files/583356.got.cif
#   From: 2010.05.17/outbox.cif.g08.bks.cpg/sg2_292_cif.got.tgz:583356.got - 2010.06.03 11:33:40.
