data_PCOD9035837
_publ_section_title
;
Structure prediction by ZEFSAII (Michael W. Deem and Ramdas Pophale) SiO2 
 PCOD9035837
Probable space group: P -1
;
_chemical_formula_sum "Si O2"
_cell_formula_units_Z 16
_cell_length_a 5.539563
_cell_length_b 27.007749
_cell_length_c 5.556311
_cell_angle_alpha 127.426809
_cell_angle_beta 100.236637
_cell_angle_gamma 88.254302
_cell_volume 646.435410
_symmetry_space_group_name_H-M "P -1"
_symmetry_group_IT_number 2
_symmetry_cell_setting 'triclinic'
loop_
_space_group_symop_operation_xyz
x,y,z
-x,-y,-z
loop_
_atom_site_type_symbol
_atom_site_label
_atom_site_fract_x
_atom_site_fract_y
_atom_site_fract_z
Si Si1 0.279223 0.253622 0.143214
Si Si2 0.845088 0.489467 0.186834
Si Si3 0.330682 0.970178 0.582954
Si Si4 0.204066 0.634699 0.964184
Si Si5 0.808635 0.941119 0.867557
Si Si6 0.355452 0.386133 0.387969
Si Si7 0.901102 0.150756 0.626240
Si Si8 0.462795 0.769302 0.397167
O O1 0.411859 0.242991 0.876847
O O2 0.011318 0.216619 0.952214
O O3 0.314659 0.328837 0.400779
O O4 0.374178 0.223893 0.314680
O O5 0.656816 0.542598 0.319422
O O6 0.000000 0.500000 0.500000
O O7 0.749408 0.416303 0.974508
O O8 0.000000 0.500000 0.000000
O O9 0.538974 0.949084 0.743520
O O10 0.167767 0.903673 0.352029
O O11 0.500000 0.000000 0.500000
O O12 0.200916 0.034137 0.793630
O O13 0.279920 0.707218 0.241968
O O14 0.394979 0.618791 0.736655
O O15 0.909033 0.627381 0.841170
O O16 0.908505 0.879142 0.606361
O O17 0.000000 0.000000 0.000000
O O18 0.677623 0.169950 0.484193
#
# Coordination Sequence:
#
# PCOD9035837 Si02
#       8
#     2   2   2   2   2   2   2   2
#     4  11  26  49  72 107 150 203 249 317 382 455
#     4  10  23  42  72 109 150 202 261 324 394 459
#     4  10  22  46  73 106 140 180 240 301 374 441
#     4  10  22  46  75 109 154 205 261 326 392 460
#     4   9  21  44  69 100 139 178 231 294 366 440
#     4  10  22  46  75 109 154 201 266 323 394 462
#     4  11  23  49  71 109 145 194 247 301 379 457
#     4  11  26  49  72 109 150 199 256 314 376 460
#
# _framework density 24.751121999999999
#
# number of rings (size 3 to 8) (size 9 to 14) (size 15 to 20)
#    0.000    1.750    1.250    1.125    0.000   11.000 
#   29.250    5.625    0.000    0.000    0.000    0.000 
#    0.000    0.000    0.000    0.000    0.000    0.000 
#
# Total GULP energy -89141.323649 kJ/mol
# GULP energy per Si atom -5571.332728 kJ/mol
# Density = 2.469479 g / cm^3
# Si number density = 24.751122 Si / 1000 Ang^3
#
#
#
# Elastic Constant Matrix: (Units=GPa)
#
#
# Indices 1 2 3 4 5 6 
#
# 1 54.8757 35.1985 9.0119 -2.9836 -3.1832 -0.5981
# 2 35.1985 184.3417 47.7177 12.9484 1.6399 -9.7628
# 3 9.0119 47.7177 53.0665 0.5684 6.3044 11.3326
# 4 -2.9836 12.9484 0.5684 47.0052 2.3630 5.3515
# 5 -3.1832 1.6399 6.3044 2.3630 42.5495 -2.4018
# 6 -0.5981 -9.7628 11.3326 5.3515 -2.4018 51.7435
#
#
#
# Elastic Compliance Matrix: (Units=1/GPa)
#
#
# Indices 1 2 3 4 5 6 
#
# 1 0.021189 -0.004359 0.000292 0.002561 0.001521 -0.000836
# 2 -0.004359 0.008721 -0.007964 -0.003048 0.000896 0.003696
# 3 0.000292 -0.007964 0.028207 0.003030 -0.004482 -0.008199
# 4 0.002561 -0.003048 0.003030 0.022735 -0.001608 -0.003635
# 5 0.001521 0.000896 -0.004482 -0.001608 0.024474 0.002470
# 6 -0.000836 0.003696 -0.008199 -0.003635 0.002470 0.022300
#
#
# Mechanical properties :
#
#
# Convention : Reuss Voigt Hill
#
# Bulk Modulus (GPa) = 29.36547 52.90444 41.13496
# Shear Modulus (GPa) = 30.66715 41.61671 36.14193
#
# Velocity S-wave (km/s) = 3.52379 4.10494 3.82542
# Velocity P-wave (km/s) = 5.33350 6.62483 6.01392
#
# Compressibility (1/GPa) = 0.03405360
#
# Stress axis : x y z
#
# Youngs Moduli (GPa) = 47.19319 114.67104 35.45188
#
# Poissons Ratio (x) = 0.49987 -0.01034
# Poissons Ratio (y) = 0.20572 0.28235
# Poissons Ratio (z) = -0.01377 0.91329
#
# Static dielectric constant tensor:
#      x y z
#    x 1.993220 -0.012690 0.051090 
#    y -0.012690 1.952720 0.017730 
#    z 0.051090 0.017730 2.110500 
# 
# From -- ./inp_files/13739.got.cif
#   From: 2010.05.17/outbox.cif.g08.bks.cpg/sg2_7_cif.got.tgz:13739.got - 2010.06.03 11:33:40.
