data_PCOD9035035
_publ_section_title
;
Structure prediction by ZEFSAII (Michael W. Deem and Ramdas Pophale) SiO2 
 PCOD9035035
Probable space group: P -1
;
_chemical_formula_sum "Si O2"
_cell_formula_units_Z 16
_cell_length_a 14.099725
_cell_length_b 5.659183
_cell_length_c 18.034964
_cell_angle_alpha 50.628644
_cell_angle_beta 33.332769
_cell_angle_gamma 52.702301
_cell_volume 601.447854
_symmetry_space_group_name_H-M "P -1"
_symmetry_group_IT_number 2
_symmetry_cell_setting 'triclinic'
loop_
_space_group_symop_operation_xyz
x,y,z
-x,-y,-z
loop_
_atom_site_type_symbol
_atom_site_label
_atom_site_fract_x
_atom_site_fract_y
_atom_site_fract_z
Si Si1 0.272765 0.435813 0.191632
Si Si2 0.048703 0.761468 0.745389
Si Si3 0.382913 0.706793 0.225604
Si Si4 0.998177 0.140469 0.085400
Si Si5 0.396421 0.339435 0.660450
Si Si6 0.908284 0.601376 0.462495
Si Si7 0.411689 0.823944 0.659281
Si Si8 0.257966 0.582173 0.013518
O O1 0.320265 0.609927 0.202169
O O2 0.329507 0.593833 0.047934
O O3 0.059950 0.463356 0.333121
O O4 0.345426 0.068165 0.202340
O O5 0.957405 0.926404 0.844841
O O6 0.199727 0.497602 0.733108
O O7 0.896661 0.616758 0.836821
O O8 0.123746 0.025334 0.599581
O O9 0.268416 0.539821 0.391352
O O10 0.591191 0.582589 0.106591
O O11 0.800182 0.084041 0.221172
O O12 0.149526 0.910602 0.989519
O O13 0.000000 0.500000 0.000000
O O14 0.500000 0.500000 0.500000
O O15 0.439716 0.466491 0.686685
O O16 0.453846 0.979687 0.677138
O O17 0.000000 0.500000 0.500000
O O18 0.500000 0.000000 0.500000
#
# Coordination Sequence:
#
# PCOD9035035 Si02
#       8
#     2   2   2   2   2   2   2   2
#     4  11  23  45  75 102 145 192 234 290 362 432
#     4  11  23  44  70  98 139 188 240 283 361 426
#     4  11  26  43  71 113 145 182 236 299 357 430
#     4  11  25  45  67  99 141 189 240 297 355 417
#     4   9  18  36  62  91 123 166 225 275 328 392
#     4  10  22  45  70 105 141 182 231 294 354 430
#     4   9  18  39  63  92 119 167 223 278 335 399
#     4  12  24  43  72 105 142 189 239 294 361 434
#
# _framework density 26.602471999999999
#
# number of rings (size 3 to 8) (size 9 to 14) (size 15 to 20)
#    0.000    1.500    2.500    2.625    1.750    1.500 
#    6.750    2.500    0.000    0.000    0.000    0.000 
#    0.000    0.000    0.000    0.000    0.000    0.000 
#
# Total GULP energy -89374.439860 kJ/mol
# GULP energy per Si atom -5585.902491 kJ/mol
# Density = 2.654192 g / cm^3
# Si number density = 26.602472 Si / 1000 Ang^3
#
#
#
# Elastic Constant Matrix: (Units=GPa)
#
#
# Indices 1 2 3 4 5 6 
#
# 1 98.8419 52.4243 25.0926 2.1611 -12.6440 22.8323
# 2 52.4243 218.4397 55.9249 3.0304 -13.0409 17.2935
# 3 25.0926 55.9249 141.0676 8.7429 -11.2649 -8.1592
# 4 2.1611 3.0304 8.7429 60.4431 -4.1229 -2.1593
# 5 -12.6440 -13.0409 -11.2649 -4.1229 42.2178 10.0101
# 6 22.8323 17.2935 -8.1592 -2.1593 10.0101 55.2917
#
#
#
# Elastic Compliance Matrix: (Units=1/GPa)
#
#
# Indices 1 2 3 4 5 6 
#
# 1 0.013586 -0.002123 -0.001565 -0.000066 0.004407 -0.005978
# 2 -0.002123 0.005740 -0.001905 0.000080 0.000962 -0.001371
# 3 -0.001565 -0.001905 0.008358 -0.000938 0.000526 0.002344
# 4 -0.000066 0.000080 -0.000938 0.016779 0.001327 0.000279
# 5 0.004407 0.000962 0.000526 0.001327 0.027214 -0.006918
# 6 -0.005978 -0.001371 0.002344 0.000279 -0.006918 0.022592
#
#
# Mechanical properties :
#
#
# Convention : Reuss Voigt Hill
#
# Bulk Modulus (GPa) = 60.61214 80.58140 70.59677
# Shear Modulus (GPa) = 45.06316 53.25100 49.15708
#
# Velocity S-wave (km/s) = 4.12022 4.47892 4.30331
# Velocity P-wave (km/s) = 6.74306 7.55674 7.16147
#
# Compressibility (1/GPa) = 0.01649835
#
# Stress axis : x y z
#
# Youngs Moduli (GPa) = 73.60345 174.21473 119.64258
#
# Poissons Ratio (x) = 0.36981 0.18723
# Poissons Ratio (y) = 0.15624 0.22798
# Poissons Ratio (z) = 0.11518 0.33196
#
# Static dielectric constant tensor:
#      x y z
#    x 2.132450 0.030500 -0.019480 
#    y 0.030500 2.117760 -0.021760 
#    z -0.019480 -0.021760 2.114970 
# 
# From -- ./inp_files/95331.got.cif
#   From: 2010.05.17/outbox.cif.g08.bks.cpg/sg2_48_cif.got.tgz:95331.got - 2010.06.03 11:33:40.
