data_PCOD9035607
_publ_section_title
;
Structure prediction by ZEFSAII (Michael W. Deem and Ramdas Pophale) SiO2 
 PCOD9035607
Probable space group: P -1
;
_chemical_formula_sum "Si O2"
_cell_formula_units_Z 12
_cell_length_a 21.532902
_cell_length_b 17.639869
_cell_length_c 5.632057
_cell_angle_alpha 46.018049
_cell_angle_beta 137.094123
_cell_angle_gamma 160.811467
_cell_volume 478.653876
_symmetry_space_group_name_H-M "P -1"
_symmetry_group_IT_number 2
_symmetry_cell_setting 'triclinic'
loop_
_space_group_symop_operation_xyz
x,y,z
-x,-y,-z
loop_
_atom_site_type_symbol
_atom_site_label
_atom_site_fract_x
_atom_site_fract_y
_atom_site_fract_z
Si Si1 0.039708 0.861430 0.334941
Si Si2 0.486148 0.819025 0.770163
Si Si3 0.933903 0.537760 0.862157
Si Si4 0.335275 0.802746 0.775482
Si Si5 0.874763 0.767298 0.587778
Si Si6 0.462709 0.359843 0.540577
O O1 0.082818 0.783965 0.680055
O O2 0.929753 0.787463 0.430905
O O3 0.244593 0.136666 0.300557
O O4 0.933843 0.757872 0.007046
O O5 0.280227 0.635571 0.453752
O O6 0.425925 0.795742 0.912352
O O7 0.655479 0.078723 0.604477
O O8 0.530058 0.740455 0.063016
O O9 0.873148 0.446876 0.156322
O O10 0.000000 0.500000 0.000000
O O11 0.500000 0.000000 0.000000
O O12 0.638140 0.536393 0.455219
O O13 0.000000 0.000000 0.500000
O O14 0.500000 0.500000 0.500000
#
# Coordination Sequence:
#
# PCOD9035607 Si02
#       6
#     2   2   2   2   2   2
#     4  12  29  50  81 115 157 208 258 326 397 463
#     4  10  22  46  69 104 152 194 255 318 382 457
#     4  11  25  44  70 110 150 198 250 319 392 462
#     4   9  21  41  71 100 140 194 244 313 381 449
#     4  12  27  54  78 112 160 204 266 328 380 464
#     4  12  27  49  79 114 155 212 264 322 393 468
#
# _framework density 25.070307
#
# number of rings (size 3 to 8) (size 9 to 14) (size 15 to 20)
#    0.000    1.000    3.333    1.500    7.000    4.000 
#    3.000    0.000    0.000    0.000    0.000    0.000 
#    0.000    0.000    0.000    0.000    0.000    0.000 
#
# Total GULP energy -67106.847963 kJ/mol
# GULP energy per Si atom -5592.237330 kJ/mol
# Density = 2.501325 g / cm^3
# Si number density = 25.070307 Si / 1000 Ang^3
#
#
#
# Elastic Constant Matrix: (Units=GPa)
#
#
# Indices 1 2 3 4 5 6 
#
# 1 111.4766 34.5632 53.9546 -17.4971 9.8196 -3.4324
# 2 34.5632 128.7609 16.7158 -22.1364 -9.3993 8.5437
# 3 53.9546 16.7158 93.7924 -10.5978 14.6870 4.8904
# 4 -17.4971 -22.1364 -10.5978 55.5401 -14.8245 -0.4085
# 5 9.8196 -9.3993 14.6870 -14.8245 39.9272 -16.7736
# 6 -3.4324 8.5437 4.8904 -0.4085 -16.7736 48.6969
#
#
#
# Elastic Compliance Matrix: (Units=1/GPa)
#
#
# Indices 1 2 3 4 5 6 
#
# 1 0.013663 -0.002469 -0.007390 0.002068 0.000526 0.002337
# 2 -0.002469 0.009545 -0.000504 0.004124 0.004478 -0.000221
# 3 -0.007390 -0.000504 0.016104 -0.001218 -0.006480 -0.004292
# 4 0.002068 0.004124 -0.001218 0.023009 0.010924 0.003500
# 5 0.000526 0.004478 -0.006480 0.010924 0.037890 0.013045
# 6 0.002337 -0.000221 -0.004292 0.003500 0.013045 0.025692
#
#
# Mechanical properties :
#
#
# Convention : Reuss Voigt Hill
#
# Bulk Modulus (GPa) = 53.80941 60.49968 57.15455
# Shear Modulus (GPa) = 32.71674 44.08594 38.40134
#
# Velocity S-wave (km/s) = 3.61640 4.19799 3.91800
# Velocity P-wave (km/s) = 6.24081 6.90521 6.58140
#
# Compressibility (1/GPa) = 0.01858411
#
# Stress axis : x y z
#
# Youngs Moduli (GPa) = 73.18938 104.76473 62.09626
#
# Poissons Ratio (x) = 0.25870 0.45892
# Poissons Ratio (y) = 0.18073 0.03132
# Poissons Ratio (z) = 0.54090 0.05284
#
# Static dielectric constant tensor:
#      x y z
#    x 1.978410 -0.051760 -0.166540 
#    y -0.051760 2.124450 0.163800 
#    z -0.166540 0.163800 2.437980 
# 
# From -- ./inp_files/119845.got.cif
#   From: 2010.05.17/outbox.cif.g08.bks.cpg/sg2_60_cif.got.tgz:119845.got - 2010.06.03 11:33:40.
