data_PCOD9035460
_publ_section_title
;
Structure prediction by ZEFSAII (Michael W. Deem and Ramdas Pophale) SiO2 
 PCOD9035460
Probable space group: P -1
;
_chemical_formula_sum "Si O2"
_cell_formula_units_Z 16
_cell_length_a 10.069639
_cell_length_b 11.154927
_cell_length_c 24.100568
_cell_angle_alpha 42.771212
_cell_angle_beta 153.081095
_cell_angle_gamma 123.677420
_cell_volume 786.992823
_symmetry_space_group_name_H-M "P -1"
_symmetry_group_IT_number 2
_symmetry_cell_setting 'triclinic'
loop_
_space_group_symop_operation_xyz
x,y,z
-x,-y,-z
loop_
_atom_site_type_symbol
_atom_site_label
_atom_site_fract_x
_atom_site_fract_y
_atom_site_fract_z
Si Si1 0.322600 0.476536 0.857771
Si Si2 0.731858 0.146589 0.929368
Si Si3 0.241758 0.446065 0.455771
Si Si4 0.543445 0.215629 0.129677
Si Si5 0.843790 0.004707 0.636598
Si Si6 0.279549 0.867931 0.949573
Si Si7 0.321404 0.870289 0.202838
Si Si8 0.982346 0.665621 0.395110
O O1 0.443651 0.644795 0.863580
O O2 0.001289 0.565833 0.676553
O O3 0.327496 0.354076 0.956369
O O4 0.525698 0.319954 0.944928
O O5 0.733120 0.231673 0.839333
O O6 0.364993 0.186421 0.784317
O O7 0.817197 0.195570 0.005510
O O8 0.994410 0.946448 0.086647
O O9 0.500000 0.500000 0.500000
O O10 0.414765 0.258406 0.616999
O O11 0.078472 0.591168 0.394428
O O12 0.885523 0.125466 0.258917
O O13 0.425715 0.047013 0.162740
O O14 0.990545 0.960747 0.768794
O O15 0.500000 0.000000 0.500000
O O16 0.810941 0.220104 0.542383
O O17 0.500000 0.000000 0.000000
O O18 0.000000 0.500000 0.500000
#
# Coordination Sequence:
#
# PCOD9035460 Si02
#       8
#     2   2   2   2   2   2   2   2
#     4  10  23  40  68  93 128 175 227 280 339 407
#     4  11  22  40  68  95 128 176 240 274 341 413
#     4  12  27  39  67 109 136 167 240 298 337 402
#     4  10  22  46  64  90 140 183 220 274 357 428
#     4  11  24  40  68 102 136 180 224 284 359 416
#     4  11  20  41  70  93 130 179 231 282 335 410
#     4  11  25  41  66 102 133 185 221 292 356 404
#     4  12  23  45  69 100 136 183 230 292 345 417
#
# _framework density 20.330555
#
# number of rings (size 3 to 8) (size 9 to 14) (size 15 to 20)
#    0.000    1.000    5.000    0.750    8.750    0.500 
#    4.500    1.875    0.000    0.000    0.000    0.000 
#    0.000    0.000    0.000    0.000    0.000    0.000 
#
# Total GULP energy -89127.223147 kJ/mol
# GULP energy per Si atom -5570.451447 kJ/mol
# Density = 2.028428 g / cm^3
# Si number density = 20.330555 Si / 1000 Ang^3
#
#
#
# Elastic Constant Matrix: (Units=GPa)
#
#
# Indices 1 2 3 4 5 6 
#
# 1 110.3038 48.5646 47.6918 10.7043 -6.0462 -19.9097
# 2 48.5646 112.5013 56.8312 0.8512 -6.3090 -6.7913
# 3 47.6918 56.8312 162.8763 7.4301 -9.4601 0.8254
# 4 10.7043 0.8512 7.4301 22.8607 1.4762 -6.7621
# 5 -6.0462 -6.3090 -9.4601 1.4762 38.3153 1.0389
# 6 -19.9097 -6.7913 0.8254 -6.7621 1.0389 31.4210
#
#
#
# Elastic Compliance Matrix: (Units=1/GPa)
#
#
# Indices 1 2 3 4 5 6 
#
# 1 0.013554 -0.004173 -0.002345 -0.003415 0.000815 0.006986
# 2 -0.004173 0.012346 -0.003185 0.002699 0.000466 0.000673
# 3 -0.002345 -0.003185 0.008136 -0.002381 0.001286 -0.002943
# 4 -0.003415 0.002699 -0.002381 0.048888 -0.002813 0.009096
# 5 0.000815 0.000466 0.001286 -0.002813 0.026755 -0.000907
# 6 0.006986 0.000673 -0.002943 0.009096 -0.000907 0.038463
#
#
# Mechanical properties :
#
#
# Convention : Reuss Voigt Hill
#
# Bulk Modulus (GPa) = 68.35744 76.87297 72.61520
# Shear Modulus (GPa) = 28.99817 34.02565 31.51191
#
# Velocity S-wave (km/s) = 3.78078 4.09543 3.94125
# Velocity P-wave (km/s) = 7.26327 7.76254 7.51705
#
# Compressibility (1/GPa) = 0.01462899
#
# Stress axis : x y z
#
# Youngs Moduli (GPa) = 73.77762 81.00014 122.91264
#
# Poissons Ratio (x) = 0.33803 0.28822
# Poissons Ratio (y) = 0.30789 0.39150
# Poissons Ratio (z) = 0.17301 0.25800
#
# Static dielectric constant tensor:
#      x y z
#    x 1.803040 0.033470 -0.014000 
#    y 0.033470 1.791020 0.001270 
#    z -0.014000 0.001270 1.761690 
# 
# From -- ./inp_files/589546.got.cif
#   From: 2010.05.17/outbox.cif.g08.bks.cpg/sg2_295_cif.got.tgz:589546.got - 2010.06.03 11:33:40.
