data_PCOD9035996
_publ_section_title
;
Structure prediction by ZEFSAII (Michael W. Deem and Ramdas Pophale) SiO2 
 PCOD9035996
Probable space group: P -1
;
_chemical_formula_sum "Si O2"
_cell_formula_units_Z 12
_cell_length_a 9.402851
_cell_length_b 9.160815
_cell_length_c 8.930463
_cell_angle_alpha 47.841417
_cell_angle_beta 109.172123
_cell_angle_gamma 126.305243
_cell_volume 456.464632
_symmetry_space_group_name_H-M "P -1"
_symmetry_group_IT_number 2
_symmetry_cell_setting 'triclinic'
loop_
_space_group_symop_operation_xyz
x,y,z
-x,-y,-z
loop_
_atom_site_type_symbol
_atom_site_label
_atom_site_fract_x
_atom_site_fract_y
_atom_site_fract_z
Si Si1 0.222923 0.388596 0.682639
Si Si2 0.219015 0.826788 0.903952
Si Si3 0.650988 0.838467 0.876933
Si Si4 0.334246 0.762886 0.681819
Si Si5 0.389904 0.762144 0.258472
Si Si6 0.042058 0.028699 0.318187
O O1 0.203917 0.567466 0.656787
O O2 0.371024 0.565981 0.496071
O O3 0.063407 0.211117 0.645805
O O4 0.277550 0.253580 0.906195
O O5 0.403147 0.075356 0.823591
O O6 0.043219 0.827319 0.874262
O O7 0.227256 0.796625 0.750586
O O8 0.259099 0.669663 0.133625
O O9 0.445347 0.677449 0.873013
O O10 0.663244 0.071132 0.787524
O O11 0.760706 0.871464 0.740741
O O12 0.500000 0.000000 0.500000
O O13 0.000000 0.000000 0.500000
#
# Coordination Sequence:
#
# PCOD9035996 Si02
#       6
#     2   2   2   2   2   2
#     4  12  25  45  79  98 138 202 232 277 372 417
#     4  10  22  47  68 103 148 172 234 310 328 405
#     4  11  24  49  69 106 148 181 235 297 349 425
#     4  11  22  47  73 103 141 187 240 287 342 429
#     4  10  23  45  75 101 138 187 239 289 341 419
#     4  12  28  46  70 109 149 180 237 301 349 421
#
# _framework density 26.289005
#
# number of rings (size 3 to 8) (size 9 to 14) (size 15 to 20)
#    0.000    1.000    5.000    2.000    0.000    2.667 
#    0.000    1.667    0.000    0.000    0.000    0.000 
#    0.000    0.000    0.000    0.000    0.000    0.000 
#
# Total GULP energy -67120.800329 kJ/mol
# GULP energy per Si atom -5593.400027 kJ/mol
# Density = 2.622917 g / cm^3
# Si number density = 26.289005 Si / 1000 Ang^3
#
#
#
# Elastic Constant Matrix: (Units=GPa)
#
#
# Indices 1 2 3 4 5 6 
#
# 1 144.6839 18.7975 13.4232 8.2866 -1.3178 -25.9488
# 2 18.7975 140.3594 20.1741 28.5080 -6.7425 -18.2344
# 3 13.4232 20.1741 124.0810 20.4998 -3.7328 -9.7106
# 4 8.2866 28.5080 20.4998 37.5930 -2.0570 -5.5099
# 5 -1.3178 -6.7425 -3.7328 -2.0570 30.2605 11.9485
# 6 -25.9488 -18.2344 -9.7106 -5.5099 11.9485 34.1470
#
#
#
# Elastic Compliance Matrix: (Units=1/GPa)
#
#
# Indices 1 2 3 4 5 6 
#
# 1 0.008196 -0.000153 -0.000292 -0.000667 -0.002449 0.006813
# 2 -0.000153 0.008869 -0.000137 -0.006089 0.000137 0.003551
# 3 -0.000292 -0.000137 0.008977 -0.004502 0.000178 0.001469
# 4 -0.000667 -0.006089 -0.004502 0.033884 0.000224 0.000350
# 5 -0.002449 0.000137 0.000178 0.000224 0.039078 -0.015375
# 6 0.006813 0.003551 0.001469 0.000350 -0.015375 0.042213
#
#
# Mechanical properties :
#
#
# Convention : Reuss Voigt Hill
#
# Bulk Modulus (GPa) = 40.19564 57.10155 48.64860
# Shear Modulus (GPa) = 33.18385 44.18207 38.68296
#
# Velocity S-wave (km/s) = 3.55670 4.10400 3.84011
# Velocity P-wave (km/s) = 5.67362 6.65018 6.18121
#
# Compressibility (1/GPa) = 0.02487832
#
# Stress axis : x y z
#
# Youngs Moduli (GPa) = 122.00492 112.74669 111.39268
#
# Poissons Ratio (x) = 0.01722 0.03254
# Poissons Ratio (y) = 0.01864 0.01532
# Poissons Ratio (z) = 0.03564 0.01550
#
# Static dielectric constant tensor:
#      x y z
#    x 2.008360 -0.026170 0.009990 
#    y -0.026170 2.138660 -0.035220 
#    z 0.009990 -0.035220 2.207740 
# 
# From -- ./inp_files/156485.got.cif
#   From: 2010.05.17/outbox.cif.g08.bks.cpg/sg2_79_cif.got.tgz:156485.got - 2010.06.03 11:33:40.
