data_PCOD9035736
_publ_section_title
;
Structure prediction by ZEFSAII (Michael W. Deem and Ramdas Pophale) SiO2 
 PCOD9035736
Probable space group: P -1
;
_chemical_formula_sum "Si O2"
_cell_formula_units_Z 12
_cell_length_a 11.901579
_cell_length_b 5.201419
_cell_length_c 9.777528
_cell_angle_alpha 94.828112
_cell_angle_beta 48.474770
_cell_angle_gamma 81.590478
_cell_volume 434.666283
_symmetry_space_group_name_H-M "P -1"
_symmetry_group_IT_number 2
_symmetry_cell_setting 'triclinic'
loop_
_space_group_symop_operation_xyz
x,y,z
-x,-y,-z
loop_
_atom_site_type_symbol
_atom_site_label
_atom_site_fract_x
_atom_site_fract_y
_atom_site_fract_z
Si Si1 0.608879 0.198305 0.414352
Si Si2 0.284821 0.000664 0.398982
Si Si3 0.900446 0.769761 0.665727
Si Si4 0.087988 0.483640 0.727492
Si Si5 0.193457 0.668019 0.935616
Si Si6 0.410263 0.333988 0.972521
O O1 0.500000 0.500000 0.500000
O O2 0.500000 0.000000 0.500000
O O3 0.699152 0.174181 0.484647
O O4 0.733428 0.112748 0.185526
O O5 0.157143 0.984335 0.385042
O O6 0.268330 0.267653 0.161310
O O7 0.457086 0.922863 0.195659
O O8 0.777014 0.699305 0.482169
O O9 0.988665 0.746946 0.738635
O O10 0.000000 0.500000 0.500000
O O11 0.961905 0.312426 0.850773
O O12 0.156512 0.530085 0.819752
O O13 0.331662 0.504083 0.912602
O O14 0.500000 0.500000 0.000000
#
# Coordination Sequence:
#
# PCOD9035736 Si02
#       6
#     2   2   2   2   2   2
#     4  12  26  45  75 112 153 198 254 324 385 462
#     4  11  23  41  73 108 145 199 252 314 388 445
#     4   9  21  44  69 103 146 198 247 311 379 461
#     4   9  21  45  78 107 156 194 262 313 385 468
#     4  10  22  46  71 110 152 203 250 321 387 457
#     4  11  24  41  69 105 152 193 256 317 385 458
#
# _framework density 27.607386999999999
#
# number of rings (size 3 to 8) (size 9 to 14) (size 15 to 20)
#    0.000    1.667    1.667    1.500    2.333    3.333 
#    0.000   13.333    0.000    0.000    0.000    0.000 
#    0.000    0.000    0.000    0.000    0.000    0.000 
#
# Total GULP energy -67212.511201 kJ/mol
# GULP energy per Si atom -5601.042600 kJ/mol
# Density = 2.754455 g / cm^3
# Si number density = 27.607387 Si / 1000 Ang^3
#
#
#
# Elastic Constant Matrix: (Units=GPa)
#
#
# Indices 1 2 3 4 5 6 
#
# 1 215.2407 76.2243 59.5711 -5.1242 10.7445 -39.5143
# 2 76.2243 137.8570 40.1969 -23.8012 20.9737 -27.8150
# 3 59.5711 40.1969 150.0998 -7.6255 -12.8699 -20.3491
# 4 -5.1242 -23.8012 -7.6255 45.4412 -11.6290 9.8767
# 5 10.7445 20.9737 -12.8699 -11.6290 49.7948 -15.8472
# 6 -39.5143 -27.8150 -20.3491 9.8767 -15.8472 61.8490
#
#
#
# Elastic Compliance Matrix: (Units=1/GPa)
#
#
# Indices 1 2 3 4 5 6 
#
# 1 0.006552 -0.002904 -0.001569 -0.001648 -0.000158 0.002586
# 2 -0.002904 0.010691 -0.001634 0.004002 -0.003047 0.000996
# 3 -0.001569 -0.001634 0.008374 0.000992 0.004024 0.001891
# 4 -0.001648 0.004002 0.000992 0.025598 0.004295 -0.001914
# 5 -0.000158 -0.003047 0.004024 0.004295 0.025236 0.005633
# 6 0.002586 0.000996 0.001891 -0.001914 0.005633 0.020640
#
#
# Mechanical properties :
#
#
# Convention : Reuss Voigt Hill
#
# Bulk Modulus (GPa) = 74.60468 95.02023 84.81246
# Shear Modulus (GPa) = 43.94688 53.23069 48.58879
#
# Velocity S-wave (km/s) = 3.99413 4.39581 4.19978
# Velocity P-wave (km/s) = 6.95362 7.76256 7.36920
#
# Compressibility (1/GPa) = 0.01340399
#
# Stress axis : x y z
#
# Youngs Moduli (GPa) = 152.62160 93.53371 119.41224
#
# Poissons Ratio (x) = 0.27161 0.18740
# Poissons Ratio (y) = 0.44319 0.19508
# Poissons Ratio (z) = 0.23952 0.15280
#
# Static dielectric constant tensor:
#      x y z
#    x 2.202840 0.053530 0.016330 
#    y 0.053530 2.183690 -0.093290 
#    z 0.016330 -0.093290 2.226970 
# 
# From -- ./inp_files/286376.got.cif
#   From: 2010.05.17/outbox.cif.g08.bks.cpg/sg2_144_cif.got.tgz:286376.got - 2010.06.03 11:33:40.
