data_PCOD9035977
_publ_section_title
;
Structure prediction by ZEFSAII (Michael W. Deem and Ramdas Pophale) SiO2 
 PCOD9035977
Probable space group: P -1
;
_chemical_formula_sum "Si O2"
_cell_formula_units_Z 16
_cell_length_a 14.676353
_cell_length_b 18.261293
_cell_length_c 7.862745
_cell_angle_alpha 143.362254
_cell_angle_beta 141.506289
_cell_angle_gamma 30.090477
_cell_volume 602.342444
_symmetry_space_group_name_H-M "P -1"
_symmetry_group_IT_number 2
_symmetry_cell_setting 'triclinic'
loop_
_space_group_symop_operation_xyz
x,y,z
-x,-y,-z
loop_
_atom_site_type_symbol
_atom_site_label
_atom_site_fract_x
_atom_site_fract_y
_atom_site_fract_z
Si Si1 0.115307 0.074883 0.480351
Si Si2 0.655614 0.267478 0.969012
Si Si3 0.878275 0.411564 0.200996
Si Si4 0.544897 0.390183 0.675409
Si Si5 0.908874 0.660974 0.273238
Si Si6 0.383004 0.250468 0.723800
Si Si7 0.743860 0.901076 0.934210
Si Si8 0.188850 0.889063 0.695566
O O1 0.105643 0.201646 0.588817
O O2 0.903049 0.155050 0.386674
O O3 0.179002 0.911068 0.186221
O O4 0.264292 0.028941 0.765015
O O5 0.528906 0.335459 0.733615
O O6 0.560625 0.243234 0.938261
O O7 0.633406 0.424522 0.272356
O O8 0.780815 0.579000 0.284487
O O9 0.958672 0.391735 0.467489
O O10 0.054123 0.275664 0.089403
O O11 0.728247 0.381980 0.936149
O O12 0.623106 0.259489 0.402272
O O13 0.702133 0.737452 0.194689
O O14 0.000000 0.500000 0.000000
O O15 0.402763 0.119495 0.389764
O O16 0.772423 0.987640 0.990541
O O17 0.000000 0.000000 0.500000
#
# Coordination Sequence:
#
# PCOD9035977 Si02
#       8
#     2   2   2   2   2   2   2   2
#     4  11  20  35  57  89 114 148 191 229 289 333
#     4  10  21  34  57  87 117 154 181 234 285 344
#     4  10  18  36  60  84 110 144 197 244 273 326
#     4  10  18  36  60  87 111 147 197 234 279 328
#     4  11  23  36  58  86 116 151 188 237 291 334
#     4  10  22  36  56  84 115 153 188 232 285 339
#     4  10  17  33  57  83 115 139 192 239 272 326
#     4  10  17  32  60  85 110 143 192 245 267 323
#
# _framework density 26.56296
#
# number of rings (size 3 to 8) (size 9 to 14) (size 15 to 20)
#    0.000    1.750    5.000    3.000    1.750    1.000 
#    0.000    5.625    0.000    0.750    0.000    0.000 
#    0.000    0.000    0.000    0.000    0.000    0.000 
#
# Total GULP energy -89462.489962 kJ/mol
# GULP energy per Si atom -5591.405623 kJ/mol
# Density = 2.650250 g / cm^3
# Si number density = 26.562960 Si / 1000 Ang^3
#
#
#
# Elastic Constant Matrix: (Units=GPa)
#
#
# Indices 1 2 3 4 5 6 
#
# 1 131.7844 26.2951 13.9678 10.3931 14.7902 16.2599
# 2 26.2951 100.6014 29.5152 34.4949 -3.1147 21.3009
# 3 13.9678 29.5152 120.5683 18.6128 -5.3396 -2.7415
# 4 10.3931 34.4949 18.6128 47.6038 -5.2355 3.4613
# 5 14.7902 -3.1147 -5.3396 -5.2355 49.9078 8.7819
# 6 16.2599 21.3009 -2.7415 3.4613 8.7819 46.9019
#
#
#
# Elastic Compliance Matrix: (Units=1/GPa)
#
#
# Indices 1 2 3 4 5 6 
#
# 1 0.008505 -0.001499 -0.000667 -0.000646 -0.002436 -0.001803
# 2 -0.001499 0.015620 -0.002267 -0.009510 0.001278 -0.006244
# 3 -0.000667 -0.002267 0.009288 -0.001920 0.000523 0.001848
# 4 -0.000646 -0.009510 -0.001920 0.028880 0.002086 0.001909
# 5 -0.002436 0.001278 0.000523 0.002086 0.021807 -0.003942
# 6 -0.001803 -0.006244 0.001848 0.001909 -0.003942 0.025487
#
#
# Mechanical properties :
#
#
# Convention : Reuss Voigt Hill
#
# Bulk Modulus (GPa) = 40.74200 54.72337 47.73269
# Shear Modulus (GPa) = 39.48298 47.76108 43.62203
#
# Velocity S-wave (km/s) = 3.85956 4.24492 4.05682
# Velocity P-wave (km/s) = 5.93572 6.68371 6.32079
#
# Compressibility (1/GPa) = 0.02454469
#
# Stress axis : x y z
#
# Youngs Moduli (GPa) = 117.58029 64.02101 107.66634
#
# Poissons Ratio (x) = 0.09599 0.07185
# Poissons Ratio (y) = 0.17629 0.24411
# Poissons Ratio (z) = 0.07847 0.14516
#
# Static dielectric constant tensor:
#      x y z
#    x 2.110510 -0.005250 -0.040480 
#    y -0.005250 2.254130 -0.116310 
#    z -0.040480 -0.116310 2.156220 
# 
# From -- ./inp_files/317905.got.cif
#   From: 2010.05.17/outbox.cif.g08.bks.cpg/sg2_159_cif.got.tgz:317905.got - 2010.06.03 11:33:40.
