data_PCOD9035627
_publ_section_title
;
Structure prediction by ZEFSAII (Michael W. Deem and Ramdas Pophale) SiO2 
 PCOD9035627
Probable space group: P -1
;
_chemical_formula_sum "Si O2"
_cell_formula_units_Z 16
_cell_length_a 10.039509
_cell_length_b 5.263220
_cell_length_c 19.746574
_cell_angle_alpha 81.814046
_cell_angle_beta 134.886968
_cell_angle_gamma 84.228164
_cell_volume 701.010047
_symmetry_space_group_name_H-M "P -1"
_symmetry_group_IT_number 2
_symmetry_cell_setting 'triclinic'
loop_
_space_group_symop_operation_xyz
x,y,z
-x,-y,-z
loop_
_atom_site_type_symbol
_atom_site_label
_atom_site_fract_x
_atom_site_fract_y
_atom_site_fract_z
Si Si1 0.546949 0.744853 0.272306
Si Si2 0.204148 0.700287 0.062269
Si Si3 0.104193 0.093892 0.247120
Si Si4 0.821798 0.957439 0.566708
Si Si5 0.979367 0.595402 0.411394
Si Si6 0.482314 0.220497 0.337665
Si Si7 0.296064 0.497106 0.960102
Si Si8 0.001669 0.788525 0.113027
O O1 0.364475 0.811867 0.153558
O O2 0.751195 0.659918 0.308942
O O3 0.530182 0.487365 0.319234
O O4 0.544239 0.992722 0.310402
O O5 0.098843 0.598327 0.091483
O O6 0.311283 0.512440 0.046868
O O7 0.053187 0.930344 0.957098
O O8 0.255889 0.249002 0.270414
O O9 0.880361 0.267761 0.146347
O O10 0.154316 0.031010 0.345044
O O11 0.132932 0.831932 0.220695
O O12 0.608495 0.100639 0.453901
O O13 0.955303 0.135996 0.579203
O O14 0.893307 0.650823 0.578399
O O15 0.000000 0.500000 0.500000
O O16 0.197323 0.255181 0.927498
O O17 0.500000 0.500000 0.000000
#
# Coordination Sequence:
#
# PCOD9035627 Si02
#       8
#     2   2   2   2   2   2   2   2
#     4  12  25  40  75 101 141 178 239 285 352 412
#     4  10  23  41  71 102 127 190 232 296 349 421
#     4  11  27  43  69  99 139 183 237 290 354 422
#     4  12  26  44  72 100 146 188 233 284 360 408
#     4  12  24  46  68 103 142 187 232 293 341 427
#     4  12  24  46  68 106 136 185 234 292 339 417
#     4  11  26  44  68 101 143 180 232 295 361 428
#     4  10  22  46  69  97 137 176 242 292 347 424
#
# _framework density 22.824207999999999
#
# number of rings (size 3 to 8) (size 9 to 14) (size 15 to 20)
#    0.000    0.750    3.750    2.625    5.250    3.000 
#    0.000    2.500    0.000    0.000    0.000    0.000 
#    0.000    0.000    0.000    0.000    0.000    0.000 
#
# Total GULP energy -89406.151165 kJ/mol
# GULP energy per Si atom -5587.884448 kJ/mol
# Density = 2.277226 g / cm^3
# Si number density = 22.824208 Si / 1000 Ang^3
#
#
#
# Elastic Constant Matrix: (Units=GPa)
#
#
# Indices 1 2 3 4 5 6 
#
# 1 107.5358 8.5841 34.5743 5.9751 21.0383 3.3558
# 2 8.5841 76.6600 18.2168 9.4757 -2.3709 0.3432
# 3 34.5743 18.2168 136.9952 18.5578 -7.4338 -18.7431
# 4 5.9751 9.4757 18.5578 27.9979 -5.3269 1.9191
# 5 21.0383 -2.3709 -7.4338 -5.3269 55.4400 7.1451
# 6 3.3558 0.3432 -18.7431 1.9191 7.1451 27.0642
#
#
#
# Elastic Compliance Matrix: (Units=1/GPa)
#
#
# Indices 1 2 3 4 5 6 
#
# 1 0.011406 -0.000531 -0.003281 -0.000780 -0.004554 -0.002422
# 2 -0.000531 0.013877 -0.001327 -0.003570 0.000387 -0.000878
# 3 -0.003281 -0.001327 0.010212 -0.005954 0.000999 0.007654
# 4 -0.000780 -0.003570 -0.005954 0.042450 0.004477 -0.008174
# 5 -0.004554 0.000387 0.000999 0.004477 0.020938 -0.004594
# 6 -0.002422 -0.000878 0.007654 -0.008174 -0.004594 0.044354
#
#
# Mechanical properties :
#
#
# Convention : Reuss Voigt Hill
#
# Bulk Modulus (GPa) = 39.65519 49.32683 44.49101
# Shear Modulus (GPa) = 30.87934 39.42148 35.15041
#
# Velocity S-wave (km/s) = 3.68220 4.16044 3.92860
# Velocity P-wave (km/s) = 5.95735 6.68862 6.33354
#
# Compressibility (1/GPa) = 0.02521738
#
# Stress axis : x y z
#
# Youngs Moduli (GPa) = 87.67062 72.06420 97.92441
#
# Poissons Ratio (x) = 0.03828 0.32128
# Poissons Ratio (y) = 0.04657 0.12992
# Poissons Ratio (z) = 0.28763 0.09561
#
# Static dielectric constant tensor:
#      x y z
#    x 1.874340 -0.042830 0.029710 
#    y -0.042830 1.942140 -0.018850 
#    z 0.029710 -0.018850 1.859170 
# 
# From -- ./inp_files/90330.got.cif
#   From: 2010.05.17/outbox.cif.g08.bks.cpg/sg2_46_cif.got.tgz:90330.got - 2010.06.03 11:33:40.
