data_PCOD9035149
_publ_section_title
;
Structure prediction by ZEFSAII (Michael W. Deem and Ramdas Pophale) SiO2 
 PCOD9035149
Probable space group: P -1
;
_chemical_formula_sum "Si O2"
_cell_formula_units_Z 12
_cell_length_a 14.567024
_cell_length_b 10.922453
_cell_length_c 10.662715
_cell_angle_alpha 58.149450
_cell_angle_beta 39.460282
_cell_angle_gamma 31.406127
_cell_volume 515.851863
_symmetry_space_group_name_H-M "P -1"
_symmetry_group_IT_number 2
_symmetry_cell_setting 'triclinic'
loop_
_space_group_symop_operation_xyz
x,y,z
-x,-y,-z
loop_
_atom_site_type_symbol
_atom_site_label
_atom_site_fract_x
_atom_site_fract_y
_atom_site_fract_z
Si Si1 0.889408 0.144664 0.331893
Si Si2 0.778956 0.617661 0.860858
Si Si3 0.306492 0.008974 0.338889
Si Si4 0.413293 0.643354 0.702680
Si Si5 0.317668 0.034113 0.612608
Si Si6 0.465022 0.665194 0.037797
O O1 0.840481 0.022019 0.500861
O O2 0.670417 0.430492 0.461494
O O3 0.827776 0.181708 0.229394
O O4 0.172629 0.955106 0.174091
O O5 0.842340 0.730797 0.699972
O O6 0.570359 0.788223 0.100676
O O7 0.648084 0.652718 0.856356
O O8 0.029443 0.321113 0.787953
O O9 0.350446 0.996209 0.447498
O O10 0.379492 0.822689 0.709656
O O11 0.459749 0.473235 0.836603
O O12 0.500000 0.000000 0.500000
O O13 0.500000 0.500000 0.000000
#
# Coordination Sequence:
#
# PCOD9035149 Si02
#       6
#     2   2   2   2   2   2
#     4  10  22  45  71  91 134 180 218 273 332 395
#     4  11  25  43  68 100 133 171 228 276 326 407
#     4  10  23  46  68  95 133 175 223 274 331 399
#     4  10  23  43  65  98 131 172 224 270 326 402
#     4  11  26  43  67  97 136 179 215 279 340 390
#     4  12  25  40  69 103 132 177 220 277 337 391
#
# _framework density 23.262492999999999
#
# number of rings (size 3 to 8) (size 9 to 14) (size 15 to 20)
#    0.000    1.333    1.667    3.000    4.667    4.667 
#    0.000    0.000    0.000    0.000    0.000    0.000 
#    0.000    0.000    0.000    0.000    0.000    0.000 
#
# Total GULP energy -67149.307285 kJ/mol
# GULP energy per Si atom -5595.775607 kJ/mol
# Density = 2.320955 g / cm^3
# Si number density = 23.262493 Si / 1000 Ang^3
#
#
#
# Elastic Constant Matrix: (Units=GPa)
#
#
# Indices 1 2 3 4 5 6 
#
# 1 47.7037 19.7293 17.0791 17.8431 -13.4518 15.2106
# 2 19.7293 106.4566 15.5433 21.1209 -20.2083 15.2163
# 3 17.0791 15.5433 53.2283 22.0999 -15.0973 0.8256
# 4 17.8431 21.1209 22.0999 33.2681 -13.3982 3.6823
# 5 -13.4518 -20.2083 -15.0973 -13.3982 40.6017 7.5704
# 6 15.2106 15.2163 0.8256 3.6823 7.5704 38.5514
#
#
#
# Elastic Compliance Matrix: (Units=1/GPa)
#
#
# Indices 1 2 3 4 5 6 
#
# 1 0.032887 0.000084 -0.003629 -0.010241 0.008758 -0.013673
# 2 0.000084 0.012180 0.000165 -0.005074 0.005491 -0.005438
# 3 -0.003629 0.000165 0.027100 -0.014789 0.003806 0.001451
# 4 -0.010241 -0.005074 -0.014789 0.050635 0.005198 0.000503
# 5 0.008758 0.005491 0.003806 0.005198 0.035864 -0.013243
# 6 -0.013673 -0.005438 0.001451 0.000503 -0.013243 0.036002
#
#
# Mechanical properties :
#
#
# Convention : Reuss Voigt Hill
#
# Bulk Modulus (GPa) = 15.28890 34.67689 24.98290
# Shear Modulus (GPa) = 22.39837 32.82005 27.60921
#
# Velocity S-wave (km/s) = 3.10635 3.76021 3.44881
# Velocity P-wave (km/s) = 4.41050 5.81304 5.15965
#
# Compressibility (1/GPa) = 0.06540691
#
# Stress axis : x y z
#
# Youngs Moduli (GPa) = 30.40710 82.10095 36.89985
#
# Poissons Ratio (x) = -0.00686 0.13390
# Poissons Ratio (y) = -0.00254 -0.00608
# Poissons Ratio (z) = 0.11034 -0.01353
#
# Static dielectric constant tensor:
#      x y z
#    x 1.885150 0.020920 0.039980 
#    y 0.020920 1.883950 -0.061750 
#    z 0.039980 -0.061750 1.932340 
# 
# From -- ./inp_files/161331.got.cif
#   From: 2010.05.17/outbox.cif.g08.bks.cpg/sg2_81_cif.got.tgz:161331.got - 2010.06.03 11:33:40.
