data_PCOD9035088
_publ_section_title
;
Structure prediction by ZEFSAII (Michael W. Deem and Ramdas Pophale) SiO2 
 PCOD9035088
Probable space group: P -1
;
_chemical_formula_sum "Si O2"
_cell_formula_units_Z 14
_cell_length_a 5.154074
_cell_length_b 6.776796
_cell_length_c 16.811303
_cell_angle_alpha 107.448701
_cell_angle_beta 72.912735
_cell_angle_gamma 109.152530
_cell_volume 516.566564
_symmetry_space_group_name_H-M "P -1"
_symmetry_group_IT_number 2
_symmetry_cell_setting 'triclinic'
loop_
_space_group_symop_operation_xyz
x,y,z
-x,-y,-z
loop_
_atom_site_type_symbol
_atom_site_label
_atom_site_fract_x
_atom_site_fract_y
_atom_site_fract_z
Si Si1 0.842533 0.655217 0.200995
Si Si2 0.032963 0.337111 0.361738
Si Si3 0.906051 0.219142 0.114293
Si Si4 0.027110 0.757822 0.472165
Si Si5 0.466937 0.087826 0.641804
Si Si6 0.334853 0.027815 0.226860
Si Si7 0.475570 0.624264 0.937213
O O1 0.948350 0.446784 0.183547
O O2 0.695898 0.743473 0.295470
O O3 0.611146 0.565213 0.143262
O O4 0.103225 0.853192 0.178248
O O5 0.960770 0.564833 0.389945
O O6 0.132876 0.337617 0.444779
O O7 0.238741 0.248578 0.274365
O O8 0.751917 0.142976 0.366987
O O9 0.644102 0.067169 0.165927
O O10 0.775484 0.263511 0.045713
O O11 0.222458 0.203000 0.078431
O O12 0.366450 0.817929 0.440138
O O13 0.000000 0.000000 0.500000
O O14 0.666344 0.065909 0.695395
O O15 0.500000 0.500000 0.000000
#
# Coordination Sequence:
#
# PCOD9035088 Si02
#       7
#     2   2   2   2   2   2   2
#     4   9  23  39  67  94 133 177 225 284 336 418
#     4  10  24  41  62  91 132 177 237 288 345 420
#     4  10  23  40  68  98 136 177 226 282 346 415
#     4  11  22  43  61  91 131 181 231 291 353 405
#     4  11  22  39  65  90 135 174 234 283 348 409
#     4  11  22  41  63 100 131 178 231 287 341 417
#     4  10  22  45  71 100 137 180 224 284 350 418
#
# _framework density 27.102029000000002
#
# number of rings (size 3 to 8) (size 9 to 14) (size 15 to 20)
#    0.857    0.857    1.429    2.571    4.000    1.714 
#    2.571    1.429    0.000    0.000    0.000    0.000 
#    0.000    0.000    0.000    0.000    0.000    0.000 
#
# Total GULP energy -78170.972543 kJ/mol
# GULP energy per Si atom -5583.640896 kJ/mol
# Density = 2.704034 g / cm^3
# Si number density = 27.102029 Si / 1000 Ang^3
#
#
#
# Elastic Constant Matrix: (Units=GPa)
#
#
# Indices 1 2 3 4 5 6 
#
# 1 107.0203 41.4887 22.0796 11.0013 12.8061 19.0084
# 2 41.4887 134.9452 38.2324 4.7411 -8.3779 9.3611
# 3 22.0796 38.2324 44.5464 -2.2101 2.6149 2.4538
# 4 11.0013 4.7411 -2.2101 41.6098 -12.4282 -10.7068
# 5 12.8061 -8.3779 2.6149 -12.4282 30.5590 -5.1312
# 6 19.0084 9.3611 2.4538 -10.7068 -5.1312 57.2492
#
#
#
# Elastic Compliance Matrix: (Units=1/GPa)
#
#
# Indices 1 2 3 4 5 6 
#
# 1 0.015104 -0.003470 -0.003878 -0.009163 -0.011860 -0.007058
# 2 -0.003470 0.011051 -0.008068 0.001018 0.005653 0.000388
# 3 -0.003878 -0.008068 0.031464 0.003632 -0.001499 0.001803
# 4 -0.009163 0.001018 0.003632 0.035394 0.020073 0.011139
# 5 -0.011860 0.005653 -0.001499 0.020073 0.049427 0.011262
# 6 -0.007058 0.000388 0.001803 0.011139 0.011262 0.022763
#
#
# Mechanical properties :
#
#
# Convention : Reuss Voigt Hill
#
# Bulk Modulus (GPa) = 37.33024 54.45706 45.89365
# Shear Modulus (GPa) = 24.39475 38.19770 31.29622
#
# Velocity S-wave (km/s) = 3.00343 3.75828 3.40186
# Velocity P-wave (km/s) = 5.08246 6.24258 5.69215
#
# Compressibility (1/GPa) = 0.02678793
#
# Stress axis : x y z
#
# Youngs Moduli (GPa) = 66.20793 90.48765 31.78270
#
# Poissons Ratio (x) = 0.31398 0.12325
# Poissons Ratio (y) = 0.22973 0.25641
# Poissons Ratio (z) = 0.25675 0.73003
#
# Static dielectric constant tensor:
#      x y z
#    x 2.225150 -0.022760 0.056810 
#    y -0.022760 2.136910 -0.021220 
#    z 0.056810 -0.021220 2.224310 
# 
# From -- ./inp_files/140266.got.cif
#   From: 2010.05.17/outbox.cif.g08.bks.cpg/sg2_71_cif.got.tgz:140266.got - 2010.06.03 11:33:40.
