data_PCOD9035403
_publ_section_title
;
Structure prediction by ZEFSAII (Michael W. Deem and Ramdas Pophale) SiO2 
 PCOD9035403
Probable space group: P -1
;
_chemical_formula_sum "Si O2"
_cell_formula_units_Z 16
_cell_length_a 4.984379
_cell_length_b 19.687171
_cell_length_c 8.715929
_cell_angle_alpha 127.831092
_cell_angle_beta 77.177833
_cell_angle_gamma 111.438469
_cell_volume 628.777139
_symmetry_space_group_name_H-M "P -1"
_symmetry_group_IT_number 2
_symmetry_cell_setting 'triclinic'
loop_
_space_group_symop_operation_xyz
x,y,z
-x,-y,-z
loop_
_atom_site_type_symbol
_atom_site_label
_atom_site_fract_x
_atom_site_fract_y
_atom_site_fract_z
Si Si1 0.961454 0.814813 0.017902
Si Si2 0.284118 0.498009 0.859852
Si Si3 0.608616 0.256209 0.342894
Si Si4 0.323088 0.987062 0.346190
Si Si5 0.792220 0.419597 0.319037
Si Si6 0.799491 0.664729 0.045170
Si Si7 0.875725 0.987532 0.167031
Si Si8 0.078672 0.286124 0.573638
O O1 0.192953 0.793103 0.844360
O O2 0.743169 0.729835 0.010368
O O3 0.158738 0.881353 0.209714
O O4 0.795983 0.879502 0.054333
O O5 0.354861 0.534689 0.725344
O O6 0.542021 0.578206 0.012383
O O7 0.241173 0.393196 0.690414
O O8 0.000000 0.500000 0.000000
O O9 0.635751 0.343487 0.353305
O O10 0.272227 0.228594 0.394308
O O11 0.780051 0.273597 0.506772
O O12 0.083046 0.024430 0.341715
O O13 0.592924 0.018253 0.240933
O O14 0.500000 0.000000 0.500000
O O15 0.000000 0.500000 0.500000
O O16 0.972192 0.374991 0.120813
O O17 0.935693 0.724852 0.257297
O O18 0.000000 0.000000 0.000000
#
# Coordination Sequence:
#
# PCOD9035403 Si02
#       8
#     2   2   2   2   2   2   2   2
#     4   9  26  45  70 102 146 185 228 289 359 422
#     4  12  24  41  68  94 135 186 252 298 345 402
#     4  11  26  43  65  96 138 178 233 289 351 414
#     4  10  22  45  76 108 146 177 234 281 350 439
#     4  11  23  39  64  92 124 181 235 296 351 407
#     4  11  25  44  64  94 140 188 231 300 353 409
#     4  10  22  45  77 108 142 181 232 283 356 428
#     4  12  25  44  64  97 133 184 243 289 346 410
#
# _framework density 25.44622
#
# number of rings (size 3 to 8) (size 9 to 14) (size 15 to 20)
#    0.750    0.500    2.500    2.625    5.250    2.000 
#    2.250    0.000    0.000    0.000    0.000    0.000 
#    0.000    0.000    0.000    0.000    0.000    0.000 
#
# Total GULP energy -89164.419773 kJ/mol
# GULP energy per Si atom -5572.776236 kJ/mol
# Density = 2.538830 g / cm^3
# Si number density = 25.446220 Si / 1000 Ang^3
#
#
#
# Elastic Constant Matrix: (Units=GPa)
#
#
# Indices 1 2 3 4 5 6 
#
# 1 106.0015 3.9857 13.6116 -1.4617 -1.9575 6.9773
# 2 3.9857 55.0806 -12.2540 -14.1479 4.7803 -1.4199
# 3 13.6116 -12.2540 93.2001 -3.5838 -0.3786 9.0754
# 4 -1.4617 -14.1479 -3.5838 22.5390 7.5794 -4.5473
# 5 -1.9575 4.7803 -0.3786 7.5794 44.2482 -8.1085
# 6 6.9773 -1.4199 9.0754 -4.5473 -8.1085 30.5533
#
#
#
# Elastic Compliance Matrix: (Units=1/GPa)
#
#
# Indices 1 2 3 4 5 6 
#
# 1 0.009792 -0.001364 -0.001459 -0.000967 0.000384 -0.001908
# 2 -0.001364 0.024220 0.003903 0.017863 -0.005429 0.001496
# 3 -0.001459 0.003903 0.011886 0.004223 -0.001624 -0.002819
# 4 -0.000967 0.017863 0.004223 0.061191 -0.011338 0.005895
# 5 0.000384 -0.005429 -0.001624 -0.011338 0.026119 0.005387
# 6 -0.001908 0.001496 -0.002819 0.005895 0.005387 0.036379
#
#
# Mechanical properties :
#
#
# Convention : Reuss Voigt Hill
#
# Bulk Modulus (GPa) = 20.80864 29.44098 25.12481
# Shear Modulus (GPa) = 27.25587 36.06404 31.65995
#
# Velocity S-wave (km/s) = 3.27634 3.76874 3.53114
# Velocity P-wave (km/s) = 4.74424 5.52566 5.14979
#
# Compressibility (1/GPa) = 0.04805696
#
# Stress axis : x y z
#
# Youngs Moduli (GPa) = 102.12562 41.28789 84.13172
#
# Poissons Ratio (x) = 0.05633 0.12277
# Poissons Ratio (y) = 0.13932 -0.32836
# Poissons Ratio (z) = 0.14903 -0.16114
#
# Static dielectric constant tensor:
#      x y z
#    x 2.063350 -0.043700 0.089110 
#    y -0.043700 2.014300 -0.060660 
#    z 0.089110 -0.060660 2.117520 
# 
# From -- ./inp_files/141491.got.cif
#   From: 2010.05.17/outbox.cif.g08.bks.cpg/sg2_71_cif.got.tgz:141491.got - 2010.06.03 11:33:40.
