data_PCOD9035440
_publ_section_title
;
Structure prediction by ZEFSAII (Michael W. Deem and Ramdas Pophale) SiO2 
 PCOD9035440
Probable space group: P -1
;
_chemical_formula_sum "Si O2"
_cell_formula_units_Z 15
_cell_length_a 9.078769
_cell_length_b 9.371801
_cell_length_c 7.175442
_cell_angle_alpha 110.825007
_cell_angle_beta 111.567680
_cell_angle_gamma 86.147906
_cell_volume 529.261788
_symmetry_space_group_name_H-M "P -1"
_symmetry_group_IT_number 2
_symmetry_cell_setting 'triclinic'
loop_
_space_group_symop_operation_xyz
x,y,z
-x,-y,-z
loop_
_atom_site_type_symbol
_atom_site_label
_atom_site_fract_x
_atom_site_fract_y
_atom_site_fract_z
Si Si1 0.489504 0.364113 0.582178
Si Si2 0.360163 0.190964 0.116801
Si Si3 0.291232 0.905149 0.766555
Si Si4 0.840802 0.352867 0.653548
Si Si5 0.728761 0.605808 0.171464
Si Si6 0.000000 0.000000 0.000000
Si Si7 0.148689 0.075955 0.485868
Si Si8 0.968329 0.355085 0.109877
O O1 0.500000 0.500000 0.500000
O O2 0.379953 0.235455 0.361485
O O3 0.669297 0.320814 0.655077
O O4 0.421049 0.408508 0.766878
O O5 0.539168 0.152390 0.126806
O O6 0.311849 0.323510 0.016824
O O7 0.243733 0.036075 0.953923
O O8 0.180261 0.757826 0.585277
O O9 0.299461 0.010066 0.632217
O O10 0.884458 0.528726 0.700489
O O11 0.963788 0.337631 0.873024
O O12 0.835474 0.743740 0.385161
O O13 0.817006 0.450210 0.133766
O O14 0.117984 0.003730 0.240201
O O15 0.981587 0.187122 0.109435
O O16 0.000000 0.000000 0.500000
#
# Coordination Sequence:
#
# PCOD9035440 Si02
#       8
#     2   2   2   2   2   1   2   2
#     4  11  25  46  76 116 167 208 267 333 406 481
#     4   9  21  43  77 114 160 218 262 330 408 480
#     4   9  18  44  74 113 157 208 267 327 396 477
#     4  10  22  45  81 114 162 211 267 340 401 480
#     4  11  26  48  81 120 161 211 274 332 406 493
#     4  12  28  50  80 116 158 216 276 336 414 478
#     4  11  25  47  75 117 162 209 270 338 399 485
#     4  11  25  48  83 118 155 214 279 335 404 490
#
# _framework density 28.341362
#
# number of rings (size 3 to 8) (size 9 to 14) (size 15 to 20)
#    0.000    1.600    1.333    1.600    3.733    4.800 
#    7.200   16.667    0.000    0.800    0.000    0.000 
#    0.000    0.000    0.000    0.000    0.000    0.000 
#
# Total GULP energy -83894.418324 kJ/mol
# GULP energy per Si atom -5592.961222 kJ/mol
# Density = 2.827686 g / cm^3
# Si number density = 28.341362 Si / 1000 Ang^3
#
#
#
# Elastic Constant Matrix: (Units=GPa)
#
#
# Indices 1 2 3 4 5 6 
#
# 1 113.4064 46.9886 51.1435 5.0749 -8.9877 -17.9202
# 2 46.9886 211.7992 59.9076 36.9610 3.7823 -13.1147
# 3 51.1435 59.9076 213.9453 45.6897 -8.6072 -4.6389
# 4 5.0749 36.9610 45.6897 71.5571 -5.8904 12.6892
# 5 -8.9877 3.7823 -8.6072 -5.8904 57.4350 5.5667
# 6 -17.9202 -13.1147 -4.6389 12.6892 5.5667 53.4761
#
#
#
# Elastic Compliance Matrix: (Units=1/GPa)
#
#
# Indices 1 2 3 4 5 6 
#
# 1 0.011103 -0.001910 -0.002287 0.001315 0.001404 0.002596
# 2 -0.001910 0.005948 -0.000596 -0.002940 -0.001236 0.001593
# 3 -0.002287 -0.000596 0.006158 -0.003522 0.000201 0.000436
# 4 0.001315 -0.002940 -0.003522 0.018776 0.002309 -0.005282
# 5 0.001404 -0.001236 0.000201 0.002309 0.018198 -0.002258
# 6 0.002596 0.001593 0.000436 -0.005282 -0.002258 0.021487
#
#
# Mechanical properties :
#
#
# Convention : Reuss Voigt Hill
#
# Bulk Modulus (GPa) = 73.41415 95.02559 84.21987
# Shear Modulus (GPa) = 52.19367 61.90104 57.04735
#
# Velocity S-wave (km/s) = 4.29605 4.67853 4.49136
# Velocity P-wave (km/s) = 7.11111 7.92380 7.52843
#
# Compressibility (1/GPa) = 0.01362135
#
# Stress axis : x y z
#
# Youngs Moduli (GPa) = 90.06181 168.13341 162.40117
#
# Poissons Ratio (x) = 0.32116 0.37149
# Poissons Ratio (y) = 0.17203 0.09680
# Poissons Ratio (z) = 0.20601 0.10022
#
# Static dielectric constant tensor:
#      x y z
#    x 2.426620 -0.030660 0.057520 
#    y -0.030660 2.227900 0.028750 
#    z 0.057520 0.028750 2.156270 
# 
# From -- ./inp_files/296294.got.cif
#   From: 2010.05.17/outbox.cif.g08.bks.cpg/sg2_149_cif.got.tgz:296294.got - 2010.06.03 11:33:40.
