data_PCOD9035516
_publ_section_title
;
Structure prediction by ZEFSAII (Michael W. Deem and Ramdas Pophale) SiO2 
 PCOD9035516
Probable space group: P -1
;
_chemical_formula_sum "Si O2"
_cell_formula_units_Z 12
_cell_length_a 18.562130
_cell_length_b 7.947568
_cell_length_c 10.221353
_cell_angle_alpha 42.923277
_cell_angle_beta 151.680072
_cell_angle_gamma 132.787592
_cell_volume 484.345431
_symmetry_space_group_name_H-M "P -1"
_symmetry_group_IT_number 2
_symmetry_cell_setting 'triclinic'
loop_
_space_group_symop_operation_xyz
x,y,z
-x,-y,-z
loop_
_atom_site_type_symbol
_atom_site_label
_atom_site_fract_x
_atom_site_fract_y
_atom_site_fract_z
Si Si1 0.140058 0.516311 0.073989
Si Si2 0.310765 0.324617 0.692411
Si Si3 0.786920 0.602438 0.209865
Si Si4 0.610670 0.131015 0.213339
Si Si5 0.023069 0.064492 0.298510
Si Si6 0.653701 0.652377 0.708894
O O1 0.266084 0.504914 0.399844
O O2 0.212432 0.483181 0.067936
O O3 0.029610 0.260804 0.074604
O O4 0.060717 0.765516 0.827450
O O5 0.199978 0.077444 0.614586
O O6 0.251032 0.378500 0.709435
O O7 0.486941 0.286153 0.997354
O O8 0.663098 0.678201 0.864059
O O9 0.761267 0.307109 0.313078
O O10 0.933059 0.794494 0.300341
O O11 0.661936 0.921451 0.506453
O O12 0.500000 0.000000 0.000000
O O13 0.500000 0.500000 0.500000
#
# Coordination Sequence:
#
# PCOD9035516 Si02
#       6
#     2   2   2   2   2   2
#     4   9  21  45  72  93 145 176 221 282 338 399
#     4  10  22  46  67 101 138 178 223 285 337 400
#     4  12  26  41  73 106 129 184 234 272 346 402
#     4  12  24  46  68  98 145 178 226 287 332 407
#     4   9  22  45  74 100 135 180 228 280 340 403
#     4  12  26  45  68 101 136 185 225 279 345 395
#
# _framework density 24.775707000000001
#
# number of rings (size 3 to 8) (size 9 to 14) (size 15 to 20)
#    1.000    0.333    3.333    1.000    4.667    1.333 
#    0.000    5.833    0.000    0.000    0.000    0.000 
#    0.000    0.000    0.000    0.000    0.000    0.000 
#
# Total GULP energy -66968.727260 kJ/mol
# GULP energy per Si atom -5580.727272 kJ/mol
# Density = 2.471932 g / cm^3
# Si number density = 24.775707 Si / 1000 Ang^3
#
#
#
# Elastic Constant Matrix: (Units=GPa)
#
#
# Indices 1 2 3 4 5 6 
#
# 1 86.1159 20.8550 21.3118 2.8393 -0.8333 -10.2013
# 2 20.8550 193.6945 34.0235 15.9982 -1.3248 30.7563
# 3 21.3118 34.0235 76.4198 -5.7481 -5.1978 1.3408
# 4 2.8393 15.9982 -5.7481 39.0972 6.0359 -5.1106
# 5 -0.8333 -1.3248 -5.1978 6.0359 50.6457 7.0346
# 6 -10.2013 30.7563 1.3408 -5.1106 7.0346 36.5366
#
#
#
# Elastic Compliance Matrix: (Units=1/GPa)
#
#
# Indices 1 2 3 4 5 6 
#
# 1 0.013469 -0.001821 -0.003094 0.000192 -0.000947 0.005616
# 2 -0.001821 0.007470 -0.002929 -0.004577 0.001468 -0.007612
# 3 -0.003094 -0.002929 0.015567 0.003767 0.000827 0.001398
# 4 0.000192 -0.004577 0.003767 0.029838 -0.004510 0.008810
# 5 -0.000947 0.001468 0.000827 -0.004510 0.021259 -0.006254
# 6 0.005616 -0.007612 0.001398 0.008810 -0.006254 0.037730
#
#
# Mechanical properties :
#
#
# Convention : Reuss Voigt Hill
#
# Bulk Modulus (GPa) = 48.03308 56.51230 52.27269
# Shear Modulus (GPa) = 33.79298 43.92523 38.85910
#
# Velocity S-wave (km/s) = 3.69718 4.21517 3.96464
# Velocity P-wave (km/s) = 6.13635 6.82270 6.48861
#
# Compressibility (1/GPa) = 0.02081899
#
# Stress axis : x y z
#
# Youngs Moduli (GPa) = 74.24655 133.86909 64.23645
#
# Poissons Ratio (x) = 0.24375 0.19874
# Poissons Ratio (y) = 0.13519 0.18814
# Poissons Ratio (z) = 0.22971 0.39208
#
# Static dielectric constant tensor:
#      x y z
#    x 2.108900 0.005060 -0.012930 
#    y 0.005060 2.030040 -0.008260 
#    z -0.012930 -0.008260 1.948520 
# 
# From -- ./inp_files/469176.got.cif
#   From: 2010.05.17/outbox.cif.g08.bks.cpg/sg2_235_cif.got.tgz:469176.got - 2010.06.03 11:33:40.
