data_PCOD9035691
_publ_section_title
;
Structure prediction by ZEFSAII (Michael W. Deem and Ramdas Pophale) SiO2 
 PCOD9035691
Probable space group: P -1
;
_chemical_formula_sum "Si O2"
_cell_formula_units_Z 16
_cell_length_a 14.414612
_cell_length_b 23.893648
_cell_length_c 9.038103
_cell_angle_alpha 153.488645
_cell_angle_beta 47.875106
_cell_angle_gamma 147.210961
_cell_volume 708.406508
_symmetry_space_group_name_H-M "P -1"
_symmetry_group_IT_number 2
_symmetry_cell_setting 'triclinic'
loop_
_space_group_symop_operation_xyz
x,y,z
-x,-y,-z
loop_
_atom_site_type_symbol
_atom_site_label
_atom_site_fract_x
_atom_site_fract_y
_atom_site_fract_z
Si Si1 0.457813 0.762202 0.341180
Si Si2 0.336620 0.592873 0.545274
Si Si3 0.984412 0.957854 0.093540
Si Si4 0.694681 0.985789 0.147333
Si Si5 0.610580 0.602626 0.773214
Si Si6 0.188997 0.917527 0.417734
Si Si7 0.122820 0.490957 0.260582
Si Si8 0.792789 0.349247 0.911677
O O1 0.291433 0.671550 0.415805
O O2 0.343259 0.672910 0.100369
O O3 0.639350 0.979478 0.632659
O O4 0.541045 0.685732 0.105678
O O5 0.405755 0.518511 0.376399
O O6 0.225616 0.484514 0.260363
O O7 0.215660 0.587466 0.773301
O O8 0.507765 0.809613 0.855851
O O9 0.156480 0.998737 0.044510
O O10 0.933526 0.056116 0.446703
O O11 0.814516 0.754783 0.852060
O O12 0.000000 0.000000 0.000000
O O13 0.709975 0.971870 0.275365
O O14 0.725334 0.156723 0.513416
O O15 0.500000 0.500000 0.500000
O O16 0.033129 0.702579 0.113902
O O17 0.000000 0.500000 0.500000
O O18 0.000000 0.500000 0.000000
#
# Coordination Sequence:
#
# PCOD9035691 Si02
#       8
#     2   2   2   2   2   2   2   2
#     4  11  25  45  71  98 136 191 228 286 349 410
#     4  12  25  44  67 106 137 179 230 288 348 406
#     4   9  20  37  64 103 128 174 223 284 345 396
#     4  11  22  40  71 101 138 173 235 292 338 414
#     4  11  21  41  71 102 137 172 236 291 339 411
#     4  10  22  46  70  96 139 184 230 283 348 415
#     4  12  29  47  67 101 148 187 229 281 352 421
#     4  12  23  41  70 101 134 180 237 288 342 410
#
# _framework density 22.585899999999999
#
# number of rings (size 3 to 8) (size 9 to 14) (size 15 to 20)
#    0.000    1.000    2.500    4.875    7.000    1.000 
#    4.500    1.250    0.000    0.000    0.000    0.000 
#    0.000    0.000    0.000    0.000    0.000    0.000 
#
# Total GULP energy -89239.339636 kJ/mol
# GULP energy per Si atom -5577.458727 kJ/mol
# Density = 2.253449 g / cm^3
# Si number density = 22.585900 Si / 1000 Ang^3
#
#
#
# Elastic Constant Matrix: (Units=GPa)
#
#
# Indices 1 2 3 4 5 6 
#
# 1 79.9678 2.3194 8.5061 2.3498 -2.9202 3.2855
# 2 2.3194 152.5676 13.0144 15.6180 3.7407 31.3646
# 3 8.5061 13.0144 40.8811 20.4090 3.8291 5.3605
# 4 2.3498 15.6180 20.4090 20.4109 0.7938 -2.7551
# 5 -2.9202 3.7407 3.8291 0.7938 35.8578 0.3264
# 6 3.2855 31.3646 5.3605 -2.7551 0.3264 29.9205
#
#
#
# Elastic Compliance Matrix: (Units=1/GPa)
#
#
# Indices 1 2 3 4 5 6 
#
# 1 0.012926 -0.000038 -0.003913 0.002334 0.001427 -0.000479
# 2 -0.000038 0.010583 0.007070 -0.016986 -0.001359 -0.013905
# 3 -0.003913 0.007070 0.061424 -0.069431 -0.005857 -0.024315
# 4 0.002334 -0.016986 -0.069431 0.136653 0.005964 0.042507
# 5 0.001427 -0.001359 -0.005857 0.005964 0.028616 0.002555
# 6 -0.000479 -0.013905 -0.024315 0.042507 0.002555 0.056293
#
#
# Mechanical properties :
#
#
# Convention : Reuss Voigt Hill
#
# Bulk Modulus (GPa) = 10.96872 35.67738 23.32305
# Shear Modulus (GPa) = 15.12185 33.87629 24.49907
#
# Velocity S-wave (km/s) = 2.59033 3.87704 3.29706
# Velocity P-wave (km/s) = 3.71664 5.98937 4.98427
#
# Compressibility (1/GPa) = 0.09116833
#
# Stress axis : x y z
#
# Youngs Moduli (GPa) = 77.36585 94.49279 16.28040
#
# Poissons Ratio (x) = 0.00361 0.06371
# Poissons Ratio (y) = 0.00295 -0.11510
# Poissons Ratio (z) = 0.30276 -0.66803
#
# Static dielectric constant tensor:
#      x y z
#    x 1.841500 -0.057790 -0.033180 
#    y -0.057790 1.868850 0.008180 
#    z -0.033180 0.008180 1.853250 
# 
# From -- ./inp_files/320253.got.cif
#   From: 2010.05.17/outbox.cif.g08.bks.cpg/sg2_161_cif.got.tgz:320253.got - 2010.06.03 11:33:40.
