data_PCOD9035544
_publ_section_title
;
Structure prediction by ZEFSAII (Michael W. Deem and Ramdas Pophale) SiO2 
 PCOD9035544
Probable space group: P -1
;
_chemical_formula_sum "Si O2"
_cell_formula_units_Z 14
_cell_length_a 20.961039
_cell_length_b 14.928168
_cell_length_c 5.228942
_cell_angle_alpha 105.155708
_cell_angle_beta 89.619984
_cell_angle_gamma 26.159331
_cell_volume 573.497374
_symmetry_space_group_name_H-M "P -1"
_symmetry_group_IT_number 2
_symmetry_cell_setting 'triclinic'
loop_
_space_group_symop_operation_xyz
x,y,z
-x,-y,-z
loop_
_atom_site_type_symbol
_atom_site_label
_atom_site_fract_x
_atom_site_fract_y
_atom_site_fract_z
Si Si1 0.540804 0.144361 0.555125
Si Si2 0.151205 0.664961 0.863811
Si Si3 0.676239 0.803473 0.980758
Si Si4 0.279811 0.057470 0.101461
Si Si5 0.013227 0.263855 0.389805
Si Si6 0.316841 0.705783 0.061703
Si Si7 0.202905 0.758371 0.585075
O O1 0.336622 0.406395 0.798369
O O2 0.620113 0.090016 0.748277
O O3 0.620101 0.934183 0.336890
O O4 0.598077 0.124289 0.285162
O O5 0.195279 0.662456 0.599726
O O6 0.073216 0.672829 0.796168
O O7 0.997076 0.933503 0.190893
O O8 0.746903 0.795775 0.808051
O O9 0.847794 0.506973 0.761601
O O10 0.500000 0.000000 0.000000
O O11 0.111584 0.221167 0.248397
O O12 0.164111 0.991276 0.292812
O O13 0.281127 0.675344 0.248837
O O14 0.500000 0.500000 0.000000
O O15 0.297192 0.688323 0.763900
#
# Coordination Sequence:
#
# PCOD9035544 Si02
#       7
#     2   2   2   2   2   2   2
#     4  10  24  43  70  98 136 184 223 275 343 404
#     4  10  23  44  72 102 137 185 228 286 337 413
#     4  10  22  46  68 102 135 181 227 280 337 410
#     4  10  25  43  66 101 137 182 219 288 332 410
#     4  11  23  45  69 105 135 181 229 280 347 401
#     4  11  26  45  69 103 138 181 225 289 340 410
#     4  10  25  44  70  98 139 177 235 281 342 400
#
# _framework density 24.411619999999999
#
# number of rings (size 3 to 8) (size 9 to 14) (size 15 to 20)
#    0.857    0.857    1.429    0.857    4.000   12.000 
#    5.143    0.000    0.000    0.000    0.000    0.000 
#    0.000    0.000    0.000    0.000    0.000    0.000 
#
# Total GULP energy -78264.804221 kJ/mol
# GULP energy per Si atom -5590.343159 kJ/mol
# Density = 2.435606 g / cm^3
# Si number density = 24.411620 Si / 1000 Ang^3
#
#
#
# Elastic Constant Matrix: (Units=GPa)
#
#
# Indices 1 2 3 4 5 6 
#
# 1 151.9257 62.5618 28.1055 11.3075 -24.1975 -24.9619
# 2 62.5618 75.2006 81.9027 22.5518 18.5146 -43.2041
# 3 28.1055 81.9027 70.4524 5.4392 -3.8643 -5.2705
# 4 11.3075 22.5518 5.4392 53.3789 -0.9890 -0.6408
# 5 -24.1975 18.5146 -3.8643 -0.9890 25.6668 15.7705
# 6 -24.9619 -43.2041 -5.2705 -0.6408 15.7705 37.2719
#
#
#
# Elastic Compliance Matrix: (Units=1/GPa)
#
#
# Indices 1 2 3 4 5 6 
#
# 1 0.008142 0.001768 -0.004601 -0.001895 0.001953 0.005992
# 2 0.001768 -0.006690 0.006855 0.001887 0.014890 -0.011869
# 3 -0.004601 0.006855 0.008363 -0.002917 -0.015974 0.012756
# 4 -0.001895 0.001887 -0.002917 0.018584 -0.004564 0.002756
# 5 0.001953 0.014890 -0.015974 -0.004564 0.023659 0.006220
# 6 0.005992 -0.011869 0.012756 0.002756 0.006220 0.016304
#
#
# Mechanical properties :
#
#
# Convention : Reuss Voigt Hill
#
# Bulk Modulus (GPa) = 55.99530 71.41321 63.70425
# Shear Modulus (GPa) = 75.44691 31.59742 53.52216
#
# Velocity S-wave (km/s) = 5.56536 3.60162 4.68748
# Velocity P-wave (km/s) = 8.01782 6.82736 7.44642
#
# Compressibility (1/GPa) = 0.01785864
#
# Stress axis : x y z
#
# Youngs Moduli (GPa) = 122.81725 -149.47602 119.56754
#
# Poissons Ratio (x) = 0.26422 0.55018
# Poissons Ratio (y) = -0.21710 -0.81967
# Poissons Ratio (z) = 0.56513 1.02470
#
# Static dielectric constant tensor:
#      x y z
#    x 1.897040 0.105320 0.042650 
#    y 0.105320 1.924800 -0.007710 
#    z 0.042650 -0.007710 1.947580 
# 
# From -- ./inp_files/119317.got.cif
#   From: 2010.05.17/outbox.cif.g08.bks.cpg/sg2_60_cif.got.tgz:119317.got - 2010.06.03 11:33:40.
