data_PCOD9035309
_publ_section_title
;
Structure prediction by ZEFSAII (Michael W. Deem and Ramdas Pophale) SiO2 
 PCOD9035309
Probable space group: P -1
;
_chemical_formula_sum "Si O2"
_cell_formula_units_Z 14
_cell_length_a 8.255579
_cell_length_b 5.197109
_cell_length_c 13.514848
_cell_angle_alpha 67.658260
_cell_angle_beta 74.842750
_cell_angle_gamma 80.534089
_cell_volume 516.293740
_symmetry_space_group_name_H-M "P -1"
_symmetry_group_IT_number 2
_symmetry_cell_setting 'triclinic'
loop_
_space_group_symop_operation_xyz
x,y,z
-x,-y,-z
loop_
_atom_site_type_symbol
_atom_site_label
_atom_site_fract_x
_atom_site_fract_y
_atom_site_fract_z
Si Si1 0.956489 0.483774 0.625607
Si Si2 0.597959 0.278997 0.447923
Si Si3 0.436709 0.718040 0.766292
Si Si4 0.239983 0.956373 0.367177
Si Si5 0.500000 0.500000 0.000000
Si Si6 0.500000 0.000000 0.000000
Si Si7 0.127744 0.126697 0.812613
Si Si8 0.854313 0.752470 0.990150
O O1 0.885370 0.768957 0.645317
O O2 0.000000 0.500000 0.500000
O O3 0.095939 0.333970 0.695687
O O4 0.809969 0.267157 0.671752
O O5 0.500000 0.500000 0.500000
O O6 0.589727 0.398548 0.322189
O O7 0.500000 0.000000 0.500000
O O8 0.759276 0.175370 0.502360
O O9 0.579196 0.939495 0.702351
O O10 0.504653 0.506272 0.870594
O O11 0.260416 0.884320 0.792519
O O12 0.612879 0.189326 0.019260
O O13 0.668806 0.769177 0.962385
O O14 0.187045 0.257091 0.885684
O O15 0.952698 0.003043 0.892617
O O16 0.000000 0.500000 0.000000
#
# Coordination Sequence:
#
# PCOD9035309 Si02
#       8
#     2   2   2   2   1   1   2   2
#     4  12  28  50  75 113 156 204 263 338 408 479
#     4  10  22  45  73 112 152 199 264 334 398 480
#     4  11  25  49  80 116 158 210 267 343 412 489
#     4  11  26  48  79 109 151 209 269 323 401 498
#     4  12  28  46  78 126 154 208 272 338 400 512
#     4  12  28  50  82 110 170 218 276 332 414 496
#     4  11  27  50  75 115 162 209 267 345 412 491
#     4  11  27  52  79 119 165 220 278 342 417 502
#
# _framework density 27.116347000000001
#
# number of rings (size 3 to 8) (size 9 to 14) (size 15 to 20)
#    0.000    0.857    1.429    3.857    8.000    3.429 
#   10.286    0.000    0.000    0.000    0.000    0.000 
#    0.000    0.000    0.000    0.000    0.000    0.000 
#
# Total GULP energy -78052.132048 kJ/mol
# GULP energy per Si atom -5575.152289 kJ/mol
# Density = 2.705463 g / cm^3
# Si number density = 27.116347 Si / 1000 Ang^3
#
#
#
# Elastic Constant Matrix: (Units=GPa)
#
#
# Indices 1 2 3 4 5 6 
#
# 1 144.6013 21.3770 56.9629 -2.5956 17.1153 -21.2321
# 2 21.3770 114.3704 8.2916 24.8027 10.9557 -17.0314
# 3 56.9629 8.2916 185.8691 5.7075 34.8626 -10.5941
# 4 -2.5956 24.8027 5.7075 45.2421 -2.9888 4.3526
# 5 17.1153 10.9557 34.8626 -2.9888 68.7652 -4.7848
# 6 -21.2321 -17.0314 -10.5941 4.3526 -4.7848 46.9208
#
#
#
# Elastic Compliance Matrix: (Units=1/GPa)
#
#
# Indices 1 2 3 4 5 6 
#
# 1 0.008494 -0.001217 -0.002336 0.001155 -0.000497 0.002717
# 2 -0.001217 0.011183 0.000658 -0.006799 -0.001823 0.004102
# 3 -0.002336 0.000658 0.006700 -0.001587 -0.002951 0.000541
# 4 0.001155 -0.006799 -0.001587 0.026694 0.002445 -0.004531
# 5 -0.000497 -0.001823 -0.002951 0.002445 0.016553 -0.000092
# 6 0.002717 0.004102 0.000541 -0.004531 -0.000092 0.024564
#
#
# Mechanical properties :
#
#
# Convention : Reuss Voigt Hill
#
# Bulk Modulus (GPa) = 48.57162 68.67818 58.62490
# Shear Modulus (GPa) = 46.79903 56.06624 51.43264
#
# Velocity S-wave (km/s) = 4.15885 4.55204 4.35988
# Velocity P-wave (km/s) = 6.40411 7.28082 6.85649
#
# Compressibility (1/GPa) = 0.02058815
#
# Stress axis : x y z
#
# Youngs Moduli (GPa) = 117.72716 89.42111 149.25485
#
# Poissons Ratio (x) = 0.10879 0.34872
# Poissons Ratio (y) = 0.14322 -0.09827
# Poissons Ratio (z) = 0.27506 -0.05888
#
# Static dielectric constant tensor:
#      x y z
#    x 3.649300 0.688730 0.750770 
#    y 0.688730 1.145820 1.520170 
#    z 0.750770 1.520170 1.622150 
# 
# From -- ./inp_files/488069.got.cif
#   From: 2010.05.17/outbox.cif.g08.bks.cpg/sg2_245_cif.got.tgz:488069.got - 2010.06.03 11:33:40.
