data_PCOD9035672
_publ_section_title
;
Structure prediction by ZEFSAII (Michael W. Deem and Ramdas Pophale) SiO2 
 PCOD9035672
Probable space group: P -1
;
_chemical_formula_sum "Si O2"
_cell_formula_units_Z 15
_cell_length_a 21.071856
_cell_length_b 8.004082
_cell_length_c 7.758872
_cell_angle_alpha 53.527295
_cell_angle_beta 118.110688
_cell_angle_gamma 146.484660
_cell_volume 580.164789
_symmetry_space_group_name_H-M "P -1"
_symmetry_group_IT_number 2
_symmetry_cell_setting 'triclinic'
loop_
_space_group_symop_operation_xyz
x,y,z
-x,-y,-z
loop_
_atom_site_type_symbol
_atom_site_label
_atom_site_fract_x
_atom_site_fract_y
_atom_site_fract_z
Si Si1 0.077641 0.037831 0.199828
Si Si2 0.786697 0.301589 0.829158
Si Si3 0.002849 0.255622 0.383195
Si Si4 0.696981 0.667892 0.684328
Si Si5 0.608359 0.900246 0.560778
Si Si6 0.500000 0.500000 0.000000
Si Si7 0.745413 0.805661 0.264580
Si Si8 0.585692 0.255880 0.126385
O O1 0.160762 0.395980 0.178155
O O2 0.172002 0.083395 0.235753
O O3 0.992248 0.732129 0.411876
O O4 0.000000 0.000000 0.000000
O O5 0.707283 0.200741 0.635178
O O6 0.893187 0.430517 0.790847
O O7 0.716514 0.974826 0.052686
O O8 0.882370 0.088855 0.284392
O O9 0.000000 0.000000 0.500000
O O10 0.697995 0.644005 0.492815
O O11 0.662190 0.826528 0.576698
O O12 0.620295 0.356212 0.908926
O O13 0.561400 0.969714 0.334355
O O14 0.515490 0.606565 0.754535
O O15 0.505631 0.260290 0.090373
O O16 0.700426 0.567780 0.195499
#
# Coordination Sequence:
#
# PCOD9035672 Si02
#       8
#     2   2   2   2   2   1   2   2
#     4  10  23  38  59  95 141 176 226 275 310 388
#     4  11  22  38  66  93 129 189 219 266 334 382
#     4   9  20  35  56  88 126 174 225 252 320 382
#     4  10  24  40  63 102 132 173 227 264 324 397
#     4  11  23  43  73  96 132 175 216 280 336 394
#     4  10  22  46  70 108 120 166 230 268 346 402
#     4  11  22  42  62  95 139 176 221 272 319 396
#     4  11  23  44  73  93 139 169 215 280 332 401
#
# _framework density 25.854721000000001
#
# number of rings (size 3 to 8) (size 9 to 14) (size 15 to 20)
#    0.000    1.600    2.667    3.200    7.467    1.067 
#    0.000    5.333    0.000    8.000    0.000    0.000 
#    0.000    0.000    0.000    0.000    0.000    0.000 
#
# Total GULP energy -83721.831078 kJ/mol
# GULP energy per Si atom -5581.455405 kJ/mol
# Density = 2.579587 g / cm^3
# Si number density = 25.854721 Si / 1000 Ang^3
#
#
#
# Elastic Constant Matrix: (Units=GPa)
#
#
# Indices 1 2 3 4 5 6 
#
# 1 145.8610 15.5742 81.2991 -3.3952 4.8140 9.2152
# 2 15.5742 66.7271 32.4722 24.9452 -0.0400 -8.1493
# 3 81.2991 32.4722 209.1354 23.9538 21.6449 -1.4181
# 4 -3.3952 24.9452 23.9538 48.6648 2.3947 6.9851
# 5 4.8140 -0.0400 21.6449 2.3947 46.2608 -2.1539
# 6 9.2152 -8.1493 -1.4181 6.9851 -2.1539 39.4168
#
#
#
# Elastic Compliance Matrix: (Units=1/GPa)
#
#
# Indices 1 2 3 4 5 6 
#
# 1 0.009620 -0.002394 -0.003935 0.004334 0.000445 -0.003629
# 2 -0.002394 0.021332 -0.001184 -0.011622 0.001753 0.007083
# 3 -0.003935 -0.001184 0.007157 -0.003253 -0.002709 0.001361
# 4 0.004334 -0.011622 -0.003253 0.029723 -0.000890 -0.008849
# 5 0.000445 0.001753 -0.002709 -0.000890 0.022958 0.001573
# 6 -0.003629 0.007083 0.001361 -0.008849 0.001573 0.029386
#
#
# Mechanical properties :
#
#
# Convention : Reuss Voigt Hill
#
# Bulk Modulus (GPa) = 43.32013 75.60161 59.46087
# Shear Modulus (GPa) = 34.99020 46.36035 40.67528
#
# Velocity S-wave (km/s) = 3.68277 4.23911 3.97069
# Velocity P-wave (km/s) = 5.90553 7.29825 6.63851
#
# Compressibility (1/GPa) = 0.02308396
#
# Stress axis : x y z
#
# Youngs Moduli (GPa) = 103.94703 46.87813 139.71753
#
# Poissons Ratio (x) = 0.11221 0.54981
# Poissons Ratio (y) = 0.24881 0.16542
# Poissons Ratio (z) = 0.40905 0.05550
#
# Static dielectric constant tensor:
#      x y z
#    x 2.024090 -0.024550 0.014540 
#    y -0.024550 2.028540 -0.030280 
#    z 0.014540 -0.030280 1.983810 
# 
# From -- ./inp_files/342473.got.cif
#   From: 2010.05.17/outbox.cif.g08.bks.cpg/sg2_172_cif.got.tgz:342473.got - 2010.06.03 11:33:40.
