data_PCOD9035924
_publ_section_title
;
Structure prediction by ZEFSAII (Michael W. Deem and Ramdas Pophale) SiO2 
 PCOD9035924
Probable space group: P -1
;
_chemical_formula_sum "Si O2"
_cell_formula_units_Z 12
_cell_length_a 5.478969
_cell_length_b 8.008195
_cell_length_c 13.787013
_cell_angle_alpha 125.480934
_cell_angle_beta 82.534526
_cell_angle_gamma 106.860695
_cell_volume 470.849350
_symmetry_space_group_name_H-M "P -1"
_symmetry_group_IT_number 2
_symmetry_cell_setting 'triclinic'
loop_
_space_group_symop_operation_xyz
x,y,z
-x,-y,-z
loop_
_atom_site_type_symbol
_atom_site_label
_atom_site_fract_x
_atom_site_fract_y
_atom_site_fract_z
Si Si1 0.588880 0.910065 0.368731
Si Si2 0.898375 0.311943 0.364446
Si Si3 0.516642 0.796129 0.010617
Si Si4 0.934895 0.015235 0.863113
Si Si5 0.176155 0.665879 0.161457
Si Si6 0.724973 0.478465 0.235403
O O1 0.342202 0.798413 0.281738
O O2 0.720365 0.723374 0.326775
O O3 0.500000 0.000000 0.500000
O O4 0.740874 0.109035 0.364287
O O5 0.000000 0.500000 0.500000
O O6 0.742604 0.385023 0.309463
O O7 0.100349 0.212916 0.262930
O O8 0.803357 0.921743 0.068017
O O9 0.372148 0.654152 0.062025
O O10 0.324261 0.950585 0.065733
O O11 0.493324 0.641592 0.868074
O O12 0.986741 0.194486 0.836790
O O13 0.977002 0.471225 0.156657
#
# Coordination Sequence:
#
# PCOD9035924 Si02
#       6
#     2   2   2   2   2   2
#     4  12  27  50  74 109 156 205 259 326 378 462
#     4  12  27  51  75 111 153 204 266 318 382 462
#     4  10  23  46  81 114 159 201 255 312 398 465
#     4  10  23  49  78 111 161 199 254 322 380 458
#     4  10  22  46  76 106 156 197 250 314 389 448
#     4  12  27  45  80 113 147 207 255 315 396 460
#
# _framework density 25.485858
#
# number of rings (size 3 to 8) (size 9 to 14) (size 15 to 20)
#    1.000    0.000    3.333    1.500    4.667    4.667 
#    9.000    0.000    0.000    0.000    0.000    0.000 
#    0.000    0.000    0.000    0.000    0.000    0.000 
#
# Total GULP energy -67143.494598 kJ/mol
# GULP energy per Si atom -5595.291216 kJ/mol
# Density = 2.542785 g / cm^3
# Si number density = 25.485858 Si / 1000 Ang^3
#
#
#
# Elastic Constant Matrix: (Units=GPa)
#
#
# Indices 1 2 3 4 5 6 
#
# 1 162.6019 53.8212 86.1573 0.9908 -7.3125 -14.3796
# 2 53.8212 132.5757 62.9279 -15.0463 -10.4517 -12.3308
# 3 86.1573 62.9279 204.9645 -1.2070 0.2752 -11.9116
# 4 0.9908 -15.0463 -1.2070 53.0776 -2.9482 5.0760
# 5 -7.3125 -10.4517 0.2752 -2.9482 37.9284 -7.4525
# 6 -14.3796 -12.3308 -11.9116 5.0760 -7.4525 43.7613
#
#
#
# Elastic Compliance Matrix: (Units=1/GPa)
#
#
# Indices 1 2 3 4 5 6 
#
# 1 0.008555 -0.001905 -0.002912 -0.000861 0.001437 0.001826
# 2 -0.001905 0.010075 -0.002175 0.002836 0.002999 0.001803
# 3 -0.002912 -0.002175 0.006777 -0.000488 -0.001224 0.000123
# 4 -0.000861 0.002836 -0.000488 0.019906 0.001850 -0.001610
# 5 0.001437 0.002999 -0.001224 0.001850 0.028735 0.005663
# 6 0.001826 0.001803 0.000123 -0.001610 0.005663 0.025144
#
#
# Mechanical properties :
#
#
# Convention : Reuss Voigt Hill
#
# Bulk Modulus (GPa) = 87.55044 100.66165 94.10605
# Shear Modulus (GPa) = 42.74146 46.76917 44.75532
#
# Velocity S-wave (km/s) = 4.09964 4.28846 4.19511
# Velocity P-wave (km/s) = 7.53900 8.00649 7.77626
#
# Compressibility (1/GPa) = 0.01142199
#
# Stress axis : x y z
#
# Youngs Moduli (GPa) = 116.89031 99.25924 147.56719
#
# Poissons Ratio (x) = 0.18913 0.42972
# Poissons Ratio (y) = 0.22272 0.32092
# Poissons Ratio (z) = 0.34039 0.21586
#
# Static dielectric constant tensor:
#      x y z
#    x 2.060060 0.007220 -0.022640 
#    y 0.007220 2.154430 0.007180 
#    z -0.022640 0.007180 1.966150 
# 
# From -- ./inp_files/478699.got.cif
#   From: 2010.05.17/outbox.cif.g08.bks.cpg/sg2_240_cif.got.tgz:478699.got - 2010.06.03 11:33:40.
