data_PCOD9035288
_publ_section_title
;
Structure prediction by ZEFSAII (Michael W. Deem and Ramdas Pophale) SiO2 
 PCOD9035288
Probable space group: P -1
;
_chemical_formula_sum "Si O2"
_cell_formula_units_Z 14
_cell_length_a 14.352549
_cell_length_b 21.235250
_cell_length_c 5.162805
_cell_angle_alpha 86.395838
_cell_angle_beta 85.939052
_cell_angle_gamma 19.717209
_cell_volume 529.504230
_symmetry_space_group_name_H-M "P -1"
_symmetry_group_IT_number 2
_symmetry_cell_setting 'triclinic'
loop_
_space_group_symop_operation_xyz
x,y,z
-x,-y,-z
loop_
_atom_site_type_symbol
_atom_site_label
_atom_site_fract_x
_atom_site_fract_y
_atom_site_fract_z
Si Si1 0.000954 0.955518 0.258857
Si Si2 0.377545 0.894349 0.467541
Si Si3 0.151681 0.731452 0.818280
Si Si4 0.157826 0.495396 0.600891
Si Si5 0.461939 0.432841 0.507613
Si Si6 0.196248 0.259644 0.871865
Si Si7 0.274584 0.062428 0.831521
O O1 0.281207 0.737346 0.298099
O O2 0.000000 0.000000 0.500000
O O3 0.733022 0.081646 0.286530
O O4 0.000000 0.000000 0.000000
O O5 0.636870 0.693585 0.351041
O O6 0.393305 0.952161 0.586435
O O7 0.114366 0.062449 0.288820
O O8 0.239126 0.619935 0.634916
O O9 0.404907 0.619009 0.759484
O O10 0.019954 0.780868 0.078322
O O11 0.960844 0.607231 0.366552
O O12 0.333276 0.445887 0.498330
O O13 0.990990 0.617557 0.863475
O O14 0.238660 0.160222 0.797607
O O15 0.494649 0.094670 0.950166
#
# Coordination Sequence:
#
# PCOD9035288 Si02
#       7
#     2   2   2   2   2   2   2
#     4  11  25  43  69 107 147 190 230 289 363 432
#     4  11  27  41  74 106 149 186 242 305 363 430
#     4  10  23  46  69 107 142 191 235 300 359 433
#     4  12  26  48  74 109 145 192 241 300 369 429
#     4  10  22  45  73 105 149 185 242 290 363 438
#     4  11  29  49  76 102 144 199 247 302 355 438
#     4  11  26  47  75 102 146 192 251 300 363 424
#
# _framework density 26.439824000000002
#
# number of rings (size 3 to 8) (size 9 to 14) (size 15 to 20)
#    0.000    1.143    2.857    0.857   10.000    2.286 
#    5.143    2.857    0.000    0.000    0.000    0.000 
#    0.000    0.000    0.000    0.000    0.000    0.000 
#
# Total GULP energy -78502.249418 kJ/mol
# GULP energy per Si atom -5607.303530 kJ/mol
# Density = 2.637965 g / cm^3
# Si number density = 26.439824 Si / 1000 Ang^3
#
#
#
# Elastic Constant Matrix: (Units=GPa)
#
#
# Indices 1 2 3 4 5 6 
#
# 1 123.6146 57.9263 17.9807 27.2709 12.9282 2.2127
# 2 57.9263 158.2323 24.1850 0.8091 5.6500 13.8850
# 3 17.9807 24.1850 81.9206 13.3714 19.6927 -0.4403
# 4 27.2709 0.8091 13.3714 43.3306 2.9691 -7.9857
# 5 12.9282 5.6500 19.6927 2.9691 36.2569 15.4909
# 6 2.2127 13.8850 -0.4403 -7.9857 15.4909 49.9805
#
#
#
# Elastic Compliance Matrix: (Units=1/GPa)
#
#
# Indices 1 2 3 4 5 6 
#
# 1 0.012046 -0.004414 0.000753 -0.007354 -0.003701 0.000672
# 2 -0.004414 0.008449 -0.002598 0.002788 0.002511 -0.002508
# 3 0.000753 -0.002598 0.015751 -0.004072 -0.009406 0.003092
# 4 -0.007354 0.002788 -0.004072 0.029674 0.000174 0.004203
# 5 -0.003701 0.002511 -0.009406 0.000174 0.039023 -0.012684
# 6 0.000672 -0.002508 0.003092 0.004203 -0.012684 0.025305
#
#
# Mechanical properties :
#
#
# Convention : Reuss Voigt Hill
#
# Bulk Modulus (GPa) = 42.14439 62.66127 52.40283
# Shear Modulus (GPa) = 33.18407 43.49196 38.33801
#
# Velocity S-wave (km/s) = 3.54655 4.06019 3.81203
# Velocity P-wave (km/s) = 5.72233 6.76248 6.26403
#
# Compressibility (1/GPa) = 0.02372795
#
# Stress axis : x y z
#
# Youngs Moduli (GPa) = 83.01488 118.35841 63.48823
#
# Poissons Ratio (x) = 0.52245 -0.04779
# Poissons Ratio (y) = 0.36644 0.16492
# Poissons Ratio (z) = -0.06249 0.30746
#
# Static dielectric constant tensor:
#      x y z
#    x 2.093680 -0.021560 -0.059100 
#    y -0.021560 2.048890 -0.019390 
#    z -0.059100 -0.019390 2.091410 
# 
# From -- ./inp_files/72187.got.cif
#   From: 2010.05.17/outbox.cif.g08.bks.cpg/sg2_37_cif.got.tgz:72187.got - 2010.06.03 11:33:40.
