data_PCOD9035992
_publ_section_title
;
Structure prediction by ZEFSAII (Michael W. Deem and Ramdas Pophale) SiO2 
 PCOD9035992
Probable space group: P -1
;
_chemical_formula_sum "Si O2"
_cell_formula_units_Z 16
_cell_length_a 8.050422
_cell_length_b 14.635642
_cell_length_c 21.670865
_cell_angle_alpha 20.084657
_cell_angle_beta 51.263516
_cell_angle_gamma 45.816464
_cell_volume 624.461903
_symmetry_space_group_name_H-M "P -1"
_symmetry_group_IT_number 2
_symmetry_cell_setting 'triclinic'
loop_
_space_group_symop_operation_xyz
x,y,z
-x,-y,-z
loop_
_atom_site_type_symbol
_atom_site_label
_atom_site_fract_x
_atom_site_fract_y
_atom_site_fract_z
Si Si1 0.374190 0.265831 0.270960
Si Si2 0.059571 0.897585 0.980099
Si Si3 0.817185 0.186614 0.375209
Si Si4 0.113165 0.457208 0.079099
Si Si5 0.658614 0.887638 0.869762
Si Si6 0.283051 0.312931 0.612531
Si Si7 0.209926 0.264303 0.518682
Si Si8 0.397727 0.720182 0.145422
O O1 0.260110 0.368646 0.163925
O O2 0.309298 0.024765 0.474560
O O3 0.647931 0.072073 0.319365
O O4 0.239246 0.566236 0.146320
O O5 0.175754 0.076268 0.802243
O O6 0.792325 0.003414 0.950160
O O7 0.000000 0.000000 0.000000
O O8 0.954373 0.268107 0.238490
O O9 0.648682 0.485629 0.257868
O O10 0.000000 0.000000 0.500000
O O11 0.283865 0.339008 0.057003
O O12 0.911452 0.780722 0.911935
O O13 0.517780 0.195856 0.672958
O O14 0.483203 0.842700 0.988087
O O15 0.308108 0.302825 0.539320
O O16 0.069113 0.613516 0.490028
O O17 0.270868 0.492812 0.318335
#
# Coordination Sequence:
#
# PCOD9035992 Si02
#       8
#     2   2   2   2   2   2   2   2
#     4  10  19  36  58  90 115 148 202 237 281 353
#     4  11  22  36  58  84 116 155 193 246 292 333
#     4   8  16  33  56  82 113 145 186 234 284 339
#     4   9  18  32  58  89 114 152 192 236 289 344
#     4  10  17  32  60  85 118 151 189 234 292 345
#     4  10  19  35  58  84 119 157 185 235 296 348
#     4   9  19  34  56  86 115 151 196 228 288 352
#     4   9  18  34  56  80 113 152 188 229 291 340
#
# _framework density 25.622057999999999
#
# number of rings (size 3 to 8) (size 9 to 14) (size 15 to 20)
#    0.000    2.500    2.500    0.000    0.000    0.500 
#    0.000   11.250    0.000    3.750    0.000    0.000 
#    0.000    0.000    0.000    0.000    0.000    0.000 
#
# Total GULP energy -89166.832820 kJ/mol
# GULP energy per Si atom -5572.927051 kJ/mol
# Density = 2.556374 g / cm^3
# Si number density = 25.622058 Si / 1000 Ang^3
#
#
#
# Elastic Constant Matrix: (Units=GPa)
#
#
# Indices 1 2 3 4 5 6 
#
# 1 52.2361 35.7028 47.2691 -12.8096 28.5026 -9.7830
# 2 35.7028 155.2991 72.0565 -29.4177 8.7859 -16.4756
# 3 47.2691 72.0565 162.0819 -32.8001 29.0518 0.8002
# 4 -12.8096 -29.4177 -32.8001 69.9620 -4.9789 20.2844
# 5 28.5026 8.7859 29.0518 -4.9789 50.7567 -7.4861
# 6 -9.7830 -16.4756 0.8002 20.2844 -7.4861 33.6911
#
#
#
# Elastic Compliance Matrix: (Units=1/GPa)
#
#
# Indices 1 2 3 4 5 6 
#
# 1 0.037334 -0.004271 -0.006335 -0.000749 -0.015811 0.005840
# 2 -0.004271 0.009326 -0.003369 0.000722 0.003330 0.003705
# 3 -0.006335 -0.003369 0.010921 0.004375 -0.002711 -0.006983
# 4 -0.000749 0.000722 0.004375 0.019975 -0.002087 -0.012458
# 5 -0.015811 0.003330 -0.002711 -0.002087 0.030095 0.005045
# 6 0.005840 0.003705 -0.006983 -0.012458 0.005045 0.041977
#
#
# Mechanical properties :
#
#
# Convention : Reuss Voigt Hill
#
# Bulk Modulus (GPa) = 33.75100 75.51931 54.63516
# Shear Modulus (GPa) = 26.67290 45.18787 35.93038
#
# Velocity S-wave (km/s) = 3.22997 4.20412 3.74882
# Velocity P-wave (km/s) = 5.20687 7.28728 6.33309
#
# Compressibility (1/GPa) = 0.02962875
#
# Stress axis : x y z
#
# Youngs Moduli (GPa) = 26.78536 107.22680 91.56632
#
# Poissons Ratio (x) = 0.45798 0.58012
# Poissons Ratio (y) = 0.11440 0.30853
# Poissons Ratio (z) = 0.16970 0.36129
#
# Static dielectric constant tensor:
#      x y z
#    x 2.277340 -0.047840 0.048760 
#    y -0.047840 2.030370 -0.042410 
#    z 0.048760 -0.042410 2.064540 
# 
# From -- ./inp_files/317379.got.cif
#   From: 2010.05.17/outbox.cif.g08.bks.cpg/sg2_159_cif.got.tgz:317379.got - 2010.06.03 11:33:40.
