data_PCOD9035662
_publ_section_title
;
Structure prediction by ZEFSAII (Michael W. Deem and Ramdas Pophale) SiO2 
 PCOD9035662
Probable space group: P -1
;
_chemical_formula_sum "Si O2"
_cell_formula_units_Z 14
_cell_length_a 13.168328
_cell_length_b 9.736450
_cell_length_c 8.014085
_cell_angle_alpha 115.521227
_cell_angle_beta 137.215001
_cell_angle_gamma 83.756274
_cell_volume 592.670043
_symmetry_space_group_name_H-M "P -1"
_symmetry_group_IT_number 2
_symmetry_cell_setting 'triclinic'
loop_
_space_group_symop_operation_xyz
x,y,z
-x,-y,-z
loop_
_atom_site_type_symbol
_atom_site_label
_atom_site_fract_x
_atom_site_fract_y
_atom_site_fract_z
Si Si1 0.359277 0.564411 0.408906
Si Si2 0.356797 0.395533 0.653618
Si Si3 0.344826 0.907697 0.659493
Si Si4 0.514008 0.865996 0.323592
Si Si5 0.051901 0.535839 0.888102
Si Si6 0.828624 0.224310 0.301452
Si Si7 0.011157 0.169024 0.189148
O O1 0.500000 0.500000 0.500000
O O2 0.315836 0.497885 0.510565
O O3 0.379286 0.752670 0.545768
O O4 0.218966 0.504494 0.073830
O O5 0.428661 0.267206 0.591532
O O6 0.064394 0.590628 0.443540
O O7 0.500000 0.500000 0.000000
O O8 0.202601 0.854323 0.592661
O O9 0.350192 0.037091 0.593037
O O10 0.500000 0.000000 0.000000
O O11 0.500000 0.000000 0.500000
O O12 0.343285 0.789740 0.988427
O O13 0.065357 0.718280 0.953479
O O14 0.000000 0.500000 0.000000
O O15 0.193495 0.289282 0.489155
O O16 0.916536 0.143559 0.236161
O O17 0.000000 0.000000 0.000000
#
# Coordination Sequence:
#
# PCOD9035662 Si02
#       7
#     2   2   2   2   2   2   2
#     4  12  27  45  74 105 145 195 251 303 371 448
#     4  12  26  46  70 109 144 190 251 307 364 455
#     4  10  22  46  70 104 146 191 242 303 376 439
#     4  11  24  44  78 104 147 193 244 308 375 439
#     4  12  25  50  73 103 155 198 244 310 374 452
#     4  11  25  47  77 108 147 204 248 304 385 449
#     4  12  28  48  77 112 149 193 256 316 383 443
#
# _framework density 23.621911999999998
#
# number of rings (size 3 to 8) (size 9 to 14) (size 15 to 20)
#    0.000    0.571    2.857    4.714    8.000    1.143 
#    0.000    1.429    0.000    0.000    0.000    0.000 
#    0.000    0.000    0.000    0.000    0.000    0.000 
#
# Total GULP energy -78322.305922 kJ/mol
# GULP energy per Si atom -5594.450423 kJ/mol
# Density = 2.356815 g / cm^3
# Si number density = 23.621912 Si / 1000 Ang^3
#
#
#
# Elastic Constant Matrix: (Units=GPa)
#
#
# Indices 1 2 3 4 5 6 
#
# 1 142.6689 37.3088 34.2620 5.4663 4.3165 -10.7425
# 2 37.3088 134.5498 59.4171 -4.2233 3.7608 -10.1243
# 3 34.2620 59.4171 128.4510 8.8379 19.5776 -7.4788
# 4 5.4663 -4.2233 8.8379 35.9525 -5.5390 0.0423
# 5 4.3165 3.7608 19.5776 -5.5390 40.7529 -0.9298
# 6 -10.7425 -10.1243 -7.4788 0.0423 -0.9298 43.3536
#
#
#
# Elastic Compliance Matrix: (Units=1/GPa)
#
#
# Indices 1 2 3 4 5 6 
#
# 1 0.007859 -0.001590 -0.001165 -0.001135 -0.000249 0.001371
# 2 -0.001590 0.010047 -0.004637 0.002851 0.001884 0.001190
# 3 -0.001165 -0.004637 0.011374 -0.004003 -0.005446 0.000478
# 4 -0.001135 0.002851 -0.004003 0.030213 0.005882 -0.000210
# 5 -0.000249 0.001884 -0.005446 0.005882 0.027807 0.000029
# 6 0.001371 0.001190 0.000478 -0.000210 0.000029 0.023767
#
#
# Mechanical properties :
#
#
# Convention : Reuss Voigt Hill
#
# Bulk Modulus (GPa) = 68.98583 74.18281 71.58432
# Shear Modulus (GPa) = 38.26027 42.32391 40.29209
#
# Velocity S-wave (km/s) = 4.02891 4.23747 4.13450
# Velocity P-wave (km/s) = 7.13515 7.44405 7.29124
#
# Compressibility (1/GPa) = 0.01449573
#
# Stress axis : x y z
#
# Youngs Moduli (GPa) = 127.24095 99.52817 87.91916
#
# Poissons Ratio (x) = 0.15829 0.10240
# Poissons Ratio (y) = 0.20237 0.40771
# Poissons Ratio (z) = 0.14819 0.46154
#
# Static dielectric constant tensor:
#      x y z
#    x 1.986250 0.054930 0.045990 
#    y 0.054930 1.860520 -0.002210 
#    z 0.045990 -0.002210 1.991160 
# 
# From -- ./inp_files/235740.got.cif
#   From: 2010.05.17/outbox.cif.g08.bks.cpg/sg2_118_cif.got.tgz:235740.got - 2010.06.03 11:33:40.
