data_PCOD9035886
_publ_section_title
;
Structure prediction by ZEFSAII (Michael W. Deem and Ramdas Pophale) SiO2 
 PCOD9035886
Probable space group: P -1
;
_chemical_formula_sum "Si O2"
_cell_formula_units_Z 14
_cell_length_a 14.163981
_cell_length_b 4.717225
_cell_length_c 10.335983
_cell_angle_alpha 76.684448
_cell_angle_beta 58.099051
_cell_angle_gamma 63.367230
_cell_volume 524.063729
_symmetry_space_group_name_H-M "P -1"
_symmetry_group_IT_number 2
_symmetry_cell_setting 'triclinic'
loop_
_space_group_symop_operation_xyz
x,y,z
-x,-y,-z
loop_
_atom_site_type_symbol
_atom_site_label
_atom_site_fract_x
_atom_site_fract_y
_atom_site_fract_z
Si Si1 0.365329 0.519762 0.399306
Si Si2 0.769316 0.119185 0.880468
Si Si3 0.360260 0.583956 0.807846
Si Si4 0.987086 0.134866 0.139159
Si Si5 0.245722 0.230452 0.323063
Si Si6 0.019195 0.737820 0.402403
Si Si7 0.745700 0.736075 0.262459
O O1 0.284727 0.891064 0.411207
O O2 0.323209 0.354848 0.562578
O O3 0.340257 0.358998 0.305061
O O4 0.725483 0.100678 0.241354
O O5 0.732729 0.927793 0.819504
O O6 0.670915 0.334926 0.028387
O O7 0.883933 0.872967 0.903587
O O8 0.833204 0.335200 0.742358
O O9 0.033471 0.098713 0.715444
O O10 0.496677 0.525298 0.684605
O O11 0.321470 0.309509 0.814058
O O12 0.882316 0.480147 0.189862
O O13 0.000000 0.000000 0.000000
O O14 0.097175 0.372351 0.456968
O O15 0.000000 0.000000 0.500000
#
# Coordination Sequence:
#
# PCOD9035886 Si02
#       7
#     2   2   2   2   2   2   2
#     4  12  26  47  75 108 146 200 252 299 370 441
#     4  10  26  45  71 110 149 186 249 301 380 435
#     4  12  27  46  75 107 152 194 247 312 363 439
#     4  10  22  46  74 112 146 197 243 308 378 451
#     4  12  25  48  71 107 147 193 250 301 369 440
#     4  10  23  46  73 106 150 189 242 310 367 444
#     4  12  25  47  74 108 148 194 250 306 371 441
#
# _framework density 26.714310999999999
#
# number of rings (size 3 to 8) (size 9 to 14) (size 15 to 20)
#    0.857    0.000    2.857    3.429    4.000    4.571 
#    0.000    0.000    0.000    0.000    0.000    0.000 
#    0.000    0.000    0.000    0.000    0.000    0.000 
#
# Total GULP energy -78513.114395 kJ/mol
# GULP energy per Si atom -5608.079600 kJ/mol
# Density = 2.665351 g / cm^3
# Si number density = 26.714311 Si / 1000 Ang^3
#
#
#
# Elastic Constant Matrix: (Units=GPa)
#
#
# Indices 1 2 3 4 5 6 
#
# 1 108.9036 24.7931 18.1998 -1.5985 15.1052 9.1013
# 2 24.7931 118.1844 38.9350 -15.7731 -3.0881 12.2340
# 3 18.1998 38.9350 141.1908 -15.3626 6.4310 -11.5914
# 4 -1.5985 -15.7731 -15.3626 40.1557 -4.6024 -1.0310
# 5 15.1052 -3.0881 6.4310 -4.6024 55.9678 2.2524
# 6 9.1013 12.2340 -11.5914 -1.0310 2.2524 47.0149
#
#
#
# Elastic Compliance Matrix: (Units=1/GPa)
#
#
# Indices 1 2 3 4 5 6 
#
# 1 0.010275 -0.001899 -0.000920 -0.001050 -0.002794 -0.001611
# 2 -0.001899 0.010513 -0.002640 0.003170 0.001779 -0.003034
# 3 -0.000920 -0.002640 0.008448 0.002143 -0.000814 0.003034
# 4 -0.001050 0.003170 0.002143 0.027215 0.002435 0.000387
# 5 -0.002794 0.001779 -0.000814 0.002435 0.019053 -0.000982
# 6 -0.001611 -0.003034 0.003034 0.000387 -0.000982 0.023175
#
#
# Mechanical properties :
#
#
# Convention : Reuss Voigt Hill
#
# Bulk Modulus (GPa) = 54.58647 59.12605 56.85626
# Shear Modulus (GPa) = 43.21394 47.71772 45.46583
#
# Velocity S-wave (km/s) = 4.02634 4.23096 4.12992
# Velocity P-wave (km/s) = 6.48791 6.78593 6.63859
#
# Compressibility (1/GPa) = 0.01831956
#
# Stress axis : x y z
#
# Youngs Moduli (GPa) = 97.32142 95.12086 118.36462
#
# Poissons Ratio (x) = 0.18062 0.10892
# Poissons Ratio (y) = 0.18480 0.31243
# Poissons Ratio (z) = 0.08955 0.25107
#
# Static dielectric constant tensor:
#      x y z
#    x 1.997720 -0.037270 -0.029320 
#    y -0.037270 2.409650 -0.028020 
#    z -0.029320 -0.028020 2.078070 
# 
# From -- ./inp_files/444879.got.cif
#   From: 2010.05.17/outbox.cif.g08.bks.cpg/sg2_223_cif.got.tgz:444879.got - 2010.06.03 11:33:40.
