data_PCOD9035850
_publ_section_title
;
Structure prediction by ZEFSAII (Michael W. Deem and Ramdas Pophale) SiO2 
 PCOD9035850
Probable space group: P -1
;
_chemical_formula_sum "Si O2"
_cell_formula_units_Z 14
_cell_length_a 13.190070
_cell_length_b 12.939203
_cell_length_c 8.278341
_cell_angle_alpha 97.102911
_cell_angle_beta 116.888763
_cell_angle_gamma 32.038857
_cell_volume 558.758529
_symmetry_space_group_name_H-M "P -1"
_symmetry_group_IT_number 2
_symmetry_cell_setting 'triclinic'
loop_
_space_group_symop_operation_xyz
x,y,z
-x,-y,-z
loop_
_atom_site_type_symbol
_atom_site_label
_atom_site_fract_x
_atom_site_fract_y
_atom_site_fract_z
Si Si1 0.188539 0.462073 0.410205
Si Si2 0.300676 0.632221 0.679630
Si Si3 0.341555 0.031981 0.960413
Si Si4 0.920176 0.022476 0.212916
Si Si5 0.226193 0.215432 0.260695
Si Si6 0.767722 0.529211 0.211898
Si Si7 0.302880 0.827408 0.252421
O O1 0.147256 0.401917 0.244521
O O2 0.194523 0.426030 0.596154
O O3 0.463008 0.291654 0.548942
O O4 0.938196 0.737920 0.272870
O O5 0.301852 0.734704 0.806974
O O6 0.256493 0.564073 0.740792
O O7 0.564132 0.392796 0.733078
O O8 0.088782 0.825092 0.427228
O O9 0.512171 0.789705 0.003481
O O10 0.281198 0.109505 0.116976
O O11 0.500000 0.000000 0.000000
O O12 0.829081 0.037607 0.988651
O O13 0.095643 0.974141 0.264784
O O14 0.006404 0.339079 0.228845
O O15 0.500000 0.000000 0.500000
#
# Coordination Sequence:
#
# PCOD9035850 Si02
#       7
#     2   2   2   2   2   2   2
#     4  11  24  44  69 106 140 186 238 285 346 425
#     4  10  23  42  71 102 134 181 239 278 354 424
#     4  12  25  46  72  96 146 192 234 290 350 415
#     4  10  22  46  73  97 140 185 223 301 358 407
#     4  12  24  44  72 100 146 186 231 291 353 418
#     4  11  25  44  67 105 143 187 231 290 345 428
#     4  10  23  43  71 103 137 178 235 291 351 415
#
# _framework density 25.055544999999999
#
# number of rings (size 3 to 8) (size 9 to 14) (size 15 to 20)
#    0.000    1.143    2.857    2.571    2.000    4.571 
#    0.000    7.143    0.000    0.000    0.000    0.000 
#    0.000    0.000    0.000    0.000    0.000    0.000 
#
# Total GULP energy -78299.472172 kJ/mol
# GULP energy per Si atom -5592.819441 kJ/mol
# Density = 2.499852 g / cm^3
# Si number density = 25.055545 Si / 1000 Ang^3
#
#
#
# Elastic Constant Matrix: (Units=GPa)
#
#
# Indices 1 2 3 4 5 6 
#
# 1 106.1877 20.8381 41.6258 -0.3245 2.4177 6.0850
# 2 20.8381 105.9384 27.3709 -10.7233 -15.9144 -2.8710
# 3 41.6258 27.3709 135.8674 -29.1459 1.3245 10.4343
# 4 -0.3245 -10.7233 -29.1459 44.8484 6.8139 -0.1287
# 5 2.4177 -15.9144 1.3245 6.8139 28.7421 -5.2007
# 6 6.0850 -2.8710 10.4343 -0.1287 -5.2007 39.4020
#
#
#
# Elastic Compliance Matrix: (Units=1/GPa)
#
#
# Indices 1 2 3 4 5 6 
#
# 1 0.011229 -0.001792 -0.003495 -0.002407 -0.001410 -0.001133
# 2 -0.001792 0.011443 -0.001928 0.000424 0.006934 0.002538
# 3 -0.003495 -0.001928 0.010543 0.006874 -0.003399 -0.002819
# 4 -0.002407 0.000424 0.006874 0.027890 -0.006896 -0.002237
# 5 -0.001410 0.006934 -0.003399 -0.006896 0.041830 0.007122
# 6 -0.001133 0.002538 -0.002819 -0.002237 0.007122 0.027419
#
#
# Mechanical properties :
#
#
# Convention : Reuss Voigt Hill
#
# Bulk Modulus (GPa) = 53.23034 58.62925 55.92980
# Shear Modulus (GPa) = 33.10260 39.80906 36.45583
#
# Velocity S-wave (km/s) = 3.63873 3.99034 3.81859
# Velocity P-wave (km/s) = 6.24058 6.68438 6.46629
#
# Compressibility (1/GPa) = 0.01878628
#
# Stress axis : x y z
#
# Youngs Moduli (GPa) = 89.05853 87.38650 94.84604
#
# Poissons Ratio (x) = 0.15659 0.33147
# Poissons Ratio (y) = 0.15959 0.18285
# Poissons Ratio (z) = 0.31124 0.16847
#
# Static dielectric constant tensor:
#      x y z
#    x 2.026290 0.080510 -0.013030 
#    y 0.080510 2.017950 -0.046860 
#    z -0.013030 -0.046860 2.043880 
# 
# From -- ./inp_files/315266.got.cif
#   From: 2010.05.17/outbox.cif.g08.bks.cpg/sg2_158_cif.got.tgz:315266.got - 2010.06.03 11:33:40.
