data_PCOD9035140
_publ_section_title
;
Structure prediction by ZEFSAII (Michael W. Deem and Ramdas Pophale) SiO2 
 PCOD9035140
Probable space group: P -1
;
_chemical_formula_sum "Si O2"
_cell_formula_units_Z 16
_cell_length_a 19.708579
_cell_length_b 5.445104
_cell_length_c 10.414560
_cell_angle_alpha 65.068726
_cell_angle_beta 138.134338
_cell_angle_gamma 104.582816
_cell_volume 672.816350
_symmetry_space_group_name_H-M "P -1"
_symmetry_group_IT_number 2
_symmetry_cell_setting 'triclinic'
loop_
_space_group_symop_operation_xyz
x,y,z
-x,-y,-z
loop_
_atom_site_type_symbol
_atom_site_label
_atom_site_fract_x
_atom_site_fract_y
_atom_site_fract_z
Si Si1 0.250557 0.428236 0.575707
Si Si2 0.198437 0.965164 0.774135
Si Si3 0.038304 0.677926 0.132984
Si Si4 0.431518 0.265107 0.704778
Si Si5 0.716779 0.821871 0.925085
Si Si6 0.935361 0.470040 0.288018
Si Si7 0.639371 0.374466 0.083993
Si Si8 0.575750 0.088771 0.478015
O O1 0.193988 0.264812 0.641948
O O2 0.161686 0.616779 0.337348
O O3 0.322477 0.236433 0.624228
O O4 0.336933 0.562156 0.750010
O O5 0.097358 0.834895 0.695763
O O6 0.259525 0.798180 0.786113
O O7 0.269095 0.941424 0.004943
O O8 0.990030 0.562988 0.218593
O O9 0.000000 0.500000 0.000000
O O10 0.000000 0.000000 0.000000
O O11 0.448015 0.051447 0.658968
O O12 0.419575 0.587718 0.580006
O O13 0.534710 0.246248 0.940062
O O14 0.681605 0.934162 0.713924
O O15 0.827564 0.656437 0.107025
O O16 0.640791 0.637956 0.934052
O O17 0.000000 0.500000 0.500000
O O18 0.500000 0.000000 0.500000
#
# Coordination Sequence:
#
# PCOD9035140 Si02
#       8
#     2   2   2   2   2   2   2   2
#     4  11  28  48  73 111 151 201 258 318 389 465
#     4  10  23  44  80 105 149 191 265 315 373 458
#     4  12  32  52  78 114 161 200 256 328 403 459
#     4  12  28  43  76 108 154 205 245 315 388 452
#     4  10  23  40  71 106 139 191 251 311 368 448
#     4  11  26  48  80 110 144 204 266 320 387 459
#     4  10  22  45  71 108 146 193 252 312 368 449
#     4  12  26  45  71 106 154 198 256 303 379 463
#
# _framework density 23.780636000000001
#
# number of rings (size 3 to 8) (size 9 to 14) (size 15 to 20)
#    0.000    1.000    1.250    3.750   15.750    1.500 
#    0.000    0.000    0.000    0.000    0.000    0.000 
#    0.000    0.000    0.000    0.000    0.000    0.000 
#
# Total GULP energy -89456.156558 kJ/mol
# GULP energy per Si atom -5591.009785 kJ/mol
# Density = 2.372651 g / cm^3
# Si number density = 23.780636 Si / 1000 Ang^3
#
#
#
# Elastic Constant Matrix: (Units=GPa)
#
#
# Indices 1 2 3 4 5 6 
#
# 1 136.5932 34.6294 21.7328 1.0722 -8.1072 10.6129
# 2 34.6294 112.8588 32.5792 9.4175 -15.1399 17.6027
# 3 21.7328 32.5792 122.2792 2.8156 -0.3784 11.5699
# 4 1.0722 9.4175 2.8156 35.3791 -13.9651 1.1124
# 5 -8.1072 -15.1399 -0.3784 -13.9651 29.3631 2.0609
# 6 10.6129 17.6027 11.5699 1.1124 2.0609 52.7993
#
#
#
# Elastic Compliance Matrix: (Units=1/GPa)
#
#
# Indices 1 2 3 4 5 6 
#
# 1 0.008120 -0.001955 -0.000858 0.001080 0.001799 -0.000886
# 2 -0.001955 0.011372 -0.002361 -0.000626 0.005211 -0.003071
# 3 -0.000858 -0.002361 0.009060 -0.000663 -0.001586 -0.000950
# 4 0.001080 -0.000626 -0.000663 0.035103 0.016750 -0.001257
# 5 0.001799 0.005211 -0.001586 0.016750 0.045458 -0.003879
# 6 -0.000886 -0.003071 -0.000950 -0.001257 -0.003879 0.020528
#
#
# Mechanical properties :
#
#
# Convention : Reuss Voigt Hill
#
# Bulk Modulus (GPa) = 54.93154 61.06822 57.99988
# Shear Modulus (GPa) = 34.23305 42.36095 38.29700
#
# Velocity S-wave (km/s) = 3.79824 4.22515 4.01737
# Velocity P-wave (km/s) = 6.51037 7.03833 6.77949
#
# Compressibility (1/GPa) = 0.01820448
#
# Stress axis : x y z
#
# Youngs Moduli (GPa) = 123.15038 87.93179 110.37694
#
# Poissons Ratio (x) = 0.17187 0.09470
# Poissons Ratio (y) = 0.24071 0.26065
# Poissons Ratio (z) = 0.10566 0.20765
#
# Static dielectric constant tensor:
#      x y z
#    x 1.890210 0.009590 0.039420 
#    y 0.009590 2.029800 -0.040270 
#    z 0.039420 -0.040270 1.948120 
# 
# From -- ./inp_files/323601.got.cif
#   From: 2010.05.17/outbox.cif.g08.bks.cpg/sg2_162_cif.got.tgz:323601.got - 2010.06.03 11:33:40.
