data_PCOD9035184
_publ_section_title
;
Structure prediction by ZEFSAII (Michael W. Deem and Ramdas Pophale) SiO2 
 PCOD9035184
Probable space group: P -1
;
_chemical_formula_sum "Si O2"
_cell_formula_units_Z 16
_cell_length_a 9.610729
_cell_length_b 9.073606
_cell_length_c 11.805772
_cell_angle_alpha 129.509679
_cell_angle_beta 86.463400
_cell_angle_gamma 93.616443
_cell_volume 792.392332
_symmetry_space_group_name_H-M "P -1"
_symmetry_group_IT_number 2
_symmetry_cell_setting 'triclinic'
loop_
_space_group_symop_operation_xyz
x,y,z
-x,-y,-z
loop_
_atom_site_type_symbol
_atom_site_label
_atom_site_fract_x
_atom_site_fract_y
_atom_site_fract_z
Si Si1 0.096742 0.998304 0.102757
Si Si2 0.921468 0.312249 0.861440
Si Si3 0.583643 0.309852 0.915440
Si Si4 0.598342 0.962920 0.371041
Si Si5 0.314168 0.717990 0.868738
Si Si6 0.623140 0.351706 0.423637
Si Si7 0.873970 0.641040 0.564934
Si Si8 0.157287 0.298936 0.666933
O O1 0.118190 0.199131 0.261253
O O2 0.044970 0.856615 0.135762
O O3 0.231140 0.902538 0.997673
O O4 0.000000 0.000000 0.000000
O O5 0.750344 0.323022 0.877150
O O6 0.005125 0.278994 0.724024
O O7 0.000000 0.500000 0.000000
O O8 0.497841 0.153927 0.771098
O O9 0.500000 0.500000 0.000000
O O10 0.574746 0.281380 0.036910
O O11 0.732045 0.842580 0.348220
O O12 0.500000 0.000000 0.500000
O O13 0.627842 0.170326 0.416426
O O14 0.363843 0.724996 0.742145
O O15 0.220371 0.518203 0.785845
O O16 0.500000 0.500000 0.500000
O O17 0.747420 0.495309 0.519209
O O18 0.857657 0.728959 0.481833
O O19 0.000000 0.500000 0.500000
#
# Coordination Sequence:
#
# PCOD9035184 Si02
#       8
#     2   2   2   2   2   2   2   2
#     4  11  24  44  71 101 146 181 235 292 362 424
#     4  11  23  42  75 108 139 183 234 302 361 419
#     4  11  23  45  71 105 143 187 236 296 363 421
#     4  12  27  46  72 102 146 191 240 297 360 432
#     4  10  22  45  71  99 144 181 236 298 352 425
#     4  11  27  49  71 102 147 195 238 287 364 432
#     4  11  27  49  71 102 149 192 235 294 366 428
#     4  11  23  46  71 105 145 182 241 302 356 435
#
# _framework density 20.192018000000001
#
# number of rings (size 3 to 8) (size 9 to 14) (size 15 to 20)
#    0.000    1.000    3.750    3.000   10.500    2.000 
#    0.000    0.000    0.000    0.000    0.000    0.000 
#    0.000    0.000    0.000    0.000    0.000    0.000 
#
# Total GULP energy -89249.988052 kJ/mol
# GULP energy per Si atom -5578.124253 kJ/mol
# Density = 2.014606 g / cm^3
# Si number density = 20.192018 Si / 1000 Ang^3
#
#
#
# Elastic Constant Matrix: (Units=GPa)
#
#
# Indices 1 2 3 4 5 6 
#
# 1 115.4443 78.7248 46.7269 13.6531 5.1875 -11.6940
# 2 78.7248 154.2168 84.0455 -8.4093 -4.2770 -11.4306
# 3 46.7269 84.0455 187.5704 -1.1802 6.9984 -3.6331
# 4 13.6531 -8.4093 -1.1802 27.0122 -8.0808 -7.4309
# 5 5.1875 -4.2770 6.9984 -8.0808 36.4244 -5.5930
# 6 -11.6940 -11.4306 -3.6331 -7.4309 -5.5930 37.5512
#
#
#
# Elastic Compliance Matrix: (Units=1/GPa)
#
#
# Indices 1 2 3 4 5 6 
#
# 1 0.017300 -0.010147 0.000383 -0.014476 -0.007186 -0.001599
# 2 -0.010147 0.015434 -0.004501 0.013447 0.007863 0.004935
# 3 0.000383 -0.004501 0.007312 -0.002502 -0.002766 -0.001450
# 4 -0.014476 0.013447 -0.002502 0.057863 0.019051 0.013631
# 5 -0.007186 0.007863 -0.002766 0.019051 0.035533 0.008951
# 6 -0.001599 0.004935 -0.001450 0.013631 0.008951 0.031525
#
#
# Mechanical properties :
#
#
# Convention : Reuss Voigt Hill
#
# Bulk Modulus (GPa) = 86.83688 97.35841 92.09765
# Shear Modulus (GPa) = 25.33750 36.71319 31.02535
#
# Velocity S-wave (km/s) = 3.54620 4.26867 3.92409
# Velocity P-wave (km/s) = 7.73733 8.52152 8.13887
#
# Compressibility (1/GPa) = 0.01151584
#
# Stress axis : x y z
#
# Youngs Moduli (GPa) = 57.80484 64.79021 136.75938
#
# Poissons Ratio (x) = 0.65743 -0.05239
# Poissons Ratio (y) = 0.58655 0.61558
# Poissons Ratio (z) = -0.02214 0.29163
#
# Static dielectric constant tensor:
#      x y z
#    x 1.688790 0.030920 -0.019700 
#    y 0.030920 1.708620 0.043410 
#    z -0.019700 0.043410 1.720360 
# 
# From -- ./inp_files/187603.got.cif
#   From: 2010.05.17/outbox.cif.g08.bks.cpg/sg2_94_cif.got.tgz:187603.got - 2010.06.03 11:33:40.
