data_PCOD9035327
_publ_section_title
;
Structure prediction by ZEFSAII (Michael W. Deem and Ramdas Pophale) SiO2 
 PCOD9035327
Probable space group: P -1
;
_chemical_formula_sum "Si O2"
_cell_formula_units_Z 16
_cell_length_a 9.024209
_cell_length_b 5.414358
_cell_length_c 16.247254
_cell_angle_alpha 74.538904
_cell_angle_beta 101.367586
_cell_angle_gamma 125.599711
_cell_volume 621.229419
_symmetry_space_group_name_H-M "P -1"
_symmetry_group_IT_number 2
_symmetry_cell_setting 'triclinic'
loop_
_space_group_symop_operation_xyz
x,y,z
-x,-y,-z
loop_
_atom_site_type_symbol
_atom_site_label
_atom_site_fract_x
_atom_site_fract_y
_atom_site_fract_z
Si Si1 0.153141 0.115852 0.577635
Si Si2 0.809290 0.171400 0.006356
Si Si3 0.981167 0.534881 0.397844
Si Si4 0.476119 0.512266 0.660968
Si Si5 0.345256 0.417369 0.056622
Si Si6 0.785158 0.096157 0.198952
Si Si7 0.493584 0.176915 0.213558
Si Si8 0.193494 0.521606 0.277486
O O1 0.360308 0.414342 0.572598
O O2 0.071720 0.220109 0.631395
O O3 0.000000 0.000000 0.500000
O O4 0.160580 0.817798 0.614630
O O5 0.774932 0.029070 0.106926
O O6 0.683242 0.305341 0.966617
O O7 0.000000 0.500000 0.000000
O O8 0.804965 0.930996 0.962849
O O9 0.144754 0.625776 0.347055
O O10 0.000000 0.500000 0.500000
O O11 0.481072 0.775102 0.690283
O O12 0.679742 0.596041 0.670923
O O13 0.345335 0.206765 0.731818
O O14 0.412771 0.365433 0.154497
O O15 0.500000 0.500000 0.000000
O O16 0.683358 0.273859 0.184661
O O17 0.999627 0.300996 0.229683
O O18 0.331314 0.822175 0.212393
#
# Coordination Sequence:
#
# PCOD9035327 Si02
#       8
#     2   2   2   2   2   2   2   2
#     4  10  22  45  75 100 141 185 226 284 355 420
#     4  12  27  45  70 103 138 190 242 300 354 424
#     4  10  22  45  74 100 140 185 223 286 358 419
#     4  11  25  43  72 104 141 186 243 288 357 422
#     4  12  25  47  70  97 147 185 242 292 363 418
#     4  11  24  45  69  97 143 191 236 297 362 416
#     4  11  26  42  71 102 141 193 235 303 353 423
#     4  11  25  43  71 106 141 183 247 292 351 431
#
# _framework density 25.755381
#
# number of rings (size 3 to 8) (size 9 to 14) (size 15 to 20)
#    0.000    1.000    2.500    3.000    8.750    1.000 
#    0.000    5.000    0.000    0.000    0.000    0.000 
#    0.000    0.000    0.000    0.000    0.000    0.000 
#
# Total GULP energy -89268.295918 kJ/mol
# GULP energy per Si atom -5579.268495 kJ/mol
# Density = 2.569676 g / cm^3
# Si number density = 25.755381 Si / 1000 Ang^3
#
#
#
# Elastic Constant Matrix: (Units=GPa)
#
#
# Indices 1 2 3 4 5 6 
#
# 1 163.5002 38.5012 50.9807 22.8102 17.6775 6.0943
# 2 38.5012 120.4056 27.8477 34.0243 10.5858 8.5881
# 3 50.9807 27.8477 103.2123 28.7026 10.1547 1.3882
# 4 22.8102 34.0243 28.7026 45.9478 -4.7104 0.4452
# 5 17.6775 10.5858 10.1547 -4.7104 43.6551 11.2144
# 6 6.0943 8.5881 1.3882 0.4452 11.2144 46.1396
#
#
#
# Elastic Compliance Matrix: (Units=1/GPa)
#
#
# Indices 1 2 3 4 5 6 
#
# 1 0.007746 -0.001208 -0.002890 -0.001378 -0.002283 -0.000143
# 2 -0.001208 0.011293 0.000099 -0.008105 -0.002845 -0.001176
# 3 -0.002890 0.000099 0.013407 -0.007324 -0.002955 0.000749
# 4 -0.001378 -0.008105 -0.007324 0.033845 0.007969 -0.000353
# 5 -0.002283 -0.002845 -0.002955 0.007969 0.027574 -0.005859
# 6 -0.000143 -0.001176 0.000749 -0.000353 -0.005859 0.023316
#
#
# Mechanical properties :
#
#
# Convention : Reuss Voigt Hill
#
# Bulk Modulus (GPa) = 40.90315 69.08637 54.99476
# Shear Modulus (GPa) = 37.50129 45.13441 41.31785
#
# Velocity S-wave (km/s) = 3.81997 4.19074 4.00964
# Velocity P-wave (km/s) = 5.94745 7.09216 6.54488
#
# Compressibility (1/GPa) = 0.02444799
#
# Stress axis : x y z
#
# Youngs Moduli (GPa) = 129.09152 88.55165 74.58759
#
# Poissons Ratio (x) = 0.10698 0.21560
# Poissons Ratio (y) = 0.15596 -0.00742
# Poissons Ratio (z) = 0.37314 -0.00881
#
# Static dielectric constant tensor:
#      x y z
#    x 2.204020 -0.094210 0.273880 
#    y -0.094210 2.206320 -0.121460 
#    z 0.273880 -0.121460 2.473500 
# 
# From -- ./inp_files/53185.got.cif
#   From: 2010.05.17/outbox.cif.g08.bks.cpg/sg2_27_cif.got.tgz:53185.got - 2010.06.03 11:33:40.
