data_PCOD9035430
_publ_section_title
;
Structure prediction by ZEFSAII (Michael W. Deem and Ramdas Pophale) SiO2 
 PCOD9035430
Probable space group: P -1
;
_chemical_formula_sum "Si O2"
_cell_formula_units_Z 14
_cell_length_a 19.190152
_cell_length_b 9.524657
_cell_length_c 11.445535
_cell_angle_alpha 143.626648
_cell_angle_beta 154.152309
_cell_angle_gamma 38.898906
_cell_volume 529.134200
_symmetry_space_group_name_H-M "P -1"
_symmetry_group_IT_number 2
_symmetry_cell_setting 'triclinic'
loop_
_space_group_symop_operation_xyz
x,y,z
-x,-y,-z
loop_
_atom_site_type_symbol
_atom_site_label
_atom_site_fract_x
_atom_site_fract_y
_atom_site_fract_z
Si Si1 0.184862 0.442226 0.412678
Si Si2 0.868779 0.061243 0.080271
Si Si3 0.172291 0.944359 0.622224
Si Si4 0.354139 0.322202 0.232988
Si Si5 0.332070 0.834691 0.553621
Si Si6 0.934483 0.724988 0.638438
Si Si7 0.511876 0.276836 0.693423
O O1 0.127037 0.709797 0.454933
O O2 0.240681 0.126593 0.931818
O O3 0.381683 0.412452 0.680319
O O4 0.154487 0.215611 0.136749
O O5 0.017589 0.069834 0.396320
O O6 0.927547 0.117952 0.076612
O O7 0.703888 0.257179 0.988012
O O8 0.895099 0.611910 0.624187
O O9 0.312945 0.856653 0.678637
O O10 0.258611 0.597321 0.250767
O O11 0.488308 0.236770 0.277547
O O12 0.452325 0.339392 0.512764
O O13 0.233085 0.088191 0.524994
O O14 0.000000 0.500000 0.500000
O O15 0.500000 0.000000 0.500000
#
# Coordination Sequence:
#
# PCOD9035430 Si02
#       7
#     2   2   2   2   2   2   2
#     4  11  23  47  81 110 160 209 266 334 404 473
#     4  10  24  49  74 114 167 203 259 338 408 468
#     4  11  24  47  80 120 158 204 280 329 396 480
#     4  11  23  46  86 115 160 223 263 328 402 494
#     4  10  23  49  77 117 166 209 269 330 405 478
#     4  11  26  51  77 114 158 215 268 329 400 484
#     4  10  22  45  78 112 156 210 261 326 408 465
#
# _framework density 26.458317999999998
#
# number of rings (size 3 to 8) (size 9 to 14) (size 15 to 20)
#    0.000    1.429    1.429    3.000    0.000    4.571 
#   25.714   11.429    0.000    0.000    0.000    0.000 
#    0.000    0.000    0.000    0.000    0.000    0.000 
#
# Total GULP energy -78373.078913 kJ/mol
# GULP energy per Si atom -5598.077065 kJ/mol
# Density = 2.639810 g / cm^3
# Si number density = 26.458318 Si / 1000 Ang^3
#
#
#
# Elastic Constant Matrix: (Units=GPa)
#
#
# Indices 1 2 3 4 5 6 
#
# 1 175.6488 72.2165 36.1072 4.4123 17.7169 -6.0859
# 2 72.2165 166.3833 59.1052 13.0476 0.4378 4.4024
# 3 36.1072 59.1052 131.9440 13.0802 4.2295 3.6445
# 4 4.4123 13.0476 13.0802 40.3278 -0.2443 13.3947
# 5 17.7169 0.4378 4.2295 -0.2443 33.8742 7.1844
# 6 -6.0859 4.4024 3.6445 13.3947 7.1844 59.5729
#
#
#
# Elastic Compliance Matrix: (Units=1/GPa)
#
#
# Indices 1 2 3 4 5 6 
#
# 1 0.007566 -0.003096 -0.000574 -0.000191 -0.004183 0.001584
# 2 -0.003096 0.008486 -0.002878 -0.001216 0.002016 -0.000737
# 3 -0.000574 -0.002878 0.009253 -0.002065 -0.000866 0.000157
# 4 -0.000191 -0.001216 -0.002065 0.027995 0.001918 -0.006329
# 5 -0.004183 0.002016 -0.000866 0.001918 0.032847 -0.004916
# 6 0.001584 -0.000737 0.000157 -0.006329 -0.004916 0.019009
#
#
# Mechanical properties :
#
#
# Convention : Reuss Voigt Hill
#
# Bulk Modulus (GPa) = 81.90588 89.87043 85.88815
# Shear Modulus (GPa) = 40.87624 47.19147 44.03385
#
# Velocity S-wave (km/s) = 3.93482 4.22787 4.08398
# Velocity P-wave (km/s) = 7.18801 7.60748 7.40072
#
# Compressibility (1/GPa) = 0.01220914
#
# Stress axis : x y z
#
# Youngs Moduli (GPa) = 132.17805 117.84548 108.06857
#
# Poissons Ratio (x) = 0.36480 0.06207
# Poissons Ratio (y) = 0.40917 0.31100
# Poissons Ratio (z) = 0.07592 0.33913
#
# Static dielectric constant tensor:
#      x y z
#    x 2.190880 -0.057610 0.028170 
#    y -0.057610 2.089070 -0.015990 
#    z 0.028170 -0.015990 2.149980 
# 
# From -- ./inp_files/540895.got.cif
#   From: 2010.05.17/outbox.cif.g08.bks.cpg/sg2_271_cif.got.tgz:540895.got - 2010.06.03 11:33:40.
