data_PCOD9035128
_publ_section_title
;
Structure prediction by ZEFSAII (Michael W. Deem and Ramdas Pophale) SiO2 
 PCOD9035128
Probable space group: P -1
;
_chemical_formula_sum "Si O2"
_cell_formula_units_Z 15
_cell_length_a 6.795528
_cell_length_b 20.955312
_cell_length_c 8.353673
_cell_angle_alpha 139.078043
_cell_angle_beta 75.184180
_cell_angle_gamma 116.524785
_cell_volume 690.382178
_symmetry_space_group_name_H-M "P -1"
_symmetry_group_IT_number 2
_symmetry_cell_setting 'triclinic'
loop_
_space_group_symop_operation_xyz
x,y,z
-x,-y,-z
loop_
_atom_site_type_symbol
_atom_site_label
_atom_site_fract_x
_atom_site_fract_y
_atom_site_fract_z
Si Si1 0.215007 0.616594 0.344595
Si Si2 0.500000 0.500000 0.500000
Si Si3 0.283915 0.236167 0.454984
Si Si4 0.148101 0.792907 0.338069
Si Si5 0.097466 0.273618 0.242491
Si Si6 0.538006 0.922227 0.720596
Si Si7 0.863242 0.071868 0.685161
Si Si8 0.170455 0.587431 0.912944
O O1 0.474987 0.667685 0.424415
O O2 0.088489 0.687210 0.574475
O O3 0.077760 0.501141 0.232272
O O4 0.194441 0.600915 0.126821
O O5 0.302344 0.377716 0.334781
O O6 0.346708 0.548315 0.727152
O O7 0.180266 0.221550 0.273003
O O8 0.324279 0.137938 0.337549
O O9 0.106258 0.256373 0.643183
O O10 0.312233 0.833649 0.531233
O O11 0.190632 0.892917 0.407481
O O12 0.197109 0.702159 0.063830
O O13 0.996156 0.182361 0.959066
O O14 0.659201 0.997344 0.691392
O O15 0.500000 0.000000 0.000000
O O16 0.000000 0.000000 0.500000
#
# Coordination Sequence:
#
# PCOD9035128 Si02
#       8
#     2   1   2   2   2   2   2   2
#     4  10  22  45  71 105 143 185 243 295 354 433
#     4  10  26  44  78 104 154 184 228 310 364 430
#     4  12  23  44  76 103 141 194 243 302 352 428
#     4  12  26  46  74 107 143 194 244 298 365 432
#     4  11  26  48  71 111 143 193 245 292 366 435
#     4  12  27  47  72 104 142 193 247 300 355 432
#     4  12  28  47  71 106 151 192 237 303 365 425
#     4  10  22  45  71 106 146 184 239 297 360 437
#
# _framework density 21.727094000000001
#
# number of rings (size 3 to 8) (size 9 to 14) (size 15 to 20)
#    0.000    0.800    4.000    2.000    5.600    4.800 
#    0.000    2.667    0.000    0.000    0.000    0.000 
#    0.000    0.000    0.000    0.000    0.000    0.000 
#
# Total GULP energy -83629.725201 kJ/mol
# GULP energy per Si atom -5575.315013 kJ/mol
# Density = 2.167764 g / cm^3
# Si number density = 21.727094 Si / 1000 Ang^3
#
#
#
# Elastic Constant Matrix: (Units=GPa)
#
#
# Indices 1 2 3 4 5 6 
#
# 1 88.0491 34.4027 52.3253 1.9509 -6.3356 10.4311
# 2 34.4027 89.7480 36.3201 7.7202 -5.4023 35.0512
# 3 52.3253 36.3201 129.6855 15.1647 -28.9477 13.7182
# 4 1.9509 7.7202 15.1647 33.3604 3.1838 -7.0249
# 5 -6.3356 -5.4023 -28.9477 3.1838 32.5388 -2.8152
# 6 10.4311 35.0512 13.7182 -7.0249 -2.8152 46.8560
#
#
#
# Elastic Compliance Matrix: (Units=1/GPa)
#
#
# Indices 1 2 3 4 5 6 
#
# 1 0.016902 -0.005297 -0.007034 0.004384 -0.004044 0.002674
# 2 -0.005297 0.019788 -0.000860 -0.006992 0.000930 -0.014364
# 3 -0.007034 -0.000860 0.014652 -0.007731 0.012062 -0.002515
# 4 0.004384 -0.006992 -0.007731 0.038253 -0.009919 0.011657
# 5 -0.004044 0.000930 0.012062 -0.009919 0.041600 -0.002315
# 6 0.002674 -0.014364 -0.002515 0.011657 -0.002315 0.033837
#
#
# Mechanical properties :
#
#
# Convention : Reuss Voigt Hill
#
# Bulk Modulus (GPa) = 40.06357 61.50877 50.78617
# Shear Modulus (GPa) = 25.03292 34.84667 29.93979
#
# Velocity S-wave (km/s) = 3.39802 4.00914 3.71616
# Velocity P-wave (km/s) = 5.82021 7.05706 6.46827
#
# Compressibility (1/GPa) = 0.02496033
#
# Stress axis : x y z
#
# Youngs Moduli (GPa) = 59.16287 50.53489 68.24802
#
# Poissons Ratio (x) = 0.26769 0.48008
# Poissons Ratio (y) = 0.31339 0.05869
# Poissons Ratio (z) = 0.41618 0.04346
#
# Static dielectric constant tensor:
#      x y z
#    x 1.795830 -0.023170 0.021490 
#    y -0.023170 1.802560 0.014360 
#    z 0.021490 0.014360 1.755470 
# 
# From -- ./inp_files/38435.got.cif
#   From: 2010.05.17/outbox.cif.g08.bks.cpg/sg2_20_cif.got.tgz:38435.got - 2010.06.03 11:33:40.
