data_PCOD9035228
_publ_section_title
;
Structure prediction by ZEFSAII (Michael W. Deem and Ramdas Pophale) SiO2 
 PCOD9035228
Probable space group: P -1
;
_chemical_formula_sum "Si O2"
_cell_formula_units_Z 16
_cell_length_a 11.753705
_cell_length_b 18.130560
_cell_length_c 20.329302
_cell_angle_alpha 20.999507
_cell_angle_beta 28.724829
_cell_angle_gamma 31.102516
_cell_volume 728.181780
_symmetry_space_group_name_H-M "P -1"
_symmetry_group_IT_number 2
_symmetry_cell_setting 'triclinic'
loop_
_space_group_symop_operation_xyz
x,y,z
-x,-y,-z
loop_
_atom_site_type_symbol
_atom_site_label
_atom_site_fract_x
_atom_site_fract_y
_atom_site_fract_z
Si Si1 0.356087 0.684075 0.722133
Si Si2 0.254251 0.380581 0.652480
Si Si3 0.905447 0.609156 0.525309
Si Si4 0.217018 0.600113 0.624416
Si Si5 0.378597 0.244983 0.023090
Si Si6 0.845323 0.040188 0.883249
Si Si7 0.209738 0.065523 0.382473
Si Si8 0.874712 0.822657 0.917120
O O1 0.625733 0.601598 0.680698
O O2 0.163485 0.757657 0.816429
O O3 0.341636 0.877953 0.518148
O O4 0.282253 0.493103 0.877914
O O5 0.236128 0.549376 0.579853
O O6 0.543186 0.320466 0.540595
O O7 0.084884 0.485657 0.592206
O O8 0.160123 0.180350 0.895005
O O9 0.000000 0.500000 0.500000
O O10 0.926953 0.853522 0.313257
O O11 0.954349 0.744943 0.650872
O O12 0.223803 0.379132 0.841476
O O13 0.383692 0.143412 0.177031
O O14 0.220174 0.137594 0.142291
O O15 0.632527 0.204867 0.890256
O O16 0.799912 0.000111 0.862570
O O17 0.000000 0.000000 0.500000
#
# Coordination Sequence:
#
# PCOD9035228 Si02
#       8
#     2   2   2   2   2   2   2   2
#     4  12  27  45  67 102 144 187 231 283 345 424
#     4  10  25  46  72 102 144 180 233 295 346 413
#     4  12  28  47  70  98 145 196 235 276 346 425
#     4  10  22  45  72 108 139 177 231 298 357 403
#     4  12  23  43  71 102 145 177 229 299 351 407
#     4  11  26  45  72 103 134 188 238 286 346 416
#     4  12  24  38  69 104 137 182 228 282 357 407
#     4  11  23  44  71 106 141 178 234 295 355 407
#
# _framework density 21.972534
#
# number of rings (size 3 to 8) (size 9 to 14) (size 15 to 20)
#    0.000    0.750    3.750    3.000    5.250    3.000 
#    0.000    1.250    0.000    0.750    0.000    0.000 
#    0.000    0.000    0.000    0.000    0.000    0.000 
#
# Total GULP energy -89499.092888 kJ/mol
# GULP energy per Si atom -5593.693305 kJ/mol
# Density = 2.192252 g / cm^3
# Si number density = 21.972534 Si / 1000 Ang^3
#
#
#
# Elastic Constant Matrix: (Units=GPa)
#
#
# Indices 1 2 3 4 5 6 
#
# 1 119.2281 37.4014 44.2744 3.3104 12.3288 -5.4038
# 2 37.4014 96.3834 20.6690 8.5914 9.4429 14.1827
# 3 44.2744 20.6690 105.9384 -1.6528 6.5430 3.7870
# 4 3.3104 8.5914 -1.6528 35.0942 -3.2874 -3.7339
# 5 12.3288 9.4429 6.5430 -3.2874 37.7582 2.2694
# 6 -5.4038 14.1827 3.7870 -3.7339 2.2694 35.9268
#
#
#
# Elastic Compliance Matrix: (Units=1/GPa)
#
#
# Indices 1 2 3 4 5 6 
#
# 1 0.011547 -0.003940 -0.004053 -0.000123 -0.002325 0.003853
# 2 -0.003940 0.013482 -0.000706 -0.003793 -0.001926 -0.006113
# 3 -0.004053 -0.000706 0.011354 0.000911 -0.000303 -0.001414
# 4 -0.000123 -0.003793 0.000911 0.030238 0.003204 0.004323
# 5 -0.002325 -0.001926 -0.000303 0.003204 0.028117 -0.001001
# 6 0.003853 -0.006113 -0.001414 0.004323 -0.001001 0.031489
#
#
# Mechanical properties :
#
#
# Convention : Reuss Voigt Hill
#
# Bulk Modulus (GPa) = 52.67012 58.47108 55.57060
# Shear Modulus (GPa) = 33.34414 36.36951 34.85682
#
# Velocity S-wave (km/s) = 3.89978 4.07286 3.98726
# Velocity P-wave (km/s) = 6.65588 6.98472 6.82228
#
# Compressibility (1/GPa) = 0.01898610
#
# Stress axis : x y z
#
# Youngs Moduli (GPa) = 86.60459 74.17529 88.07092
#
# Poissons Ratio (x) = 0.29223 0.35696
# Poissons Ratio (y) = 0.34120 0.06214
# Poissons Ratio (z) = 0.35102 0.05233
#
# Static dielectric constant tensor:
#      x y z
#    x 1.778450 0.003060 0.000020 
#    y 0.003060 1.842890 -0.001630 
#    z 0.000020 -0.001630 1.827290 
# 
# From -- ./inp_files/518793.got.cif
#   From: 2010.05.17/outbox.cif.g08.bks.cpg/sg2_260_cif.got.tgz:518793.got - 2010.06.03 11:33:40.
