data_PCOD9035552
_publ_section_title
;
Structure prediction by ZEFSAII (Michael W. Deem and Ramdas Pophale) SiO2 
 PCOD9035552
Probable space group: P -1
;
_chemical_formula_sum "Si O2"
_cell_formula_units_Z 13
_cell_length_a 14.290948
_cell_length_b 14.696626
_cell_length_c 8.712037
_cell_angle_alpha 122.721691
_cell_angle_beta 60.020286
_cell_angle_gamma 160.166223
_cell_volume 522.059856
_symmetry_space_group_name_H-M "P -1"
_symmetry_group_IT_number 2
_symmetry_cell_setting 'triclinic'
loop_
_space_group_symop_operation_xyz
x,y,z
-x,-y,-z
loop_
_atom_site_type_symbol
_atom_site_label
_atom_site_fract_x
_atom_site_fract_y
_atom_site_fract_z
Si Si1 0.756143 0.698922 0.138265
Si Si2 0.789279 0.280323 0.605276
Si Si3 0.327387 0.104954 0.278622
Si Si4 0.838834 0.981607 0.168422
Si Si5 0.451906 0.740340 0.077457
Si Si6 0.500000 0.500000 0.500000
Si Si7 0.907509 0.646874 0.445009
O O1 0.653805 0.716499 0.152929
O O2 0.692536 0.672275 0.340619
O O3 0.673856 0.496013 0.021281
O O4 0.032018 0.943473 0.027979
O O5 0.754858 0.352965 0.808565
O O6 0.916754 0.295757 0.602932
O O7 0.000000 0.500000 0.500000
O O8 0.500000 0.000000 0.500000
O O9 0.343326 0.244461 0.346922
O O10 0.585683 0.328777 0.388776
O O11 0.044269 0.815124 0.328846
O O12 0.397862 0.105416 0.067341
O O13 0.671759 0.933805 0.211663
O O14 0.050220 0.219101 0.341586
#
# Coordination Sequence:
#
# PCOD9035552 Si02
#       7
#     2   2   2   2   2   1   2
#     4  10  23  41  70 106 143 191 242 306 363 435
#     4  12  26  46  78 106 142 189 247 308 362 429
#     4  11  28  45  73 106 154 191 241 298 374 437
#     4  11  23  42  74 102 145 185 254 298 367 427
#     4  11  26  45  70 105 142 190 246 300 363 438
#     4  10  22  46  68 104 152 194 236 290 378 428
#     4  12  26  48  72 110 145 196 241 306 365 434
#
# _framework density 24.901358999999999
#
# number of rings (size 3 to 8) (size 9 to 14) (size 15 to 20)
#    0.000    0.923    3.077    2.308    6.462    6.769 
#    0.000    0.000    0.000    0.000    0.000    0.000 
#    0.000    0.000    0.000    0.000    0.000    0.000 
#
# Total GULP energy -72390.882467 kJ/mol
# GULP energy per Si atom -5568.529421 kJ/mol
# Density = 2.484468 g / cm^3
# Si number density = 24.901359 Si / 1000 Ang^3
#
#
#
# Elastic Constant Matrix: (Units=GPa)
#
#
# Indices 1 2 3 4 5 6 
#
# 1 98.4959 16.4626 43.2520 -8.3722 5.5160 -11.2211
# 2 16.4626 71.7866 23.4640 -26.5456 15.0612 -6.2604
# 3 43.2520 23.4640 164.5076 -37.4381 -12.1082 -6.5063
# 4 -8.3722 -26.5456 -37.4381 45.9820 -1.2328 11.5031
# 5 5.5160 15.0612 -12.1082 -1.2328 33.8215 0.3694
# 6 -11.2211 -6.2604 -6.5063 11.5031 0.3694 29.2699
#
#
#
# Elastic Compliance Matrix: (Units=1/GPa)
#
#
# Indices 1 2 3 4 5 6 
#
# 1 0.012546 -0.001792 -0.003759 -0.003096 -0.002760 0.004843
# 2 -0.001792 0.020280 -0.000617 0.010806 -0.008559 -0.000625
# 3 -0.003759 -0.000617 0.008971 0.006975 0.004380 -0.002375
# 4 -0.003096 0.010806 0.006975 0.035956 -0.000374 -0.011451
# 5 -0.002760 -0.008559 0.004380 -0.000374 0.035407 -0.002215
# 6 0.004843 -0.000625 -0.002375 -0.011451 -0.002215 0.039888
#
#
# Mechanical properties :
#
#
# Convention : Reuss Voigt Hill
#
# Bulk Modulus (GPa) = 33.94391 55.68304 44.81348
# Shear Modulus (GPa) = 28.53818 38.58878 33.56348
#
# Velocity S-wave (km/s) = 3.38901 3.94085 3.67530
# Velocity P-wave (km/s) = 5.38282 6.56636 6.00382
#
# Compressibility (1/GPa) = 0.02946037
#
# Stress axis : x y z
#
# Youngs Moduli (GPa) = 79.70642 49.31009 111.47183
#
# Poissons Ratio (x) = 0.08837 0.41905
# Poissons Ratio (y) = 0.14284 0.06876
# Poissons Ratio (z) = 0.29964 0.03042
#
# Static dielectric constant tensor:
#      x y z
#    x 2.036410 0.114680 0.051890 
#    y 0.114680 1.973360 0.107070 
#    z 0.051890 0.107070 1.997570 
# 
# From -- ./inp_files/25513.got.cif
#   From: 2010.05.17/outbox.cif.g08.bks.cpg/sg2_13_cif.got.tgz:25513.got - 2010.06.03 11:33:40.
