data_PCOD9035218
_publ_section_title
;
Structure prediction by ZEFSAII (Michael W. Deem and Ramdas Pophale) SiO2 
 PCOD9035218
Probable space group: P -1
;
_chemical_formula_sum "Si O2"
_cell_formula_units_Z 14
_cell_length_a 6.514008
_cell_length_b 15.802602
_cell_length_c 15.194883
_cell_angle_alpha 27.397171
_cell_angle_beta 121.914615
_cell_angle_gamma 121.080385
_cell_volume 606.530598
_symmetry_space_group_name_H-M "P -1"
_symmetry_group_IT_number 2
_symmetry_cell_setting 'triclinic'
loop_
_space_group_symop_operation_xyz
x,y,z
-x,-y,-z
loop_
_atom_site_type_symbol
_atom_site_label
_atom_site_fract_x
_atom_site_fract_y
_atom_site_fract_z
Si Si1 0.974310 0.995967 0.102811
Si Si2 0.397223 0.311635 0.103765
Si Si3 0.229434 0.740542 0.914299
Si Si4 0.910855 0.369691 0.839852
Si Si5 0.333677 0.334370 0.567577
Si Si6 0.794423 0.838375 0.637197
Si Si7 0.505713 0.874528 0.367979
O O1 0.240657 0.949861 0.241839
O O2 0.770551 0.833593 0.238759
O O3 0.000000 0.000000 0.000000
O O4 0.888707 0.190073 0.937796
O O5 0.580496 0.267003 0.112220
O O6 0.345957 0.148167 0.314801
O O7 0.500000 0.500000 0.000000
O O8 0.159975 0.350280 0.962575
O O9 0.972069 0.694429 0.848101
O O10 0.283336 0.953703 0.762411
O O11 0.266158 0.633880 0.111318
O O12 0.893970 0.562577 0.611276
O O13 0.500000 0.500000 0.500000
O O14 0.476329 0.261367 0.584509
O O15 0.601785 0.795049 0.555096
O O16 0.000000 0.000000 0.500000
#
# Coordination Sequence:
#
# PCOD9035218 Si02
#       7
#     2   2   2   2   2   2   2
#     4  12  28  50  78 106 142 191 249 309 372 434
#     4  11  25  41  71 111 150 193 236 297 356 431
#     4  10  22  45  72 104 149 196 236 286 362 437
#     4  11  26  48  75 107 151 191 243 296 372 436
#     4  12  30  48  75 110 141 189 250 310 372 433
#     4   9  23  41  67 105 142 186 240 281 349 436
#     4  11  24  45  76 103 146 190 241 296 364 432
#
# _framework density 23.082100000000001
#
# number of rings (size 3 to 8) (size 9 to 14) (size 15 to 20)
#    0.000    1.143    2.857    0.857    8.000    6.857 
#    0.000    0.000    0.000    0.000    0.000    0.000 
#    0.000    0.000    0.000    0.000    0.000    0.000 
#
# Total GULP energy -78106.971916 kJ/mol
# GULP energy per Si atom -5579.069423 kJ/mol
# Density = 2.302956 g / cm^3
# Si number density = 23.082100 Si / 1000 Ang^3
#
#
#
# Elastic Constant Matrix: (Units=GPa)
#
#
# Indices 1 2 3 4 5 6 
#
# 1 91.2504 20.8123 17.4299 6.6148 -8.0696 -26.0753
# 2 20.8123 88.3797 8.4998 5.1956 -0.9049 -17.0805
# 3 17.4299 8.4998 69.2676 -3.5974 -3.0894 -16.0471
# 4 6.6148 5.1956 -3.5974 36.7805 -5.8410 -1.0983
# 5 -8.0696 -0.9049 -3.0894 -5.8410 31.6415 3.8738
# 6 -26.0753 -17.0805 -16.0471 -1.0983 3.8738 44.2104
#
#
#
# Elastic Compliance Matrix: (Units=1/GPa)
#
#
# Indices 1 2 3 4 5 6 
#
# 1 0.013916 -0.001683 -0.001748 -0.001893 0.002162 0.006686
# 2 -0.001683 0.012554 -0.000363 -0.001529 -0.000848 0.003762
# 3 -0.001748 -0.000363 0.016161 0.002239 0.000964 0.004666
# 4 -0.001893 -0.001529 0.002239 0.028751 0.005076 -0.000625
# 5 0.002162 -0.000848 0.000964 0.005076 0.033346 -0.001498
# 6 0.006686 0.003762 0.004666 -0.000625 -0.001498 0.029826
#
#
# Mechanical properties :
#
#
# Convention : Reuss Voigt Hill
#
# Bulk Modulus (GPa) = 28.53575 38.04241 33.28908
# Shear Modulus (GPa) = 32.50496 36.00356 34.25426
#
# Velocity S-wave (km/s) = 3.75671 3.95372 3.85647
# Velocity P-wave (km/s) = 5.58630 6.11226 5.85519
#
# Compressibility (1/GPa) = 0.03504376
#
# Stress axis : x y z
#
# Youngs Moduli (GPa) = 71.86140 79.65366 61.87601
#
# Poissons Ratio (x) = 0.13408 0.10816
# Poissons Ratio (y) = 0.12096 0.02244
# Poissons Ratio (z) = 0.12561 0.02888
#
# Static dielectric constant tensor:
#      x y z
#    x 2.010950 0.012920 -0.035860 
#    y 0.012920 1.873620 0.039290 
#    z -0.035860 0.039290 1.916620 
# 
# From -- ./inp_files/484172.got.cif
#   From: 2010.05.17/outbox.cif.g08.bks.cpg/sg2_243_cif.got.tgz:484172.got - 2010.06.03 11:33:40.
