data_PCOD9035488
_publ_section_title
;
Structure prediction by ZEFSAII (Michael W. Deem and Ramdas Pophale) SiO2 
 PCOD9035488
Probable space group: P -1
;
_chemical_formula_sum "Si O2"
_cell_formula_units_Z 16
_cell_length_a 10.503600
_cell_length_b 13.768152
_cell_length_c 11.533270
_cell_angle_alpha 53.577828
_cell_angle_beta 135.894210
_cell_angle_gamma 147.278264
_cell_volume 627.255872
_symmetry_space_group_name_H-M "P -1"
_symmetry_group_IT_number 2
_symmetry_cell_setting 'triclinic'
loop_
_space_group_symop_operation_xyz
x,y,z
-x,-y,-z
loop_
_atom_site_type_symbol
_atom_site_label
_atom_site_fract_x
_atom_site_fract_y
_atom_site_fract_z
Si Si1 0.753052 0.518249 0.594826
Si Si2 0.021884 0.779831 0.786875
Si Si3 0.243878 0.922193 0.176965
Si Si4 0.762597 0.994046 0.645973
Si Si5 0.700350 0.296856 0.079138
Si Si6 0.641291 0.645709 0.221415
Si Si7 0.427763 0.122174 0.656628
Si Si8 0.292433 0.293819 0.136098
O O1 0.723264 0.587434 0.414070
O O2 0.519172 0.303725 0.598710
O O3 0.792102 0.626770 0.652350
O O4 0.039404 0.583712 0.749249
O O5 0.211704 0.752224 0.931614
O O6 0.881178 0.758536 0.824138
O O7 0.216070 0.976164 0.718541
O O8 0.294461 0.938552 0.336184
O O9 0.304373 0.829902 0.211676
O O10 0.453597 0.117940 0.116797
O O11 0.935363 0.810433 0.036330
O O12 0.089383 0.142646 0.763064
O O13 0.706079 0.977773 0.484326
O O14 0.614718 0.798333 0.726221
O O15 0.604463 0.377579 0.909400
O O16 0.534348 0.507849 0.145723
#
# Coordination Sequence:
#
# PCOD9035488 Si02
#       8
#     2   2   2   2   2   2   2   2
#     4  10  22  46  66 106 141 172 231 284 343 418
#     4   9  24  45  67 102 140 176 230 283 345 417
#     4  11  24  47  70  96 143 179 234 288 336 410
#     4  12  25  46  67 102 137 181 235 286 335 414
#     4   9  22  45  68  99 141 178 223 291 340 402
#     4  12  23  44  70 101 140 179 232 279 343 411
#     4  11  22  47  73  98 135 186 225 282 361 399
#     4  12  26  43  68 104 133 189 226 275 359 405
#
# _framework density 25.507932
#
# number of rings (size 3 to 8) (size 9 to 14) (size 15 to 20)
#    0.750    0.500    3.750    1.500    0.000    5.000 
#    2.250    1.250    0.000    0.000    0.000    0.000 
#    0.000    0.000    0.000    0.000    0.000    0.000 
#
# Total GULP energy -89480.993242 kJ/mol
# GULP energy per Si atom -5592.562078 kJ/mol
# Density = 2.544988 g / cm^3
# Si number density = 25.507932 Si / 1000 Ang^3
#
#
#
# Elastic Constant Matrix: (Units=GPa)
#
#
# Indices 1 2 3 4 5 6 
#
# 1 55.0069 25.5834 14.4251 -13.3991 -10.1772 2.5095
# 2 25.5834 137.6111 24.1014 -1.6151 5.3024 -10.7198
# 3 14.4251 24.1014 122.8656 6.4854 -6.8495 -5.0631
# 4 -13.3991 -1.6151 6.4854 34.3053 -9.9785 5.9179
# 5 -10.1772 5.3024 -6.8495 -9.9785 33.7006 0.4723
# 6 2.5095 -10.7198 -5.0631 5.9179 0.4723 32.2430
#
#
#
# Elastic Compliance Matrix: (Units=1/GPa)
#
#
# Indices 1 2 3 4 5 6 
#
# 1 0.028688 -0.005831 -0.002653 0.016914 0.014160 -0.007900
# 2 -0.005831 0.008964 -0.000965 -0.003680 -0.004514 0.004024
# 3 -0.002653 -0.000965 0.008887 -0.003007 0.000241 0.001830
# 4 0.016914 -0.003680 -0.003007 0.043344 0.018067 -0.011232
# 5 0.014160 -0.004514 0.000241 0.018067 0.040149 -0.006469
# 6 -0.007900 0.004024 0.001830 -0.011232 -0.006469 0.035411
#
#
# Mechanical properties :
#
#
# Convention : Reuss Voigt Hill
#
# Bulk Modulus (GPa) = 36.17957 49.30039 42.73998
# Shear Modulus (GPa) = 25.83233 36.80800 31.32017
#
# Velocity S-wave (km/s) = 3.18577 3.80281 3.50788
# Velocity P-wave (km/s) = 5.26751 6.21701 5.76185
#
# Compressibility (1/GPa) = 0.02763991
#
# Stress axis : x y z
#
# Youngs Moduli (GPa) = 34.85817 111.55459 112.51879
#
# Poissons Ratio (x) = 0.65050 0.29853
# Poissons Ratio (y) = 0.20326 0.10862
# Poissons Ratio (z) = 0.09248 0.10769
#
# Static dielectric constant tensor:
#      x y z
#    x 2.012230 0.023540 0.034940 
#    y 0.023540 1.950700 0.008170 
#    z 0.034940 0.008170 2.085920 
# 
# From -- ./inp_files/431271.got.cif
#   From: 2010.05.17/outbox.cif.g08.bks.cpg/sg2_216_cif.got.tgz:431271.got - 2010.06.03 11:33:40.
