data_PCOD9035385
_publ_section_title
;
Structure prediction by ZEFSAII (Michael W. Deem and Ramdas Pophale) SiO2 
 PCOD9035385
Probable space group: P -1
;
_chemical_formula_sum "Si O2"
_cell_formula_units_Z 14
_cell_length_a 19.403211
_cell_length_b 8.537068
_cell_length_c 6.126607
_cell_angle_alpha 117.694982
_cell_angle_beta 122.370999
_cell_angle_gamma 43.013833
_cell_volume 579.971591
_symmetry_space_group_name_H-M "P -1"
_symmetry_group_IT_number 2
_symmetry_cell_setting 'triclinic'
loop_
_space_group_symop_operation_xyz
x,y,z
-x,-y,-z
loop_
_atom_site_type_symbol
_atom_site_label
_atom_site_fract_x
_atom_site_fract_y
_atom_site_fract_z
Si Si1 0.393282 0.083836 0.494079
Si Si2 0.071563 0.988143 0.927969
Si Si3 0.154174 0.182037 0.490574
Si Si4 0.510257 0.671340 0.753106
Si Si5 0.978675 0.381581 0.702980
Si Si6 0.340454 0.867870 0.926545
Si Si7 0.282373 0.566263 0.826116
O O1 0.318744 0.353727 0.598731
O O2 0.500000 0.000000 0.500000
O O3 0.442336 0.916091 0.677501
O O4 0.333553 0.020229 0.206113
O O5 0.161164 0.738022 0.813603
O O6 0.995866 0.180146 0.739799
O O7 0.138516 0.049445 0.201847
O O8 0.000000 0.000000 0.000000
O O9 0.125277 0.403736 0.462071
O O10 0.069117 0.265475 0.594393
O O11 0.265526 0.023807 0.698227
O O12 0.500000 0.500000 0.500000
O O13 0.459792 0.711624 0.932164
O O14 0.633241 0.553738 0.908575
O O15 0.000000 0.500000 0.000000
O O16 0.304210 0.725021 0.849862
#
# Coordination Sequence:
#
# PCOD9035385 Si02
#       7
#     2   2   2   2   2   2   2
#     4  12  27  48  75 113 160 196 256 310 380 468
#     4  11  25  49  74 109 155 203 257 322 382 450
#     4  10  22  45  75 105 145 200 257 314 383 455
#     4  12  24  46  77 111 154 198 249 312 383 460
#     4   9  20  45  72 102 140 192 264 309 371 452
#     4  12  25  48  76 112 155 199 249 314 388 459
#     4  12  25  50  75 113 155 200 256 317 380 460
#
# _framework density 24.139116000000001
#
# number of rings (size 3 to 8) (size 9 to 14) (size 15 to 20)
#    0.000    0.857    4.286    2.571    0.000    0.571 
#   10.286    1.429    0.000    0.000    0.000    0.000 
#    0.000    0.000    0.000    0.000    0.000    0.000 
#
# Total GULP energy -78442.003978 kJ/mol
# GULP energy per Si atom -5603.000284 kJ/mol
# Density = 2.408417 g / cm^3
# Si number density = 24.139116 Si / 1000 Ang^3
#
#
#
# Elastic Constant Matrix: (Units=GPa)
#
#
# Indices 1 2 3 4 5 6 
#
# 1 140.3618 84.3265 28.0774 7.0752 -18.3376 12.0695
# 2 84.3265 197.2343 83.2593 3.2456 -5.5468 15.8125
# 3 28.0774 83.2593 128.7582 9.4949 5.1233 17.2811
# 4 7.0752 3.2456 9.4949 70.8186 -0.4643 -4.3068
# 5 -18.3376 -5.5468 5.1233 -0.4643 35.1167 -0.0272
# 6 12.0695 15.8125 17.2811 -4.3068 -0.0272 40.7019
#
#
#
# Elastic Compliance Matrix: (Units=1/GPa)
#
#
# Indices 1 2 3 4 5 6 
#
# 1 0.010499 -0.004521 0.000764 -0.001022 0.004642 -0.001787
# 2 -0.004521 0.009062 -0.004914 0.000693 -0.000203 -0.000020
# 3 0.000764 -0.004914 0.011426 -0.001600 -0.002068 -0.003339
# 4 -0.001022 0.000693 -0.001600 0.014542 0.000003 0.002252
# 5 0.004642 -0.000203 -0.002068 0.000003 0.031170 -0.000398
# 6 -0.001787 -0.000020 -0.003339 0.002252 -0.000398 0.026762
#
#
# Mechanical properties :
#
#
# Convention : Reuss Voigt Hill
#
# Bulk Modulus (GPa) = 73.28347 95.29787 84.29067
# Shear Modulus (GPa) = 39.88765 47.37349 43.63057
#
# Velocity S-wave (km/s) = 4.06939 4.43484 4.25604
# Velocity P-wave (km/s) = 7.24601 8.11098 7.69067
#
# Compressibility (1/GPa) = 0.01364564
#
# Stress axis : x y z
#
# Youngs Moduli (GPa) = 95.24448 110.35100 87.52032
#
# Poissons Ratio (x) = 0.49890 -0.06690
# Poissons Ratio (y) = 0.43060 0.43009
# Poissons Ratio (z) = -0.07280 0.54229
#
# Static dielectric constant tensor:
#      x y z
#    x 1.933690 -0.004120 0.009140 
#    y -0.004120 1.931720 0.022440 
#    z 0.009140 0.022440 1.914080 
# 
# From -- ./inp_files/99486.got.cif
#   From: 2010.05.17/outbox.cif.g08.bks.cpg/sg2_50_cif.got.tgz:99486.got - 2010.06.03 11:33:40.
