data_PCOD9035865
_publ_section_title
;
Structure prediction by ZEFSAII (Michael W. Deem and Ramdas Pophale) SiO2 
 PCOD9035865
Probable space group: P -1
;
_chemical_formula_sum "Si O2"
_cell_formula_units_Z 16
_cell_length_a 8.633472
_cell_length_b 10.896090
_cell_length_c 11.912873
_cell_angle_alpha 81.412358
_cell_angle_beta 116.592954
_cell_angle_gamma 139.837701
_cell_volume 609.133531
_symmetry_space_group_name_H-M "P -1"
_symmetry_group_IT_number 2
_symmetry_cell_setting 'triclinic'
loop_
_space_group_symop_operation_xyz
x,y,z
-x,-y,-z
loop_
_atom_site_type_symbol
_atom_site_label
_atom_site_fract_x
_atom_site_fract_y
_atom_site_fract_z
Si Si1 0.278589 0.967397 0.984602
Si Si2 0.271883 0.455946 0.827049
Si Si3 0.196386 0.495543 0.041464
Si Si4 0.178090 0.439743 0.426506
Si Si5 0.560572 0.512161 0.710890
Si Si6 0.671342 0.198007 0.604836
Si Si7 0.470995 0.887454 0.721590
Si Si8 0.996686 0.041176 0.861110
O O1 0.457572 0.110657 0.130307
O O2 0.013435 0.738237 0.971925
O O3 0.500000 0.000000 0.000000
O O4 0.147153 0.004874 0.864834
O O5 0.703545 0.455798 0.060674
O O6 0.516638 0.578871 0.797071
O O7 0.003185 0.357832 0.687672
O O8 0.181226 0.268037 0.867063
O O9 0.430101 0.610455 0.198394
O O10 0.000000 0.500000 0.000000
O O11 0.311384 0.420930 0.562603
O O12 0.200120 0.382623 0.320554
O O13 0.352076 0.668374 0.440882
O O14 0.861461 0.299002 0.378089
O O15 0.500000 0.000000 0.500000
O O16 0.575471 0.087989 0.708549
O O17 0.694384 0.918562 0.731521
O O18 0.000000 0.000000 0.000000
#
# Coordination Sequence:
#
# PCOD9035865 Si02
#       8
#     2   2   2   2   2   2   2   2
#     4  11  23  41  69 110 147 193 244 308 394 453
#     4  11  23  45  72 112 150 194 258 313 388 454
#     4  12  25  45  71 110 152 201 244 314 390 465
#     4  11  26  52  74 111 153 204 263 316 384 461
#     4  11  27  46  74 111 151 202 259 322 386 451
#     4  11  24  45  75 109 147 198 252 310 382 463
#     4  10  22  46  74 103 148 196 254 312 374 454
#     4   9  19  41  68 105 144 193 243 311 377 448
#
# _framework density 26.266819999999999
#
# number of rings (size 3 to 8) (size 9 to 14) (size 15 to 20)
#    0.000    1.250    3.750    2.625    1.750    5.000 
#    2.250    5.625    0.000    0.000    0.000    0.000 
#    0.000    0.000    0.000    0.000    0.000    0.000 
#
# Total GULP energy -89221.729701 kJ/mol
# GULP energy per Si atom -5576.358106 kJ/mol
# Density = 2.620704 g / cm^3
# Si number density = 26.266820 Si / 1000 Ang^3
#
#
#
# Elastic Constant Matrix: (Units=GPa)
#
#
# Indices 1 2 3 4 5 6 
#
# 1 169.4713 32.0996 92.5726 -5.6088 17.7053 11.4160
# 2 32.0996 131.6896 39.8027 -14.4245 15.5370 -6.1531
# 3 92.5726 39.8027 175.6922 -7.0356 25.9035 -1.2546
# 4 -5.6088 -14.4245 -7.0356 33.4410 5.4527 8.5398
# 5 17.7053 15.5370 25.9035 5.4527 58.8870 -8.1520
# 6 11.4160 -6.1531 -1.2546 8.5398 -8.1520 43.9568
#
#
#
# Elastic Compliance Matrix: (Units=1/GPa)
#
#
# Indices 1 2 3 4 5 6 
#
# 1 0.008697 -0.000721 -0.004235 0.001174 -0.001073 -0.002908
# 2 -0.000721 0.008759 -0.001182 0.003629 -0.001865 0.000329
# 3 -0.004235 -0.001182 0.008544 0.000769 -0.002157 0.000629
# 4 0.001174 0.003629 0.000769 0.034739 -0.005921 -0.007622
# 5 -0.001073 -0.001865 -0.002157 -0.005921 0.019959 0.004808
# 6 -0.002908 0.000329 0.000629 -0.007622 0.004808 0.025941
#
#
# Mechanical properties :
#
#
# Convention : Reuss Voigt Hill
#
# Bulk Modulus (GPa) = 72.85504 89.53367 81.19435
# Shear Modulus (GPa) = 40.48867 48.08217 44.28542
#
# Velocity S-wave (km/s) = 3.93037 4.28311 4.11053
# Velocity P-wave (km/s) = 6.95657 7.65639 7.31485
#
# Compressibility (1/GPa) = 0.01372589
#
# Stress axis : x y z
#
# Youngs Moduli (GPa) = 114.97753 114.16268 117.03687
#
# Poissons Ratio (x) = 0.08227 0.49564
# Poissons Ratio (y) = 0.08285 0.13835
# Poissons Ratio (z) = 0.48692 0.13495
#
# Static dielectric constant tensor:
#      x y z
#    x 2.361730 -0.047580 -0.031770 
#    y -0.047580 2.163350 -0.005230 
#    z -0.031770 -0.005230 2.199010 
# 
# From -- ./inp_files/500318.got.cif
#   From: 2010.05.17/outbox.cif.g08.bks.cpg/sg2_251_cif.got.tgz:500318.got - 2010.06.03 11:33:40.
