data_PCOD9035289
_publ_section_title
;
Structure prediction by ZEFSAII (Michael W. Deem and Ramdas Pophale) SiO2 
 PCOD9035289
Probable space group: P -1
;
_chemical_formula_sum "Si O2"
_cell_formula_units_Z 16
_cell_length_a 7.439702
_cell_length_b 11.441522
_cell_length_c 9.222063
_cell_angle_alpha 104.885297
_cell_angle_beta 128.253677
_cell_angle_gamma 99.668441
_cell_volume 537.616874
_symmetry_space_group_name_H-M "P -1"
_symmetry_group_IT_number 2
_symmetry_cell_setting 'triclinic'
loop_
_space_group_symop_operation_xyz
x,y,z
-x,-y,-z
loop_
_atom_site_type_symbol
_atom_site_label
_atom_site_fract_x
_atom_site_fract_y
_atom_site_fract_z
Si Si1 0.528375 0.409503 0.615047
Si Si2 0.300515 0.489109 0.770039
Si Si3 0.120243 0.859872 0.445416
Si Si4 0.564939 0.269968 0.315585
Si Si5 0.997544 0.916156 0.129053
Si Si6 0.427852 0.157149 0.783449
Si Si7 0.849496 0.131014 0.107599
Si Si8 0.050503 0.602834 0.890080
O O1 0.500000 0.500000 0.500000
O O2 0.327953 0.387792 0.634718
O O3 0.534264 0.292351 0.480598
O O4 0.811595 0.516908 0.844232
O O5 0.349225 0.610787 0.721053
O O6 0.500000 0.500000 0.000000
O O7 0.075563 0.494728 0.757336
O O8 0.227366 0.789543 0.590681
O O9 0.822458 0.823085 0.303272
O O10 0.306895 0.016884 0.596471
O O11 0.108357 0.836031 0.260651
O O12 0.284268 0.181048 0.090273
O O13 0.975317 0.047743 0.228774
O O14 0.167042 0.942794 0.079702
O O15 0.570531 0.125556 0.983190
O O16 0.663621 0.291264 0.884320
O O17 0.008722 0.287454 0.197889
#
# Coordination Sequence:
#
# PCOD9035289 Si02
#       8
#     2   2   2   2   2   2   2   2
#     4  10  24  46  75 110 149 200 259 323 387 458
#     4  11  26  47  77 108 145 200 261 322 391 452
#     4  11  23  43  74 107 153 206 249 309 384 470
#     4  11  24  47  75 112 151 201 259 320 386 464
#     4  11  22  42  76 104 155 194 251 310 386 457
#     4   9  22  43  66 112 151 189 255 304 379 462
#     4   9  21  42  66 109 147 192 243 310 375 452
#     4  10  22  45  73 105 151 200 249 312 384 456
#
# _framework density 29.760967999999998
#
# number of rings (size 3 to 8) (size 9 to 14) (size 15 to 20)
#    0.750    1.000    1.250    2.250    0.000    8.500 
#    0.000    2.500    2.750    2.250    0.000    0.000 
#    0.000    0.000    0.000    0.000    0.000    0.000 
#
# Total GULP energy -89298.511451 kJ/mol
# GULP energy per Si atom -5581.156966 kJ/mol
# Density = 2.969323 g / cm^3
# Si number density = 29.760968 Si / 1000 Ang^3
#
#
#
# Elastic Constant Matrix: (Units=GPa)
#
#
# Indices 1 2 3 4 5 6 
#
# 1 138.1691 29.1013 33.7114 6.8170 -9.2253 -1.5664
# 2 29.1013 104.3181 51.2450 -23.9046 10.5900 4.5835
# 3 33.7114 51.2450 156.6189 -29.8263 14.3415 -1.1551
# 4 6.8170 -23.9046 -29.8263 66.8106 -10.8564 10.7232
# 5 -9.2253 10.5900 14.3415 -10.8564 35.0871 4.1948
# 6 -1.5664 4.5835 -1.1551 10.7232 4.1948 59.4015
#
#
#
# Elastic Compliance Matrix: (Units=1/GPa)
#
#
# Indices 1 2 3 4 5 6 
#
# 1 0.008445 -0.002304 -0.001721 -0.002066 0.002916 0.000534
# 2 -0.002304 0.012678 -0.002824 0.003433 -0.002028 -0.001570
# 3 -0.001721 -0.002824 0.008367 0.002530 -0.002241 0.000037
# 4 -0.002066 0.003433 0.002530 0.018759 0.003659 -0.003915
# 5 0.002916 -0.002028 -0.002241 0.003659 0.032256 -0.002749
# 6 0.000534 -0.001570 0.000037 -0.003915 -0.002749 0.017871
#
#
# Mechanical properties :
#
#
# Convention : Reuss Voigt Hill
#
# Bulk Modulus (GPa) = 63.32172 69.69128 66.50650
# Shear Modulus (GPa) = 42.61223 51.26308 46.93766
#
# Velocity S-wave (km/s) = 3.78804 4.15480 3.97565
# Velocity P-wave (km/s) = 6.36045 6.81794 6.59316
#
# Compressibility (1/GPa) = 0.01579237
#
# Stress axis : x y z
#
# Youngs Moduli (GPa) = 118.41102 78.87935 119.52121
#
# Poissons Ratio (x) = 0.18171 0.20564
# Poissons Ratio (y) = 0.27277 0.33758
# Poissons Ratio (z) = 0.20373 0.22279
#
# Static dielectric constant tensor:
#      x y z
#    x 2.349690 -0.111990 -0.013850 
#    y -0.111990 2.535600 -0.045770 
#    z -0.013850 -0.045770 2.501500 
# 
# From -- ./inp_files/208523.got.cif
#   From: 2010.05.17/outbox.cif.g08.bks.cpg/sg2_105_cif.got.tgz:208523.got - 2010.06.03 11:33:40.
