data_PCOD9035101
_publ_section_title
;
Structure prediction by ZEFSAII (Michael W. Deem and Ramdas Pophale) SiO2 
 PCOD9035101
Probable space group: P -1
;
_chemical_formula_sum "Si O2"
_cell_formula_units_Z 13
_cell_length_a 10.379374
_cell_length_b 5.081487
_cell_length_c 9.412261
_cell_angle_alpha 80.122098
_cell_angle_beta 93.511999
_cell_angle_gamma 94.086011
_cell_volume 487.217565
_symmetry_space_group_name_H-M "P -1"
_symmetry_group_IT_number 2
_symmetry_cell_setting 'triclinic'
loop_
_space_group_symop_operation_xyz
x,y,z
-x,-y,-z
loop_
_atom_site_type_symbol
_atom_site_label
_atom_site_fract_x
_atom_site_fract_y
_atom_site_fract_z
Si Si1 0.360575 0.244799 0.443418
Si Si2 0.000000 0.000000 0.500000
Si Si3 0.120171 0.546026 0.353876
Si Si4 0.209462 0.305877 0.903804
Si Si5 0.906736 0.153121 0.243092
Si Si6 0.717377 0.045475 0.812483
Si Si7 0.532529 0.702543 0.262306
O O1 0.248527 0.451857 0.446138
O O2 0.303382 0.035839 0.344378
O O3 0.468049 0.423107 0.341979
O O4 0.422901 0.153194 0.601278
O O5 0.967653 0.258215 0.584384
O O6 0.857259 0.032578 0.399743
O O7 0.041664 0.264826 0.324691
O O8 0.172963 0.713785 0.205511
O O9 0.149694 0.587800 0.850774
O O10 0.343257 0.315857 0.825266
O O11 0.111509 0.075101 0.852566
O O12 0.240463 0.202782 0.071495
O O13 0.580918 0.152610 0.839597
#
# Coordination Sequence:
#
# PCOD9035101 Si02
#       7
#     2   1   2   2   2   2   2
#     4  10  22  45  71 102 139 192 244 307 355 422
#     4   8  20  48  66 100 142 186 238 292 352 420
#     4   9  22  44  69 105 142 185 244 296 365 423
#     4  12  27  46  74 109 151 195 237 293 373 435
#     4  10  26  46  72 109 145 194 241 298 357 442
#     4  11  25  43  75 103 149 191 241 301 365 435
#     4  10  24  46  67 106 140 193 249 300 354 429
#
# _framework density 26.682127999999999
#
# number of rings (size 3 to 8) (size 9 to 14) (size 15 to 20)
#    0.923    0.923    0.000    1.846    8.615    2.462 
#   13.846    0.000    0.000    0.000    0.000    0.000 
#    0.000    0.000    0.000    0.000    0.000    0.000 
#
# Total GULP energy -72622.898392 kJ/mol
# GULP energy per Si atom -5586.376799 kJ/mol
# Density = 2.662140 g / cm^3
# Si number density = 26.682128 Si / 1000 Ang^3
#
#
#
# Elastic Constant Matrix: (Units=GPa)
#
#
# Indices 1 2 3 4 5 6 
#
# 1 129.0428 51.5439 34.4286 -7.5684 7.0914 -0.1931
# 2 51.5439 158.7680 30.1524 -17.4290 1.5612 -5.7190
# 3 34.4286 30.1524 76.7391 -28.9499 3.0202 0.7303
# 4 -7.5684 -17.4290 -28.9499 47.0434 -9.6112 10.9213
# 5 7.0914 1.5612 3.0202 -9.6112 30.7091 -12.6395
# 6 -0.1931 -5.7190 0.7303 10.9213 -12.6395 38.5171
#
#
#
# Elastic Compliance Matrix: (Units=1/GPa)
#
#
# Indices 1 2 3 4 5 6 
#
# 1 0.009953 -0.002688 -0.004216 -0.002433 -0.002700 -0.000465
# 2 -0.002688 0.007612 -0.001227 0.001646 0.001326 0.001108
# 3 -0.004216 -0.001227 0.020032 0.012326 0.001440 -0.003606
# 4 -0.002433 0.001646 0.012326 0.031988 0.006409 -0.006968
# 5 -0.002700 0.001326 0.001440 0.006409 0.039656 0.011352
# 6 -0.000465 0.001108 -0.003606 -0.006968 0.011352 0.031894
#
#
# Mechanical properties :
#
#
# Convention : Reuss Voigt Hill
#
# Bulk Modulus (GPa) = 46.86970 66.31109 56.59039
# Shear Modulus (GPa) = 30.39355 39.81559 35.10457
#
# Velocity S-wave (km/s) = 3.37871 3.86712 3.63114
# Velocity P-wave (km/s) = 5.72931 6.69669 6.23180
#
# Compressibility (1/GPa) = 0.02133575
#
# Stress axis : x y z
#
# Youngs Moduli (GPa) = 100.47387 131.37806 49.91903
#
# Poissons Ratio (x) = 0.35311 0.21047
# Poissons Ratio (y) = 0.27005 0.06123
# Poissons Ratio (z) = 0.42363 0.16114
#
# Static dielectric constant tensor:
#      x y z
#    x 2.166410 0.141310 -0.141900 
#    y 0.141310 2.359190 -0.283570 
#    z -0.141900 -0.283570 2.384770 
# 
# From -- ./inp_files/228604.got.cif
#   From: 2010.05.17/outbox.cif.g08.bks.cpg/sg2_115_cif.got.tgz:228604.got - 2010.06.03 11:33:40.
