data_PCOD9035834
_publ_section_title
;
Structure prediction by ZEFSAII (Michael W. Deem and Ramdas Pophale) SiO2 
 PCOD9035834
Probable space group: P -1
;
_chemical_formula_sum "Si O2"
_cell_formula_units_Z 16
_cell_length_a 8.714659
_cell_length_b 14.223807
_cell_length_c 16.707559
_cell_angle_alpha 43.096642
_cell_angle_beta 41.464632
_cell_angle_gamma 28.782169
_cell_volume 642.522226
_symmetry_space_group_name_H-M "P -1"
_symmetry_group_IT_number 2
_symmetry_cell_setting 'triclinic'
loop_
_space_group_symop_operation_xyz
x,y,z
-x,-y,-z
loop_
_atom_site_type_symbol
_atom_site_label
_atom_site_fract_x
_atom_site_fract_y
_atom_site_fract_z
Si Si1 0.326644 0.807070 0.949622
Si Si2 0.674461 0.427142 0.123425
Si Si3 0.222703 0.818160 0.589567
Si Si4 0.579180 0.391765 0.717759
Si Si5 0.817335 0.692266 0.131866
Si Si6 0.600947 0.715435 0.739669
Si Si7 0.630914 0.902601 0.382970
Si Si8 0.572468 0.965360 0.803933
O O1 0.303522 0.841117 0.844206
O O2 0.611752 0.784097 0.890820
O O3 0.406221 0.616476 0.051214
O O4 0.000000 0.000000 0.000000
O O5 0.586092 0.536816 0.173336
O O6 0.533537 0.333447 0.241386
O O7 0.014238 0.316910 0.009391
O O8 0.407048 0.603310 0.615378
O O9 0.494860 0.811620 0.515780
O O10 0.000000 0.000000 0.500000
O O11 0.934946 0.880912 0.721620
O O12 0.472270 0.294131 0.782229
O O13 0.979517 0.242757 0.657431
O O14 0.662172 0.880289 0.129683
O O15 0.084245 0.486270 0.209219
O O16 0.610760 0.874243 0.622551
O O17 0.587581 0.927627 0.287020
#
# Coordination Sequence:
#
# PCOD9035834 Si02
#       8
#     2   2   2   2   2   2   2   2
#     4  10  17  32  59  91 123 162 201 242 294 361
#     4  11  22  37  60  92 130 167 201 249 302 363
#     4  10  22  45  68  86 116 162 209 260 311 363
#     4  12  24  40  62  94 126 158 203 259 314 364
#     4  11  22  38  60  94 131 167 202 243 300 374
#     4  10  20  38  62  88 122 166 209 243 292 370
#     4  10  22  42  65  91 121 158 207 265 309 350
#     4  10  21  40  66  92 122 168 213 243 294 373
#
# _framework density 24.901864
#
# number of rings (size 3 to 8) (size 9 to 14) (size 15 to 20)
#    0.000    1.500    0.000    9.000    0.000    1.000 
#    0.000   11.250    0.000    0.000    0.000    0.000 
#    0.000    0.000    0.000    0.000    0.000    0.000 
#
# Total GULP energy -89410.924563 kJ/mol
# GULP energy per Si atom -5588.182785 kJ/mol
# Density = 2.484519 g / cm^3
# Si number density = 24.901864 Si / 1000 Ang^3
#
#
#
# Elastic Constant Matrix: (Units=GPa)
#
#
# Indices 1 2 3 4 5 6 
#
# 1 108.0258 29.0694 40.3530 1.5160 -36.1384 -2.5783
# 2 29.0694 81.6788 15.3843 6.8729 -8.3961 -2.9632
# 3 40.3530 15.3843 110.6730 -2.6450 -27.7530 -1.5797
# 4 1.5160 6.8729 -2.6450 35.5352 -7.1939 -17.0736
# 5 -36.1384 -8.3961 -27.7530 -7.1939 41.3586 -1.8284
# 6 -2.5783 -2.9632 -1.5797 -17.0736 -1.8284 43.9983
#
#
#
# Elastic Compliance Matrix: (Units=1/GPa)
#
#
# Indices 1 2 3 4 5 6 
#
# 1 0.014949 -0.003977 -0.001835 0.003524 0.011742 0.002398
# 2 -0.003977 0.013912 -0.001071 -0.003346 -0.001983 -0.000715
# 3 -0.001835 -0.001071 0.011627 0.003373 0.006649 0.001823
# 4 0.003524 -0.003346 0.003373 0.038884 0.012121 0.015695
# 5 0.011742 -0.001983 0.006649 0.012121 0.040925 0.007197
# 6 0.002398 -0.000715 0.001823 0.015695 0.007197 0.029275
#
#
# Mechanical properties :
#
#
# Convention : Reuss Voigt Hill
#
# Bulk Modulus (GPa) = 37.42229 52.22120 44.82175
# Shear Modulus (GPa) = 29.02836 38.54980 33.78908
#
# Velocity S-wave (km/s) = 3.41795 3.93882 3.68759
# Velocity P-wave (km/s) = 5.53508 6.45771 6.01411
#
# Compressibility (1/GPa) = 0.02672204
#
# Stress axis : x y z
#
# Youngs Moduli (GPa) = 66.89591 71.88016 86.00319
#
# Poissons Ratio (x) = 0.28588 0.15778
# Poissons Ratio (y) = 0.26606 0.09214
# Poissons Ratio (z) = 0.12273 0.07701
#
# Static dielectric constant tensor:
#      x y z
#    x 2.003520 -0.071990 0.024250 
#    y -0.071990 2.055000 -0.151000 
#    z 0.024250 -0.151000 2.253560 
# 
# From -- ./inp_files/590261.got.cif
#   From: 2010.05.17/outbox.cif.g08.bks.cpg/sg2_296_cif.got.tgz:590261.got - 2010.06.03 11:33:40.
