data_PCOD9035068
_publ_section_title
;
Structure prediction by ZEFSAII (Michael W. Deem and Ramdas Pophale) SiO2 
 PCOD9035068
Probable space group: P -1
;
_chemical_formula_sum "Si O2"
_cell_formula_units_Z 14
_cell_length_a 12.646399
_cell_length_b 15.784384
_cell_length_c 8.387971
_cell_angle_alpha 132.135208
_cell_angle_beta 122.337592
_cell_angle_gamma 29.136990
_cell_volume 598.479123
_symmetry_space_group_name_H-M "P -1"
_symmetry_group_IT_number 2
_symmetry_cell_setting 'triclinic'
loop_
_space_group_symop_operation_xyz
x,y,z
-x,-y,-z
loop_
_atom_site_type_symbol
_atom_site_label
_atom_site_fract_x
_atom_site_fract_y
_atom_site_fract_z
Si Si1 0.186406 0.008849 0.424291
Si Si2 0.302326 0.693013 0.697874
Si Si3 0.617014 0.009211 0.710232
Si Si4 0.014411 0.357943 0.899191
Si Si5 0.433926 0.396676 0.631360
Si Si6 0.556851 0.704498 0.839618
Si Si7 0.016352 0.615424 0.720852
O O1 0.342659 0.917726 0.285968
O O2 0.943704 0.153432 0.357596
O O3 0.161930 0.150386 0.671934
O O4 0.316483 0.816706 0.388419
O O5 0.500000 0.500000 0.500000
O O6 0.365019 0.578375 0.764641
O O7 0.340827 0.798007 0.838280
O O8 0.855198 0.800287 0.704081
O O9 0.500000 0.000000 0.500000
O O10 0.478632 0.143459 0.925814
O O11 0.767075 0.499824 0.844212
O O12 0.055644 0.327037 0.081355
O O13 0.000000 0.500000 0.000000
O O14 0.401027 0.348037 0.378779
O O15 0.260098 0.479837 0.722185
O O16 0.000000 0.500000 0.500000
#
# Coordination Sequence:
#
# PCOD9035068 Si02
#       7
#     2   2   2   2   2   2   2
#     4  12  23  44  70  99 139 182 227 280 343 401
#     4  10  22  45  70  96 143 175 232 282 335 403
#     4  12  25  44  68 102 138 179 228 282 342 408
#     4  12  24  42  69 100 137 180 225 285 345 403
#     4  11  23  44  70 103 136 181 228 279 343 401
#     4  11  23  44  69  99 137 179 227 280 342 403
#     4  12  24  43  66 100 139 176 229 285 336 409
#
# _framework density 23.392631000000002
#
# number of rings (size 3 to 8) (size 9 to 14) (size 15 to 20)
#    0.000    0.571    4.286    6.000    0.000    2.857 
#    2.571    5.714    0.000    0.000    0.000    0.000 
#    0.000    0.000    0.000    0.000    0.000    0.000 
#
# Total GULP energy -78195.610820 kJ/mol
# GULP energy per Si atom -5585.400773 kJ/mol
# Density = 2.333939 g / cm^3
# Si number density = 23.392631 Si / 1000 Ang^3
#
#
#
# Elastic Constant Matrix: (Units=GPa)
#
#
# Indices 1 2 3 4 5 6 
#
# 1 82.3516 14.1336 -0.4749 -12.3076 -0.6982 -6.3560
# 2 14.1336 159.1141 -7.8862 -4.2229 4.6919 3.4571
# 3 -0.4749 -7.8862 71.0935 -8.1354 -15.6776 2.9440
# 4 -12.3076 -4.2229 -8.1354 30.1528 1.2521 -4.3033
# 5 -0.6982 4.6919 -15.6776 1.2521 28.4975 -3.6607
# 6 -6.3560 3.4571 2.9440 -4.3033 -3.6607 34.4655
#
#
#
# Elastic Compliance Matrix: (Units=1/GPa)
#
#
# Indices 1 2 3 4 5 6 
#
# 1 0.013507 -0.001109 0.000756 0.006002 0.001103 0.003404
# 2 -0.001109 0.006474 0.000611 0.000522 -0.000900 -0.000937
# 3 0.000756 0.000611 0.016608 0.004530 0.008877 0.000168
# 4 0.006002 0.000522 0.004530 0.037633 0.001611 0.005537
# 5 0.001103 -0.000900 0.008877 0.001611 0.040599 0.004049
# 6 0.003404 -0.000937 0.000168 0.005537 0.004049 0.030843
#
#
# Mechanical properties :
#
#
# Convention : Reuss Voigt Hill
#
# Bulk Modulus (GPa) = 26.95108 36.01159 31.48133
# Shear Modulus (GPa) = 31.74246 39.07559 35.40903
#
# Velocity S-wave (km/s) = 3.68767 4.09152 3.89483
# Velocity P-wave (km/s) = 5.44776 6.14398 5.80631
#
# Compressibility (1/GPa) = 0.03710427
#
# Stress axis : x y z
#
# Youngs Moduli (GPa) = 74.03615 154.45478 60.21249
#
# Poissons Ratio (x) = 0.17137 -0.04554
# Poissons Ratio (y) = 0.08214 -0.03678
# Poissons Ratio (z) = -0.05599 -0.09434
#
# Static dielectric constant tensor:
#      x y z
#    x 1.941450 -0.047540 0.042450 
#    y -0.047540 1.771870 0.036030 
#    z 0.042450 0.036030 2.001270 
# 
# From -- ./inp_files/188860.got.cif
#   From: 2010.05.17/outbox.cif.g08.bks.cpg/sg2_95_cif.got.tgz:188860.got - 2010.06.03 11:33:40.
