data_PCOD9035180
_publ_section_title
;
Structure prediction by ZEFSAII (Michael W. Deem and Ramdas Pophale) SiO2 
 PCOD9035180
Probable space group: P -1
;
_chemical_formula_sum "Si O2"
_cell_formula_units_Z 13
_cell_length_a 10.254742
_cell_length_b 10.634958
_cell_length_c 8.381245
_cell_angle_alpha 108.792209
_cell_angle_beta 74.627116
_cell_angle_gamma 140.532876
_cell_volume 549.825259
_symmetry_space_group_name_H-M "P -1"
_symmetry_group_IT_number 2
_symmetry_cell_setting 'triclinic'
loop_
_space_group_symop_operation_xyz
x,y,z
-x,-y,-z
loop_
_atom_site_type_symbol
_atom_site_label
_atom_site_fract_x
_atom_site_fract_y
_atom_site_fract_z
Si Si1 0.661966 0.578082 0.803671
Si Si2 0.188795 0.053805 0.528331
Si Si3 0.133328 0.522422 0.337804
Si Si4 0.346144 0.905938 0.261459
Si Si5 0.232400 0.823085 0.903128
Si Si6 0.719902 0.848569 0.098785
Si Si7 0.500000 0.500000 0.500000
O O1 0.792517 0.565347 0.659750
O O2 0.511124 0.377540 0.880018
O O3 0.542828 0.572810 0.707047
O O4 0.797645 0.777515 0.947189
O O5 0.182699 0.049515 0.719683
O O6 0.387240 0.283738 0.509415
O O7 0.219804 0.932009 0.393332
O O8 0.000000 0.000000 0.500000
O O9 0.314800 0.754470 0.320553
O O10 0.000000 0.500000 0.500000
O O11 0.985635 0.380017 0.178682
O O12 0.586132 0.110218 0.233711
O O13 0.258401 0.810727 0.075080
O O14 0.270523 0.009191 0.945001
#
# Coordination Sequence:
#
# PCOD9035180 Si02
#       7
#     2   2   2   2   2   2   1
#     4  10  23  44  70 101 137 181 228 286 339 412
#     4  11  26  42  72 101 137 178 226 288 338 415
#     4  12  27  43  71 102 138 183 229 280 346 414
#     4  11  26  48  67 104 141 176 235 280 348 405
#     4  11  25  45  74  96 137 187 223 292 336 408
#     4  10  22  45  71  99 136 179 230 284 344 402
#     4  10  24  44  64 100 136 174 228 278 344 396
#
# _framework density 23.643877
#
# number of rings (size 3 to 8) (size 9 to 14) (size 15 to 20)
#    0.000    1.231    1.538    2.308   10.769    1.846 
#    0.000    0.000    0.000    0.000    0.000    0.000 
#    0.000    0.000    0.000    0.000    0.000    0.000 
#
# Total GULP energy -72476.988096 kJ/mol
# GULP energy per Si atom -5575.152930 kJ/mol
# Density = 2.359006 g / cm^3
# Si number density = 23.643877 Si / 1000 Ang^3
#
#
#
# Elastic Constant Matrix: (Units=GPa)
#
#
# Indices 1 2 3 4 5 6 
#
# 1 63.1588 -0.5246 18.6359 12.6536 -29.8451 -6.8152
# 2 -0.5246 73.3545 22.1984 -6.1167 -8.7952 -11.1824
# 3 18.6359 22.1984 100.9934 1.1855 -22.9932 -9.8284
# 4 12.6536 -6.1167 1.1855 34.7440 -3.0082 10.1288
# 5 -29.8451 -8.7952 -22.9932 -3.0082 47.7029 6.8842
# 6 -6.8152 -11.1824 -9.8284 10.1288 6.8842 31.6497
#
#
#
# Elastic Compliance Matrix: (Units=1/GPa)
#
#
# Indices 1 2 3 4 5 6 
#
# 1 0.025496 0.002404 -0.001294 -0.009260 0.014353 0.005779
# 2 0.002404 0.015549 -0.002906 0.000919 0.002409 0.004291
# 3 -0.001294 -0.002906 0.011884 -0.000580 0.004104 0.001678
# 4 -0.009260 0.000919 -0.000580 0.035966 -0.001763 -0.012976
# 5 0.014353 0.002409 0.004104 -0.001763 0.032438 -0.001275
# 6 0.005779 0.004291 0.001678 -0.012976 -0.001275 0.039307
#
#
# Mechanical properties :
#
#
# Convention : Reuss Voigt Hill
#
# Bulk Modulus (GPa) = 20.26941 35.34735 27.80838
# Shear Modulus (GPa) = 27.67353 35.96578 31.81966
#
# Velocity S-wave (km/s) = 3.42487 3.90442 3.67248
# Velocity P-wave (km/s) = 4.92250 5.94208 5.45616
#
# Compressibility (1/GPa) = 0.04933542
#
# Stress axis : x y z
#
# Youngs Moduli (GPa) = 39.22157 64.31483 84.14974
#
# Poissons Ratio (x) = -0.15460 0.10891
# Poissons Ratio (y) = -0.09428 0.24454
# Poissons Ratio (z) = 0.05076 0.18690
#
# Static dielectric constant tensor:
#      x y z
#    x 1.960110 0.074720 -0.026560 
#    y 0.074720 1.888400 0.020360 
#    z -0.026560 0.020360 1.931770 
# 
# From -- ./inp_files/159702.got.cif
#   From: 2010.05.17/outbox.cif.g08.bks.cpg/sg2_80_cif.got.tgz:159702.got - 2010.06.03 11:33:40.
