data_PCOD9035698
_publ_section_title
;
Structure prediction by ZEFSAII (Michael W. Deem and Ramdas Pophale) SiO2 
 PCOD9035698
Probable space group: P -1
;
_chemical_formula_sum "Si O2"
_cell_formula_units_Z 16
_cell_length_a 6.688099
_cell_length_b 27.433363
_cell_length_c 7.858320
_cell_angle_alpha 141.645664
_cell_angle_beta 63.265889
_cell_angle_gamma 125.306574
_cell_volume 730.109160
_symmetry_space_group_name_H-M "P -1"
_symmetry_group_IT_number 2
_symmetry_cell_setting 'triclinic'
loop_
_space_group_symop_operation_xyz
x,y,z
-x,-y,-z
loop_
_atom_site_type_symbol
_atom_site_label
_atom_site_fract_x
_atom_site_fract_y
_atom_site_fract_z
Si Si1 0.181134 0.174548 0.018004
Si Si2 0.994344 0.431480 0.956098
Si Si3 0.919431 0.863154 0.451037
Si Si4 0.759949 0.008133 0.852101
Si Si5 0.395386 0.567888 0.663922
Si Si6 0.605068 0.634198 0.410292
Si Si7 0.522614 0.084209 0.617523
Si Si8 0.496023 0.695601 0.264349
O O1 0.119269 0.161453 0.803257
O O2 0.417473 0.152346 0.911642
O O3 0.951129 0.104634 0.013670
O O4 0.236378 0.270380 0.316436
O O5 0.794949 0.333763 0.724683
O O6 0.246121 0.423195 0.843541
O O7 0.880713 0.456022 0.232736
O O8 0.000000 0.500000 0.000000
O O9 0.694820 0.791960 0.443706
O O10 0.190203 0.871037 0.418602
O O11 0.893003 0.952847 0.735805
O O12 0.673085 0.960158 0.575591
O O13 0.500000 0.000000 0.000000
O O14 0.500000 0.500000 0.500000
O O15 0.428258 0.589121 0.511770
O O16 0.545817 0.650169 0.952450
O O17 0.509808 0.650576 0.311206
O O18 0.500000 0.000000 0.500000
#
# Coordination Sequence:
#
# PCOD9035698 Si02
#       8
#     2   2   2   2   2   2   2   2
#     4  11  23  41  65  94 130 184 226 285 342 394
#     4  10  23  45  72 100 135 174 222 280 343 420
#     4  11  22  44  63  91 138 176 231 284 334 407
#     4  11  25  37  61  95 132 178 229 284 338 394
#     4  10  22  46  70  98 136 171 216 279 339 408
#     4  12  24  45  69 101 141 175 228 284 342 409
#     4  11  21  41  64  89 126 178 239 272 336 406
#     4  10  26  42  66 106 133 174 229 276 337 417
#
# _framework density 21.914531
#
# number of rings (size 3 to 8) (size 9 to 14) (size 15 to 20)
#    0.750    0.500    5.000    0.750    3.500    6.500 
#    2.250    1.250    0.000    0.000    0.000    0.000 
#    0.000    0.000    0.000    0.000    0.000    0.000 
#
# Total GULP energy -89222.287074 kJ/mol
# GULP energy per Si atom -5576.392942 kJ/mol
# Density = 2.186465 g / cm^3
# Si number density = 21.914531 Si / 1000 Ang^3
#
#
#
# Elastic Constant Matrix: (Units=GPa)
#
#
# Indices 1 2 3 4 5 6 
#
# 1 81.1923 37.5592 28.3024 -7.2471 -7.0400 13.6116
# 2 37.5592 150.8581 30.9262 -11.2255 -9.6225 15.4221
# 3 28.3024 30.9262 75.7716 -4.9981 -21.1835 5.4412
# 4 -7.2471 -11.2255 -4.9981 37.4625 6.2997 6.4184
# 5 -7.0400 -9.6225 -21.1835 6.2997 32.4925 -3.2128
# 6 13.6116 15.4221 5.4412 6.4184 -3.2128 37.8839
#
#
#
# Elastic Compliance Matrix: (Units=1/GPa)
#
#
# Indices 1 2 3 4 5 6 
#
# 1 0.016038 -0.002397 -0.004892 0.002772 -0.001424 -0.004674
# 2 -0.002397 0.008063 -0.002126 0.002125 -0.000176 -0.002491
# 3 -0.004892 -0.002126 0.018786 -0.001081 0.010869 0.001030
# 4 0.002772 0.002125 -0.001081 0.029983 -0.006009 -0.007295
# 5 -0.001424 -0.000176 0.010869 -0.006009 0.038998 0.003347
# 6 -0.004674 -0.002491 0.001030 -0.007295 0.003347 0.030462
#
#
# Mechanical properties :
#
#
# Convention : Reuss Voigt Hill
#
# Bulk Modulus (GPa) = 41.56603 55.71085 48.63844
# Shear Modulus (GPa) = 29.55481 35.63673 32.59577
#
# Velocity S-wave (km/s) = 3.67637 4.03695 3.86087
# Velocity P-wave (km/s) = 6.08518 6.87069 6.48983
#
# Compressibility (1/GPa) = 0.02405811
#
# Stress axis : x y z
#
# Youngs Moduli (GPa) = 62.35178 124.02650 53.23158
#
# Poissons Ratio (x) = 0.29727 0.26040
# Poissons Ratio (y) = 0.14945 0.11315
# Poissons Ratio (z) = 0.30501 0.26363
#
# Static dielectric constant tensor:
#      x y z
#    x 1.757160 0.040460 -0.009520 
#    y 0.040460 1.789420 0.030290 
#    z -0.009520 0.030290 1.858560 
# 
# From -- ./inp_files/142880.got.cif
#   From: 2010.05.17/outbox.cif.g08.bks.cpg/sg2_72_cif.got.tgz:142880.got - 2010.06.03 11:33:40.
