data_PCOD9035510
_publ_section_title
;
Structure prediction by ZEFSAII (Michael W. Deem and Ramdas Pophale) SiO2 
 PCOD9035510
Probable space group: P -1
;
_chemical_formula_sum "Si O2"
_cell_formula_units_Z 14
_cell_length_a 20.498776
_cell_length_b 19.935286
_cell_length_c 12.999803
_cell_angle_alpha 24.539275
_cell_angle_beta 28.049827
_cell_angle_gamma 14.657241
_cell_volume 558.122493
_symmetry_space_group_name_H-M "P -1"
_symmetry_group_IT_number 2
_symmetry_cell_setting 'triclinic'
loop_
_space_group_symop_operation_xyz
x,y,z
-x,-y,-z
loop_
_atom_site_type_symbol
_atom_site_label
_atom_site_fract_x
_atom_site_fract_y
_atom_site_fract_z
Si Si1 0.901848 0.933133 0.074988
Si Si2 0.838119 0.520538 0.145237
Si Si3 0.220602 0.850271 0.517389
Si Si4 0.409664 0.460101 0.388597
Si Si5 0.676879 0.899075 0.303731
Si Si6 0.382901 0.380389 0.303465
Si Si7 0.374010 0.383003 0.879803
O O1 0.814157 0.184647 0.792355
O O2 0.906071 0.777680 0.206180
O O3 0.655069 0.133354 0.211443
O O4 0.158874 0.696959 0.113599
O O5 0.635871 0.660707 0.316317
O O6 0.734804 0.654343 0.987841
O O7 0.003035 0.196447 0.349658
O O8 0.000000 0.500000 0.000000
O O9 0.359111 0.691970 0.655470
O O10 0.169217 0.721003 0.727327
O O11 0.425382 0.727158 0.323472
O O12 0.428506 0.395072 0.334554
O O13 0.500000 0.000000 0.500000
O O14 0.727486 0.694167 0.447742
O O15 0.515898 0.179298 0.066420
#
# Coordination Sequence:
#
# PCOD9035510 Si02
#       7
#     2   2   2   2   2   2   2
#     4  11  24  47  67 106 139 192 239 289 348 436
#     4  11  27  41  68 104 136 182 235 298 364 422
#     4  10  23  44  70  95 134 179 239 287 352 424
#     4  11  25  42  70  98 136 186 232 292 357 427
#     4  10  23  43  69 101 139 184 235 293 355 423
#     4  11  26  42  71 104 148 182 237 292 362 415
#     4  10  22  46  66  99 133 182 235 288 354 420
#
# _framework density 25.084098000000001
#
# number of rings (size 3 to 8) (size 9 to 14) (size 15 to 20)
#    0.000    1.429    1.429    1.714    8.000    2.286 
#    5.143    0.000    0.000    0.000    0.000    0.000 
#    0.000    0.000    0.000    0.000    0.000    0.000 
#
# Total GULP energy -78340.731499 kJ/mol
# GULP energy per Si atom -5595.766536 kJ/mol
# Density = 2.502701 g / cm^3
# Si number density = 25.084098 Si / 1000 Ang^3
#
#
#
# Elastic Constant Matrix: (Units=GPa)
#
#
# Indices 1 2 3 4 5 6 
#
# 1 212.2559 22.0582 56.3645 4.9237 -4.1309 -16.1184
# 2 22.0582 59.5168 -3.5097 0.3920 15.9436 -4.8855
# 3 56.3645 -3.5097 59.1560 4.9224 4.7566 7.9353
# 4 4.9237 0.3920 4.9224 30.5394 -6.5995 3.2085
# 5 -4.1309 15.9436 4.7566 -6.5995 41.3894 -12.4711
# 6 -16.1184 -4.8855 7.9353 3.2085 -12.4711 23.7329
#
#
#
# Elastic Compliance Matrix: (Units=1/GPa)
#
#
# Indices 1 2 3 4 5 6 
#
# 1 0.009838 -0.005633 -0.012432 0.000941 0.009040 0.014302
# 2 -0.005633 0.022292 0.009197 -0.002805 -0.013350 -0.008948
# 3 -0.012432 0.009197 0.034687 -0.004693 -0.017578 -0.026750
# 4 0.000941 -0.002805 -0.004693 0.034924 0.007546 0.000874
# 5 0.009040 -0.013350 -0.017578 0.007546 0.042670 0.030671
# 6 0.014302 -0.008948 -0.026750 0.000874 0.030671 0.074949
#
#
# Mechanical properties :
#
#
# Convention : Reuss Voigt Hill
#
# Bulk Modulus (GPa) = 20.37401 53.41718 36.89559
# Shear Modulus (GPa) = 19.72715 36.20006 27.96360
#
# Velocity S-wave (km/s) = 2.80740 3.80300 3.34248
# Velocity P-wave (km/s) = 4.31840 6.37379 5.44398
#
# Compressibility (1/GPa) = 0.04908214
#
# Stress axis : x y z
#
# Youngs Moduli (GPa) = 101.64599 44.85866 28.82893
#
# Poissons Ratio (x) = 0.25269 0.35839
# Poissons Ratio (y) = 0.57259 -0.26514
# Poissons Ratio (z) = 1.26362 -0.41256
#
# Static dielectric constant tensor:
#      x y z
#    x 1.986190 0.024170 -0.014380 
#    y 0.024170 2.019930 0.000830 
#    z -0.014380 0.000830 2.017590 
# 
# From -- ./inp_files/466519.got.cif
#   From: 2010.05.17/outbox.cif.g08.bks.cpg/sg2_234_cif.got.tgz:466519.got - 2010.06.03 11:33:40.
