data_PCOD9035733
_publ_section_title
;
Structure prediction by ZEFSAII (Michael W. Deem and Ramdas Pophale) SiO2 
 PCOD9035733
Probable space group: P -1
;
_chemical_formula_sum "Si O2"
_cell_formula_units_Z 16
_cell_length_a 10.918003
_cell_length_b 13.405093
_cell_length_c 19.269285
_cell_angle_alpha 135.369312
_cell_angle_beta 20.512082
_cell_angle_gamma 130.724910
_cell_volume 693.110644
_symmetry_space_group_name_H-M "P -1"
_symmetry_group_IT_number 2
_symmetry_cell_setting 'triclinic'
loop_
_space_group_symop_operation_xyz
x,y,z
-x,-y,-z
loop_
_atom_site_type_symbol
_atom_site_label
_atom_site_fract_x
_atom_site_fract_y
_atom_site_fract_z
Si Si1 0.897072 0.039904 0.377124
Si Si2 0.479275 0.464006 0.709475
Si Si3 0.889808 0.808802 0.885863
Si Si4 0.769284 0.716029 0.757196
Si Si5 0.785187 0.896663 0.514883
Si Si6 0.570584 0.603859 0.450192
Si Si7 0.849489 0.794376 0.179822
Si Si8 0.045955 0.876008 0.977054
O O1 0.527194 0.123108 0.596052
O O2 0.161898 0.158726 0.272253
O O3 0.833843 0.975319 0.454475
O O4 0.000645 0.902197 0.207522
O O5 0.516651 0.608328 0.803041
O O6 0.370581 0.477222 0.693436
O O7 0.223772 0.356634 0.825928
O O8 0.862073 0.376713 0.471202
O O9 0.674184 0.773989 0.914295
O O10 0.207654 0.693354 0.669017
O O11 0.775730 0.827268 0.036893
O O12 0.033500 0.964353 0.873053
O O13 0.843789 0.725418 0.383371
O O14 0.420120 0.886219 0.746657
O O15 0.000000 0.000000 0.500000
O O16 0.500000 0.500000 0.500000
O O17 0.051301 0.780930 0.993980
#
# Coordination Sequence:
#
# PCOD9035733 Si02
#       8
#     2   2   2   2   2   2   2   2
#     4  10  18  31  58  87 110 145 191 236 273 333
#     4   9  18  31  52  82 116 151 187 228 275 336
#     4   9  17  33  59  86 112 146 185 230 289 329
#     4   9  17  30  53  86 116 140 186 242 278 319
#     4  11  24  39  57  86 113 149 197 236 284 347
#     4  10  20  35  58  82 117 159 187 222 279 348
#     4  10  17  32  59  87 108 145 192 233 284 330
#     4  10  19  34  61  86 116 146 184 246 293 322
#
# _framework density 23.084337999999999
#
# number of rings (size 3 to 8) (size 9 to 14) (size 15 to 20)
#    0.000    2.250    2.500    2.250    3.500    0.000 
#    0.000    1.250    5.500    3.000    0.000    0.000 
#    0.000    0.000    0.000    0.000    0.000    0.000 
#
# Total GULP energy -89141.554820 kJ/mol
# GULP energy per Si atom -5571.347176 kJ/mol
# Density = 2.303180 g / cm^3
# Si number density = 23.084338 Si / 1000 Ang^3
#
#
#
# Elastic Constant Matrix: (Units=GPa)
#
#
# Indices 1 2 3 4 5 6 
#
# 1 138.4773 108.0412 64.5656 -15.9164 55.9879 15.9142
# 2 108.0412 213.8423 57.6627 -3.7650 40.7541 5.2094
# 3 64.5656 57.6627 80.8254 -7.9872 24.8746 -3.6055
# 4 -15.9164 -3.7650 -7.9872 35.1859 -2.9809 10.2419
# 5 55.9879 40.7541 24.8746 -2.9809 50.4861 0.4033
# 6 15.9142 5.2094 -3.6055 10.2419 0.4033 40.6352
#
#
#
# Elastic Compliance Matrix: (Units=1/GPa)
#
#
# Indices 1 2 3 4 5 6 
#
# 1 0.030025 -0.007503 -0.011696 0.012694 -0.020609 -0.014830
# 2 -0.007503 0.008159 -0.000590 -0.003272 0.001811 0.002647
# 3 -0.011696 -0.000590 0.021387 -0.002341 0.002714 0.007117
# 4 0.012694 -0.003272 -0.002341 0.036654 -0.008008 -0.013919
# 5 -0.020609 0.001811 0.002714 -0.008008 0.039313 0.009708
# 6 -0.014830 0.002647 0.007117 -0.013919 0.009708 0.034121
#
#
# Mechanical properties :
#
#
# Convention : Reuss Voigt Hill
#
# Bulk Modulus (GPa) = 50.01758 99.29823 74.65791
# Shear Modulus (GPa) = 23.15873 38.78648 30.97261
#
# Velocity S-wave (km/s) = 3.17081 4.10348 3.66692
# Velocity P-wave (km/s) = 5.92619 8.09693 7.09507
#
# Compressibility (1/GPa) = 0.01999297
#
# Stress axis : x y z
#
# Youngs Moduli (GPa) = 33.30592 122.56300 46.75744
#
# Poissons Ratio (x) = 0.91963 0.54687
# Poissons Ratio (y) = 0.24990 0.02757
# Poissons Ratio (z) = 0.38955 0.07226
#
# Static dielectric constant tensor:
#      x y z
#    x 1.954650 -0.007590 -0.037450 
#    y -0.007590 1.842910 0.067940 
#    z -0.037450 0.067940 2.023920 
# 
# From -- ./inp_files/568798.got.cif
#   From: 2010.05.17/outbox.cif.g08.bks.cpg/sg2_285_cif.got.tgz:568798.got - 2010.06.03 11:33:40.
