data_PCOD9035141
_publ_section_title
;
Structure prediction by ZEFSAII (Michael W. Deem and Ramdas Pophale) SiO2 
 PCOD9035141
Probable space group: P -1
;
_chemical_formula_sum "Si O2"
_cell_formula_units_Z 16
_cell_length_a 5.245784
_cell_length_b 22.173003
_cell_length_c 5.721000
_cell_angle_alpha 103.723454
_cell_angle_beta 103.725036
_cell_angle_gamma 81.216471
_cell_volume 624.695360
_symmetry_space_group_name_H-M "P -1"
_symmetry_group_IT_number 2
_symmetry_cell_setting 'triclinic'
loop_
_space_group_symop_operation_xyz
x,y,z
-x,-y,-z
loop_
_atom_site_type_symbol
_atom_site_label
_atom_site_fract_x
_atom_site_fract_y
_atom_site_fract_z
Si Si1 0.727116 0.080077 0.675264
Si Si2 0.287577 0.698538 0.983974
Si Si3 0.916134 0.404761 0.973707
Si Si4 0.594642 0.637858 0.619842
Si Si5 0.724528 0.980114 0.213963
Si Si6 0.606093 0.802920 0.226746
Si Si7 0.787216 0.773047 0.735521
Si Si8 0.215108 0.473785 0.712349
O O1 0.443333 0.059603 0.681624
O O2 0.661303 0.153588 0.726269
O O3 0.999571 0.056158 0.845090
O O4 0.784020 0.044228 0.411357
O O5 0.199394 0.661164 0.153015
O O6 0.355430 0.646900 0.755337
O O7 0.075502 0.748276 0.866726
O O8 0.543103 0.731881 0.127049
O O9 0.725975 0.462886 0.087614
O O10 0.144676 0.383469 0.191589
O O11 0.064590 0.431847 0.817044
O O12 0.640390 0.709097 0.619728
O O13 0.570321 0.576880 0.401639
O O14 0.500000 0.000000 0.000000
O O15 0.777928 0.805384 0.506045
O O16 0.677774 0.814378 0.977847
O O17 0.000000 0.500000 0.500000
#
# Coordination Sequence:
#
# PCOD9035141 Si02
#       8
#     2   2   2   2   2   2   2   2
#     4  10  24  42  71 108 145 192 247 297 358 430
#     4  10  23  43  66  97 127 182 225 285 356 425
#     4   9  19  39  60  89 126 164 216 284 346 424
#     4   9  20  38  59  90 123 166 221 277 345 422
#     4  10  22  45  71 108 148 195 241 301 359 419
#     4  11  26  46  68 105 141 183 238 290 350 428
#     4  10  25  45  66  98 140 181 230 294 351 418
#     4   9  18  36  61  86 126 162 213 286 347 421
#
# _framework density 25.612480000000001
#
# number of rings (size 3 to 8) (size 9 to 14) (size 15 to 20)
#    0.000    2.250    0.000    0.375    8.750    2.500 
#    9.000    5.625    0.000    0.000    0.000    0.000 
#    0.000    0.000    0.000    0.000    0.000    0.000 
#
# Total GULP energy -89259.998456 kJ/mol
# GULP energy per Si atom -5578.749903 kJ/mol
# Density = 2.555419 g / cm^3
# Si number density = 25.612480 Si / 1000 Ang^3
#
#
#
# Elastic Constant Matrix: (Units=GPa)
#
#
# Indices 1 2 3 4 5 6 
#
# 1 60.9065 20.8775 7.0749 9.4464 2.5966 -25.8005
# 2 20.8775 91.3707 38.6720 15.5853 -9.8998 -36.3537
# 3 7.0749 38.6720 114.3307 0.6799 -0.7507 -14.2490
# 4 9.4464 15.5853 0.6799 32.7766 -8.1130 3.4800
# 5 2.5966 -9.8998 -0.7507 -8.1130 28.9506 3.1428
# 6 -25.8005 -36.3537 -14.2490 3.4800 3.1428 56.3661
#
#
#
# Elastic Compliance Matrix: (Units=1/GPa)
#
#
# Indices 1 2 3 4 5 6 
#
# 1 0.022948 0.000424 -0.000091 -0.009499 -0.005844 0.011667
# 2 0.000424 0.019884 -0.005154 -0.010158 0.002456 0.012206
# 3 -0.000091 -0.005154 0.010374 0.002155 -0.000791 -0.000833
# 4 -0.009499 -0.010158 0.002155 0.042123 0.010710 -0.013553
# 5 -0.005844 0.002456 -0.000791 0.010710 0.039336 -0.004145
# 6 0.011667 0.012206 -0.000833 -0.013553 -0.004145 0.031811
#
#
# Mechanical properties :
#
#
# Convention : Reuss Voigt Hill
#
# Bulk Modulus (GPa) = 22.95497 44.42853 33.69175
# Shear Modulus (GPa) = 26.22733 36.95090 31.58911
#
# Velocity S-wave (km/s) = 3.20348 3.80240 3.51572
# Velocity P-wave (km/s) = 4.76077 6.05489 5.44641
#
# Compressibility (1/GPa) = 0.04356354
#
# Stress axis : x y z
#
# Youngs Moduli (GPa) = 43.57587 50.29121 96.39614
#
# Poissons Ratio (x) = -0.02133 0.00881
# Poissons Ratio (y) = -0.01848 0.49685
# Poissons Ratio (z) = 0.00398 0.25921
#
# Static dielectric constant tensor:
#      x y z
#    x 2.092870 0.046840 0.018290 
#    y 0.046840 2.087850 0.032820 
#    z 0.018290 0.032820 2.133230 
# 
# From -- ./inp_files/13479.got.cif
#   From: 2010.05.17/outbox.cif.g08.bks.cpg/sg2_7_cif.got.tgz:13479.got - 2010.06.03 11:33:40.
