data_PCOD9035121
_publ_section_title
;
Structure prediction by ZEFSAII (Michael W. Deem and Ramdas Pophale) SiO2 
 PCOD9035121
Probable space group: P -1
;
_chemical_formula_sum "Si O2"
_cell_formula_units_Z 10
_cell_length_a 8.696469
_cell_length_b 9.288623
_cell_length_c 18.240395
_cell_angle_alpha 150.394069
_cell_angle_beta 147.512582
_cell_angle_gamma 43.185536
_cell_volume 390.926187
_symmetry_space_group_name_H-M "P -1"
_symmetry_group_IT_number 2
_symmetry_cell_setting 'triclinic'
loop_
_space_group_symop_operation_xyz
x,y,z
-x,-y,-z
loop_
_atom_site_type_symbol
_atom_site_label
_atom_site_fract_x
_atom_site_fract_y
_atom_site_fract_z
Si Si1 0.325711 0.153750 0.352309
Si Si2 0.646281 0.241854 0.113530
Si Si3 0.274502 0.800155 0.033866
Si Si4 0.788455 0.746020 0.488881
Si Si5 0.064328 0.789632 0.365648
O O1 0.325056 0.097969 0.414734
O O2 0.619164 0.347504 0.552943
O O3 0.382471 0.911749 0.205839
O O4 0.996696 0.245886 0.249040
O O5 0.555701 0.179795 0.965993
O O6 0.590704 0.545973 0.267035
O O7 0.500000 0.000000 0.000000
O O8 0.159207 0.471230 0.846657
O O9 0.000000 0.000000 0.000000
O O10 0.000000 0.500000 0.500000
O O11 0.929107 0.994667 0.605430
O O12 0.000000 0.000000 0.500000
#
# Coordination Sequence:
#
# PCOD9035121 Si02
#       5
#     2   2   2   2   2
#     4  10  25  43  72 105 139 189 240 290 361 416
#     4  10  22  45  71 104 146 189 237 292 362 434
#     4  10  24  46  71 107 142 189 240 298 358 420
#     4  10  23  47  69 106 144 192 233 296 365 418
#     4  12  25  47  74 105 149 183 247 299 349 432
#
# _framework density 25.580276999999999
#
# number of rings (size 3 to 8) (size 9 to 14) (size 15 to 20)
#    0.000    1.600    2.000    0.600    5.600    8.000 
#    7.200    0.000    0.000    0.000    0.000    0.000 
#    0.000    0.000    0.000    0.000    0.000    0.000 
#
# Total GULP energy -55788.968636 kJ/mol
# GULP energy per Si atom -5578.896864 kJ/mol
# Density = 2.552206 g / cm^3
# Si number density = 25.580277 Si / 1000 Ang^3
#
#
#
# Elastic Constant Matrix: (Units=GPa)
#
#
# Indices 1 2 3 4 5 6 
#
# 1 189.2407 52.3446 92.9256 -1.9357 -43.5351 38.0770
# 2 52.3446 106.1819 19.3644 -1.1581 -3.3665 6.4712
# 3 92.9256 19.3644 148.3981 8.1084 -33.2832 18.0659
# 4 -1.9357 -1.1581 8.1084 49.8425 0.3643 2.3653
# 5 -43.5351 -3.3665 -33.2832 0.3643 77.4358 -14.0083
# 6 38.0770 6.4712 18.0659 2.3653 -14.0083 59.3588
#
#
#
# Elastic Compliance Matrix: (Units=1/GPa)
#
#
# Indices 1 2 3 4 5 6 
#
# 1 0.010156 -0.003779 -0.004831 0.001264 0.002733 -0.004038
# 2 -0.003779 0.011096 0.000542 -0.000003 -0.001274 0.000749
# 3 -0.004831 0.000542 0.010134 -0.001857 0.001752 0.000443
# 4 0.001264 -0.000003 -0.001857 0.020472 -0.000393 -0.001154
# 5 0.002733 -0.001274 0.001752 -0.000393 0.015423 0.001508
# 6 -0.004038 0.000749 0.000443 -0.001154 0.001508 0.019622
#
#
# Mechanical properties :
#
#
# Convention : Reuss Voigt Hill
#
# Bulk Modulus (GPa) = 65.57908 85.89889 75.73898
# Shear Modulus (GPa) = 46.24438 55.93983 51.09210
#
# Velocity S-wave (km/s) = 4.25645 4.68143 4.47399
# Velocity P-wave (km/s) = 7.06036 7.92932 7.50742
#
# Compressibility (1/GPa) = 0.01524877
#
# Stress axis : x y z
#
# Youngs Moduli (GPa) = 98.46586 90.12379 98.68225
#
# Poissons Ratio (x) = 0.34058 0.47673
# Poissons Ratio (y) = 0.37210 -0.05346
# Poissons Ratio (z) = 0.47569 -0.04883
#
# Static dielectric constant tensor:
#      x y z
#    x 2.082590 -0.151340 0.015890 
#    y -0.151340 2.278480 -0.101960 
#    z 0.015890 -0.101960 1.984090 
# 
# From -- ./inp_files/57293.got.cif
#   From: 2010.05.17/outbox.cif.g08.bks.cpg/sg2_29_cif.got.tgz:57293.got - 2010.06.03 11:33:40.
