data_PCOD9035326
_publ_section_title
;
Structure prediction by ZEFSAII (Michael W. Deem and Ramdas Pophale) SiO2 
 PCOD9035326
Probable space group: P -1
;
_chemical_formula_sum "Si O2"
_cell_formula_units_Z 14
_cell_length_a 15.412974
_cell_length_b 9.330608
_cell_length_c 5.042706
_cell_angle_alpha 127.036268
_cell_angle_beta 103.827552
_cell_angle_gamma 91.086638
_cell_volume 549.563422
_symmetry_space_group_name_H-M "P -1"
_symmetry_group_IT_number 2
_symmetry_cell_setting 'triclinic'
loop_
_space_group_symop_operation_xyz
x,y,z
-x,-y,-z
loop_
_atom_site_type_symbol
_atom_site_label
_atom_site_fract_x
_atom_site_fract_y
_atom_site_fract_z
Si Si1 0.313558 0.200961 0.514003
Si Si2 0.181093 0.421107 0.909231
Si Si3 0.485730 0.307568 0.427399
Si Si4 0.064622 0.288498 0.176919
Si Si5 0.583266 0.036627 0.394628
Si Si6 0.841348 0.006584 0.188047
Si Si7 0.143707 0.767133 0.049667
O O1 0.412610 0.311601 0.612632
O O2 0.332700 0.011583 0.438938
O O3 0.265196 0.322665 0.807372
O O4 0.245423 0.140524 0.150131
O O5 0.101322 0.325827 0.541852
O O6 0.035747 0.679348 0.905012
O O7 0.137494 0.400704 0.145947
O O8 0.201842 0.628153 0.049757
O O9 0.500000 0.500000 0.500000
O O10 0.577374 0.236629 0.501166
O O11 0.437860 0.128090 0.019202
O O12 0.070630 0.078860 0.892028
O O13 0.500000 0.000000 0.500000
O O14 0.840240 0.059434 0.549570
O O15 0.844596 0.177346 0.185451
#
# Coordination Sequence:
#
# PCOD9035326 Si02
#       7
#     2   2   2   2   2   2   2
#     4  10  24  43  62  92 138 178 210 280 344 401
#     4  11  24  41  65  98 135 179 225 287 345 387
#     4  10  22  45  74 100 128 175 227 269 339 416
#     4  11  22  42  68  90 135 184 228 283 339 401
#     4   9  21  44  69  97 134 168 219 270 345 403
#     4  11  24  40  64  95 136 176 226 281 346 394
#     4  12  23  42  64 101 129 179 240 279 331 410
#
# _framework density 25.474764
#
# number of rings (size 3 to 8) (size 9 to 14) (size 15 to 20)
#    0.000    1.429    0.000    5.143    6.000    2.286 
#   10.286    0.000    0.000    0.000    0.000    0.000 
#    0.000    0.000    0.000    0.000    0.000    0.000 
#
# Total GULP energy -78340.189217 kJ/mol
# GULP energy per Si atom -5595.727801 kJ/mol
# Density = 2.541678 g / cm^3
# Si number density = 25.474764 Si / 1000 Ang^3
#
#
#
# Elastic Constant Matrix: (Units=GPa)
#
#
# Indices 1 2 3 4 5 6 
#
# 1 113.6708 49.4910 3.0260 12.6178 -15.8193 -17.9281
# 2 49.4910 190.0508 6.5841 28.4063 -9.8537 -17.8156
# 3 3.0260 6.5841 48.6642 1.7162 2.6076 -12.4851
# 4 12.6178 28.4063 1.7162 44.3901 -6.6146 -4.5364
# 5 -15.8193 -9.8537 2.6076 -6.6146 19.9767 0.1200
# 6 -17.9281 -17.8156 -12.4851 -4.5364 0.1200 46.7691
#
#
#
# Elastic Compliance Matrix: (Units=1/GPa)
#
#
# Indices 1 2 3 4 5 6 
#
# 1 0.011431 -0.002196 0.000080 -0.000321 0.007831 0.003516
# 2 -0.002196 0.006476 -0.000332 -0.003325 0.000390 0.001213
# 3 0.000080 -0.000332 0.022270 -0.000559 -0.003228 0.005803
# 4 -0.000321 -0.003325 -0.000559 0.025870 0.006739 0.000953
# 5 0.007831 0.000390 -0.003228 0.006739 0.059088 0.002791
# 6 0.003516 0.001213 0.005803 0.000953 0.002791 0.024826
#
#
# Mechanical properties :
#
#
# Convention : Reuss Voigt Hill
#
# Bulk Modulus (GPa) = 28.34352 52.28754 40.31553
# Shear Modulus (GPa) = 30.00863 41.77948 35.89405
#
# Velocity S-wave (km/s) = 3.43589 4.05413 3.75774
# Velocity P-wave (km/s) = 5.18562 6.51800 5.88961
#
# Compressibility (1/GPa) = 0.03528144
#
# Stress axis : x y z
#
# Youngs Moduli (GPa) = 87.47903 154.41524 44.90246
#
# Poissons Ratio (x) = 0.33910 -0.00359
# Poissons Ratio (y) = 0.19211 0.01491
# Poissons Ratio (z) = -0.00699 0.05128
#
# Static dielectric constant tensor:
#      x y z
#    x 2.018480 -0.001490 0.045660 
#    y -0.001490 2.067860 0.036870 
#    z 0.045660 0.036870 2.043400 
# 
# From -- ./inp_files/105977.got.cif
#   From: 2010.05.17/outbox.cif.g08.bks.cpg/sg2_53_cif.got.tgz:105977.got - 2010.06.03 11:33:40.
