data_PCOD9035090
_publ_section_title
;
Structure prediction by ZEFSAII (Michael W. Deem and Ramdas Pophale) SiO2 
 PCOD9035090
Probable space group: P -1
;
_chemical_formula_sum "Si O2"
_cell_formula_units_Z 16
_cell_length_a 7.784490
_cell_length_b 8.333103
_cell_length_c 17.901594
_cell_angle_alpha 86.782352
_cell_angle_beta 115.316874
_cell_angle_gamma 133.735357
_cell_volume 705.638604
_symmetry_space_group_name_H-M "P -1"
_symmetry_group_IT_number 2
_symmetry_cell_setting 'triclinic'
loop_
_space_group_symop_operation_xyz
x,y,z
-x,-y,-z
loop_
_atom_site_type_symbol
_atom_site_label
_atom_site_fract_x
_atom_site_fract_y
_atom_site_fract_z
Si Si1 0.596867 0.973704 0.594840
Si Si2 0.499949 0.318822 0.526369
Si Si3 0.127784 0.567911 0.129331
Si Si4 0.374034 0.202928 0.678553
Si Si5 0.738595 0.108410 0.980727
Si Si6 0.443006 0.600685 0.926043
Si Si7 0.211895 0.415060 0.734062
Si Si8 0.160391 0.719252 0.650358
O O1 0.670151 0.854803 0.571452
O O2 0.330629 0.807452 0.602862
O O3 0.500000 0.000000 0.500000
O O4 0.872078 0.199869 0.684157
O O5 0.500000 0.500000 0.500000
O O6 0.379341 0.208798 0.589026
O O7 0.830411 0.479023 0.584458
O O8 0.316761 0.632435 0.232205
O O9 0.289757 0.795246 0.099612
O O10 0.845399 0.483802 0.104945
O O11 0.026483 0.351701 0.066614
O O12 0.282253 0.321200 0.688761
O O13 0.209092 0.935049 0.678376
O O14 0.687865 0.889346 0.960012
O O15 0.500000 0.000000 0.000000
O O16 0.376515 0.477511 0.838000
O O17 0.500000 0.500000 0.000000
O O18 0.279942 0.644064 0.722230
#
# Coordination Sequence:
#
# PCOD9035090 Si02
#       8
#     2   2   2   2   2   2   2   2
#     4  12  24  45  73 100 141 185 234 291 346 417
#     4  12  26  44  71 106 140 188 236 287 359 415
#     4  10  22  45  71 100 140 184 233 289 357 417
#     4  12  27  45  71 107 145 184 239 292 347 431
#     4   9  21  42  73  97 132 182 230 285 355 416
#     4  11  25  46  70 106 143 183 235 294 357 424
#     4  12  28  46  71 108 139 187 243 286 358 424
#     4  12  24  47  74  98 145 190 230 297 347 414
#
# _framework density 22.674495
#
# number of rings (size 3 to 8) (size 9 to 14) (size 15 to 20)
#    0.000    0.750    2.500    4.125    7.000    2.500 
#    6.750    0.000    0.000    0.000    0.000    0.000 
#    0.000    0.000    0.000    0.000    0.000    0.000 
#
# Total GULP energy -89322.723415 kJ/mol
# GULP energy per Si atom -5582.670213 kJ/mol
# Density = 2.262289 g / cm^3
# Si number density = 22.674495 Si / 1000 Ang^3
#
#
#
# Elastic Constant Matrix: (Units=GPa)
#
#
# Indices 1 2 3 4 5 6 
#
# 1 80.3211 26.6182 19.4518 1.5721 0.8232 -0.0217
# 2 26.6182 121.5031 30.9422 4.1937 -4.0877 -23.4565
# 3 19.4518 30.9422 82.3080 5.4774 0.1038 -7.3203
# 4 1.5721 4.1937 5.4774 33.8948 -5.4342 -7.2909
# 5 0.8232 -4.0877 0.1038 -5.4342 41.0854 -0.8664
# 6 -0.0217 -23.4565 -7.3203 -7.2909 -0.8664 40.0214
#
#
#
# Elastic Compliance Matrix: (Units=1/GPa)
#
#
# Indices 1 2 3 4 5 6 
#
# 1 0.014004 -0.002897 -0.002385 -0.000494 -0.000675 -0.002231
# 2 -0.002897 0.010768 -0.002887 0.000767 0.001364 0.005951
# 3 -0.002385 -0.002887 0.013963 -0.001754 -0.000496 0.000530
# 4 -0.000494 0.000767 -0.001754 0.031713 0.004412 0.006001
# 5 -0.000675 0.001364 -0.000496 0.004412 0.025117 0.002056
# 6 -0.002231 0.005951 0.000530 0.006001 0.002056 0.029708
#
#
# Mechanical properties :
#
#
# Convention : Reuss Voigt Hill
#
# Bulk Modulus (GPa) = 44.64909 48.68406 46.66657
# Shear Modulus (GPa) = 33.53986 36.80831 35.17408
#
# Velocity S-wave (km/s) = 3.85019 4.03343 3.94288
# Velocity P-wave (km/s) = 6.28486 6.57335 6.43072
#
# Compressibility (1/GPa) = 0.02239687
#
# Stress axis : x y z
#
# Youngs Moduli (GPa) = 71.41004 92.86496 71.61764
#
# Poissons Ratio (x) = 0.26901 0.17082
# Poissons Ratio (y) = 0.20686 0.20677
# Poissons Ratio (z) = 0.17033 0.26811
#
# Static dielectric constant tensor:
#      x y z
#    x 1.946370 -0.006420 0.074970 
#    y -0.006420 1.823790 -0.016710 
#    z 0.074970 -0.016710 1.801320 
# 
# From -- ./inp_files/557193.got.cif
#   From: 2010.05.17/outbox.cif.g08.bks.cpg/sg2_279_cif.got.tgz:557193.got - 2010.06.03 11:33:40.
