data_PCOD9035702
_publ_section_title
;
Structure prediction by ZEFSAII (Michael W. Deem and Ramdas Pophale) SiO2 
 PCOD9035702
Probable space group: P -1
;
_chemical_formula_sum "Si O2"
_cell_formula_units_Z 15
_cell_length_a 12.787902
_cell_length_b 5.358020
_cell_length_c 11.810918
_cell_angle_alpha 84.823715
_cell_angle_beta 78.373662
_cell_angle_gamma 48.615300
_cell_volume 593.699545
_symmetry_space_group_name_H-M "P -1"
_symmetry_group_IT_number 2
_symmetry_cell_setting 'triclinic'
loop_
_space_group_symop_operation_xyz
x,y,z
-x,-y,-z
loop_
_atom_site_type_symbol
_atom_site_label
_atom_site_fract_x
_atom_site_fract_y
_atom_site_fract_z
Si Si1 0.397466 0.973263 0.708116
Si Si2 0.500000 0.000000 0.500000
Si Si3 0.164125 0.945742 0.733863
Si Si4 0.388721 0.746014 0.352649
Si Si5 0.094464 0.102504 0.489260
Si Si6 0.439502 0.008050 0.134696
Si Si7 0.877031 0.610382 0.869996
Si Si8 0.062075 0.713409 0.905956
O O1 0.360856 0.222762 0.606976
O O2 0.274546 0.971297 0.757509
O O3 0.524803 0.641444 0.614956
O O4 0.480909 0.931575 0.799971
O O5 0.414994 0.936039 0.423696
O O6 0.180521 0.657270 0.805700
O O7 0.170405 0.956058 0.599262
O O8 0.005416 0.270688 0.793333
O O9 0.452361 0.726485 0.215884
O O10 0.222212 0.939926 0.378408
O O11 0.000000 0.500000 0.500000
O O12 0.000000 0.000000 0.500000
O O13 0.269201 0.267806 0.149818
O O14 0.500000 0.000000 0.000000
O O15 0.937449 0.800447 0.849881
O O16 0.869327 0.588665 0.009690
O O17 0.000000 0.000000 0.000000
#
# Coordination Sequence:
#
# PCOD9035702 Si02
#       8
#     2   1   2   2   2   2   2   2
#     4  11  26  45  71 105 141 195 246 304 382 447
#     4  10  22  46  70  98 142 186 246 300 380 444
#     4  11  25  43  74 106 140 191 251 308 376 458
#     4  11  26  46  73 104 151 192 251 313 380 459
#     4  12  30  48  78 116 153 201 252 314 392 458
#     4  11  28  45  70 101 149 198 246 316 381 455
#     4  10  23  45  68  98 145 184 247 306 374 442
#     4   9  22  40  70  99 133 184 242 305 368 437
#
# _framework density 25.265305999999999
#
# number of rings (size 3 to 8) (size 9 to 14) (size 15 to 20)
#    0.000    1.333    1.333    1.200   16.800    2.667 
#    0.000    0.000    0.000    0.000    0.000    0.000 
#    0.000    0.000    0.000    0.000    0.000    0.000 
#
# Total GULP energy -83546.222624 kJ/mol
# GULP energy per Si atom -5569.748175 kJ/mol
# Density = 2.520780 g / cm^3
# Si number density = 25.265306 Si / 1000 Ang^3
#
#
#
# Elastic Constant Matrix: (Units=GPa)
#
#
# Indices 1 2 3 4 5 6 
#
# 1 165.4697 22.8939 30.4981 -16.7810 -10.2563 -3.8879
# 2 22.8939 72.6941 0.7132 -0.6463 0.7246 -8.7008
# 3 30.4981 0.7132 157.1615 -14.4392 -11.7900 0.8736
# 4 -16.7810 -0.6463 -14.4392 26.8780 -4.7994 -2.7936
# 5 -10.2563 0.7246 -11.7900 -4.7994 53.0844 0.3297
# 6 -3.8879 -8.7008 0.8736 -2.7936 0.3297 40.5323
#
#
#
# Elastic Compliance Matrix: (Units=1/GPa)
#
#
# Indices 1 2 3 4 5 6 
#
# 1 0.007032 -0.002123 -0.000852 0.004216 0.001576 0.000515
# 2 -0.002123 0.014773 0.000220 -0.000663 -0.000641 0.002922
# 3 -0.000852 0.000220 0.006979 0.003531 0.001701 0.000045
# 4 0.004216 -0.000663 0.003531 0.043019 0.005478 0.003106
# 5 0.001576 -0.000641 0.001701 0.005478 0.020023 0.000192
# 6 0.000515 0.002922 0.000045 0.003106 0.000192 0.025560
#
#
# Mechanical properties :
#
#
# Convention : Reuss Voigt Hill
#
# Bulk Modulus (GPa) = 42.96802 55.94840 49.45821
# Shear Modulus (GPa) = 38.26895 46.84693 42.55794
#
# Velocity S-wave (km/s) = 3.89612 4.31071 4.10865
# Velocity P-wave (km/s) = 6.10600 6.85338 6.49046
#
# Compressibility (1/GPa) = 0.02327312
#
# Stress axis : x y z
#
# Youngs Moduli (GPa) = 142.21644 67.69147 143.28634
#
# Poissons Ratio (x) = 0.14369 0.12210
# Poissons Ratio (y) = 0.30188 -0.03147
# Poissons Ratio (z) = 0.12119 -0.01487
#
# Static dielectric constant tensor:
#      x y z
#    x 1.920810 -0.104330 0.116440 
#    y -0.104330 1.921620 0.295260 
#    z 0.116440 0.295260 1.756580 
# 
# From -- ./inp_files/76560.got.cif
#   From: 2010.05.17/outbox.cif.g08.bks.cpg/sg2_39_cif.got.tgz:76560.got - 2010.06.03 11:33:40.
