data_PCOD9035383
_publ_section_title
;
Structure prediction by ZEFSAII (Michael W. Deem and Ramdas Pophale) SiO2 
 PCOD9035383
Probable space group: P -1
;
_chemical_formula_sum "Si O2"
_cell_formula_units_Z 13
_cell_length_a 7.694513
_cell_length_b 5.320851
_cell_length_c 15.858801
_cell_angle_alpha 104.271741
_cell_angle_beta 62.380102
_cell_angle_gamma 76.046083
_cell_volume 507.532722
_symmetry_space_group_name_H-M "P -1"
_symmetry_group_IT_number 2
_symmetry_cell_setting 'triclinic'
loop_
_space_group_symop_operation_xyz
x,y,z
-x,-y,-z
loop_
_atom_site_type_symbol
_atom_site_label
_atom_site_fract_x
_atom_site_fract_y
_atom_site_fract_z
Si Si1 0.377817 0.889322 0.896888
Si Si2 0.188854 0.475172 0.671151
Si Si3 0.320124 0.818031 0.080743
Si Si4 0.000000 0.000000 0.500000
Si Si5 0.668787 0.030065 0.269592
Si Si6 0.207928 0.638709 0.256778
Si Si7 0.244029 0.456876 0.466980
O O1 0.273594 0.043424 0.846994
O O2 0.536886 0.560833 0.811008
O O3 0.546638 0.010921 0.901493
O O4 0.231918 0.918304 0.014620
O O5 0.240629 0.740144 0.704283
O O6 0.283696 0.375638 0.548246
O O7 0.936586 0.542332 0.724466
O O8 0.272000 0.233409 0.703245
O O9 0.174757 0.788382 0.185635
O O10 0.500000 0.500000 0.000000
O O11 0.111952 0.858781 0.372376
O O12 0.220000 0.772760 0.480763
O O13 0.410955 0.215916 0.352151
O O14 0.000000 0.500000 0.500000
#
# Coordination Sequence:
#
# PCOD9035383 Si02
#       7
#     2   2   2   1   2   2   2
#     4  10  22  45  75 105 134 192 251 306 355 429
#     4  12  28  46  66 109 154 194 233 301 374 442
#     4   9  22  42  77 102 134 180 260 309 352 414
#     4  12  24  40  76 108 142 180 258 290 360 410
#     4  12  28  46  72 104 155 191 240 298 377 435
#     4  11  24  43  71 105 144 192 245 299 355 440
#     4  12  26  45  70 103 140 201 248 293 345 433
#
# _framework density 25.61411
#
# number of rings (size 3 to 8) (size 9 to 14) (size 15 to 20)
#    0.000    0.923    3.077    1.846   12.923    0.000 
#    0.000    1.538    0.000    0.000    0.000    0.000 
#    0.000    0.000    0.000    0.000    0.000    0.000 
#
# Total GULP energy -72534.522927 kJ/mol
# GULP energy per Si atom -5579.578687 kJ/mol
# Density = 2.555581 g / cm^3
# Si number density = 25.614110 Si / 1000 Ang^3
#
#
#
# Elastic Constant Matrix: (Units=GPa)
#
#
# Indices 1 2 3 4 5 6 
#
# 1 70.6751 16.7966 35.0285 -11.1642 6.2843 5.2310
# 2 16.7966 113.3178 47.7352 -17.5664 15.1209 -21.4973
# 3 35.0285 47.7352 178.5380 -39.3931 37.0174 -4.8695
# 4 -11.1642 -17.5664 -39.3931 54.3360 -17.8631 10.5147
# 5 6.2843 15.1209 37.0174 -17.8631 45.3313 -10.2497
# 6 5.2310 -21.4973 -4.8695 10.5147 -10.2497 40.7124
#
#
#
# Elastic Compliance Matrix: (Units=1/GPa)
#
#
# Indices 1 2 3 4 5 6 
#
# 1 0.016355 -0.001855 -0.002469 0.001772 0.000211 -0.003781
# 2 -0.001855 0.011275 -0.002389 0.000382 -0.000095 0.005784
# 3 -0.002469 -0.002389 0.008477 0.003693 -0.004801 -0.002093
# 4 0.001772 0.000382 0.003693 0.024120 0.005091 -0.004532
# 5 0.000211 -0.000095 -0.004801 0.005091 0.029207 0.005387
# 6 -0.003781 0.005784 -0.002093 -0.004532 0.005387 0.030379
#
#
# Mechanical properties :
#
#
# Convention : Reuss Voigt Hill
#
# Bulk Modulus (GPa) = 44.08815 62.40574 53.24694
# Shear Modulus (GPa) = 35.51177 45.60732 40.55955
#
# Velocity S-wave (km/s) = 3.72750 4.22424 3.98362
# Velocity P-wave (km/s) = 5.98126 6.94327 6.48014
#
# Compressibility (1/GPa) = 0.02268183
#
# Stress axis : x y z
#
# Youngs Moduli (GPa) = 61.14492 88.69099 117.96064
#
# Poissons Ratio (x) = 0.16452 0.29120
# Poissons Ratio (y) = 0.11342 0.28182
# Poissons Ratio (z) = 0.15094 0.21189
#
# Static dielectric constant tensor:
#      x y z
#    x 2.061460 0.076210 -0.010850 
#    y 0.076210 2.290640 0.028320 
#    z -0.010850 0.028320 2.021650 
# 
# From -- ./inp_files/487819.got.cif
#   From: 2010.05.17/outbox.cif.g08.bks.cpg/sg2_244_cif.got.tgz:487819.got - 2010.06.03 11:33:40.
