data_PCOD9035874
_publ_section_title
;
Structure prediction by ZEFSAII (Michael W. Deem and Ramdas Pophale) SiO2 
 PCOD9035874
Probable space group: P -1
;
_chemical_formula_sum "Si O2"
_cell_formula_units_Z 11
_cell_length_a 5.377807
_cell_length_b 12.799108
_cell_length_c 8.921852
_cell_angle_alpha 79.074188
_cell_angle_beta 46.966287
_cell_angle_gamma 69.622586
_cell_volume 419.750115
_symmetry_space_group_name_H-M "P -1"
_symmetry_group_IT_number 2
_symmetry_cell_setting 'triclinic'
loop_
_space_group_symop_operation_xyz
x,y,z
-x,-y,-z
loop_
_atom_site_type_symbol
_atom_site_label
_atom_site_fract_x
_atom_site_fract_y
_atom_site_fract_z
Si Si1 0.415985 0.446399 0.390311
Si Si2 0.500000 0.500000 0.000000
Si Si3 0.278731 0.091119 0.309202
Si Si4 0.748371 0.842571 0.120976
Si Si5 0.397902 0.747909 0.061585
Si Si6 0.368561 0.818878 0.625259
O O1 0.500000 0.500000 0.500000
O O2 0.600061 0.466274 0.153982
O O3 0.491120 0.313997 0.420252
O O4 0.000000 0.500000 0.500000
O O5 0.528154 0.622508 0.986487
O O6 0.364083 0.120374 0.432675
O O7 0.864008 0.115101 0.435101
O O8 0.523267 0.971220 0.188543
O O9 0.404912 0.181063 0.135986
O O10 0.518773 0.766223 0.173461
O O11 0.976551 0.792661 0.187548
O O12 0.064700 0.836625 0.874429
#
# Coordination Sequence:
#
# PCOD9035874 Si02
#       6
#     2   1   2   2   2   2
#     4  12  28  46  69 103 141 192 239 278 351 421
#     4  12  26  48  72  98 152 184 230 302 340 416
#     4  10  17  32  59  96 130 166 229 285 329 412
#     4  10  18  32  57  98 130 165 233 280 329 417
#     4  10  20  32  57  92 131 171 219 275 341 395
#     4  10  18  35  56  91 133 162 227 281 329 401
#
# _framework density 26.20607
#
# number of rings (size 3 to 8) (size 9 to 14) (size 15 to 20)
#    0.000    1.455    3.636    6.545    2.545    2.909 
#    0.000    0.000    0.000    0.000    0.000   43.273 
#    0.000    0.000    0.000    0.000    0.000    0.000 
#
# Total GULP energy -61327.765440 kJ/mol
# GULP energy per Si atom -5575.251404 kJ/mol
# Density = 2.614642 g / cm^3
# Si number density = 26.206070 Si / 1000 Ang^3
#
#
#
# Elastic Constant Matrix: (Units=GPa)
#
#
# Indices 1 2 3 4 5 6 
#
# 1 258.8111 10.9418 37.7963 29.3673 18.6653 19.6075
# 2 10.9418 115.6275 52.0032 16.6656 -10.6734 33.3063
# 3 37.7963 52.0032 91.6951 18.3899 46.3117 -3.4578
# 4 29.3673 16.6656 18.3899 40.9471 -5.5465 19.2422
# 5 18.6653 -10.6734 46.3117 -5.5465 36.2749 23.7112
# 6 19.6075 33.3063 -3.4578 19.2422 23.7112 34.1458
#
#
#
# Elastic Compliance Matrix: (Units=1/GPa)
#
#
# Indices 1 2 3 4 5 6 
#
# 1 0.004426 0.000375 -0.000811 -0.002933 -0.001296 -0.000436
# 2 0.000375 0.005061 0.004079 -0.008905 -0.009990 0.007217
# 3 -0.000811 0.004079 0.001063 0.007294 0.011516 -0.015513
# 4 -0.002933 -0.008905 0.007294 0.022758 -0.010660 0.005687
# 5 -0.001296 -0.009990 0.011516 -0.010660 -0.004729 0.020946
# 6 -0.000436 0.007217 -0.015513 0.005687 0.020946 0.003177
#
#
# Mechanical properties :
#
#
# Convention : Reuss Voigt Hill
#
# Bulk Modulus (GPa) = 56.06883 74.17959 65.12421
# Shear Modulus (GPa) = 164.39887 46.63305 105.51596
#
# Velocity S-wave (km/s) = 7.92902 4.22296 6.35227
# Velocity P-wave (km/s) = 10.26000 7.22119 8.87167
#
# Compressibility (1/GPa) = 0.01783522
#
# Stress axis : x y z
#
# Youngs Moduli (GPa) = 225.95572 197.58731 941.16659
#
# Poissons Ratio (x) = -0.07400 0.76282
# Poissons Ratio (y) = -0.08463 -3.83901
# Poissons Ratio (z) = 0.18314 -0.80596
#
# Static dielectric constant tensor:
#      x y z
#    x 2.303230 -0.042240 0.091910 
#    y -0.042240 1.930770 -0.050670 
#    z 0.091910 -0.050670 2.367060 
# 
# From -- ./inp_files/41061.got.cif
#   From: 2010.05.17/outbox.cif.g08.bks.cpg/sg2_21_cif.got.tgz:41061.got - 2010.06.03 11:33:40.
