data_PCOD9035036
_publ_section_title
;
Structure prediction by ZEFSAII (Michael W. Deem and Ramdas Pophale) SiO2 
 PCOD9035036
Probable space group: P -1
;
_chemical_formula_sum "Si O2"
_cell_formula_units_Z 12
_cell_length_a 9.803078
_cell_length_b 4.915378
_cell_length_c 11.517909
_cell_angle_alpha 114.485129
_cell_angle_beta 65.878493
_cell_angle_gamma 83.043919
_cell_volume 431.873605
_symmetry_space_group_name_H-M "P -1"
_symmetry_group_IT_number 2
_symmetry_cell_setting 'triclinic'
loop_
_space_group_symop_operation_xyz
x,y,z
-x,-y,-z
loop_
_atom_site_type_symbol
_atom_site_label
_atom_site_fract_x
_atom_site_fract_y
_atom_site_fract_z
Si Si1 0.348880 0.657912 0.001718
Si Si2 0.078968 0.418624 0.082594
Si Si3 0.089584 0.006429 0.315664
Si Si4 0.168572 0.630300 0.685892
Si Si5 0.451713 0.748873 0.724492
Si Si6 0.673244 0.047177 0.572585
O O1 0.257125 0.403814 0.986019
O O2 0.231581 0.970914 0.165696
O O3 0.500000 0.500000 0.000000
O O4 0.394405 0.751715 0.877871
O O5 0.976379 0.232343 0.147277
O O6 0.047456 0.697888 0.239974
O O7 0.000000 0.500000 0.000000
O O8 0.176145 0.967966 0.401520
O O9 0.927379 0.289349 0.388789
O O10 0.298050 0.784566 0.705428
O O11 0.267945 0.253704 0.587000
O O12 0.544344 0.974410 0.688025
O O13 0.584868 0.389385 0.606929
#
# Coordination Sequence:
#
# PCOD9035036 Si02
#       6
#     2   2   2   2   2   2
#     4  10  22  45  70 105 143 187 245 299 364 425
#     4  10  23  44  71 103 142 184 241 301 371 409
#     4  10  26  44  71 108 140 198 237 308 362 426
#     4  12  26  46  73 107 148 190 250 299 360 446
#     4  12  27  48  76 107 148 197 244 301 362 436
#     4  12  29  47  75 107 151 200 239 296 369 434
#
# _framework density 27.785906000000001
#
# number of rings (size 3 to 8) (size 9 to 14) (size 15 to 20)
#    1.000    0.000    3.333    1.500    9.333    5.333 
#    0.000    0.000    0.000    0.000    0.000    0.000 
#    0.000    0.000    0.000    0.000    0.000    0.000 
#
# Total GULP energy -67147.935528 kJ/mol
# GULP energy per Si atom -5595.661294 kJ/mol
# Density = 2.772266 g / cm^3
# Si number density = 27.785906 Si / 1000 Ang^3
#
#
#
# Elastic Constant Matrix: (Units=GPa)
#
#
# Indices 1 2 3 4 5 6 
#
# 1 255.2958 45.2155 23.3485 -30.2592 7.2497 -12.7674
# 2 45.2155 113.7830 16.7115 -10.4092 -3.7643 -10.2816
# 3 23.3485 16.7115 96.2346 -35.3067 -2.8183 11.5687
# 4 -30.2592 -10.4092 -35.3067 53.5001 5.1986 -1.8134
# 5 7.2497 -3.7643 -2.8183 5.1986 54.6888 -5.2278
# 6 -12.7674 -10.2816 11.5687 -1.8134 -5.2278 40.5863
#
#
#
# Elastic Compliance Matrix: (Units=1/GPa)
#
#
# Indices 1 2 3 4 5 6 
#
# 1 0.004547 -0.001503 -0.000156 0.002294 -0.000828 0.001090
# 2 -0.001503 0.009899 -0.001650 -0.000026 0.001050 0.002639
# 3 -0.000156 -0.001650 0.014556 0.009111 -0.000619 -0.004289
# 4 0.002294 -0.000026 0.009111 0.026198 -0.002425 -0.001024
# 5 -0.000828 0.001050 -0.000619 -0.002425 0.018906 0.002509
# 6 0.001090 0.002639 -0.004289 -0.001024 0.002509 0.027150
#
#
# Mechanical properties :
#
#
# Convention : Reuss Voigt Hill
#
# Bulk Modulus (GPa) = 44.67533 70.65159 57.66346
# Shear Modulus (GPa) = 43.35127 55.09089 49.22108
#
# Velocity S-wave (km/s) = 3.95421 4.45757 4.21341
# Velocity P-wave (km/s) = 6.07956 7.20941 6.66846
#
# Compressibility (1/GPa) = 0.02238372
#
# Stress axis : x y z
#
# Youngs Moduli (GPa) = 219.90329 101.01725 68.70039
#
# Poissons Ratio (x) = 0.15185 0.01071
# Poissons Ratio (y) = 0.33056 0.11338
# Poissons Ratio (z) = 0.03428 0.16672
#
# Static dielectric constant tensor:
#      x y z
#    x 2.054030 0.127390 -0.137580 
#    y 0.127390 1.947300 0.155290 
#    z -0.137580 0.155290 2.210510 
# 
# From -- ./inp_files/367544.got.cif
#   From: 2010.05.17/outbox.cif.g08.bks.cpg/sg2_184_cif.got.tgz:367544.got - 2010.06.03 11:33:40.
