data_PCOD9035351
_publ_section_title
;
Structure prediction by ZEFSAII (Michael W. Deem and Ramdas Pophale) SiO2 
 PCOD9035351
Probable space group: P -1
;
_chemical_formula_sum "Si O2"
_cell_formula_units_Z 16
_cell_length_a 5.606546
_cell_length_b 24.127928
_cell_length_c 18.347389
_cell_angle_alpha 19.482069
_cell_angle_beta 123.159884
_cell_angle_gamma 121.137851
_cell_volume 692.942433
_symmetry_space_group_name_H-M "P -1"
_symmetry_group_IT_number 2
_symmetry_cell_setting 'triclinic'
loop_
_space_group_symop_operation_xyz
x,y,z
-x,-y,-z
loop_
_atom_site_type_symbol
_atom_site_label
_atom_site_fract_x
_atom_site_fract_y
_atom_site_fract_z
Si Si1 0.228467 0.998382 0.403239
Si Si2 0.411975 0.867032 0.369648
Si Si3 0.358496 0.199201 0.037981
Si Si4 0.711719 0.090849 0.866694
Si Si5 0.046884 0.734472 0.882310
Si Si6 0.069992 0.308153 0.249951
Si Si7 0.683515 0.446334 0.423235
Si Si8 0.003504 0.585410 0.641717
O O1 0.172855 0.807379 0.612096
O O2 0.500000 0.000000 0.500000
O O3 0.197054 0.101614 0.195799
O O4 0.009124 0.093922 0.299212
O O5 0.450695 0.878756 0.274782
O O6 0.646491 0.748452 0.592270
O O7 0.116689 0.767052 0.458593
O O8 0.426873 0.051625 0.176313
O O9 0.615770 0.276344 0.035152
O O10 0.247561 0.365233 0.774205
O O11 0.794930 0.271120 0.689929
O O12 0.500000 0.000000 0.000000
O O13 0.000000 0.000000 0.000000
O O14 0.938180 0.743712 0.771347
O O15 0.913375 0.569951 0.100483
O O16 0.000000 0.500000 0.000000
O O17 0.831957 0.445372 0.368775
O O18 0.340275 0.421797 0.408223
#
# Coordination Sequence:
#
# PCOD9035351 Si02
#       8
#     2   2   2   2   2   2   2   2
#     4  12  23  39  65  89 140 199 239 287 352 416
#     4  11  26  45  68 106 143 186 241 311 355 425
#     4  11  23  43  67 100 139 190 238 288 358 430
#     4  11  25  49  78 106 142 185 237 302 376 436
#     4  11  23  44  58  93 145 191 236 281 352 420
#     4  12  28  41  65 104 148 192 252 298 345 429
#     4  10  22  45  74 106 135 188 232 292 364 436
#     4  10  23  40  70  99 143 187 239 282 350 422
#
# _framework density 23.089939999999999
#
# number of rings (size 3 to 8) (size 9 to 14) (size 15 to 20)
#    0.000    1.000    3.750    2.625   10.500    1.500 
#    0.000    1.250    0.000    0.000    0.000    0.000 
#    0.000    0.000    0.000    0.000    0.000    0.000 
#
# Total GULP energy -89194.678062 kJ/mol
# GULP energy per Si atom -5574.667379 kJ/mol
# Density = 2.303739 g / cm^3
# Si number density = 23.089940 Si / 1000 Ang^3
#
#
#
# Elastic Constant Matrix: (Units=GPa)
#
#
# Indices 1 2 3 4 5 6 
#
# 1 107.5497 37.5382 55.3339 -8.5432 -5.1945 -2.6279
# 2 37.5382 96.9700 45.4356 -6.8939 -7.0231 -6.6585
# 3 55.3339 45.4356 208.9346 -45.1651 -12.7300 -5.7343
# 4 -8.5432 -6.8939 -45.1651 27.4575 -1.8795 -5.3883
# 5 -5.1945 -7.0231 -12.7300 -1.8795 46.2938 0.9609
# 6 -2.6279 -6.6585 -5.7343 -5.3883 0.9609 24.1618
#
#
#
# Elastic Compliance Matrix: (Units=1/GPa)
#
#
# Indices 1 2 3 4 5 6 
#
# 1 0.011770 -0.003430 -0.002830 -0.002011 -0.000043 -0.000784
# 2 -0.003430 0.012705 -0.001764 -0.000195 0.000995 0.002626
# 3 -0.002830 -0.001764 0.009569 0.015543 0.002577 0.004841
# 4 -0.002011 -0.000195 0.015543 0.065219 0.006299 0.017710
# 5 -0.000043 0.000995 0.002577 0.006299 0.022683 0.001384
# 6 -0.000784 0.002626 0.004841 0.017710 0.001384 0.047070
#
#
# Mechanical properties :
#
#
# Convention : Reuss Voigt Hill
#
# Bulk Modulus (GPa) = 55.56779 76.67440 66.12110
# Shear Modulus (GPa) = 26.16919 37.92573 32.04746
#
# Velocity S-wave (km/s) = 3.37019 4.05720 3.72955
# Velocity P-wave (km/s) = 6.26596 7.43147 6.87347
#
# Compressibility (1/GPa) = 0.01799604
#
# Stress axis : x y z
#
# Youngs Moduli (GPa) = 84.95859 78.70643 104.50218
#
# Poissons Ratio (x) = 0.26999 0.29576
# Poissons Ratio (y) = 0.29143 0.18434
# Poissons Ratio (z) = 0.24045 0.13884
#
# Static dielectric constant tensor:
#      x y z
#    x 1.840960 -0.029630 0.071530 
#    y -0.029630 1.859350 0.065930 
#    z 0.071530 0.065930 2.045810 
# 
# From -- ./inp_files/551242.got.cif
#   From: 2010.05.17/outbox.cif.g08.bks.cpg/sg2_276_cif.got.tgz:551242.got - 2010.06.03 11:33:40.
