data_PCOD9035988
_publ_section_title
;
Structure prediction by ZEFSAII (Michael W. Deem and Ramdas Pophale) SiO2 
 PCOD9035988
Probable space group: P -1
;
_chemical_formula_sum "Si O2"
_cell_formula_units_Z 14
_cell_length_a 8.374626
_cell_length_b 14.072314
_cell_length_c 9.122462
_cell_angle_alpha 121.033432
_cell_angle_beta 49.131664
_cell_angle_gamma 136.238076
_cell_volume 560.418472
_symmetry_space_group_name_H-M "P -1"
_symmetry_group_IT_number 2
_symmetry_cell_setting 'triclinic'
loop_
_space_group_symop_operation_xyz
x,y,z
-x,-y,-z
loop_
_atom_site_type_symbol
_atom_site_label
_atom_site_fract_x
_atom_site_fract_y
_atom_site_fract_z
Si Si1 0.416385 0.800837 0.367085
Si Si2 0.547977 0.589680 0.400115
Si Si3 0.956493 0.369604 0.006875
Si Si4 0.990967 0.035194 0.866168
Si Si5 0.437730 0.961355 0.747809
Si Si6 0.386831 0.166869 0.274121
Si Si7 0.735263 0.495910 0.791836
O O1 0.323864 0.846567 0.595804
O O2 0.283414 0.643161 0.286372
O O3 0.713449 0.854491 0.268881
O O4 0.440329 0.894367 0.292431
O O5 0.500000 0.500000 0.500000
O O6 0.823566 0.641074 0.202360
O O7 0.573109 0.720044 0.551098
O O8 0.313500 0.503980 0.353110
O O9 0.022955 0.397914 0.163774
O O10 0.000000 0.500000 0.000000
O O11 0.651869 0.243660 0.079299
O O12 0.858815 0.900926 0.738870
O O13 0.790507 0.074098 0.030968
O O14 0.000000 0.000000 0.000000
O O15 0.642225 0.953412 0.709806
O O16 0.500000 0.500000 0.000000
#
# Coordination Sequence:
#
# PCOD9035988 Si02
#       7
#     2   2   2   2   2   2   2
#     4  10  22  47  67 104 137 176 239 280 354 408
#     4  11  24  48  70 106 142 188 235 291 354 421
#     4  11  26  46  73 105 144 189 231 301 347 423
#     4  10  25  43  67  96 137 187 223 293 342 416
#     4  10  23  42  71 101 135 183 227 292 341 423
#     4  12  25  46  67 106 142 180 244 280 364 414
#     4  10  24  46  76 102 145 188 230 293 354 419
#
# _framework density 24.981332999999999
#
# number of rings (size 3 to 8) (size 9 to 14) (size 15 to 20)
#    0.000    1.429    2.857    0.429    8.000    2.286 
#    7.714    0.000    0.000    0.000    0.000    0.000 
#    0.000    0.000    0.000    0.000    0.000    0.000 
#
# Total GULP energy -78352.620222 kJ/mol
# GULP energy per Si atom -5596.615730 kJ/mol
# Density = 2.492447 g / cm^3
# Si number density = 24.981333 Si / 1000 Ang^3
#
#
#
# Elastic Constant Matrix: (Units=GPa)
#
#
# Indices 1 2 3 4 5 6 
#
# 1 103.7679 32.0438 33.0898 5.9567 26.2427 -12.5182
# 2 32.0438 75.5913 36.2099 -4.4229 9.8288 -18.6022
# 3 33.0898 36.2099 144.3065 8.0717 8.2837 0.9594
# 4 5.9567 -4.4229 8.0717 35.9604 2.0362 -1.8524
# 5 26.2427 9.8288 8.2837 2.0362 48.2552 2.3185
# 6 -12.5182 -18.6022 0.9594 -1.8524 2.3185 56.9986
#
#
#
# Elastic Compliance Matrix: (Units=1/GPa)
#
#
# Indices 1 2 3 4 5 6 
#
# 1 0.013182 -0.003614 -0.001674 -0.001804 -0.006162 0.001936
# 2 -0.003614 0.018466 -0.003984 0.004135 -0.001551 0.005497
# 3 -0.001674 -0.003984 0.008424 -0.002227 0.000461 -0.001901
# 4 -0.001804 0.004135 -0.002227 0.029263 -0.000809 0.001975
# 5 -0.006162 -0.001551 0.000461 -0.000809 0.024484 -0.002889
# 6 0.001936 0.005497 -0.001901 0.001975 -0.002889 0.019977
#
#
# Mechanical properties :
#
#
# Convention : Reuss Voigt Hill
#
# Bulk Modulus (GPa) = 46.45033 58.48363 52.46698
# Shear Modulus (GPa) = 35.83818 43.06430 39.45124
#
# Velocity S-wave (km/s) = 3.79172 4.15644 3.97826
# Velocity P-wave (km/s) = 6.14849 6.81883 6.49232
#
# Compressibility (1/GPa) = 0.02152837
#
# Stress axis : x y z
#
# Youngs Moduli (GPa) = 75.85938 54.15459 118.70964
#
# Poissons Ratio (x) = 0.19572 0.19874
# Poissons Ratio (y) = 0.27416 0.47289
# Poissons Ratio (z) = 0.12700 0.21573
#
# Static dielectric constant tensor:
#      x y z
#    x 2.014360 -0.027860 -0.026340 
#    y -0.027860 2.029000 -0.010220 
#    z -0.026340 -0.010220 2.005150 
# 
# From -- ./inp_files/203526.got.cif
#   From: 2010.05.17/outbox.cif.g08.bks.cpg/sg2_102_cif.got.tgz:203526.got - 2010.06.03 11:33:40.
