data_PCOD9035024
_publ_section_title
;
Structure prediction by ZEFSAII (Michael W. Deem and Ramdas Pophale) SiO2 
 PCOD9035024
Probable space group: P -1
;
_chemical_formula_sum "Si O2"
_cell_formula_units_Z 15
_cell_length_a 8.518322
_cell_length_b 6.189770
_cell_length_c 15.363960
_cell_angle_alpha 59.253249
_cell_angle_beta 106.397760
_cell_angle_gamma 82.991244
_cell_volume 632.087516
_symmetry_space_group_name_H-M "P -1"
_symmetry_group_IT_number 2
_symmetry_cell_setting 'triclinic'
loop_
_space_group_symop_operation_xyz
x,y,z
-x,-y,-z
loop_
_atom_site_type_symbol
_atom_site_label
_atom_site_fract_x
_atom_site_fract_y
_atom_site_fract_z
Si Si1 0.688209 0.269510 0.480854
Si Si2 0.724825 0.339934 0.840501
Si Si3 0.606328 0.163963 0.306521
Si Si4 0.980993 0.435781 0.110953
Si Si5 0.000000 0.500000 0.500000
Si Si6 0.294090 0.090037 0.944017
Si Si7 0.112916 0.059648 0.745667
Si Si8 0.625370 0.200290 0.674673
O O1 0.678655 0.097393 0.429963
O O2 0.834963 0.405954 0.462058
O O3 0.708902 0.132502 0.606243
O O4 0.500934 0.494927 0.409509
O O5 0.529324 0.541094 0.779558
O O6 0.861300 0.498546 0.830377
O O7 0.731385 0.190485 0.781204
O O8 0.763914 0.132443 0.968002
O O9 0.768514 0.098991 0.282484
O O10 0.497757 0.977606 0.298570
O O11 0.801761 0.637431 0.077721
O O12 0.977645 0.143050 0.189343
O O13 0.000000 0.500000 0.000000
O O14 0.994948 0.663828 0.372617
O O15 0.229805 0.109258 0.831372
O O16 0.500000 0.000000 0.000000
#
# Coordination Sequence:
#
# PCOD9035024 Si02
#       8
#     2   2   2   2   1   2   2   2
#     4  10  24  43  69 102 146 200 255 312 374 453
#     4  11  26  43  80 111 152 195 255 323 388 460
#     4  11  24  46  74 111 147 205 261 311 387 470
#     4  12  29  50  77 118 151 202 263 318 391 461
#     4  12  28  48  70 106 156 204 252 318 384 448
#     4  12  28  49  81 111 156 202 250 325 397 457
#     4  12  29  49  75 109 161 201 259 319 390 468
#     4  10  22  45  70 103 149 197 253 312 381 454
#
# _framework density 23.730891
#
# number of rings (size 3 to 8) (size 9 to 14) (size 15 to 20)
#    0.000    0.800    2.667    2.400   11.200    1.600 
#    0.000    0.000    0.000    0.000    0.000    0.000 
#    0.000    0.000    0.000    0.000    0.000    0.000 
#
# Total GULP energy -83728.790061 kJ/mol
# GULP energy per Si atom -5581.919337 kJ/mol
# Density = 2.367688 g / cm^3
# Si number density = 23.730891 Si / 1000 Ang^3
#
#
#
# Elastic Constant Matrix: (Units=GPa)
#
#
# Indices 1 2 3 4 5 6 
#
# 1 75.9715 26.2241 6.9330 23.7844 -7.6548 10.1409
# 2 26.2241 73.2711 39.9456 41.8047 -7.4469 -0.6832
# 3 6.9330 39.9456 148.0512 36.9937 -13.8084 9.3617
# 4 23.7844 41.8047 36.9937 47.7133 5.0191 -0.6489
# 5 -7.6548 -7.4469 -13.8084 5.0191 43.4161 -2.3221
# 6 10.1409 -0.6832 9.3617 -0.6489 -2.3221 55.3256
#
#
#
# Elastic Compliance Matrix: (Units=1/GPa)
#
#
# Indices 1 2 3 4 5 6 
#
# 1 0.017569 -0.001660 0.002790 -0.010007 0.004663 -0.003635
# 2 -0.001660 0.030193 -0.001014 -0.025625 0.007572 0.000866
# 3 0.002790 -0.001014 0.009502 -0.008339 0.004194 -0.002054
# 4 -0.010007 -0.025625 -0.008339 0.056502 -0.015186 0.002954
# 5 0.004663 0.007572 0.004194 -0.015186 0.028219 -0.000465
# 6 -0.003635 0.000866 -0.002054 0.002954 -0.000465 0.019114
#
#
# Mechanical properties :
#
#
# Convention : Reuss Voigt Hill
#
# Bulk Modulus (GPa) = 17.39228 49.27767 33.33498
# Shear Modulus (GPa) = 27.77298 44.23708 36.00503
#
# Velocity S-wave (km/s) = 3.42472 4.32222 3.89938
# Velocity P-wave (km/s) = 4.79407 6.76159 5.86098
#
# Compressibility (1/GPa) = 0.05749677
#
# Stress axis : x y z
#
# Youngs Moduli (GPa) = 56.91847 33.12036 105.24069
#
# Poissons Ratio (x) = 0.05497 -0.29365
# Poissons Ratio (y) = 0.09447 0.10673
# Poissons Ratio (z) = -0.15882 0.03359
#
# Static dielectric constant tensor:
#      x y z
#    x 1.941300 -0.035130 0.027520 
#    y -0.035130 1.916050 -0.040790 
#    z 0.027520 -0.040790 1.908580 
# 
# From -- ./inp_files/488100.got.cif
#   From: 2010.05.17/outbox.cif.g08.bks.cpg/sg2_245_cif.got.tgz:488100.got - 2010.06.03 11:33:40.
