data_PCOD9035670
_publ_section_title
;
Structure prediction by ZEFSAII (Michael W. Deem and Ramdas Pophale) SiO2 
 PCOD9035670
Probable space group: P -1
;
_chemical_formula_sum "Si O2"
_cell_formula_units_Z 16
_cell_length_a 10.344951
_cell_length_b 7.314638
_cell_length_c 12.173310
_cell_angle_alpha 86.633140
_cell_angle_beta 125.272777
_cell_angle_gamma 63.014543
_cell_volume 601.503605
_symmetry_space_group_name_H-M "P -1"
_symmetry_group_IT_number 2
_symmetry_cell_setting 'triclinic'
loop_
_space_group_symop_operation_xyz
x,y,z
-x,-y,-z
loop_
_atom_site_type_symbol
_atom_site_label
_atom_site_fract_x
_atom_site_fract_y
_atom_site_fract_z
Si Si1 0.968897 0.399313 0.380185
Si Si2 0.158963 0.737929 0.114886
Si Si3 0.734700 0.131062 0.516885
Si Si4 0.428266 0.934438 0.362661
Si Si5 0.002094 0.756379 0.274182
Si Si6 0.575631 0.232135 0.050013
Si Si7 0.629236 0.718443 0.829225
Si Si8 0.434245 0.345106 0.749492
O O1 0.954299 0.576115 0.279428
O O2 0.764204 0.435614 0.305341
O O3 0.000000 0.500000 0.500000
O O4 0.122793 0.135421 0.435413
O O5 0.183061 0.542487 0.058646
O O6 0.372672 0.681310 0.195967
O O7 0.104992 0.696414 0.208527
O O8 0.000000 0.000000 0.000000
O O9 0.541949 0.241634 0.341273
O O10 0.847163 0.246675 0.567275
O O11 0.681646 0.144424 0.619840
O O12 0.310831 0.137875 0.209848
O O13 0.500000 0.000000 0.500000
O O14 0.603397 0.746848 0.375659
O O15 0.807758 0.020676 0.175163
O O16 0.475769 0.212752 0.107975
O O17 0.500000 0.500000 0.000000
O O18 0.509332 0.194275 0.902079
#
# Coordination Sequence:
#
# PCOD9035670 Si02
#       8
#     2   2   2   2   2   2   2   2
#     4  12  28  47  72 112 154 187 250 312 368 457
#     4  12  25  49  73 109 147 193 254 308 361 453
#     4  11  25  47  74 110 150 196 247 311 379 439
#     4  10  22  46  70 106 149 187 249 310 365 448
#     4  12  26  46  77 109 149 200 250 307 379 444
#     4  12  24  45  72 109 150 195 256 303 362 454
#     4  11  25  45  75 105 149 201 244 305 381 441
#     4  12  25  47  76 103 154 196 237 315 374 421
#
# _framework density 26.600007999999999
#
# number of rings (size 3 to 8) (size 9 to 14) (size 15 to 20)
#    0.000    0.500    3.750    4.500    1.750    4.500 
#    0.000    0.625    0.000    0.000    0.000    0.000 
#    0.000    0.000    0.000    0.000    0.000    0.000 
#
# Total GULP energy -89377.629003 kJ/mol
# GULP energy per Si atom -5586.101813 kJ/mol
# Density = 2.653946 g / cm^3
# Si number density = 26.600008 Si / 1000 Ang^3
#
#
#
# Elastic Constant Matrix: (Units=GPa)
#
#
# Indices 1 2 3 4 5 6 
#
# 1 164.9683 60.1603 65.8068 -7.7375 -33.4338 -30.0836
# 2 60.1603 143.3424 36.1074 -18.1628 -12.1819 -10.6920
# 3 65.8068 36.1074 77.1913 1.3351 -31.3536 -12.8683
# 4 -7.7375 -18.1628 1.3351 49.7330 -14.9155 -14.0654
# 5 -33.4338 -12.1819 -31.3536 -14.9155 49.7430 3.5141
# 6 -30.0836 -10.6920 -12.8683 -14.0654 3.5141 45.5624
#
#
#
# Elastic Compliance Matrix: (Units=1/GPa)
#
#
# Indices 1 2 3 4 5 6 
#
# 1 0.011411 -0.001857 -0.006184 0.004310 0.004160 0.006362
# 2 -0.001857 0.008903 -0.002225 0.003536 0.000499 0.001287
# 3 -0.006184 -0.002225 0.023817 0.001230 0.010561 0.001687
# 4 0.004310 0.003536 0.001230 0.029180 0.012435 0.012072
# 5 0.004160 0.000499 0.010561 0.012435 0.032902 0.007148
# 6 0.006362 0.001287 0.001687 0.012072 0.007148 0.030102
#
#
# Mechanical properties :
#
#
# Convention : Reuss Voigt Hill
#
# Bulk Modulus (GPa) = 42.37492 78.85010 60.61251
# Shear Modulus (GPa) = 30.35588 43.90285 37.12937
#
# Velocity S-wave (km/s) = 3.38183 4.06702 3.74015
# Velocity P-wave (km/s) = 5.58695 7.19454 6.44110
#
# Compressibility (1/GPa) = 0.02359887
#
# Stress axis : x y z
#
# Youngs Moduli (GPa) = 87.63265 112.32533 41.98750
#
# Poissons Ratio (x) = 0.20864 0.25963
# Poissons Ratio (y) = 0.16277 0.09342
# Poissons Ratio (z) = 0.54188 0.24991
#
# Static dielectric constant tensor:
#      x y z
#    x 2.232150 0.195790 0.097800 
#    y 0.195790 2.238010 0.063200 
#    z 0.097800 0.063200 2.168120 
# 
# From -- ./inp_files/419469.got.cif
#   From: 2010.05.17/outbox.cif.g08.bks.cpg/sg2_210_cif.got.tgz:419469.got - 2010.06.03 11:33:40.
