data_PCOD9035533
_publ_section_title
;
Structure prediction by ZEFSAII (Michael W. Deem and Ramdas Pophale) SiO2 
 PCOD9035533
Probable space group: P -1
;
_chemical_formula_sum "Si O2"
_cell_formula_units_Z 16
_cell_length_a 5.298818
_cell_length_b 12.955586
_cell_length_c 16.841085
_cell_angle_alpha 42.824989
_cell_angle_beta 104.514822
_cell_angle_gamma 89.181321
_cell_volume 725.513430
_symmetry_space_group_name_H-M "P -1"
_symmetry_group_IT_number 2
_symmetry_cell_setting 'triclinic'
loop_
_space_group_symop_operation_xyz
x,y,z
-x,-y,-z
loop_
_atom_site_type_symbol
_atom_site_label
_atom_site_fract_x
_atom_site_fract_y
_atom_site_fract_z
Si Si1 0.518954 0.526543 0.772699
Si Si2 0.212617 0.990923 0.262902
Si Si3 0.698086 0.823843 0.601892
Si Si4 0.079204 0.641182 0.974690
Si Si5 0.798963 0.955586 0.383947
Si Si6 0.227689 0.706978 0.793290
Si Si7 0.368523 0.439020 0.642897
Si Si8 0.886244 0.297937 0.653422
O O1 0.558214 0.689369 0.650816
O O2 0.336605 0.575899 0.809485
O O3 0.404503 0.453480 0.731532
O O4 0.798151 0.418136 0.896398
O O5 0.539023 0.925915 0.337283
O O6 0.127325 0.180473 0.133399
O O7 0.046473 0.959379 0.344876
O O8 0.115886 0.883372 0.252257
O O9 0.901239 0.763223 0.725019
O O10 0.500000 0.000000 0.500000
O O11 0.876933 0.839532 0.530202
O O12 0.297801 0.667271 0.912566
O O13 0.000000 0.500000 0.000000
O O14 0.688240 0.136043 0.306797
O O15 0.663021 0.377332 0.658254
O O16 0.220477 0.605953 0.491742
O O17 0.175869 0.327042 0.675492
#
# Coordination Sequence:
#
# PCOD9035533 Si02
#       8
#     2   2   2   2   2   2   2   2
#     4  12  25  40  65  96 132 183 223 269 333 394
#     4  11  24  43  71  94 131 182 222 272 335 398
#     4  12  23  38  59  94 138 171 220 270 327 397
#     4  11  23  45  63  95 138 184 227 265 318 397
#     4  11  23  38  64  99 131 171 219 267 331 403
#     4  11  24  39  63  89 138 181 215 268 321 401
#     4  10  24  41  70  97 132 164 222 282 344 397
#     4  10  22  46  67  97 129 167 216 290 348 392
#
# _framework density 22.053346999999999
#
# number of rings (size 3 to 8) (size 9 to 14) (size 15 to 20)
#    0.000    1.000    2.500    4.500    5.250    2.000 
#    0.000    1.250    0.000    0.000    0.000    0.000 
#    0.000    0.000    0.000    0.000    0.000    0.000 
#
# Total GULP energy -89360.910311 kJ/mol
# GULP energy per Si atom -5585.056894 kJ/mol
# Density = 2.200315 g / cm^3
# Si number density = 22.053347 Si / 1000 Ang^3
#
#
#
# Elastic Constant Matrix: (Units=GPa)
#
#
# Indices 1 2 3 4 5 6 
#
# 1 66.4266 -2.9528 4.3655 0.4811 -3.6359 16.5770
# 2 -2.9528 91.4042 29.2261 5.8332 1.3803 21.6418
# 3 4.3655 29.2261 98.6890 3.7270 -4.3576 9.4672
# 4 0.4811 5.8332 3.7270 37.1995 2.1983 -3.7744
# 5 -3.6359 1.3803 -4.3576 2.1983 22.3941 2.2306
# 6 16.5770 21.6418 9.4672 -3.7744 2.2306 32.8128
#
#
#
# Elastic Compliance Matrix: (Units=1/GPa)
#
#
# Indices 1 2 3 4 5 6 
#
# 1 0.018547 0.003732 -0.000485 -0.002262 0.004127 -0.012233
# 2 0.003732 0.014995 -0.003390 -0.003223 0.000454 -0.011200
# 3 -0.000485 -0.003390 0.011407 -0.000865 0.002543 -0.001083
# 4 -0.002262 -0.003223 -0.000865 0.028445 -0.003831 0.007051
# 5 0.004127 0.000454 0.002543 -0.003831 0.046839 -0.006743
# 6 -0.012233 -0.011200 -0.001083 0.007051 -0.006743 0.045624
#
#
# Mechanical properties :
#
#
# Convention : Reuss Voigt Hill
#
# Bulk Modulus (GPa) = 22.38871 35.31083 28.84977
# Shear Modulus (GPa) = 27.61966 33.54002 30.57984
#
# Velocity S-wave (km/s) = 3.54277 3.90405 3.72779
# Velocity P-wave (km/s) = 5.18739 6.03063 5.62483
#
# Compressibility (1/GPa) = 0.04466537
#
# Stress axis : x y z
#
# Youngs Moduli (GPa) = 53.91726 66.68703 87.66575
#
# Poissons Ratio (x) = -0.24890 0.04249
# Poissons Ratio (y) = -0.20124 0.29717
# Poissons Ratio (z) = 0.02613 0.22605
#
# Static dielectric constant tensor:
#      x y z
#    x 1.882460 -0.027740 0.003400 
#    y -0.027740 1.856800 -0.015830 
#    z 0.003400 -0.015830 1.861150 
# 
# From -- ./inp_files/482667.got.cif
#   From: 2010.05.17/outbox.cif.g08.bks.cpg/sg2_242_cif.got.tgz:482667.got - 2010.06.03 11:33:40.
