data_PCOD9035400
_publ_section_title
;
Structure prediction by ZEFSAII (Michael W. Deem and Ramdas Pophale) SiO2 
 PCOD9035400
Probable space group: P -1
;
_chemical_formula_sum "Si O2"
_cell_formula_units_Z 16
_cell_length_a 15.763562
_cell_length_b 9.090547
_cell_length_c 24.536525
_cell_angle_alpha 49.491557
_cell_angle_beta 161.820310
_cell_angle_gamma 130.770139
_cell_volume 824.464207
_symmetry_space_group_name_H-M "P -1"
_symmetry_group_IT_number 2
_symmetry_cell_setting 'triclinic'
loop_
_space_group_symop_operation_xyz
x,y,z
-x,-y,-z
loop_
_atom_site_type_symbol
_atom_site_label
_atom_site_fract_x
_atom_site_fract_y
_atom_site_fract_z
Si Si1 0.591960 0.229410 0.012626
Si Si2 0.472333 0.942898 0.432141
Si Si3 0.097531 0.309756 0.223458
Si Si4 0.015538 0.639052 0.028626
Si Si5 0.107444 0.988365 0.930190
Si Si6 0.381982 0.700120 0.868452
Si Si7 0.831710 0.452991 0.333988
Si Si8 0.607102 0.304011 0.344650
O O1 0.713617 0.243226 0.144554
O O2 0.834953 0.305486 0.101934
O O3 0.347645 0.364296 0.824157
O O4 0.500000 0.000000 0.000000
O O5 0.587293 0.116074 0.418214
O O6 0.145264 0.898977 0.235553
O O7 0.500000 0.000000 0.500000
O O8 0.650182 0.770942 0.575305
O O9 0.174660 0.528515 0.195849
O O10 0.996017 0.159574 0.147439
O O11 0.700657 0.643480 0.852970
O O12 0.000000 0.500000 0.000000
O O13 0.151006 0.851896 0.040742
O O14 0.370064 0.134098 0.037613
O O15 0.183191 0.655419 0.706806
O O16 0.500000 0.500000 0.000000
O O17 0.697126 0.308705 0.334819
O O18 0.146526 0.537724 0.519238
#
# Coordination Sequence:
#
# PCOD9035400 Si02
#       8
#     2   2   2   2   2   2   2   2
#     4  11  19  33  59  84 117 149 191 244 284 345
#     4   9  19  31  56  89 111 142 198 239 277 338
#     4  10  17  32  58  87 110 142 196 237 286 329
#     4   9  18  33  56  86 112 144 194 245 282 334
#     4   9  18  35  56  85 112 148 190 237 284 341
#     4  10  22  36  56  88 119 150 194 239 292 340
#     4  10  22  36  59  83 115 156 195 236 286 348
#     4  10  19  37  58  83 113 150 199 234 280 350
#
# _framework density 19.406542999999999
#
# number of rings (size 3 to 8) (size 9 to 14) (size 15 to 20)
#    0.000    2.250    2.500    1.500    5.250    0.000 
#    0.000    2.500    0.000   23.250    0.000    0.000 
#    0.000    0.000    0.000    0.000    0.000    0.000 
#
# Total GULP energy -89120.284650 kJ/mol
# GULP energy per Si atom -5570.017791 kJ/mol
# Density = 1.936237 g / cm^3
# Si number density = 19.406543 Si / 1000 Ang^3
#
#
#
# Elastic Constant Matrix: (Units=GPa)
#
#
# Indices 1 2 3 4 5 6 
#
# 1 90.4820 26.4443 8.5406 -4.8628 -16.2017 12.7828
# 2 26.4443 52.1648 27.9059 -22.4873 -6.2183 19.8096
# 3 8.5406 27.9059 32.9013 -18.7657 -5.9492 9.7341
# 4 -4.8628 -22.4873 -18.7657 21.5399 3.7619 -7.4754
# 5 -16.2017 -6.2183 -5.9492 3.7619 28.3603 1.0909
# 6 12.7828 19.8096 9.7341 -7.4754 1.0909 35.2438
#
#
#
# Elastic Compliance Matrix: (Units=1/GPa)
#
#
# Indices 1 2 3 4 5 6 
#
# 1 0.015250 -0.010731 0.003141 -0.007172 0.008051 -0.002137
# 2 -0.010731 0.055149 -0.022517 0.031000 -0.002326 -0.014239
# 3 0.003141 -0.022517 0.072096 0.038671 0.006867 -0.000405
# 4 -0.007172 0.031000 0.038671 0.110880 -0.003824 -0.001867
# 5 0.008051 -0.002326 0.006867 -0.003824 0.041513 -0.005605
# 6 -0.002137 -0.014239 -0.000405 -0.001867 -0.005605 0.037042
#
#
# Mechanical properties :
#
#
# Convention : Reuss Voigt Hill
#
# Bulk Modulus (GPa) = 12.15372 33.48108 22.81740
# Shear Modulus (GPa) = 11.91688 24.53928 18.22808
#
# Velocity S-wave (km/s) = 2.48072 3.55982 3.06808
# Velocity P-wave (km/s) = 3.80547 5.84691 4.93295
#
# Compressibility (1/GPa) = 0.08227936
#
# Stress axis : x y z
#
# Youngs Moduli (GPa) = 65.57373 18.13255 13.87048
#
# Poissons Ratio (x) = 0.19459 -0.04357
# Poissons Ratio (y) = 0.70370 0.31233
# Poissons Ratio (z) = -0.20596 0.40830
#
# Static dielectric constant tensor:
#      x y z
#    x 1.715480 -0.005100 -0.039130 
#    y -0.005100 1.690480 -0.017470 
#    z -0.039130 -0.017470 1.694340 
# 
# From -- ./inp_files/321009.got.cif
#   From: 2010.05.17/outbox.cif.g08.bks.cpg/sg2_161_cif.got.tgz:321009.got - 2010.06.03 11:33:40.
