data_PCOD9035810
_publ_section_title
;
Structure prediction by ZEFSAII (Michael W. Deem and Ramdas Pophale) SiO2 
 PCOD9035810
Probable space group: P -1
;
_chemical_formula_sum "Si O2"
_cell_formula_units_Z 15
_cell_length_a 6.361800
_cell_length_b 11.473230
_cell_length_c 14.605065
_cell_angle_alpha 139.259671
_cell_angle_beta 109.958283
_cell_angle_gamma 79.942255
_cell_volume 647.783353
_symmetry_space_group_name_H-M "P -1"
_symmetry_group_IT_number 2
_symmetry_cell_setting 'triclinic'
loop_
_space_group_symop_operation_xyz
x,y,z
-x,-y,-z
loop_
_atom_site_type_symbol
_atom_site_label
_atom_site_fract_x
_atom_site_fract_y
_atom_site_fract_z
Si Si1 0.334389 0.354313 0.579521
Si Si2 0.383644 0.810365 0.334392
Si Si3 0.072000 0.409616 0.865267
Si Si4 0.021282 0.664637 0.713716
Si Si5 0.500000 0.500000 0.500000
Si Si6 0.952952 0.066370 0.276290
Si Si7 0.433021 0.168936 0.825242
Si Si8 0.882905 0.222283 0.010985
O O1 0.477384 0.331291 0.678498
O O2 0.170052 0.505409 0.656229
O O3 0.496441 0.414537 0.553995
O O4 0.174228 0.168100 0.419821
O O5 0.417954 0.826241 0.240718
O O6 0.121840 0.754061 0.285312
O O7 0.500000 0.000000 0.500000
O O8 0.298648 0.335125 0.883365
O O9 0.079730 0.568310 0.888197
O O10 0.000000 0.500000 0.000000
O O11 0.125282 0.784201 0.714483
O O12 0.765881 0.590328 0.605389
O O13 0.027394 0.784464 0.877170
O O14 0.761120 0.994694 0.277796
O O15 0.007645 0.903948 0.120839
O O16 0.611900 0.172935 0.935945
#
# Coordination Sequence:
#
# PCOD9035810 Si02
#       8
#     2   2   2   2   1   2   2   2
#     4  11  25  45  71 100 133 182 235 280 341 412
#     4  12  27  45  70 105 139 181 231 283 344 412
#     4  12  24  43  68  99 137 178 228 277 341 412
#     4  11  26  44  71 100 132 178 235 282 344 408
#     4  10  22  46  72  92 132 174 222 286 336 392
#     4  11  25  45  65 101 140 175 232 287 342 407
#     4  12  25  43  69  96 143 182 221 283 347 403
#     4  12  25  43  70 101 136 182 225 285 345 412
#
# _framework density 23.155891
#
# number of rings (size 3 to 8) (size 9 to 14) (size 15 to 20)
#    0.000    0.533    2.667    5.600    1.867   11.200 
#    0.000    0.000    0.000    0.000    0.000    0.000 
#    0.000    0.000    0.000    0.000    0.000    0.000 
#
# Total GULP energy -83677.024648 kJ/mol
# GULP energy per Si atom -5578.468310 kJ/mol
# Density = 2.310319 g / cm^3
# Si number density = 23.155891 Si / 1000 Ang^3
#
#
#
# Elastic Constant Matrix: (Units=GPa)
#
#
# Indices 1 2 3 4 5 6 
#
# 1 55.5956 26.6905 15.8961 13.7430 20.9061 5.1020
# 2 26.6905 115.5244 13.5004 -8.5479 7.6186 4.5635
# 3 15.8961 13.5004 56.6217 3.0757 4.8760 -3.2010
# 4 13.7430 -8.5479 3.0757 42.0020 3.2930 4.7683
# 5 20.9061 7.6186 4.8760 3.2930 30.9764 8.3509
# 6 5.1020 4.5635 -3.2010 4.7683 8.3509 57.0617
#
#
#
# Elastic Compliance Matrix: (Units=1/GPa)
#
#
# Indices 1 2 3 4 5 6 
#
# 1 0.031741 -0.006288 -0.005253 -0.009951 -0.018225 0.000869
# 2 -0.006288 0.010488 -0.001161 0.004254 0.001648 -0.000938
# 3 -0.005253 -0.001161 0.019483 -0.000155 0.000344 0.001618
# 4 -0.009951 0.004254 -0.000155 0.027939 0.003339 -0.002283
# 5 -0.018225 0.001648 0.000344 0.003339 0.045219 -0.005380
# 6 0.000869 -0.000938 0.001618 -0.002283 -0.005380 0.018591
#
#
# Mechanical properties :
#
#
# Convention : Reuss Voigt Hill
#
# Bulk Modulus (GPa) = 27.54257 37.76841 32.65549
# Shear Modulus (GPa) = 26.18248 37.45166 31.81707
#
# Velocity S-wave (km/s) = 3.36624 4.02602 3.71082
# Velocity P-wave (km/s) = 5.19894 6.16098 5.70029
#
# Compressibility (1/GPa) = 0.03630744
#
# Stress axis : x y z
#
# Youngs Moduli (GPa) = 31.50482 95.34801 51.32718
#
# Poissons Ratio (x) = 0.59957 0.26960
# Poissons Ratio (y) = 0.19811 0.05961
# Poissons Ratio (z) = 0.16548 0.11073
#
# Static dielectric constant tensor:
#      x y z
#    x 1.866990 -0.021530 -0.048070 
#    y -0.021530 1.880030 0.002540 
#    z -0.048070 0.002540 1.932630 
# 
# From -- ./inp_files/60526.got.cif
#   From: 2010.05.17/outbox.cif.g08.bks.cpg/sg2_31_cif.got.tgz:60526.got - 2010.06.03 11:33:40.
