data_PCOD9035665
_publ_section_title
;
Structure prediction by ZEFSAII (Michael W. Deem and Ramdas Pophale) SiO2 
 PCOD9035665
Probable space group: P -1
;
_chemical_formula_sum "Si O2"
_cell_formula_units_Z 14
_cell_length_a 10.246010
_cell_length_b 5.222972
_cell_length_c 11.441900
_cell_angle_alpha 76.654493
_cell_angle_beta 79.471642
_cell_angle_gamma 59.637229
_cell_volume 512.465825
_symmetry_space_group_name_H-M "P -1"
_symmetry_group_IT_number 2
_symmetry_cell_setting 'triclinic'
loop_
_space_group_symop_operation_xyz
x,y,z
-x,-y,-z
loop_
_atom_site_type_symbol
_atom_site_label
_atom_site_fract_x
_atom_site_fract_y
_atom_site_fract_z
Si Si1 0.826394 0.286020 0.891262
Si Si2 0.274835 0.218817 0.322044
Si Si3 0.500000 0.500000 0.500000
Si Si4 0.000000 0.500000 0.000000
Si Si5 0.407558 0.941396 0.681982
Si Si6 0.187377 0.530090 0.533217
Si Si7 0.593175 0.140440 0.035983
Si Si8 0.022585 0.162097 0.259170
O O1 0.711565 0.566202 0.801198
O O2 0.963743 0.097972 0.800215
O O3 0.759093 0.063439 0.963924
O O4 0.879229 0.388322 0.985049
O O5 0.443852 0.004508 0.368257
O O6 0.163238 0.432508 0.419003
O O7 0.193279 0.066476 0.283199
O O8 0.448732 0.650924 0.629243
O O9 0.324769 0.598653 0.489332
O O10 0.972560 0.438152 0.149650
O O11 0.387028 0.934444 0.823329
O O12 0.261942 0.216604 0.623623
O O13 0.067744 0.771207 0.614086
O O14 0.500000 0.500000 0.000000
O O15 0.500000 0.000000 0.000000
#
# Coordination Sequence:
#
# PCOD9035665 Si02
#       8
#     2   2   1   1   2   2   2   2
#     4  11  25  45  75 110 153 206 258 332 389 484
#     4  10  22  46  70 105 147 197 255 316 392 461
#     4  10  24  42  70 106 148 190 256 316 386 458
#     4  10  26  46  68 104 150 196 258 314 390 456
#     4  11  25  46  75 108 153 197 262 325 395 469
#     4  11  26  44  73 108 147 199 250 326 388 473
#     4  12  28  48  81 118 160 212 268 332 405 480
#     4  11  25  44  73 104 152 199 259 317 399 472
#
# _framework density 27.318894
#
# number of rings (size 3 to 8) (size 9 to 14) (size 15 to 20)
#    0.000    1.143    1.429    3.429    8.000    7.429 
#    0.000    0.000    0.000    0.000    0.000    0.000 
#    0.000    0.000    0.000    0.000    0.000    0.000 
#
# Total GULP energy -78029.434186 kJ/mol
# GULP energy per Si atom -5573.531013 kJ/mol
# Density = 2.725671 g / cm^3
# Si number density = 27.318894 Si / 1000 Ang^3
#
#
#
# Elastic Constant Matrix: (Units=GPa)
#
#
# Indices 1 2 3 4 5 6 
#
# 1 78.2995 30.4997 54.7013 16.6631 14.3835 27.9585
# 2 30.4997 81.0406 50.5036 19.7954 11.1977 22.0823
# 3 54.7013 50.5036 228.9598 7.7651 21.5847 5.9077
# 4 16.6631 19.7954 7.7651 52.3695 1.7911 9.5298
# 5 14.3835 11.1977 21.5847 1.7911 55.2148 14.2150
# 6 27.9585 22.0823 5.9077 9.5298 14.2150 38.9089
#
#
#
# Elastic Compliance Matrix: (Units=1/GPa)
#
#
# Indices 1 2 3 4 5 6 
#
# 1 0.021953 -0.000791 -0.004586 -0.003504 -0.000118 -0.013728
# 2 -0.000791 0.018103 -0.003450 -0.004610 0.000117 -0.008095
# 3 -0.004586 -0.003450 0.006236 0.001044 -0.001788 0.004704
# 4 -0.003504 -0.004610 0.001044 0.021898 0.000915 -0.000722
# 5 -0.000118 0.000117 -0.001788 0.000915 0.020719 -0.007504
# 6 -0.013728 -0.008095 0.004704 -0.000722 -0.007504 0.042364
#
#
# Mechanical properties :
#
#
# Convention : Reuss Voigt Hill
#
# Bulk Modulus (GPa) = 34.91938 73.30102 54.11020
# Shear Modulus (GPa) = 31.55105 46.13834 38.84469
#
# Velocity S-wave (km/s) = 3.40209 4.11406 3.77490
# Velocity P-wave (km/s) = 5.31434 7.03258 6.23295
#
# Compressibility (1/GPa) = 0.02863739
#
# Stress axis : x y z
#
# Youngs Moduli (GPa) = 45.55257 55.23922 160.35760
#
# Poissons Ratio (x) = 0.04370 0.73542
# Poissons Ratio (y) = 0.03604 0.55322
# Poissons Ratio (z) = 0.20891 0.19057
#
# Static dielectric constant tensor:
#      x y z
#    x 2.026820 0.257010 -0.018380 
#    y 0.257010 1.912340 -0.098020 
#    z -0.018380 -0.098020 1.997840 
# 
# From -- ./inp_files/408470.got.cif
#   From: 2010.05.17/outbox.cif.g08.bks.cpg/sg2_205_cif.got.tgz:408470.got - 2010.06.03 11:33:40.
