data_PCOD9035200
_publ_section_title
;
Structure prediction by ZEFSAII (Michael W. Deem and Ramdas Pophale) SiO2 
 PCOD9035200
Probable space group: P -1
;
_chemical_formula_sum "Si O2"
_cell_formula_units_Z 16
_cell_length_a 9.072003
_cell_length_b 12.733327
_cell_length_c 12.741464
_cell_angle_alpha 147.704407
_cell_angle_beta 106.369119
_cell_angle_gamma 73.051489
_cell_volume 750.429583
_symmetry_space_group_name_H-M "P -1"
_symmetry_group_IT_number 2
_symmetry_cell_setting 'triclinic'
loop_
_space_group_symop_operation_xyz
x,y,z
-x,-y,-z
loop_
_atom_site_type_symbol
_atom_site_label
_atom_site_fract_x
_atom_site_fract_y
_atom_site_fract_z
Si Si1 0.519636 0.818808 0.042628
Si Si2 0.092467 0.333947 0.748206
Si Si3 0.105952 0.019789 0.295935
Si Si4 0.968312 0.337604 0.271464
Si Si5 0.573149 0.968380 0.599288
Si Si6 0.307655 0.478718 0.771217
Si Si7 0.131846 0.275789 0.948340
Si Si8 0.787297 0.972790 0.918909
O O1 0.695639 0.751849 0.993712
O O2 0.395458 0.957348 0.063639
O O3 0.533351 0.946492 0.257745
O O4 0.428481 0.632300 0.898956
O O5 0.072920 0.186495 0.521038
O O6 0.248723 0.437697 0.841552
O O7 0.118554 0.239488 0.788559
O O8 0.948758 0.501704 0.865097
O O9 0.273367 0.917403 0.276923
O O10 0.150982 0.064843 0.221827
O O11 0.973460 0.878012 0.151337
O O12 0.853437 0.443727 0.252365
O O13 0.000000 0.500000 0.500000
O O14 0.868520 0.159532 0.136063
O O15 0.134694 0.225235 0.177909
O O16 0.625021 0.738145 0.436767
O O17 0.500000 0.000000 0.500000
#
# Coordination Sequence:
#
# PCOD9035200 Si02
#       8
#     2   2   2   2   2   2   2   2
#     4  10  20  34  51  79 110 135 175 224 267 311
#     4  10  21  35  51  76 105 146 187 212 253 312
#     4  10  20  37  53  76 110 143 180 217 259 316
#     4  10  17  32  58  83 103 129 172 227 276 316
#     4  10  20  33  54  79 105 141 180 220 264 305
#     4  10  21  36  56  79 106 139 177 222 267 314
#     4  11  22  33  52  77 110 149 179 213 259 316
#     4   9  20  34  56  83 103 132 178 225 270 317
#
# _framework density 21.321118999999999
#
# number of rings (size 3 to 8) (size 9 to 14) (size 15 to 20)
#    0.000    2.000    0.000    6.375    0.000    5.000 
#    0.000    0.000    0.000   12.000    0.000   27.125 
#    0.000    0.000    0.000    0.000    0.000    0.000 
#
# Total GULP energy -89143.431095 kJ/mol
# GULP energy per Si atom -5571.464443 kJ/mol
# Density = 2.127259 g / cm^3
# Si number density = 21.321119 Si / 1000 Ang^3
#
#
#
# Elastic Constant Matrix: (Units=GPa)
#
#
# Indices 1 2 3 4 5 6 
#
# 1 115.6733 41.7303 22.9037 2.7336 -1.9104 -25.8384
# 2 41.7303 68.4891 27.3171 4.1092 4.9306 -17.9751
# 3 22.9037 27.3171 103.9202 2.8212 -10.4537 -7.5985
# 4 2.7336 4.1092 2.8212 34.6737 -3.6951 -1.7479
# 5 -1.9104 4.9306 -10.4537 -3.6951 23.8732 -4.3893
# 6 -25.8384 -17.9751 -7.5985 -1.7479 -4.3893 35.2664
#
#
#
# Elastic Compliance Matrix: (Units=1/GPa)
#
#
# Indices 1 2 3 4 5 6 
#
# 1 0.012331 -0.005965 -0.000366 0.000435 0.003293 0.006347
# 2 -0.005965 0.022002 -0.004706 -0.002202 -0.006520 0.004910
# 3 -0.000366 -0.004706 0.011599 0.000333 0.006187 0.000619
# 4 0.000435 -0.002202 0.000333 0.029697 0.005494 0.001424
# 5 0.003293 -0.006520 0.006187 0.005494 0.048290 0.006705
# 6 0.006347 0.004910 0.000619 0.001424 0.006705 0.036547
#
#
# Mechanical properties :
#
#
# Convention : Reuss Voigt Hill
#
# Bulk Modulus (GPa) = 41.91433 52.44277 47.17855
# Shear Modulus (GPa) = 26.24755 31.83809 29.04282
#
# Velocity S-wave (km/s) = 3.51245 3.86847 3.69475
# Velocity P-wave (km/s) = 6.01257 6.67858 6.35431
#
# Compressibility (1/GPa) = 0.02385819
#
# Stress axis : x y z
#
# Youngs Moduli (GPa) = 81.09495 45.44987 86.21306
#
# Poissons Ratio (x) = 0.27109 0.03159
# Poissons Ratio (y) = 0.48370 0.40574
# Poissons Ratio (z) = 0.02971 0.21390
#
# Static dielectric constant tensor:
#      x y z
#    x 1.793280 0.000920 -0.010760 
#    y 0.000920 1.874020 -0.017830 
#    z -0.010760 -0.017830 1.822490 
# 
# From -- ./inp_files/311398.got.cif
#   From: 2010.05.17/outbox.cif.g08.bks.cpg/sg2_156_cif.got.tgz:311398.got - 2010.06.03 11:33:40.
