data_PCOD9035314
_publ_section_title
;
Structure prediction by ZEFSAII (Michael W. Deem and Ramdas Pophale) SiO2 
 PCOD9035314
Probable space group: P -1
;
_chemical_formula_sum "Si O2"
_cell_formula_units_Z 11
_cell_length_a 9.215523
_cell_length_b 6.919656
_cell_length_c 11.806142
_cell_angle_alpha 112.709798
_cell_angle_beta 51.120249
_cell_angle_gamma 114.994054
_cell_volume 523.338190
_symmetry_space_group_name_H-M "P -1"
_symmetry_group_IT_number 2
_symmetry_cell_setting 'triclinic'
loop_
_space_group_symop_operation_xyz
x,y,z
-x,-y,-z
loop_
_atom_site_type_symbol
_atom_site_label
_atom_site_fract_x
_atom_site_fract_y
_atom_site_fract_z
Si Si1 0.116739 0.133563 0.128894
Si Si2 0.350208 0.392058 0.646688
Si Si3 0.426719 0.785320 0.303941
Si Si4 0.234348 0.818964 0.840683
Si Si5 0.500000 0.500000 0.000000
Si Si6 0.077783 0.964895 0.576469
O O1 0.920103 0.157833 0.173563
O O2 0.092337 0.132971 0.274900
O O3 0.294075 0.320708 0.042194
O O4 0.160562 0.911702 0.011679
O O5 0.500000 0.500000 0.500000
O O6 0.461723 0.306831 0.673196
O O7 0.255229 0.577280 0.782448
O O8 0.194102 0.191580 0.625124
O O9 0.227158 0.817211 0.456626
O O10 0.560554 0.020859 0.256337
O O11 0.401804 0.628278 0.173364
O O12 0.000000 0.000000 0.500000
#
# Coordination Sequence:
#
# PCOD9035314 Si02
#       6
#     2   2   2   2   1   2
#     4  10  23  46  67 102 140 177 226 290 330 405
#     4  12  24  42  74 100 133 188 222 273 350 408
#     4  11  24  48  68 102 138 176 229 287 330 409
#     4  10  22  45  73  97 134 179 235 275 338 407
#     4  10  26  42  72  94 138 186 218 278 354 380
#     4  12  27  43  68 106 141 175 227 286 340 404
#
# _framework density 21.018915
#
# number of rings (size 3 to 8) (size 9 to 14) (size 15 to 20)
#    0.000    1.091    3.636    1.636    5.091    2.909 
#    0.000    3.636    0.000    0.000    0.000    0.000 
#    0.000    0.000    0.000    0.000    0.000    0.000 
#
# Total GULP energy -61294.023462 kJ/mol
# GULP energy per Si atom -5572.183951 kJ/mol
# Density = 2.097108 g / cm^3
# Si number density = 21.018915 Si / 1000 Ang^3
#
#
#
# Elastic Constant Matrix: (Units=GPa)
#
#
# Indices 1 2 3 4 5 6 
#
# 1 52.6493 19.0464 31.9496 32.4324 3.9165 -13.5553
# 2 19.0464 59.5424 22.7845 38.0767 1.5760 -2.0953
# 3 31.9496 22.7845 109.9748 25.4312 2.7478 -20.6246
# 4 32.4324 38.0767 25.4312 47.6259 5.5667 -1.6513
# 5 3.9165 1.5760 2.7478 5.5667 25.1460 1.2193
# 6 -13.5553 -2.0953 -20.6246 -1.6513 1.2193 33.0910
#
#
#
# Elastic Compliance Matrix: (Units=1/GPa)
#
#
# Indices 1 2 3 4 5 6 
#
# 1 0.042709 0.010823 -0.003892 -0.035198 0.000209 0.013990
# 2 0.010823 0.037584 -0.001835 -0.036793 0.004126 0.003681
# 3 -0.003892 -0.001835 0.012199 -0.002146 -0.000418 0.005801
# 4 -0.035198 -0.036793 -0.002146 0.075992 -0.008122 -0.013994
# 5 0.000209 0.004126 -0.000418 -0.008122 0.041410 -0.001845
# 6 0.013990 0.003681 0.005801 -0.013994 -0.001845 0.039169
#
#
# Mechanical properties :
#
#
# Convention : Reuss Voigt Hill
#
# Bulk Modulus (GPa) = 9.73871 41.08081 25.40976
# Shear Modulus (GPa) = 18.30841 31.06499 24.68670
#
# Velocity S-wave (km/s) = 2.95455 3.84859 3.43081
# Velocity P-wave (km/s) = 4.03516 6.27184 5.27345
#
# Compressibility (1/GPa) = 0.10268303
#
# Stress axis : x y z
#
# Youngs Moduli (GPa) = 23.41435 26.60690 81.97727
#
# Poissons Ratio (x) = -0.28797 0.31906
# Poissons Ratio (y) = -0.25342 0.15046
# Poissons Ratio (z) = 0.09113 0.04883
#
# Static dielectric constant tensor:
#      x y z
#    x 1.712530 -0.008840 0.017650 
#    y -0.008840 1.740510 -0.010510 
#    z 0.017650 -0.010510 1.777440 
# 
# From -- ./inp_files/17022.got.cif
#   From: 2010.05.17/outbox.cif.g08.bks.cpg/sg2_9_cif.got.tgz:17022.got - 2010.06.03 11:33:40.
