data_PCOD9035806
_publ_section_title
;
Structure prediction by ZEFSAII (Michael W. Deem and Ramdas Pophale) SiO2 
 PCOD9035806
Probable space group: P -1
;
_chemical_formula_sum "Si O2"
_cell_formula_units_Z 16
_cell_length_a 14.557374
_cell_length_b 8.808093
_cell_length_c 7.906417
_cell_angle_alpha 93.801931
_cell_angle_beta 138.071959
_cell_angle_gamma 87.762560
_cell_volume 675.834614
_symmetry_space_group_name_H-M "P -1"
_symmetry_group_IT_number 2
_symmetry_cell_setting 'triclinic'
loop_
_space_group_symop_operation_xyz
x,y,z
-x,-y,-z
loop_
_atom_site_type_symbol
_atom_site_label
_atom_site_fract_x
_atom_site_fract_y
_atom_site_fract_z
Si Si1 0.332235 0.157330 0.684421
Si Si2 0.981933 0.310708 0.237515
Si Si3 0.596142 0.634577 0.713336
Si Si4 0.962998 0.997295 0.647113
Si Si5 0.193026 0.714913 0.473876
Si Si6 0.806561 0.511824 0.226931
Si Si7 0.462616 0.885840 0.733333
Si Si8 0.213223 0.401407 0.325812
O O1 0.314037 0.326823 0.600671
O O2 0.180365 0.087208 0.503696
O O3 0.415561 0.057708 0.654347
O O4 0.413695 0.126585 0.965032
O O5 0.089665 0.359200 0.543699
O O6 0.064527 0.346447 0.182704
O O7 0.865884 0.428820 0.135831
O O8 0.935055 0.133776 0.154957
O O9 0.500000 0.500000 0.500000
O O10 0.507953 0.783979 0.632253
O O11 0.724240 0.660080 0.764818
O O12 0.663290 0.580116 0.977684
O O13 0.934704 0.168688 0.684070
O O14 0.000000 0.000000 0.500000
O O15 0.198025 0.620012 0.648044
O O16 0.331352 0.810951 0.641755
O O17 0.205030 0.582254 0.341803
#
# Coordination Sequence:
#
# PCOD9035806 Si02
#       8
#     2   2   2   2   2   2   2   2
#     4   9  21  37  60  85 113 148 200 248 286 330
#     4   9  19  39  61  86 112 145 200 254 283 337
#     4  12  24  36  56  87 124 161 192 229 283 363
#     4  10  17  32  59  89 111 134 185 254 301 327
#     4  10  19  33  60  85 112 148 189 246 288 335
#     4  10  21  36  61  87 111 150 201 242 292 335
#     4  10  20  38  58  84 114 151 201 242 282 337
#     4  10  21  37  55  83 116 159 185 234 294 342
#
# _framework density 23.674431999999999
#
# number of rings (size 3 to 8) (size 9 to 14) (size 15 to 20)
#    0.000    2.000    2.500    2.250    1.750    2.000 
#    0.000    0.000    2.750    0.750    0.000    0.000 
#    0.000    0.000    0.000    0.000    0.000    0.000 
#
# Total GULP energy -89226.406669 kJ/mol
# GULP energy per Si atom -5576.650417 kJ/mol
# Density = 2.362055 g / cm^3
# Si number density = 23.674432 Si / 1000 Ang^3
#
#
#
# Elastic Constant Matrix: (Units=GPa)
#
#
# Indices 1 2 3 4 5 6 
#
# 1 108.0236 31.0247 -6.5787 2.4552 -12.5579 -40.1335
# 2 31.0247 138.6294 8.9634 -11.1893 1.2135 -50.2388
# 3 -6.5787 8.9634 56.1702 -5.3501 0.2294 -4.6099
# 4 2.4552 -11.1893 -5.3501 16.6205 -9.5512 1.3584
# 5 -12.5579 1.2135 0.2294 -9.5512 21.2903 -4.3388
# 6 -40.1335 -50.2388 -4.6099 1.3584 -4.3388 52.6470
#
#
#
# Elastic Compliance Matrix: (Units=1/GPa)
#
#
# Indices 1 2 3 4 5 6 
#
# 1 0.016765 0.002697 0.003707 0.009028 0.017181 0.016862
# 2 0.002697 0.012921 0.000661 0.012837 0.009644 0.014908
# 3 0.003707 0.000661 0.019516 0.010090 0.007592 0.005530
# 4 0.009028 0.012837 0.010090 0.099803 0.053714 0.021867
# 5 0.017181 0.009644 0.007592 0.053714 0.086418 0.028701
# 6 0.016862 0.014908 0.005530 0.021867 0.028701 0.048360
#
#
# Mechanical properties :
#
#
# Convention : Reuss Voigt Hill
#
# Bulk Modulus (GPa) = 15.78993 41.07132 28.43063
# Shear Modulus (GPa) = 17.19603 36.07250 26.63427
#
# Velocity S-wave (km/s) = 2.69802 3.90768 3.35777
# Velocity P-wave (km/s) = 4.04844 6.14378 5.20269
#
# Compressibility (1/GPa) = 0.06333151
#
# Stress axis : x y z
#
# Youngs Moduli (GPa) = 59.64811 77.39107 51.24088
#
# Poissons Ratio (x) = -0.20874 -0.18993
# Poissons Ratio (y) = -0.16089 -0.03386
# Poissons Ratio (z) = -0.22110 -0.05114
#
# Static dielectric constant tensor:
#      x y z
#    x 1.933430 -0.066770 -0.023040 
#    y -0.066770 1.993000 0.008400 
#    z -0.023040 0.008400 1.919830 
# 
# From -- ./inp_files/292654.got.cif
#   From: 2010.05.17/outbox.cif.g08.bks.cpg/sg2_147_cif.got.tgz:292654.got - 2010.06.03 11:33:40.
