data_PCOD9035927
_publ_section_title
;
Structure prediction by ZEFSAII (Michael W. Deem and Ramdas Pophale) SiO2 
 PCOD9035927
Probable space group: P -1
;
_chemical_formula_sum "Si O2"
_cell_formula_units_Z 16
_cell_length_a 7.390984
_cell_length_b 10.675546
_cell_length_c 12.518963
_cell_angle_alpha 110.290344
_cell_angle_beta 136.983002
_cell_angle_gamma 74.683566
_cell_volume 631.976633
_symmetry_space_group_name_H-M "P -1"
_symmetry_group_IT_number 2
_symmetry_cell_setting 'triclinic'
loop_
_space_group_symop_operation_xyz
x,y,z
-x,-y,-z
loop_
_atom_site_type_symbol
_atom_site_label
_atom_site_fract_x
_atom_site_fract_y
_atom_site_fract_z
Si Si1 0.048728 0.004287 0.896895
Si Si2 0.892986 0.724988 0.727819
Si Si3 0.501106 0.685997 0.745535
Si Si4 0.248184 0.416710 0.831356
Si Si5 0.341507 0.568186 0.351352
Si Si6 0.404965 0.857737 0.372300
Si Si7 0.879541 0.688382 0.471327
Si Si8 0.467177 0.798045 0.996660
O O1 0.902266 0.879472 0.741758
O O2 0.353949 0.949277 0.004181
O O3 0.876125 0.124396 0.806670
O O4 0.000000 0.000000 0.000000
O O5 0.697199 0.725368 0.744772
O O6 0.857882 0.649958 0.576890
O O7 0.202302 0.714678 0.888020
O O8 0.191170 0.715616 0.595391
O O9 0.564536 0.527126 0.733156
O O10 0.547592 0.759736 0.899087
O O11 0.197434 0.414617 0.683161
O O12 0.307274 0.263324 0.849442
O O13 0.500000 0.500000 0.000000
O O14 0.500000 0.500000 0.500000
O O15 0.031853 0.539423 0.226046
O O16 0.657031 0.804947 0.396485
O O17 0.362234 0.728284 0.393653
O O18 0.500000 0.000000 0.500000
#
# Coordination Sequence:
#
# PCOD9035927 Si02
#       8
#     2   2   2   2   2   2   2   2
#     4  10  22  46  76 107 160 214 263 333 416 479
#     4   9  21  45  79 106 149 217 260 332 409 472
#     4  11  22  48  73 114 153 205 274 332 402 493
#     4  12  27  48  75 121 162 208 271 340 417 483
#     4  12  28  48  81 119 161 212 274 339 407 494
#     4  12  25  48  78 115 155 213 274 332 406 488
#     4  11  24  45  78 109 157 212 269 331 403 495
#     4   9  23  46  73 110 153 211 259 336 411 479
#
# _framework density 25.317392000000002
#
# number of rings (size 3 to 8) (size 9 to 14) (size 15 to 20)
#    0.750    0.500    2.500    2.250    1.750    3.000 
#    0.000    7.500    0.000    0.000    0.000    0.000 
#    0.000    0.000    0.000    0.000    0.000    0.000 
#
# Total GULP energy -89114.064250 kJ/mol
# GULP energy per Si atom -5569.629016 kJ/mol
# Density = 2.525977 g / cm^3
# Si number density = 25.317392 Si / 1000 Ang^3
#
#
#
# Elastic Constant Matrix: (Units=GPa)
#
#
# Indices 1 2 3 4 5 6 
#
# 1 127.5187 36.5685 23.6999 -20.6007 -2.6709 -31.3325
# 2 36.5685 172.8697 42.4666 -32.1038 0.8487 -32.9793
# 3 23.6999 42.4666 83.4018 -19.6843 -7.4697 -17.6639
# 4 -20.6007 -32.1038 -19.6843 60.7885 -9.1907 7.1430
# 5 -2.6709 0.8487 -7.4697 -9.1907 42.7019 5.0414
# 6 -31.3325 -32.9793 -17.6639 7.1430 5.0414 55.6577
#
#
#
# Elastic Compliance Matrix: (Units=1/GPa)
#
#
# Indices 1 2 3 4 5 6 
#
# 1 0.009641 -0.000541 -0.000960 0.002203 0.000391 0.004484
# 2 -0.000541 0.007584 -0.002476 0.002590 -0.000427 0.003110
# 3 -0.000960 -0.002476 0.015057 0.003476 0.003130 0.002041
# 4 0.002203 0.002590 0.003476 0.020347 0.004977 0.000816
# 5 0.000391 -0.000427 0.003130 0.004977 0.025303 -0.001971
# 6 0.004484 0.003110 0.002041 0.000816 -0.001971 0.023056
#
#
# Mechanical properties :
#
#
# Convention : Reuss Voigt Hill
#
# Bulk Modulus (GPa) = 41.10430 65.47336 53.28883
# Shear Modulus (GPa) = 42.71668 50.56665 46.64166
#
# Velocity S-wave (km/s) = 4.11207 4.47397 4.29683
# Velocity P-wave (km/s) = 6.23027 7.25298 6.76099
#
# Compressibility (1/GPa) = 0.02432836
#
# Stress axis : x y z
#
# Youngs Moduli (GPa) = 103.71911 131.86078 66.41532
#
# Poissons Ratio (x) = 0.07135 0.06373
# Poissons Ratio (y) = 0.05612 0.16446
# Poissons Ratio (z) = 0.09952 0.32651
#
# Static dielectric constant tensor:
#      x y z
#    x 2.182470 0.131240 0.095260 
#    y 0.131240 2.229810 0.027360 
#    z 0.095260 0.027360 2.039730 
# 
# From -- ./inp_files/395590.got.cif
#   From: 2010.05.17/outbox.cif.g08.bks.cpg/sg2_198_cif.got.tgz:395590.got - 2010.06.03 11:33:40.
