data_PCOD9035851
_publ_section_title
;
Structure prediction by ZEFSAII (Michael W. Deem and Ramdas Pophale) SiO2 
 PCOD9035851
Probable space group: P -1
;
_chemical_formula_sum "Si O2"
_cell_formula_units_Z 13
_cell_length_a 14.039209
_cell_length_b 14.726102
_cell_length_c 11.013744
_cell_angle_alpha 149.715495
_cell_angle_beta 149.353607
_cell_angle_gamma 29.623755
_cell_volume 509.714907
_symmetry_space_group_name_H-M "P -1"
_symmetry_group_IT_number 2
_symmetry_cell_setting 'triclinic'
loop_
_space_group_symop_operation_xyz
x,y,z
-x,-y,-z
loop_
_atom_site_type_symbol
_atom_site_label
_atom_site_fract_x
_atom_site_fract_y
_atom_site_fract_z
Si Si1 0.500000 0.000000 0.000000
Si Si2 0.845723 0.363178 0.972552
Si Si3 0.322540 0.216367 0.328180
Si Si4 0.249645 0.992857 0.552977
Si Si5 0.229438 0.484022 0.205377
Si Si6 0.806331 0.323944 0.375499
Si Si7 0.472254 0.327516 0.845512
O O1 0.755560 0.961967 0.259831
O O2 0.407160 0.252098 0.161013
O O3 0.743502 0.217214 0.716128
O O4 0.779346 0.455277 0.873089
O O5 0.745886 0.548121 0.173415
O O6 0.100482 0.219314 0.096837
O O7 0.500037 0.054628 0.241683
O O8 0.248079 0.451732 0.476937
O O9 0.447056 0.182071 0.551982
O O10 0.061291 0.170681 0.476249
O O11 0.256885 0.633080 0.503429
O O12 0.000000 0.500000 0.000000
O O13 0.670722 0.241626 0.057086
O O14 0.500000 0.500000 0.000000
#
# Coordination Sequence:
#
# PCOD9035851 Si02
#       7
#     1   2   2   2   2   2   2
#     4  12  22  44  72  96 146 188 218 294 354 408
#     4  12  24  46  76 106 138 190 234 291 353 419
#     4  11  23  49  70 100 144 184 240 292 345 413
#     4  12  25  43  70 106 140 188 234 284 354 418
#     4  12  23  45  68 105 143 178 233 290 351 416
#     4  11  23  46  69 102 147 187 225 298 349 411
#     4  10  22  46  73  97 143 191 230 296 348 405
#
# _framework density 25.504453000000002
#
# number of rings (size 3 to 8) (size 9 to 14) (size 15 to 20)
#    0.000    0.615    7.692    0.462    0.000    3.692 
#    8.308    0.769    0.000    0.000    0.000    0.000 
#    0.000    0.000    0.000    0.000    0.000    0.000 
#
# Total GULP energy -72609.652778 kJ/mol
# GULP energy per Si atom -5585.357906 kJ/mol
# Density = 2.544640 g / cm^3
# Si number density = 25.504453 Si / 1000 Ang^3
#
#
#
# Elastic Constant Matrix: (Units=GPa)
#
#
# Indices 1 2 3 4 5 6 
#
# 1 107.8420 40.4489 23.1920 -11.4537 -16.1906 -3.4016
# 2 40.4489 170.1325 35.4348 -36.9944 -1.7862 -10.0802
# 3 23.1920 35.4348 103.0108 -42.2680 -22.5875 -4.7498
# 4 -11.4537 -36.9944 -42.2680 44.0472 -2.0072 4.0856
# 5 -16.1906 -1.7862 -22.5875 -2.0072 39.5697 -16.0093
# 6 -3.4016 -10.0802 -4.7498 4.0856 -16.0093 27.2508
#
#
#
# Elastic Compliance Matrix: (Units=1/GPa)
#
#
# Indices 1 2 3 4 5 6 
#
# 1 0.011258 -0.002122 0.000449 0.001472 0.006604 0.004357
# 2 -0.002122 0.007828 0.001054 0.006855 0.001518 0.002679
# 3 0.000449 0.001054 0.024174 0.023916 0.020566 0.013156
# 4 0.001472 0.006855 0.023916 0.051676 0.022087 0.012117
# 5 0.006604 0.001518 0.020566 0.022087 0.054537 0.033698
# 6 0.004357 0.002679 0.013156 0.012117 0.033698 0.058505
#
#
# Mechanical properties :
#
#
# Convention : Reuss Voigt Hill
#
# Bulk Modulus (GPa) = 23.79775 64.34854 44.07314
# Shear Modulus (GPa) = 22.39914 40.96751 31.68333
#
# Velocity S-wave (km/s) = 2.96673 4.01220 3.52840
# Velocity P-wave (km/s) = 4.59200 6.83731 5.82388
#
# Compressibility (1/GPa) = 0.04202079
#
# Stress axis : x y z
#
# Youngs Moduli (GPa) = 88.82819 127.74581 41.36710
#
# Poissons Ratio (x) = 0.27112 -0.01855
# Poissons Ratio (y) = 0.18852 -0.04362
# Poissons Ratio (z) = -0.03984 -0.13470
#
# Static dielectric constant tensor:
#      x y z
#    x 2.369380 0.069830 -0.225040 
#    y 0.069830 2.006250 -0.066060 
#    z -0.225040 -0.066060 2.226780 
# 
# From -- ./inp_files/455317.got.cif
#   From: 2010.05.17/outbox.cif.g08.bks.cpg/sg2_228_cif.got.tgz:455317.got - 2010.06.03 11:33:40.
