data_PCOD9035257
_publ_section_title
;
Structure prediction by ZEFSAII (Michael W. Deem and Ramdas Pophale) SiO2 
 PCOD9035257
Probable space group: P -1
;
_chemical_formula_sum "Si O2"
_cell_formula_units_Z 10
_cell_length_a 11.872362
_cell_length_b 5.532020
_cell_length_c 16.983723
_cell_angle_alpha 121.536507
_cell_angle_beta 149.040550
_cell_angle_gamma 76.846064
_cell_volume 422.433085
_symmetry_space_group_name_H-M "P -1"
_symmetry_group_IT_number 2
_symmetry_cell_setting 'triclinic'
loop_
_space_group_symop_operation_xyz
x,y,z
-x,-y,-z
loop_
_atom_site_type_symbol
_atom_site_label
_atom_site_fract_x
_atom_site_fract_y
_atom_site_fract_z
Si Si1 0.933586 0.288236 0.184877
Si Si2 0.134210 0.297957 0.477358
Si Si3 0.387243 0.913927 0.504153
Si Si4 0.081540 0.881486 0.105064
Si Si5 0.388514 0.964391 0.839378
O O1 0.041257 0.386104 0.355282
O O2 0.126076 0.577703 0.293994
O O3 0.967712 0.982416 0.127969
O O4 0.645312 0.204730 0.987954
O O5 0.274012 0.603286 0.671718
O O6 0.866266 0.012035 0.305090
O O7 0.325267 0.176754 0.548117
O O8 0.500000 0.000000 0.500000
O O9 0.613795 0.907978 0.683397
O O10 0.000000 0.500000 0.000000
O O11 0.000000 0.000000 0.000000
O O12 0.500000 0.000000 0.000000
#
# Coordination Sequence:
#
# PCOD9035257 Si02
#       5
#     2   2   2   2   2
#     4  11  24  42  71 102 145 188 244 302 366 442
#     4  10  22  45  72  99 142 187 243 305 364 447
#     4  12  25  44  69 106 147 191 246 304 370 444
#     4  12  27  44  72 109 150 200 248 304 373 446
#     4   9  21  44  71 101 136 188 243 308 367 436
#
# _framework density 23.672388999999999
#
# number of rings (size 3 to 8) (size 9 to 14) (size 15 to 20)
#    0.000    1.200    2.000    3.000    5.600    0.800 
#    0.000    9.000    0.000    0.000    0.000    0.000 
#    0.000    0.000    0.000    0.000    0.000    0.000 
#
# Total GULP energy -55905.959435 kJ/mol
# GULP energy per Si atom -5590.595943 kJ/mol
# Density = 2.361851 g / cm^3
# Si number density = 23.672389 Si / 1000 Ang^3
#
#
#
# Elastic Constant Matrix: (Units=GPa)
#
#
# Indices 1 2 3 4 5 6 
#
# 1 133.8682 47.0253 84.3286 -0.8757 20.2455 -24.2049
# 2 47.0253 63.5287 34.3964 -4.9384 -7.2951 2.6082
# 3 84.3286 34.3964 161.3465 -11.4675 17.7659 4.7160
# 4 -0.8757 -4.9384 -11.4675 48.7712 -8.6246 5.3156
# 5 20.2455 -7.2951 17.7659 -8.6246 69.2862 7.0813
# 6 -24.2049 2.6082 4.7160 5.3156 7.0813 31.2847
#
#
#
# Elastic Compliance Matrix: (Units=1/GPa)
#
#
# Indices 1 2 3 4 5 6 
#
# 1 0.026633 -0.017058 -0.010515 -0.008625 -0.010768 0.027516
# 2 -0.017058 0.029534 0.002570 0.007256 0.010344 -0.019621
# 3 -0.010515 0.002570 0.011559 0.004390 0.002081 -0.011309
# 4 -0.008625 0.007256 0.004390 0.024778 0.006638 -0.013652
# 5 -0.010768 0.010344 0.002081 0.006638 0.020523 -0.015280
# 6 0.027516 -0.019621 -0.011309 -0.013652 -0.015280 0.062373
#
#
# Mechanical properties :
#
#
# Convention : Reuss Voigt Hill
#
# Bulk Modulus (GPa) = 56.43571 76.69377 66.56474
# Shear Modulus (GPa) = 21.61572 42.73462 32.17517
#
# Velocity S-wave (km/s) = 3.02506 4.25343 3.69071
# Velocity P-wave (km/s) = 6.00778 7.52267 6.80750
#
# Compressibility (1/GPa) = 0.01771928
#
# Stress axis : x y z
#
# Youngs Moduli (GPa) = 37.54686 33.85959 86.51074
#
# Poissons Ratio (x) = 0.57758 0.90968
# Poissons Ratio (y) = 0.64047 -0.22230
# Poissons Ratio (z) = 0.39481 -0.08701
#
# Static dielectric constant tensor:
#      x y z
#    x 1.976190 0.000450 -0.028700 
#    y 0.000450 1.939760 -0.031280 
#    z -0.028700 -0.031280 2.085520 
# 
# From -- ./inp_files/2177.got.cif
#   From: 2010.05.17/outbox.cif.g08.bks.cpg/sg2_2_cif.got.tgz:2177.got - 2010.06.03 11:33:40.
