data_PCOD9035689
_publ_section_title
;
Structure prediction by ZEFSAII (Michael W. Deem and Ramdas Pophale) SiO2 
 PCOD9035689
Probable space group: P -1
;
_chemical_formula_sum "Si O2"
_cell_formula_units_Z 16
_cell_length_a 6.339262
_cell_length_b 16.813545
_cell_length_c 10.076302
_cell_angle_alpha 111.478444
_cell_angle_beta 113.322944
_cell_angle_gamma 109.989744
_cell_volume 754.250210
_symmetry_space_group_name_H-M "P -1"
_symmetry_group_IT_number 2
_symmetry_cell_setting 'triclinic'
loop_
_space_group_symop_operation_xyz
x,y,z
-x,-y,-z
loop_
_atom_site_type_symbol
_atom_site_label
_atom_site_fract_x
_atom_site_fract_y
_atom_site_fract_z
Si Si1 0.543386 0.958533 0.700543
Si Si2 0.006829 0.106185 0.066855
Si Si3 0.679469 0.258234 0.863711
Si Si4 0.549576 0.272308 0.134572
Si Si5 0.727337 0.964169 0.490622
Si Si6 0.918886 0.223269 0.347913
Si Si7 0.415219 0.370777 0.764956
Si Si8 0.318999 0.392601 0.060301
O O1 0.767754 0.966025 0.659331
O O2 0.354225 0.861192 0.686688
O O3 0.343688 0.959052 0.542551
O O4 0.712083 0.062242 0.893084
O O5 0.274067 0.189150 0.097972
O O6 0.997288 0.161351 0.231149
O O7 0.000000 0.000000 0.000000
O O8 0.522005 0.152029 0.679441
O O9 0.619337 0.333968 0.817429
O O10 0.541794 0.235050 0.960278
O O11 0.009256 0.314611 0.992205
O O12 0.816929 0.285211 0.278761
O O13 0.531019 0.370535 0.168173
O O14 0.000000 0.000000 0.500000
O O15 0.169864 0.294746 0.555593
O O16 0.576209 0.488630 0.826530
O O17 0.302861 0.369106 0.883958
#
# Coordination Sequence:
#
# PCOD9035689 Si02
#       8
#     2   2   2   2   2   2   2   2
#     4  11  24  39  59  93 126 172 216 260 315 385
#     4  12  26  41  63  90 133 177 216 257 320 392
#     4  11  22  41  68  92 131 172 218 265 325 390
#     4  11  24  42  65  96 130 176 215 264 325 394
#     4  11  23  37  62  93 131 166 214 268 317 377
#     4  12  25  41  64  98 131 172 219 270 324 388
#     4  10  24  42  70  99 127 164 220 276 328 386
#     4  10  22  46  70  96 127 169 216 274 333 384
#
# _framework density 21.213121999999998
#
# number of rings (size 3 to 8) (size 9 to 14) (size 15 to 20)
#    0.000    1.000    1.250    5.250    5.250    5.500 
#    0.000    2.500    0.000    0.000    0.000    0.000 
#    0.000    0.000    0.000    0.000    0.000    0.000 
#
# Total GULP energy -89351.769816 kJ/mol
# GULP energy per Si atom -5584.485613 kJ/mol
# Density = 2.116484 g / cm^3
# Si number density = 21.213122 Si / 1000 Ang^3
#
#
#
# Elastic Constant Matrix: (Units=GPa)
#
#
# Indices 1 2 3 4 5 6 
#
# 1 83.9926 46.3068 37.4049 -1.9309 -4.0259 -7.5437
# 2 46.3068 101.1766 28.8415 -9.1534 -14.4659 -12.4349
# 3 37.4049 28.8415 105.1595 -4.5539 -5.8673 -5.3099
# 4 -1.9309 -9.1534 -4.5539 30.1524 -5.5902 8.6103
# 5 -4.0259 -14.4659 -5.8673 -5.5902 29.3387 -8.4588
# 6 -7.5437 -12.4349 -5.3099 8.6103 -8.4588 45.1390
#
#
#
# Elastic Compliance Matrix: (Units=1/GPa)
#
#
# Indices 1 2 3 4 5 6 
#
# 1 0.017874 -0.007395 -0.004546 -0.002355 -0.002434 0.000408
# 2 -0.007395 0.015570 -0.000782 0.004657 0.008447 0.003656
# 3 -0.004546 -0.000782 0.011517 0.001401 0.001684 0.000428
# 4 -0.002355 0.004657 0.001401 0.037442 0.008068 -0.004576
# 5 -0.002434 0.008447 0.001684 0.008068 0.042239 0.008495
# 6 0.000408 0.003656 0.000428 -0.004576 0.008495 0.025744
#
#
# Mechanical properties :
#
#
# Convention : Reuss Voigt Hill
#
# Bulk Modulus (GPa) = 51.24876 57.27057 54.25967
# Shear Modulus (GPa) = 27.42167 32.77771 30.09969
#
# Velocity S-wave (km/s) = 3.59928 3.93512 3.77094
# Velocity P-wave (km/s) = 6.44085 6.90675 6.67786
#
# Compressibility (1/GPa) = 0.01951267
#
# Stress axis : x y z
#
# Youngs Moduli (GPa) = 55.94864 64.22713 86.82604
#
# Poissons Ratio (x) = 0.47498 0.39475
# Poissons Ratio (y) = 0.41376 0.06791
# Poissons Ratio (z) = 0.25437 0.05024
#
# Static dielectric constant tensor:
#      x y z
#    x 2.007270 -0.021310 -0.102940 
#    y -0.021310 1.778330 -0.092090 
#    z -0.102940 -0.092090 1.877900 
# 
# From -- ./inp_files/139257.got.cif
#   From: 2010.05.17/outbox.cif.g08.bks.cpg/sg2_70_cif.got.tgz:139257.got - 2010.06.03 11:33:40.
