data_PCOD9035986
_publ_section_title
;
Structure prediction by ZEFSAII (Michael W. Deem and Ramdas Pophale) SiO2 
 PCOD9035986
Probable space group: P -1
;
_chemical_formula_sum "Si O2"
_cell_formula_units_Z 14
_cell_length_a 11.567739
_cell_length_b 7.921982
_cell_length_c 12.178400
_cell_angle_alpha 124.256956
_cell_angle_beta 142.058316
_cell_angle_gamma 53.368199
_cell_volume 540.932199
_symmetry_space_group_name_H-M "P -1"
_symmetry_group_IT_number 2
_symmetry_cell_setting 'triclinic'
loop_
_space_group_symop_operation_xyz
x,y,z
-x,-y,-z
loop_
_atom_site_type_symbol
_atom_site_label
_atom_site_fract_x
_atom_site_fract_y
_atom_site_fract_z
Si Si1 0.135241 0.047264 0.525619
Si Si2 0.194341 0.302639 0.055371
Si Si3 0.545438 0.211101 0.463236
Si Si4 0.783127 0.365871 0.251356
Si Si5 0.840550 0.115282 0.012743
Si Si6 0.607249 0.773651 0.052413
Si Si7 0.433320 0.256277 0.629682
O O1 0.279011 0.165360 0.736211
O O2 0.972490 0.200273 0.384240
O O3 0.261348 0.826554 0.480382
O O4 0.000000 0.000000 0.500000
O O5 0.364768 0.283516 0.268462
O O6 0.264464 0.334854 0.996548
O O7 0.000000 0.500000 0.000000
O O8 0.155846 0.072760 0.964915
O O9 0.472854 0.335801 0.567568
O O10 0.611887 0.969795 0.478126
O O11 0.845936 0.331728 0.158084
O O12 0.733717 0.569980 0.366967
O O13 0.570991 0.316768 0.079272
O O14 0.635884 0.192759 0.824569
O O15 0.000000 0.000000 0.000000
O O16 0.500000 0.000000 0.000000
#
# Coordination Sequence:
#
# PCOD9035986 Si02
#       7
#     2   2   2   2   2   2   2
#     4  12  23  42  72  99 140 187 229 287 359 413
#     4  11  24  42  69  98 137 190 228 286 356 407
#     4  10  22  47  67 100 145 180 235 297 345 419
#     4  12  25  44  73 106 136 187 239 285 357 424
#     4  11  23  44  66  98 144 180 229 291 350 414
#     4  12  22  46  69 100 145 180 231 296 347 413
#     4  10  24  43  70  99 139 188 232 291 354 415
#
# _framework density 25.881246999999998
#
# number of rings (size 3 to 8) (size 9 to 14) (size 15 to 20)
#    0.000    0.857    4.286    2.143    4.000    0.571 
#    0.000    1.429    0.000    0.000    0.000    0.000 
#    0.000    0.000    0.000    0.000    0.000    0.000 
#
# Total GULP energy -78258.738431 kJ/mol
# GULP energy per Si atom -5589.909888 kJ/mol
# Density = 2.582234 g / cm^3
# Si number density = 25.881247 Si / 1000 Ang^3
#
#
#
# Elastic Constant Matrix: (Units=GPa)
#
#
# Indices 1 2 3 4 5 6 
#
# 1 177.4225 58.9713 51.7665 -7.1590 -29.4290 -37.2035
# 2 58.9713 113.6813 33.0667 -16.5244 -7.2109 -38.8556
# 3 51.7665 33.0667 116.1042 -20.1738 -14.9840 -3.4904
# 4 -7.1590 -16.5244 -20.1738 41.4414 -6.0228 7.9099
# 5 -29.4290 -7.2109 -14.9840 -6.0228 43.6420 4.6432
# 6 -37.2035 -38.8556 -3.4904 7.9099 4.6432 56.9204
#
#
#
# Elastic Compliance Matrix: (Units=1/GPa)
#
#
# Indices 1 2 3 4 5 6 
#
# 1 0.008578 -0.002280 -0.002704 -0.000869 0.003968 0.003682
# 2 -0.002280 0.013423 -0.002238 0.002410 -0.000526 0.007244
# 3 -0.002704 -0.002238 0.011672 0.005433 0.002945 -0.003574
# 4 -0.000869 0.002410 0.005433 0.029056 0.006019 -0.003119
# 5 0.003968 -0.000526 0.002945 0.006019 0.027414 -0.000658
# 6 0.003682 0.007244 -0.003574 -0.003119 -0.000658 0.025187
#
#
# Mechanical properties :
#
#
# Convention : Reuss Voigt Hill
#
# Bulk Modulus (GPa) = 51.99956 77.20189 64.60072
# Shear Modulus (GPa) = 36.71542 45.96099 41.33821
#
# Velocity S-wave (km/s) = 3.77053 4.21865 4.00087
# Velocity P-wave (km/s) = 6.25229 7.32279 6.80861
#
# Compressibility (1/GPa) = 0.01923093
#
# Stress axis : x y z
#
# Youngs Moduli (GPa) = 116.57936 74.50055 85.67291
#
# Poissons Ratio (x) = 0.16983 0.23163
# Poissons Ratio (y) = 0.26575 0.19172
# Poissons Ratio (z) = 0.31519 0.16671
#
# Static dielectric constant tensor:
#      x y z
#    x 2.179900 0.060000 -0.072330 
#    y 0.060000 2.269530 0.132230 
#    z -0.072330 0.132230 2.167760 
# 
# From -- ./inp_files/419862.got.cif
#   From: 2010.05.17/outbox.cif.g08.bks.cpg/sg2_210_cif.got.tgz:419862.got - 2010.06.03 11:33:40.
