data_PCOD9035550
_publ_section_title
;
Structure prediction by ZEFSAII (Michael W. Deem and Ramdas Pophale) SiO2 
 PCOD9035550
Probable space group: P -1
;
_chemical_formula_sum "Si O2"
_cell_formula_units_Z 15
_cell_length_a 6.693351
_cell_length_b 9.117834
_cell_length_c 10.835081
_cell_angle_alpha 104.219545
_cell_angle_beta 100.620956
_cell_angle_gamma 86.173978
_cell_volume 629.851738
_symmetry_space_group_name_H-M "P -1"
_symmetry_group_IT_number 2
_symmetry_cell_setting 'triclinic'
loop_
_space_group_symop_operation_xyz
x,y,z
-x,-y,-z
loop_
_atom_site_type_symbol
_atom_site_label
_atom_site_fract_x
_atom_site_fract_y
_atom_site_fract_z
Si Si1 0.611730 0.761481 0.883763
Si Si2 0.152156 0.970162 0.124906
Si Si3 0.989597 0.146413 0.377050
Si Si4 0.510089 0.249598 0.859082
Si Si5 0.895972 0.564275 0.705648
Si Si6 0.500000 0.500000 0.500000
Si Si7 0.332960 0.509738 0.751034
Si Si8 0.324821 0.042183 0.584483
O O1 0.787466 0.652738 0.824413
O O2 0.400116 0.684405 0.807533
O O3 0.657194 0.920491 0.857929
O O4 0.607547 0.775595 0.032188
O O5 0.050423 0.023805 0.252082
O O6 0.255876 0.804888 0.108668
O O7 0.000000 0.000000 0.000000
O O8 0.022561 0.306898 0.351571
O O9 0.145638 0.123176 0.502791
O O10 0.769345 0.106745 0.395514
O O11 0.478058 0.419104 0.843056
O O12 0.413062 0.149497 0.720119
O O13 0.718127 0.480287 0.598010
O O14 0.100517 0.478157 0.750302
O O15 0.377466 0.465708 0.606814
O O16 0.500000 0.000000 0.500000
#
# Coordination Sequence:
#
# PCOD9035550 Si02
#       8
#     2   2   2   2   2   1   2   2
#     4  10  25  45  68 100 144 188 237 296 356 433
#     4  11  24  45  71 103 139 190 241 298 362 429
#     4  10  23  42  66 103 135 185 234 292 359 426
#     4  12  25  44  71 104 144 185 244 298 361 422
#     4  10  23  43  72 100 142 192 238 287 357 428
#     4  10  22  46  68 104 140 192 240 286 350 424
#     4  11  25  45  70 105 144 188 239 299 353 433
#     4  11  23  43  67 104 143 179 235 305 358 418
#
# _framework density 23.815124999999998
#
# number of rings (size 3 to 8) (size 9 to 14) (size 15 to 20)
#    0.000    1.333    1.333    2.800    5.600    2.667 
#    9.600    0.000    0.000    0.000    0.000    0.000 
#    0.000    0.000    0.000    0.000    0.000    0.000 
#
# Total GULP energy -83721.928679 kJ/mol
# GULP energy per Si atom -5581.461912 kJ/mol
# Density = 2.376092 g / cm^3
# Si number density = 23.815125 Si / 1000 Ang^3
#
#
#
# Elastic Constant Matrix: (Units=GPa)
#
#
# Indices 1 2 3 4 5 6 
#
# 1 114.5942 21.6612 51.9579 1.7161 15.9218 8.3356
# 2 21.6612 42.7789 16.5383 2.0477 2.5627 6.5336
# 3 51.9579 16.5383 134.1580 -15.6245 -9.3173 4.9384
# 4 1.7161 2.0477 -15.6245 19.4947 12.6554 9.8246
# 5 15.9218 2.5627 -9.3173 12.6554 46.5428 -13.9613
# 6 8.3356 6.5336 4.9384 9.8246 -13.9613 38.8477
#
#
#
# Elastic Compliance Matrix: (Units=1/GPa)
#
#
# Indices 1 2 3 4 5 6 
#
# 1 0.012795 -0.003690 -0.004489 0.002916 -0.007345 -0.004931
# 2 -0.003690 0.026699 -0.001993 -0.001483 -0.001260 -0.003523
# 3 -0.004489 -0.001993 0.010767 0.010479 0.000152 -0.002666
# 4 0.002916 -0.001483 0.010479 0.109002 -0.041738 -0.044275
# 5 -0.007345 -0.001260 0.000152 -0.041738 0.043873 0.028092
# 6 -0.004931 -0.003523 -0.002666 -0.044275 0.028092 0.049024
#
#
# Mechanical properties :
#
#
# Convention : Reuss Voigt Hill
#
# Bulk Modulus (GPa) = 33.42507 52.42732 42.92620
# Shear Modulus (GPa) = 17.70053 34.40197 26.05125
#
# Velocity S-wave (km/s) = 2.72921 3.80484 3.31100
# Velocity P-wave (km/s) = 4.89869 6.43152 5.71671
#
# Compressibility (1/GPa) = 0.02991766
#
# Stress axis : x y z
#
# Youngs Moduli (GPa) = 78.15597 37.45413 92.87289
#
# Poissons Ratio (x) = 0.13819 0.41695
# Poissons Ratio (y) = 0.28836 0.18509
# Poissons Ratio (z) = 0.35088 0.07465
#
# Static dielectric constant tensor:
#      x y z
#    x 1.955720 -0.050760 0.028300 
#    y -0.050760 1.971980 0.034070 
#    z 0.028300 0.034070 1.867850 
# 
# From -- ./inp_files/362207.got.cif
#   From: 2010.05.17/outbox.cif.g08.bks.cpg/sg2_182_cif.got.tgz:362207.got - 2010.06.03 11:33:40.
