data_PCOD9035134
_publ_section_title
;
Structure prediction by ZEFSAII (Michael W. Deem and Ramdas Pophale) SiO2 
 PCOD9035134
Probable space group: P -1
;
_chemical_formula_sum "Si O2"
_cell_formula_units_Z 13
_cell_length_a 9.860279
_cell_length_b 10.164212
_cell_length_c 6.262920
_cell_angle_alpha 67.138688
_cell_angle_beta 115.735542
_cell_angle_gamma 101.017066
_cell_volume 520.816157
_symmetry_space_group_name_H-M "P -1"
_symmetry_group_IT_number 2
_symmetry_cell_setting 'triclinic'
loop_
_space_group_symop_operation_xyz
x,y,z
-x,-y,-z
loop_
_atom_site_type_symbol
_atom_site_label
_atom_site_fract_x
_atom_site_fract_y
_atom_site_fract_z
Si Si1 0.500000 0.500000 0.000000
Si Si2 0.943324 0.613165 0.563648
Si Si3 0.469045 0.828503 0.087981
Si Si4 0.328601 0.363178 0.352743
Si Si5 0.734485 0.316890 0.268740
Si Si6 0.190202 0.861601 0.152066
Si Si7 0.150890 0.182020 0.995078
O O1 0.443631 0.465216 0.237590
O O2 0.675582 0.469885 0.201061
O O3 0.812956 0.567141 0.667800
O O4 0.878425 0.741983 0.297707
O O5 0.000000 0.500000 0.500000
O O6 0.103863 0.662143 0.748047
O O7 0.586319 0.743930 0.362185
O O8 0.303647 0.808500 0.088210
O O9 0.431617 0.744518 0.893227
O O10 0.500000 0.000000 0.000000
O O11 0.253371 0.266538 0.176559
O O12 0.772241 0.216236 0.553978
O O13 0.014163 0.841271 0.999771
O O14 0.220068 0.029765 0.094902
#
# Coordination Sequence:
#
# PCOD9035134 Si02
#       7
#     1   2   2   2   2   2   2
#     4  12  28  46  70 104 150 200 240 300 364 438
#     4  11  26  48  76 106 143 199 252 307 368 437
#     4  12  26  42  75 109 148 192 241 309 377 436
#     4  12  27  46  73 109 149 196 247 304 367 446
#     4  11  26  46  70 105 147 193 244 303 370 434
#     4  10  22  45  71 106 143 191 242 306 371 439
#     4  10  23  44  75 103 145 191 248 305 365 444
#
# _framework density 24.960823000000001
#
# number of rings (size 3 to 8) (size 9 to 14) (size 15 to 20)
#    0.000    0.923    1.538    3.692    6.462    6.769 
#    0.000    6.154    0.000    0.000    0.000    0.000 
#    0.000    0.000    0.000    0.000    0.000    0.000 
#
# Total GULP energy -72487.987508 kJ/mol
# GULP energy per Si atom -5575.999039 kJ/mol
# Density = 2.490401 g / cm^3
# Si number density = 24.960823 Si / 1000 Ang^3
#
#
#
# Elastic Constant Matrix: (Units=GPa)
#
#
# Indices 1 2 3 4 5 6 
#
# 1 159.7932 9.1020 35.7770 2.6785 -0.1351 -13.3111
# 2 9.1020 72.8002 50.8467 -4.8556 10.7745 22.3197
# 3 35.7770 50.8467 121.9742 -9.6394 28.9142 5.7807
# 4 2.6785 -4.8556 -9.6394 49.5505 5.2882 12.6964
# 5 -0.1351 10.7745 28.9142 5.2882 40.8423 -4.2381
# 6 -13.3111 22.3197 5.7807 12.6964 -4.2381 22.5252
#
#
#
# Elastic Compliance Matrix: (Units=1/GPa)
#
#
# Indices 1 2 3 4 5 6 
#
# 1 0.008597 -0.004845 -0.003088 -0.006057 0.005853 0.015189
# 2 -0.004845 0.038163 -0.008016 0.016550 -0.011757 -0.050162
# 3 -0.003088 -0.008016 0.014967 0.003650 -0.009119 -0.001496
# 4 -0.006057 0.016550 0.003650 0.035894 -0.016203 -0.044195
# 5 0.005853 -0.011757 -0.009119 -0.016203 0.039692 0.034050
# 6 0.015189 -0.050162 -0.001496 -0.044195 0.034050 0.134776
#
#
# Mechanical properties :
#
#
# Convention : Reuss Voigt Hill
#
# Bulk Modulus (GPa) = 33.52319 60.66877 47.09598
# Shear Modulus (GPa) = 15.92712 39.83974 27.88343
#
# Velocity S-wave (km/s) = 2.52877 3.99944 3.34591
# Velocity P-wave (km/s) = 4.68890 6.75913 5.81685
#
# Compressibility (1/GPa) = 0.02983010
#
# Stress axis : x y z
#
# Youngs Moduli (GPa) = 116.31720 26.20308 66.81567
#
# Poissons Ratio (x) = 0.12696 0.20632
# Poissons Ratio (y) = 0.56357 0.53556
# Poissons Ratio (z) = 0.35917 0.21003
#
# Static dielectric constant tensor:
#      x y z
#    x 1.992190 0.106760 -0.093220 
#    y 0.106760 1.661490 0.108460 
#    z -0.093220 0.108460 2.038270 
# 
# From -- ./inp_files/25464.got.cif
#   From: 2010.05.17/outbox.cif.g08.bks.cpg/sg2_13_cif.got.tgz:25464.got - 2010.06.03 11:33:40.
