data_PCOD9035005
_publ_section_title
;
Structure prediction by ZEFSAII (Michael W. Deem and Ramdas Pophale) SiO2 
 PCOD9035005
Probable space group: P -1
;
_chemical_formula_sum "Si O2"
_cell_formula_units_Z 14
_cell_length_a 23.243033
_cell_length_b 9.270457
_cell_length_c 9.310666
_cell_angle_alpha 49.642258
_cell_angle_beta 37.319599
_cell_angle_gamma 28.488841
_cell_volume 570.909628
_symmetry_space_group_name_H-M "P -1"
_symmetry_group_IT_number 2
_symmetry_cell_setting 'triclinic'
loop_
_space_group_symop_operation_xyz
x,y,z
-x,-y,-z
loop_
_atom_site_type_symbol
_atom_site_label
_atom_site_fract_x
_atom_site_fract_y
_atom_site_fract_z
Si Si1 0.649923 0.132301 0.464640
Si Si2 0.253425 0.840740 0.227266
Si Si3 0.825204 0.718955 0.107112
Si Si4 0.023750 0.887616 0.684692
Si Si5 0.442429 0.812185 0.083776
Si Si6 0.376659 0.212066 0.731793
Si Si7 0.151477 0.848150 0.875024
O O1 0.500000 0.500000 0.500000
O O2 0.602186 0.089229 0.726847
O O3 0.804930 0.000417 0.295025
O O4 0.700267 0.960706 0.324408
O O5 0.167865 0.797354 0.497349
O O6 0.323724 0.861136 0.200708
O O7 0.393458 0.543332 0.043383
O O8 0.152155 0.125218 0.133186
O O9 0.938709 0.391507 0.173234
O O10 0.763632 0.685134 0.122295
O O11 0.000000 0.000000 0.500000
O O12 0.878065 0.167614 0.891795
O O13 0.439860 0.012160 0.875528
O O14 0.305858 0.521823 0.711981
O O15 0.500000 0.000000 0.500000
O O16 0.000000 0.000000 0.000000
#
# Coordination Sequence:
#
# PCOD9035005 Si02
#       7
#     2   2   2   2   2   2   2
#     4  12  25  45  72 110 148 187 248 314 374 441
#     4  10  22  45  70 101 140 193 246 300 359 449
#     4  11  24  46  69 104 145 195 238 310 372 428
#     4  12  27  45  69 103 150 192 242 301 377 442
#     4  10  23  41  73 103 138 188 251 298 370 440
#     4  11  24  47  74 105 142 198 250 304 367 448
#     4  12  27  49  73 106 147 197 249 301 369 450
#
# _framework density 24.522272000000001
#
# number of rings (size 3 to 8) (size 9 to 14) (size 15 to 20)
#    0.000    0.857    2.857    3.429    6.000    2.286 
#    0.000    4.286    0.000    0.000    0.000    0.000 
#    0.000    0.000    0.000    0.000    0.000    0.000 
#
# Total GULP energy -78171.196671 kJ/mol
# GULP energy per Si atom -5583.656905 kJ/mol
# Density = 2.446646 g / cm^3
# Si number density = 24.522272 Si / 1000 Ang^3
#
#
#
# Elastic Constant Matrix: (Units=GPa)
#
#
# Indices 1 2 3 4 5 6 
#
# 1 69.1559 22.2593 12.9209 -10.0934 5.0500 -4.8802
# 2 22.2593 103.0111 36.7104 -11.4617 7.2425 -1.3581
# 3 12.9209 36.7104 140.7326 -8.5639 38.0628 2.2699
# 4 -10.0934 -11.4617 -8.5639 43.5775 -4.0098 13.9383
# 5 5.0500 7.2425 38.0628 -4.0098 46.1705 4.6903
# 6 -4.8802 -1.3581 2.2699 13.9383 4.6903 36.8143
#
#
#
# Elastic Compliance Matrix: (Units=1/GPa)
#
#
# Indices 1 2 3 4 5 6 
#
# 1 0.015985 -0.002999 -0.000305 0.002366 -0.000948 0.001252
# 2 -0.002999 0.011536 -0.002912 0.002113 0.001178 -0.000743
# 3 -0.000305 -0.002912 0.010008 0.000396 -0.007733 0.000070
# 4 0.002366 0.002113 0.000396 0.027706 0.002551 -0.010447
# 5 -0.000948 0.001178 -0.007733 0.002551 0.028602 -0.004215
# 6 0.001252 -0.000743 0.000070 -0.010447 -0.004215 0.031790
#
#
# Mechanical properties :
#
#
# Convention : Reuss Voigt Hill
#
# Bulk Modulus (GPa) = 39.84545 50.74230 45.29388
# Shear Modulus (GPa) = 34.14722 41.37974 37.76348
#
# Velocity S-wave (km/s) = 3.73567 4.11230 3.92850
# Velocity P-wave (km/s) = 5.90685 6.57915 6.25204
#
# Compressibility (1/GPa) = 0.02509697
#
# Stress axis : x y z
#
# Youngs Moduli (GPa) = 62.55738 86.68534 99.92341
#
# Poissons Ratio (x) = 0.25997 0.03049
# Poissons Ratio (y) = 0.18761 0.29096
# Poissons Ratio (z) = 0.01909 0.25241
#
# Static dielectric constant tensor:
#      x y z
#    x 2.133440 -0.039600 -0.085370 
#    y -0.039600 2.128340 0.042390 
#    z -0.085370 0.042390 1.928330 
# 
# From -- ./inp_files/352022.got.cif
#   From: 2010.05.17/outbox.cif.g08.bks.cpg/sg2_177_cif.got.tgz:352022.got - 2010.06.03 11:33:40.
