data_PCOD9035150
_publ_section_title
;
Structure prediction by ZEFSAII (Michael W. Deem and Ramdas Pophale) SiO2 
 PCOD9035150
Probable space group: P -1
;
_chemical_formula_sum "Si O2"
_cell_formula_units_Z 16
_cell_length_a 11.880885
_cell_length_b 10.256424
_cell_length_c 9.273563
_cell_angle_alpha 105.250302
_cell_angle_beta 61.175391
_cell_angle_gamma 131.143919
_cell_volume 743.026924
_symmetry_space_group_name_H-M "P -1"
_symmetry_group_IT_number 2
_symmetry_cell_setting 'triclinic'
loop_
_space_group_symop_operation_xyz
x,y,z
-x,-y,-z
loop_
_atom_site_type_symbol
_atom_site_label
_atom_site_fract_x
_atom_site_fract_y
_atom_site_fract_z
Si Si1 0.472833 0.474488 0.181809
Si Si2 0.012575 0.567316 0.670032
Si Si3 0.784575 0.496675 0.010928
Si Si4 0.329968 0.884707 0.987424
Si Si5 0.989072 0.701169 0.215425
Si Si6 0.473694 0.327688 0.526307
Si Si7 0.640015 0.153238 0.359987
Si Si8 0.818192 0.819846 0.527165
O O1 0.510012 0.634142 0.300289
O O2 0.298533 0.298534 0.298534
O O3 0.500000 0.500000 0.000000
O O4 0.620949 0.472119 0.132224
O O5 0.018580 0.444265 0.738105
O O6 0.185927 0.752804 0.641954
O O7 0.000000 0.500000 0.500000
O O8 0.857809 0.551271 0.819294
O O9 0.738103 0.312421 0.018579
O O10 0.926230 0.638188 0.073769
O O11 0.358042 0.924917 0.814072
O O12 0.180705 0.874165 0.142190
O O13 0.500000 0.000000 0.000000
O O14 0.867778 0.718945 0.379052
O O15 0.500000 0.500000 0.500000
O O16 0.596914 0.284918 0.403087
O O17 0.300289 0.176161 0.510016
O O18 0.500000 0.000000 0.500000
O O19 0.000000 0.000000 0.500000
#
# Coordination Sequence:
#
# PCOD9035150 Si02
#       8
#     2   2   2   2   2   2   2   2
#     4  11  25  43  69  99 130 175 231 286 337 409
#     4  11  24  40  66  98 133 176 224 277 334 404
#     4  11  22  45  70  91 127 183 237 270 322 416
#     4  11  24  40  66  98 133 176 224 277 334 404
#     4  11  22  45  70  91 127 183 237 270 322 416
#     4  10  22  45  71  93 131 188 231 267 332 421
#     4  12  26  42  64 102 145 172 214 288 354 388
#     4  11  25  43  69  99 130 175 231 286 337 409
#
# _framework density 21.533539000000001
#
# number of rings (size 3 to 8) (size 9 to 14) (size 15 to 20)
#    0.000    1.000    3.750    3.750   10.500    0.000 
#    0.000    0.625    0.000    0.000    0.000    0.000 
#    0.000    0.000    0.000    0.000    0.000    0.000 
#
# Total GULP energy -89276.740715 kJ/mol
# GULP energy per Si atom -5579.796295 kJ/mol
# Density = 2.148453 g / cm^3
# Si number density = 21.533539 Si / 1000 Ang^3
#
#
#
# Elastic Constant Matrix: (Units=GPa)
#
#
# Indices 1 2 3 4 5 6 
#
# 1 55.6285 18.9262 31.6548 -7.6878 -13.7629 24.2189
# 2 18.9262 64.9566 44.6901 -14.6562 7.7400 34.1108
# 3 31.6548 44.6901 173.9681 -15.6015 -7.1425 32.4896
# 4 -7.6878 -14.6562 -15.6015 33.6562 7.6467 -7.4618
# 5 -13.7629 7.7400 -7.1425 7.6467 45.6493 6.9814
# 6 24.2189 34.1108 32.4896 -7.4618 6.9814 45.1415
#
#
#
# Elastic Compliance Matrix: (Units=1/GPa)
#
#
# Indices 1 2 3 4 5 6 
#
# 1 0.028453 -0.000282 -0.001803 -0.000337 0.010767 -0.015476
# 2 -0.000282 0.029612 -0.003730 0.008218 -0.004389 -0.017503
# 3 -0.001803 -0.003730 0.007473 0.000738 0.001392 -0.001686
# 4 -0.000337 0.008218 0.000738 0.035320 -0.007360 0.000416
# 5 0.010767 -0.004389 0.001392 -0.007360 0.028743 -0.009124
# 6 -0.015476 -0.017503 -0.001686 0.000416 -0.009124 0.046374
#
#
# Mechanical properties :
#
#
# Convention : Reuss Voigt Hill
#
# Bulk Modulus (GPa) = 18.55029 53.89950 36.22490
# Shear Modulus (GPa) = 24.32211 38.17490 31.24850
#
# Velocity S-wave (km/s) = 3.36445 4.21504 3.81354
# Velocity P-wave (km/s) = 4.87093 6.98381 6.02078
#
# Compressibility (1/GPa) = 0.05390752
#
# Stress axis : x y z
#
# Youngs Moduli (GPa) = 35.14538 33.77028 133.82292
#
# Poissons Ratio (x) = 0.00953 0.24125
# Poissons Ratio (y) = 0.00992 0.49916
# Poissons Ratio (z) = 0.06336 0.12596
#
# Static dielectric constant tensor:
#      x y z
#    x 1.782470 0.019780 0.015620 
#    y 0.019780 1.806240 -0.012870 
#    z 0.015620 -0.012870 1.812190 
# 
# From -- ./inp_files/258930.got.cif
#   From: 2010.05.17/outbox.cif.g08.bks.cpg/sg2_130_cif.got.tgz:258930.got - 2010.06.03 11:33:40.
