data_PCOD9035182
_publ_section_title
;
Structure prediction by ZEFSAII (Michael W. Deem and Ramdas Pophale) SiO2 
 PCOD9035182
Probable space group: P -1
;
_chemical_formula_sum "Si O2"
_cell_formula_units_Z 12
_cell_length_a 9.828178
_cell_length_b 12.069144
_cell_length_c 16.047084
_cell_angle_alpha 157.282241
_cell_angle_beta 139.360217
_cell_angle_gamma 49.706550
_cell_volume 467.923504
_symmetry_space_group_name_H-M "P -1"
_symmetry_group_IT_number 2
_symmetry_cell_setting 'triclinic'
loop_
_space_group_symop_operation_xyz
x,y,z
-x,-y,-z
loop_
_atom_site_type_symbol
_atom_site_label
_atom_site_fract_x
_atom_site_fract_y
_atom_site_fract_z
Si Si1 0.242669 0.131798 0.682144
Si Si2 0.679103 0.289041 0.259833
Si Si3 0.125452 0.649651 0.783122
Si Si4 0.591934 0.372492 0.537084
Si Si5 0.082502 0.702583 0.983349
Si Si6 0.288913 0.096211 0.492018
O O1 0.244189 0.479127 0.920039
O O2 0.398941 0.973499 0.698800
O O3 0.250458 0.006303 0.506358
O O4 0.000000 0.000000 0.500000
O O5 0.786774 0.219883 0.174501
O O6 0.538200 0.538912 0.382607
O O7 0.890352 0.433013 0.512284
O O8 0.500000 0.000000 0.000000
O O9 0.114383 0.815198 0.980551
O O10 0.286942 0.435048 0.724975
O O11 0.500000 0.500000 0.500000
O O12 0.840355 0.530331 0.762840
O O13 0.123084 0.945736 0.241307
O O14 0.500000 0.000000 0.500000
#
# Coordination Sequence:
#
# PCOD9035182 Si02
#       6
#     2   2   2   2   2   2
#     4   9  22  41  67  98 135 174 229 293 343 413
#     4  11  23  44  68 102 145 187 228 286 358 423
#     4  10  23  45  69 102 144 179 236 295 343 423
#     4  11  21  42  67 103 138 178 233 287 352 425
#     4  10  22  45  71  99 139 184 234 295 354 414
#     4  11  23  44  67  97 134 184 242 286 352 416
#
# _framework density 25.645218
#
# number of rings (size 3 to 8) (size 9 to 14) (size 15 to 20)
#    0.000    1.667    1.667    2.000    0.000    5.333 
#   12.000    2.500    0.000    0.000    0.000    0.000 
#    0.000    0.000    0.000    0.000    0.000    0.000 
#
# Total GULP energy -67052.439702 kJ/mol
# GULP energy per Si atom -5587.703308 kJ/mol
# Density = 2.558685 g / cm^3
# Si number density = 25.645218 Si / 1000 Ang^3
#
#
#
# Elastic Constant Matrix: (Units=GPa)
#
#
# Indices 1 2 3 4 5 6 
#
# 1 167.0917 23.3447 24.1139 -0.9208 3.5025 -11.4958
# 2 23.3447 139.0469 24.0095 2.2813 0.3561 -16.7239
# 3 24.1139 24.0095 103.4322 -2.3790 7.7773 3.1122
# 4 -0.9208 2.2813 -2.3790 31.2500 -5.9967 -4.1102
# 5 3.5025 0.3561 7.7773 -5.9967 41.4489 -2.8454
# 6 -11.4958 -16.7239 3.1122 -4.1102 -2.8454 49.2097
#
#
#
# Elastic Compliance Matrix: (Units=1/GPa)
#
#
# Indices 1 2 3 4 5 6 
#
# 1 0.006373 -0.000677 -0.001352 0.000285 -0.000144 0.001360
# 2 -0.000677 0.007941 -0.001807 -0.000298 0.000467 0.002657
# 3 -0.001352 -0.001807 0.010606 0.000307 -0.001932 -0.001687
# 4 0.000285 -0.000298 0.000307 0.033403 0.004961 0.003023
# 5 -0.000144 0.000467 -0.001932 0.004961 0.025361 0.002128
# 6 0.001360 0.002657 -0.001687 0.003023 0.002128 0.022024
#
#
# Mechanical properties :
#
#
# Convention : Reuss Voigt Hill
#
# Bulk Modulus (GPa) = 57.98348 61.38965 59.68656
# Shear Modulus (GPa) = 41.97135 46.92190 44.44663
#
# Velocity S-wave (km/s) = 4.04990 4.28209 4.16761
# Velocity P-wave (km/s) = 6.67292 6.95977 6.81785
#
# Compressibility (1/GPa) = 0.01724629
#
# Stress axis : x y z
#
# Youngs Moduli (GPa) = 156.92181 125.93101 94.28652
#
# Poissons Ratio (x) = 0.08529 0.12747
# Poissons Ratio (y) = 0.10628 0.17041
# Poissons Ratio (z) = 0.21215 0.22760
#
# Static dielectric constant tensor:
#      x y z
#    x 1.978560 0.053670 -0.020440 
#    y 0.053670 2.140730 0.029720 
#    z -0.020440 0.029720 2.140580 
# 
# From -- ./inp_files/497253.got.cif
#   From: 2010.05.17/outbox.cif.g08.bks.cpg/sg2_249_cif.got.tgz:497253.got - 2010.06.03 11:33:40.
