data_PCOD9035262
_publ_section_title
;
Structure prediction by ZEFSAII (Michael W. Deem and Ramdas Pophale) SiO2 
 PCOD9035262
Probable space group: P -1
;
_chemical_formula_sum "Si O2"
_cell_formula_units_Z 16
_cell_length_a 8.082303
_cell_length_b 4.938842
_cell_length_c 15.930511
_cell_angle_alpha 85.164019
_cell_angle_beta 87.409733
_cell_angle_gamma 94.525720
_cell_volume 630.801303
_symmetry_space_group_name_H-M "P -1"
_symmetry_group_IT_number 2
_symmetry_cell_setting 'triclinic'
loop_
_space_group_symop_operation_xyz
x,y,z
-x,-y,-z
loop_
_atom_site_type_symbol
_atom_site_label
_atom_site_fract_x
_atom_site_fract_y
_atom_site_fract_z
Si Si1 0.359576 0.327503 0.254954
Si Si2 0.243544 0.234850 0.866701
Si Si3 0.075430 0.739857 0.430342
Si Si4 0.856313 0.280573 0.039342
Si Si5 0.446018 0.665349 0.417248
Si Si6 0.993541 0.740190 0.671054
Si Si7 0.333541 0.994638 0.708182
Si Si8 0.574455 0.334862 0.925311
O O1 0.405382 0.491766 0.336881
O O2 0.375616 0.496553 0.164245
O O3 0.169196 0.204154 0.272239
O O4 0.500749 0.118015 0.255332
O O5 0.224425 0.537039 0.891527
O O6 0.268575 0.211244 0.768529
O O7 0.415657 0.142035 0.904982
O O8 0.108056 0.004586 0.911525
O O9 0.273009 0.790202 0.438542
O O10 0.005455 0.031440 0.409328
O O11 0.000000 0.500000 0.500000
O O12 0.042311 0.570724 0.348928
O O13 0.736809 0.223012 0.963601
O O14 0.000000 0.500000 0.000000
O O15 0.500000 0.500000 0.500000
O O16 0.599906 0.875503 0.383645
O O17 0.174961 0.784965 0.704292
O O18 0.500000 0.500000 0.000000
#
# Coordination Sequence:
#
# PCOD9035262 Si02
#       8
#     2   2   2   2   2   2   2   2
#     4  11  25  49  68 109 148 189 251 300 371 439
#     4  11  24  45  69 108 142 194 243 289 366 441
#     4  11  24  48  69 106 144 185 249 303 368 440
#     4  11  25  45  71 110 147 188 243 300 361 435
#     4  11  25  45  73 105 145 197 245 304 368 440
#     4  11  27  44  71 105 143 194 239 305 369 433
#     4  12  25  45  75 102 150 194 244 303 366 440
#     4  10  22  45  73 100 142 189 235 296 360 430
#
# _framework density 25.364561999999999
#
# number of rings (size 3 to 8) (size 9 to 14) (size 15 to 20)
#    0.000    1.000    2.500    3.375    5.250    2.500 
#    4.500    0.000    0.000    0.000    0.000    0.000 
#    0.000    0.000    0.000    0.000    0.000    0.000 
#
# Total GULP energy -89482.639165 kJ/mol
# GULP energy per Si atom -5592.664948 kJ/mol
# Density = 2.530683 g / cm^3
# Si number density = 25.364562 Si / 1000 Ang^3
#
#
#
# Elastic Constant Matrix: (Units=GPa)
#
#
# Indices 1 2 3 4 5 6 
#
# 1 99.6921 24.1461 31.1707 -14.2874 -7.5643 30.8934
# 2 24.1461 103.7973 29.6784 -11.2296 0.9827 1.0509
# 3 31.1707 29.6784 137.3590 -36.3959 -5.3510 6.2984
# 4 -14.2874 -11.2296 -36.3959 47.6914 3.0217 -5.9085
# 5 -7.5643 0.9827 -5.3510 3.0217 29.9624 -10.5352
# 6 30.8934 1.0509 6.2984 -5.9085 -10.5352 46.4378
#
#
#
# Elastic Compliance Matrix: (Units=1/GPa)
#
#
# Indices 1 2 3 4 5 6 
#
# 1 0.014199 -0.002533 -0.001990 0.001023 0.000053 -0.008977
# 2 -0.002533 0.010771 -0.001654 0.000762 -0.000810 0.001579
# 3 -0.001990 -0.001654 0.009823 0.006582 0.001029 0.001100
# 4 0.001023 0.000762 0.006582 0.026726 -0.000707 0.001650
# 5 0.000053 -0.000810 0.001029 -0.000707 0.036495 0.008033
# 6 -0.008977 0.001579 0.001100 0.001650 0.008033 0.029353
#
#
# Mechanical properties :
#
#
# Convention : Reuss Voigt Hill
#
# Bulk Modulus (GPa) = 44.56873 56.75987 50.66430
# Shear Modulus (GPa) = 33.96723 41.87521 37.92122
#
# Velocity S-wave (km/s) = 3.66342 4.06758 3.87078
# Velocity P-wave (km/s) = 5.95849 6.66982 6.32416
#
# Compressibility (1/GPa) = 0.02243726
#
# Stress axis : x y z
#
# Youngs Moduli (GPa) = 70.42728 92.84587 101.80332
#
# Poissons Ratio (x) = 0.23518 0.20260
# Poissons Ratio (y) = 0.17839 0.16843
# Poissons Ratio (z) = 0.14016 0.15361
#
# Static dielectric constant tensor:
#      x y z
#    x 2.049790 -0.001920 -0.024230 
#    y -0.001920 2.026710 0.033600 
#    z -0.024230 0.033600 2.165410 
# 
# From -- ./inp_files/488293.got.cif
#   From: 2010.05.17/outbox.cif.g08.bks.cpg/sg2_245_cif.got.tgz:488293.got - 2010.06.03 11:33:40.
