data_PCOD9035280
_publ_section_title
;
Structure prediction by ZEFSAII (Michael W. Deem and Ramdas Pophale) SiO2 
 PCOD9035280
Probable space group: P -1
;
_chemical_formula_sum "Si O2"
_cell_formula_units_Z 15
_cell_length_a 8.198469
_cell_length_b 9.037330
_cell_length_c 15.751369
_cell_angle_alpha 112.858696
_cell_angle_beta 33.723314
_cell_angle_gamma 113.961942
_cell_volume 589.126888
_symmetry_space_group_name_H-M "P -1"
_symmetry_group_IT_number 2
_symmetry_cell_setting 'triclinic'
loop_
_space_group_symop_operation_xyz
x,y,z
-x,-y,-z
loop_
_atom_site_type_symbol
_atom_site_label
_atom_site_fract_x
_atom_site_fract_y
_atom_site_fract_z
Si Si1 0.951379 0.096704 0.747101
Si Si2 0.295788 0.143340 0.782702
Si Si3 0.296962 0.106630 0.444841
Si Si4 0.203627 0.639415 0.496241
Si Si5 0.091503 0.634824 0.915794
Si Si6 0.500000 0.500000 0.500000
Si Si7 0.621149 0.772209 0.813928
Si Si8 0.734270 0.399847 0.912040
O O1 0.857866 0.256953 0.780284
O O2 0.062320 0.115151 0.799474
O O3 0.215699 0.054921 0.565911
O O4 0.660830 0.963843 0.838833
O O5 0.567932 0.266465 0.650172
O O6 0.422889 0.982795 0.720446
O O7 0.130248 0.234979 0.946282
O O8 0.381808 0.303469 0.461559
O O9 0.000000 0.000000 0.500000
O O10 0.377168 0.582810 0.488469
O O11 0.000000 0.500000 0.500000
O O12 0.952410 0.734761 0.664066
O O13 0.430692 0.706739 0.800440
O O14 0.022379 0.531969 0.837951
O O15 0.000000 0.500000 0.000000
O O16 0.432244 0.690020 0.955254
O O17 0.500000 0.500000 0.000000
#
# Coordination Sequence:
#
# PCOD9035280 Si02
#       8
#     2   2   2   2   2   1   2   2
#     4  12  24  47  72  98 145 195 247 298 376 460
#     4  12  23  48  77  99 149 199 247 308 384 463
#     4  12  28  48  73 113 151 196 252 327 383 454
#     4  12  25  44  77 110 149 196 254 315 387 457
#     4  10  22  45  73 104 139 189 248 300 368 460
#     4  12  28  46  72 114 154 196 256 312 384 462
#     4  11  24  45  70 104 134 193 247 289 374 457
#     4  11  26  44  71 105 145 186 245 314 372 445
#
# _framework density 25.461407000000001
#
# number of rings (size 3 to 8) (size 9 to 14) (size 15 to 20)
#    0.000    0.533    5.333    4.000    3.733    0.000 
#    0.000    0.667    0.000    0.000    0.000    0.000 
#    0.000    0.000    0.000    0.000    0.000    0.000 
#
# Total GULP energy -83618.767810 kJ/mol
# GULP energy per Si atom -5574.584521 kJ/mol
# Density = 2.540346 g / cm^3
# Si number density = 25.461407 Si / 1000 Ang^3
#
#
#
# Elastic Constant Matrix: (Units=GPa)
#
#
# Indices 1 2 3 4 5 6 
#
# 1 93.3930 61.5356 17.1921 1.1637 -25.8154 9.8387
# 2 61.5356 158.9936 40.7807 9.0512 -17.8097 23.9501
# 3 17.1921 40.7807 103.0401 4.1455 -23.3561 -11.7042
# 4 1.1637 9.0512 4.1455 46.0497 -5.4796 -15.6895
# 5 -25.8154 -17.8097 -23.3561 -5.4796 41.5624 0.0739
# 6 9.8387 23.9501 -11.7042 -15.6895 0.0739 40.4173
#
#
#
# Elastic Compliance Matrix: (Units=1/GPa)
#
#
# Indices 1 2 3 4 5 6 
#
# 1 0.016855 -0.006180 0.001692 0.001985 0.009032 0.000803
# 2 -0.006180 0.011125 -0.004637 -0.004695 -0.002281 -0.008249
# 3 0.001692 -0.004637 0.013586 0.003020 0.007084 0.007430
# 4 0.001985 -0.004695 0.003020 0.027582 0.004530 0.013872
# 5 0.009032 -0.002281 0.007084 0.004530 0.033265 0.002902
# 6 0.000803 -0.008249 0.007430 0.013872 0.002902 0.036966
#
#
# Mechanical properties :
#
#
# Convention : Reuss Voigt Hill
#
# Bulk Modulus (GPa) = 42.88773 66.04928 54.46851
# Shear Modulus (GPa) = 30.22959 41.33377 35.78168
#
# Velocity S-wave (km/s) = 3.44942 4.03350 3.75284
# Velocity P-wave (km/s) = 5.72236 6.90575 6.34172
#
# Compressibility (1/GPa) = 0.02331669
#
# Stress axis : x y z
#
# Youngs Moduli (GPa) = 59.32963 89.88704 73.60524
#
# Poissons Ratio (x) = 0.55547 -0.12455
# Poissons Ratio (y) = 0.36664 0.34133
# Poissons Ratio (z) = -0.10040 0.41683
#
# Static dielectric constant tensor:
#      x y z
#    x 2.004850 0.068900 0.013780 
#    y 0.068900 2.130330 0.078270 
#    z 0.013780 0.078270 2.085510 
# 
# From -- ./inp_files/557413.got.cif
#   From: 2010.05.17/outbox.cif.g08.bks.cpg/sg2_279_cif.got.tgz:557413.got - 2010.06.03 11:33:40.
