data_PCOD9035583
_publ_section_title
;
Structure prediction by ZEFSAII (Michael W. Deem and Ramdas Pophale) SiO2 
 PCOD9035583
Probable space group: P -1
;
_chemical_formula_sum "Si O2"
_cell_formula_units_Z 14
_cell_length_a 12.578455
_cell_length_b 11.333965
_cell_length_c 11.238654
_cell_angle_alpha 143.523510
_cell_angle_beta 125.227573
_cell_angle_gamma 50.624516
_cell_volume 728.498238
_symmetry_space_group_name_H-M "P -1"
_symmetry_group_IT_number 2
_symmetry_cell_setting 'triclinic'
loop_
_space_group_symop_operation_xyz
x,y,z
-x,-y,-z
loop_
_atom_site_type_symbol
_atom_site_label
_atom_site_fract_x
_atom_site_fract_y
_atom_site_fract_z
Si Si1 0.470655 0.246983 0.167877
Si Si2 0.366089 0.468470 0.531694
Si Si3 0.849641 0.456924 0.235520
Si Si4 0.340101 0.801394 0.090194
Si Si5 0.353065 0.287722 0.876027
Si Si6 0.428155 0.882410 0.451005
Si Si7 0.837081 0.719591 0.666585
O O1 0.414643 0.361147 0.347909
O O2 0.603443 0.313344 0.273027
O O3 0.363686 0.319276 0.047867
O O4 0.500000 0.000000 0.000000
O O5 0.463467 0.316465 0.573094
O O6 0.216499 0.451001 0.442010
O O7 0.780575 0.552722 0.144681
O O8 0.841794 0.650326 0.475310
O O9 0.009216 0.306535 0.214116
O O10 0.751523 0.333562 0.120478
O O11 0.501125 0.703557 0.076419
O O12 0.334575 0.813188 0.240863
O O13 0.271368 0.042925 0.195452
O O14 0.359673 0.054073 0.648019
O O15 0.500000 0.000000 0.500000
#
# Coordination Sequence:
#
# PCOD9035583 Si02
#       7
#     2   2   2   2   2   2   2
#     4  11  22  36  60  85 108 145 199 240 270 323
#     4  11  21  37  57  85 114 149 184 237 283 324
#     4  11  23  33  56  86 116 152 184 227 286 342
#     4  11  19  35  58  83 116 151 184 230 282 335
#     4  11  19  36  57  82 114 144 193 238 272 327
#     4  10  17  32  59  82 113 141 179 230 282 329
#     4  11  21  38  53  83 121 148 184 229 284 346
#
# _framework density 19.217616
#
# number of rings (size 3 to 8) (size 9 to 14) (size 15 to 20)
#    0.000    1.143    5.714    3.429    0.000    0.000 
#    0.000    0.714    0.000    0.857    0.000    0.000 
#    0.000    0.000    0.000    0.000    0.000    0.000 
#
# Total GULP energy -78126.042338 kJ/mol
# GULP energy per Si atom -5580.431596 kJ/mol
# Density = 1.917388 g / cm^3
# Si number density = 19.217616 Si / 1000 Ang^3
#
#
#
# Elastic Constant Matrix: (Units=GPa)
#
#
# Indices 1 2 3 4 5 6 
#
# 1 44.4051 31.5683 19.8577 -18.1852 5.3149 8.0181
# 2 31.5683 91.5473 45.8711 -17.1926 11.1558 4.0627
# 3 19.8577 45.8711 102.1242 -7.8742 8.1368 2.5715
# 4 -18.1852 -17.1926 -7.8742 33.5535 2.5586 4.9967
# 5 5.3149 11.1558 8.1368 2.5586 29.4671 -4.4958
# 6 8.0181 4.0627 2.5715 4.9967 -4.4958 24.1097
#
#
#
# Elastic Compliance Matrix: (Units=1/GPa)
#
#
# Indices 1 2 3 4 5 6 
#
# 1 0.042264 -0.007512 -0.001946 0.022096 -0.009036 -0.018847
# 2 -0.007512 0.017849 -0.005835 0.004278 -0.004406 -0.001595
# 3 -0.001946 -0.005835 0.012769 -0.001034 -0.000826 0.000329
# 4 0.022096 0.004278 -0.001034 0.047690 -0.012540 -0.020181
# 5 -0.009036 -0.004406 -0.000826 -0.012540 0.040690 0.014022
# 6 -0.018847 -0.001595 0.000329 -0.020181 0.014022 0.054776
#
#
# Mechanical properties :
#
#
# Convention : Reuss Voigt Hill
#
# Bulk Modulus (GPa) = 23.64292 48.07453 35.85873
# Shear Modulus (GPa) = 19.17750 26.81135 22.99442
#
# Velocity S-wave (km/s) = 3.16240 3.73922 3.46284
# Velocity P-wave (km/s) = 5.06595 6.61154 5.88966
#
# Compressibility (1/GPa) = 0.04229596
#
# Stress axis : x y z
#
# Youngs Moduli (GPa) = 23.66085 56.02656 78.31323
#
# Poissons Ratio (x) = 0.42086 0.15238
# Poissons Ratio (y) = 0.17774 0.45699
# Poissons Ratio (z) = 0.04604 0.32693
#
# Static dielectric constant tensor:
#      x y z
#    x 1.690890 0.025230 0.009680 
#    y 0.025230 1.682150 0.016510 
#    z 0.009680 0.016510 1.752870 
# 
# From -- ./inp_files/424587.got.cif
#   From: 2010.05.17/outbox.cif.g08.bks.cpg/sg2_213_cif.got.tgz:424587.got - 2010.06.03 11:33:40.
