data_PCOD9035434
_publ_section_title
;
Structure prediction by ZEFSAII (Michael W. Deem and Ramdas Pophale) SiO2 
 PCOD9035434
Probable space group: P -1
;
_chemical_formula_sum "Si O2"
_cell_formula_units_Z 16
_cell_length_a 9.564770
_cell_length_b 6.272678
_cell_length_c 20.845635
_cell_angle_alpha 114.513232
_cell_angle_beta 128.710414
_cell_angle_gamma 50.447085
_cell_volume 752.180456
_symmetry_space_group_name_H-M "P -1"
_symmetry_group_IT_number 2
_symmetry_cell_setting 'triclinic'
loop_
_space_group_symop_operation_xyz
x,y,z
-x,-y,-z
loop_
_atom_site_type_symbol
_atom_site_label
_atom_site_fract_x
_atom_site_fract_y
_atom_site_fract_z
Si Si1 0.350274 0.532275 0.769961
Si Si2 0.927191 0.903236 0.027922
Si Si3 0.306480 0.554016 0.907467
Si Si4 0.696695 0.651715 0.874598
Si Si5 0.578657 0.166637 0.492997
Si Si6 0.910402 0.025968 0.667894
Si Si7 0.060671 0.501390 0.206494
Si Si8 0.616009 0.023792 0.687856
O O1 0.362411 0.458533 0.838844
O O2 0.467267 0.701462 0.819460
O O3 0.480605 0.264818 0.729578
O O4 0.109402 0.723937 0.702305
O O5 0.135303 0.620655 0.072223
O O6 0.849620 0.113404 0.090877
O O7 0.734412 0.877465 0.944733
O O8 0.000000 0.000000 0.000000
O O9 0.160311 0.444880 0.877104
O O10 0.500000 0.500000 0.000000
O O11 0.782278 0.578853 0.818034
O O12 0.500000 0.500000 0.500000
O O13 0.813350 0.046726 0.572697
O O14 0.500000 0.000000 0.500000
O O15 0.525201 0.077590 0.399618
O O16 0.975196 0.245474 0.729519
O O17 0.717944 0.113719 0.673148
O O18 0.182360 0.231761 0.252067
#
# Coordination Sequence:
#
# PCOD9035434 Si02
#       8
#     2   2   2   2   2   2   2   2
#     4  12  26  44  69 106 143 188 246 301 364 440
#     4  11  23  45  64  88 132 185 236 300 362 424
#     4  12  27  41  64 100 142 186 244 305 362 426
#     4  11  25  40  69  94 127 186 241 289 366 426
#     4  10  22  45  79 113 150 198 244 300 386 461
#     4  11  24  46  72 107 146 185 243 301 372 446
#     4  12  23  44  72  95 143 190 238 301 365 441
#     4  11  24  47  73 103 149 188 236 300 378 440
#
# _framework density 21.271491000000001
#
# number of rings (size 3 to 8) (size 9 to 14) (size 15 to 20)
#    0.000    0.750    5.000    2.250    5.250    1.000 
#    0.000    0.000    0.000    4.500    0.000    0.000 
#    0.000    0.000    0.000    0.000    0.000    0.000 
#
# Total GULP energy -89255.734697 kJ/mol
# GULP energy per Si atom -5578.483419 kJ/mol
# Density = 2.122308 g / cm^3
# Si number density = 21.271491 Si / 1000 Ang^3
#
#
#
# Elastic Constant Matrix: (Units=GPa)
#
#
# Indices 1 2 3 4 5 6 
#
# 1 54.7281 11.2089 6.4614 3.0423 -1.5472 -9.2390
# 2 11.2089 92.5390 40.6388 12.1206 2.3960 -8.5619
# 3 6.4614 40.6388 132.1061 0.7591 13.5582 -8.0287
# 4 3.0423 12.1206 0.7591 43.0054 2.5823 -1.8951
# 5 -1.5472 2.3960 13.5582 2.5823 26.4451 0.9771
# 6 -9.2390 -8.5619 -8.0287 -1.8951 0.9771 29.2064
#
#
#
# Elastic Compliance Matrix: (Units=1/GPa)
#
#
# Indices 1 2 3 4 5 6 
#
# 1 0.019665 -0.001704 -0.000227 -0.000739 0.001288 0.005568
# 2 -0.001704 0.013395 -0.003997 -0.003555 0.001008 0.002025
# 3 -0.000227 -0.003997 0.009375 0.001326 -0.004645 0.001575
# 4 -0.000739 -0.003555 0.001326 0.024487 -0.002820 0.000772
# 5 0.001288 0.001008 -0.004645 -0.002820 0.040533 -0.002113
# 6 0.005568 0.002025 0.001575 0.000772 -0.002113 0.037148
#
#
# Mechanical properties :
#
#
# Convention : Reuss Voigt Hill
#
# Bulk Modulus (GPa) = 32.70196 43.99906 38.35051
# Shear Modulus (GPa) = 30.00247 34.46900 32.23573
#
# Velocity S-wave (km/s) = 3.75968 4.02983 3.89709
# Velocity P-wave (km/s) = 5.85268 6.51015 6.19015
#
# Compressibility (1/GPa) = 0.03057921
#
# Stress axis : x y z
#
# Youngs Moduli (GPa) = 50.85089 74.65521 106.66318
#
# Poissons Ratio (x) = 0.12718 0.02425
# Poissons Ratio (y) = 0.08663 0.42636
# Poissons Ratio (z) = 0.01156 0.29842
#
# Static dielectric constant tensor:
#      x y z
#    x 1.864620 0.119280 -0.003360 
#    y 0.119280 1.871870 0.000450 
#    z -0.003360 0.000450 1.773160 
# 
# From -- ./inp_files/112435.got.cif
#   From: 2010.05.17/outbox.cif.g08.bks.cpg/sg2_57_cif.got.tgz:112435.got - 2010.06.03 11:33:40.
