data_PCOD9035824
_publ_section_title
;
Structure prediction by ZEFSAII (Michael W. Deem and Ramdas Pophale) SiO2 
 PCOD9035824
Probable space group: P -1
;
_chemical_formula_sum "Si O2"
_cell_formula_units_Z 10
_cell_length_a 11.968510
_cell_length_b 9.028136
_cell_length_c 7.275610
_cell_angle_alpha 79.880305
_cell_angle_beta 41.809558
_cell_angle_gamma 54.339688
_cell_volume 374.058886
_symmetry_space_group_name_H-M "P -1"
_symmetry_group_IT_number 2
_symmetry_cell_setting 'triclinic'
loop_
_space_group_symop_operation_xyz
x,y,z
-x,-y,-z
loop_
_atom_site_type_symbol
_atom_site_label
_atom_site_fract_x
_atom_site_fract_y
_atom_site_fract_z
Si Si1 0.406918 0.336520 0.299093
Si Si2 0.082174 0.028393 0.209183
Si Si3 0.201667 0.473743 0.165859
Si Si4 0.419559 0.069293 0.794990
Si Si5 0.233224 0.630141 0.755791
O O1 0.500000 0.500000 0.500000
O O2 0.337856 0.464027 0.170921
O O3 0.410757 0.158139 0.271576
O O4 0.243031 0.483409 0.633280
O O5 0.333478 0.800561 0.913649
O O6 0.170900 0.143825 0.109717
O O7 0.000000 0.000000 0.500000
O O8 0.898280 0.158485 0.243141
O O9 0.114065 0.646960 0.084704
O O10 0.000000 0.500000 0.500000
O O11 0.385684 0.254108 0.877527
O O12 0.500000 0.000000 0.500000
#
# Coordination Sequence:
#
# PCOD9035824 Si02
#       5
#     2   2   2   2   2
#     4  10  25  46  70  99 147 179 234 285 353 416
#     4  10  24  44  70  99 139 184 231 282 349 413
#     4  12  25  43  76 108 139 183 236 293 349 415
#     4  10  22  46  73 100 143 183 230 286 356 413
#     4  12  27  47  70 103 143 187 234 292 351 416
#
# _framework density 26.73376
#
# number of rings (size 3 to 8) (size 9 to 14) (size 15 to 20)
#    1.200    0.000    2.000    3.000    2.800    7.200 
#    3.600    0.000    0.000    0.000    0.000    0.000 
#    0.000    0.000    0.000    0.000    0.000    0.000 
#
# Total GULP energy -55855.904571 kJ/mol
# GULP energy per Si atom -5585.590457 kJ/mol
# Density = 2.667291 g / cm^3
# Si number density = 26.733760 Si / 1000 Ang^3
#
#
#
# Elastic Constant Matrix: (Units=GPa)
#
#
# Indices 1 2 3 4 5 6 
#
# 1 119.6401 56.5267 47.9505 -19.8354 -2.8003 -39.9024
# 2 56.5267 121.1758 66.8085 -25.7152 11.4430 -41.7401
# 3 47.9505 66.8085 145.5992 -43.3283 12.1457 -22.6045
# 4 -19.8354 -25.7152 -43.3283 54.0171 0.9462 18.1117
# 5 -2.8003 11.4430 12.1457 0.9462 48.3481 -3.4526
# 6 -39.9024 -41.7401 -22.6045 18.1117 -3.4526 68.0254
#
#
#
# Elastic Compliance Matrix: (Units=1/GPa)
#
#
# Indices 1 2 3 4 5 6 
#
# 1 0.012324 -0.003231 -0.002145 -0.000368 0.002364 0.004752
# 2 -0.003231 0.014234 -0.004375 0.000381 -0.002095 0.005177
# 3 -0.002145 -0.004375 0.011577 0.007166 -0.002289 -0.002120
# 4 -0.000368 0.000381 0.007166 0.025911 -0.002750 -0.004639
# 5 0.002364 -0.002095 -0.002289 -0.002750 0.022030 0.001191
# 6 0.004752 0.005177 -0.002120 -0.004639 0.001191 0.021255
#
#
# Mechanical properties :
#
#
# Convention : Reuss Voigt Hill
#
# Bulk Modulus (GPa) = 53.67230 80.99851 67.33541
# Shear Modulus (GPa) = 37.58194 48.42008 43.00101
#
# Velocity S-wave (km/s) = 3.75345 4.26043 4.01495
# Velocity P-wave (km/s) = 6.23736 7.38686 6.83631
#
# Compressibility (1/GPa) = 0.01863158
#
# Stress axis : x y z
#
# Youngs Moduli (GPa) = 81.14486 70.25552 86.38131
#
# Poissons Ratio (x) = 0.22697 0.18530
# Poissons Ratio (y) = 0.26215 0.37795
# Poissons Ratio (z) = 0.17407 0.30739
#
# Static dielectric constant tensor:
#      x y z
#    x 2.096730 -0.005460 0.014820 
#    y -0.005460 2.199460 -0.046370 
#    z 0.014820 -0.046370 2.062250 
# 
# From -- ./inp_files/59318.got.cif
#   From: 2010.05.17/outbox.cif.g08.bks.cpg/sg2_30_cif.got.tgz:59318.got - 2010.06.03 11:33:40.
