data_PCOD9035018
_publ_section_title
;
Structure prediction by ZEFSAII (Michael W. Deem and Ramdas Pophale) SiO2 
 PCOD9035018
Probable space group: P -1
;
_chemical_formula_sum "Si O2"
_cell_formula_units_Z 15
_cell_length_a 8.928962
_cell_length_b 14.236502
_cell_length_c 5.659914
_cell_angle_alpha 64.357906
_cell_angle_beta 109.316802
_cell_angle_gamma 110.789221
_cell_volume 592.832281
_symmetry_space_group_name_H-M "P -1"
_symmetry_group_IT_number 2
_symmetry_cell_setting 'triclinic'
loop_
_space_group_symop_operation_xyz
x,y,z
-x,-y,-z
loop_
_atom_site_type_symbol
_atom_site_label
_atom_site_fract_x
_atom_site_fract_y
_atom_site_fract_z
Si Si1 0.571569 0.235818 0.395299
Si Si2 0.696178 0.319585 0.865524
Si Si3 0.339169 0.377182 0.977911
Si Si4 0.029872 0.351546 0.122238
Si Si5 0.748508 0.918762 0.456877
Si Si6 0.500000 0.500000 0.500000
Si Si7 0.058223 0.886015 0.903007
Si Si8 0.887117 0.775775 0.322438
O O1 0.676182 0.257310 0.670362
O O2 0.429795 0.125646 0.477366
O O3 0.657589 0.248790 0.166855
O O4 0.471317 0.328403 0.230628
O O5 0.570880 0.394257 0.709507
O O6 0.879126 0.396312 0.917010
O O7 0.393808 0.472055 0.719840
O O8 0.236100 0.274545 0.892263
O O9 0.210398 0.405144 0.064692
O O10 0.969081 0.229263 0.114735
O O11 0.052289 0.323981 0.433823
O O12 0.785855 0.828186 0.396571
O O13 0.898877 0.930300 0.705663
O O14 0.785279 0.028344 0.206760
O O15 0.039466 0.861346 0.197049
#
# Coordination Sequence:
#
# PCOD9035018 Si02
#       8
#     2   2   2   2   2   1   2   2
#     4  11  22  42  65  93 128 167 208 256 318 368
#     4  11  27  43  66  91 129 168 205 260 320 378
#     4  10  21  39  67  89 124 160 210 260 314 373
#     4  10  22  40  61  88 126 169 203 255 320 371
#     4  10  17  32  57  95 118 165 212 262 295 365
#     4  10  24  44  66  98 120 158 214 262 312 382
#     4   9  19  31  59  90 125 156 219 255 303 358
#     4  10  17  35  61  89 124 165 206 256 309 364
#
# _framework density 25.302265999999999
#
# number of rings (size 3 to 8) (size 9 to 14) (size 15 to 20)
#    0.000    1.867    4.000    2.000    3.733    2.667 
#    0.000    2.000    0.000    0.000    0.000    0.000 
#    0.000    0.000    0.000    0.000    0.000    0.000 
#
# Total GULP energy -83575.983052 kJ/mol
# GULP energy per Si atom -5571.732203 kJ/mol
# Density = 2.524468 g / cm^3
# Si number density = 25.302266 Si / 1000 Ang^3
#
#
#
# Elastic Constant Matrix: (Units=GPa)
#
#
# Indices 1 2 3 4 5 6 
#
# 1 60.1877 -0.4791 36.8758 -1.3543 -18.5426 7.4704
# 2 -0.4791 56.0030 16.9744 -6.1053 -11.4964 1.1836
# 3 36.8758 16.9744 149.4038 -10.1976 -38.0273 23.8787
# 4 -1.3543 -6.1053 -10.1976 44.2229 20.4660 -13.0048
# 5 -18.5426 -11.4964 -38.0273 20.4660 39.9734 -11.2677
# 6 7.4704 1.1836 23.8787 -13.0048 -11.2677 31.6327
#
#
#
# Elastic Compliance Matrix: (Units=1/GPa)
#
#
# Indices 1 2 3 4 5 6 
#
# 1 0.021697 0.002711 -0.003327 -0.004544 0.009687 -0.001132
# 2 0.002711 0.019565 -0.001786 0.000422 0.005571 0.002134
# 3 -0.003327 -0.001786 0.010397 -0.003245 0.007945 -0.005500
# 4 -0.004544 0.000422 -0.003245 0.033877 -0.019458 0.010504
# 5 0.009687 0.005571 0.007945 -0.019458 0.048893 0.000923
# 6 -0.001132 0.002134 -0.005500 0.010504 0.000923 0.040599
#
#
# Mechanical properties :
#
#
# Convention : Reuss Voigt Hill
#
# Bulk Modulus (GPa) = 21.34230 41.37074 31.35652
# Shear Modulus (GPa) = 25.58163 37.31402 31.44783
#
# Velocity S-wave (km/s) = 3.18314 3.84439 3.52928
# Velocity P-wave (km/s) = 4.68648 6.00765 5.38771
#
# Compressibility (1/GPa) = 0.04685530
#
# Stress axis : x y z
#
# Youngs Moduli (GPa) = 46.08871 51.11092 96.17945
#
# Poissons Ratio (x) = -0.13857 0.31999
# Poissons Ratio (y) = -0.12495 0.17181
# Poissons Ratio (z) = 0.15334 0.09130
#
# Static dielectric constant tensor:
#      x y z
#    x 1.999100 0.001680 0.005550 
#    y 0.001680 2.042870 0.019280 
#    z 0.005550 0.019280 2.082040 
# 
# From -- ./inp_files/46763.got.cif
#   From: 2010.05.17/outbox.cif.g08.bks.cpg/sg2_24_cif.got.tgz:46763.got - 2010.06.03 11:33:40.
