data_PCOD9035192
_publ_section_title
;
Structure prediction by ZEFSAII (Michael W. Deem and Ramdas Pophale) SiO2 
 PCOD9035192
Probable space group: P -1
;
_chemical_formula_sum "Si O2"
_cell_formula_units_Z 14
_cell_length_a 5.679428
_cell_length_b 8.351620
_cell_length_c 15.861122
_cell_angle_alpha 47.980159
_cell_angle_beta 95.871250
_cell_angle_gamma 89.046082
_cell_volume 552.284468
_symmetry_space_group_name_H-M "P -1"
_symmetry_group_IT_number 2
_symmetry_cell_setting 'triclinic'
loop_
_space_group_symop_operation_xyz
x,y,z
-x,-y,-z
loop_
_atom_site_type_symbol
_atom_site_label
_atom_site_fract_x
_atom_site_fract_y
_atom_site_fract_z
Si Si1 0.817519 0.717829 0.927773
Si Si2 0.116052 0.749190 0.671642
Si Si3 0.860822 0.890780 0.183313
Si Si4 0.582348 0.702160 0.103474
Si Si5 0.605845 0.193740 0.487154
Si Si6 0.446991 0.992214 0.711031
Si Si7 0.750571 0.470738 0.728859
O O1 0.989101 0.906488 0.877398
O O2 0.630222 0.790175 0.821255
O O3 0.000000 0.500000 0.000000
O O4 0.645632 0.709498 0.005600
O O5 0.280157 0.528275 0.779706
O O6 0.148127 0.795217 0.557269
O O7 0.857682 0.678142 0.700032
O O8 0.225731 0.919844 0.674626
O O9 0.707646 0.883164 0.094942
O O10 0.672956 0.893772 0.251128
O O11 0.050923 0.678080 0.263255
O O12 0.329717 0.677016 0.146059
O O13 0.589859 0.137253 0.603806
O O14 0.450796 0.419818 0.379262
O O15 0.500000 0.000000 0.500000
#
# Coordination Sequence:
#
# PCOD9035192 Si02
#       7
#     2   2   2   2   2   2   2
#     4  12  28  48  73 100 136 181 230 293 351 405
#     4   9  21  42  72  99 133 182 228 281 343 403
#     4  11  25  43  69 103 138 183 230 281 347 415
#     4  10  23  45  68  96 135 180 233 280 335 412
#     4   9  21  41  69 102 141 181 230 286 335 407
#     4  11  25  43  66 108 142 172 235 291 337 409
#     4  10  22  45  72 100 138 189 227 272 349 413
#
# _framework density 25.349253999999998
#
# number of rings (size 3 to 8) (size 9 to 14) (size 15 to 20)
#    0.000    1.714    0.000    2.143    0.000   21.143 
#    0.000   13.571    0.000    0.000    0.000    0.000 
#    0.000    0.000    0.000    0.000    0.000    0.000 
#
# Total GULP energy -78360.617731 kJ/mol
# GULP energy per Si atom -5597.186981 kJ/mol
# Density = 2.529156 g / cm^3
# Si number density = 25.349254 Si / 1000 Ang^3
#
#
#
# Elastic Constant Matrix: (Units=GPa)
#
#
# Indices 1 2 3 4 5 6 
#
# 1 108.0632 48.4920 64.4759 6.3011 7.2589 -18.1426
# 2 48.4920 99.9630 55.7574 6.7262 2.1790 -19.9472
# 3 64.4759 55.7574 192.5546 31.7784 -12.5898 -22.2040
# 4 6.3011 6.7262 31.7784 39.6668 0.8533 -14.1446
# 5 7.2589 2.1790 -12.5898 0.8533 41.2849 -4.2400
# 6 -18.1426 -19.9472 -22.2040 -14.1446 -4.2400 53.6039
#
#
#
# Elastic Compliance Matrix: (Units=1/GPa)
#
#
# Indices 1 2 3 4 5 6 
#
# 1 0.013827 -0.004329 -0.003745 0.002272 -0.003200 0.001864
# 2 -0.004329 0.014038 -0.002530 0.001433 -0.000468 0.003051
# 3 -0.003745 -0.002530 0.008355 -0.005740 0.003460 0.000011
# 4 0.002272 0.001433 -0.005740 0.031799 -0.002149 0.007145
# 5 -0.003200 -0.000468 0.003460 -0.002149 0.026080 0.001672
# 6 0.001864 0.003051 0.000011 0.007145 0.001672 0.022444
#
#
# Mechanical properties :
#
#
# Convention : Reuss Voigt Hill
#
# Bulk Modulus (GPa) = 66.62610 82.00349 74.31480
# Shear Modulus (GPa) = 35.02478 42.36814 38.69646
#
# Velocity S-wave (km/s) = 3.72114 4.09268 3.91133
# Velocity P-wave (km/s) = 6.69349 7.39953 7.05535
#
# Compressibility (1/GPa) = 0.01500913
#
# Stress axis : x y z
#
# Youngs Moduli (GPa) = 72.32385 71.23515 119.69006
#
# Poissons Ratio (x) = 0.30841 0.44829
# Poissons Ratio (y) = 0.31312 0.30286
# Poissons Ratio (z) = 0.27088 0.18025
#
# Static dielectric constant tensor:
#      x y z
#    x 2.095890 -0.002450 -0.002020 
#    y -0.002450 2.006980 -0.020780 
#    z -0.002020 -0.020780 2.020900 
# 
# From -- ./inp_files/546877.got.cif
#   From: 2010.05.17/outbox.cif.g08.bks.cpg/sg2_274_cif.got.tgz:546877.got - 2010.06.03 11:33:40.
