data_PCOD9035716
_publ_section_title
;
Structure prediction by ZEFSAII (Michael W. Deem and Ramdas Pophale) SiO2 
 PCOD9035716
Probable space group: P -1
;
_chemical_formula_sum "Si O2"
_cell_formula_units_Z 14
_cell_length_a 6.043495
_cell_length_b 5.936203
_cell_length_c 23.892839
_cell_angle_alpha 62.310845
_cell_angle_beta 48.645506
_cell_angle_gamma 78.421045
_cell_volume 562.402761
_symmetry_space_group_name_H-M "P -1"
_symmetry_group_IT_number 2
_symmetry_cell_setting 'triclinic'
loop_
_space_group_symop_operation_xyz
x,y,z
-x,-y,-z
loop_
_atom_site_type_symbol
_atom_site_label
_atom_site_fract_x
_atom_site_fract_y
_atom_site_fract_z
Si Si1 0.836351 0.371934 0.124684
Si Si2 0.810256 0.895186 0.459188
Si Si3 0.747214 0.167180 0.039258
Si Si4 0.105667 0.780079 0.314911
Si Si5 0.686898 0.678505 0.622541
Si Si6 0.932753 0.248463 0.239759
Si Si7 0.295137 0.694694 0.175370
O O1 0.765921 0.223439 0.095670
O O2 0.850079 0.188495 0.196456
O O3 0.579575 0.550559 0.157435
O O4 0.150321 0.560994 0.039415
O O5 0.798535 0.712593 0.536420
O O6 0.861241 0.757755 0.407851
O O7 0.500000 0.000000 0.500000
O O8 0.073276 0.136246 0.400474
O O9 0.434239 0.984599 0.102011
O O10 0.000000 0.000000 0.000000
O O11 0.342556 0.618817 0.319970
O O12 0.080072 0.670647 0.268552
O O13 0.137789 0.079126 0.258772
O O14 0.373877 0.772526 0.672948
O O15 0.105515 0.538122 0.177113
#
# Coordination Sequence:
#
# PCOD9035716 Si02
#       7
#     2   2   2   2   2   2   2
#     4  10  22  46  71 102 150 186 237 303 347 426
#     4  11  25  49  71 102 144 185 244 297 350 431
#     4   9  21  43  74 103 142 192 236 293 361 420
#     4  12  25  44  73 102 143 189 239 289 359 423
#     4  11  26  48  70 103 143 188 236 300 359 418
#     4  12  26  44  72 109 143 187 241 295 356 429
#     4  11  24  43  67 108 144 184 245 293 352 427
#
# _framework density 24.893193
#
# number of rings (size 3 to 8) (size 9 to 14) (size 15 to 20)
#    0.000    1.143    2.857    2.143    2.000    4.571 
#    0.000   10.000    0.000    0.000    0.000    0.000 
#    0.000    0.000    0.000    0.000    0.000    0.000 
#
# Total GULP energy -78228.485334 kJ/mol
# GULP energy per Si atom -5587.748952 kJ/mol
# Density = 2.483654 g / cm^3
# Si number density = 24.893193 Si / 1000 Ang^3
#
#
#
# Elastic Constant Matrix: (Units=GPa)
#
#
# Indices 1 2 3 4 5 6 
#
# 1 55.8172 31.8802 44.4321 -4.9338 -7.7947 2.6635
# 2 31.8802 87.3624 47.4968 7.0582 1.1137 -3.6163
# 3 44.4321 47.4968 132.0834 18.9303 17.5442 11.2484
# 4 -4.9338 7.0582 18.9303 56.4084 9.2962 -0.8416
# 5 -7.7947 1.1137 17.5442 9.2962 42.6400 3.7164
# 6 2.6635 -3.6163 11.2484 -0.8416 3.7164 33.0567
#
#
#
# Elastic Compliance Matrix: (Units=1/GPa)
#
#
# Indices 1 2 3 4 5 6 
#
# 1 0.031534 -0.006564 -0.010172 0.005503 0.008980 -0.000667
# 2 -0.006564 0.016092 -0.003677 -0.001279 -0.000135 0.003523
# 3 -0.010172 -0.003677 0.014072 -0.004167 -0.006317 -0.003767
# 4 0.005503 -0.001279 -0.004167 0.020081 -0.001758 0.001544
# 5 0.008980 -0.000135 -0.006317 -0.001758 0.028237 -0.001808
# 6 -0.000667 0.003523 -0.003767 0.001544 -0.001808 0.032215
#
#
# Mechanical properties :
#
#
# Convention : Reuss Voigt Hill
#
# Bulk Modulus (GPa) = 47.91186 58.09790 53.00488
# Shear Modulus (GPa) = 26.31366 36.51796 31.41581
#
# Velocity S-wave (km/s) = 3.25478 3.83428 3.55635
# Velocity P-wave (km/s) = 5.78044 6.55681 6.18083
#
# Compressibility (1/GPa) = 0.02087166
#
# Stress axis : x y z
#
# Youngs Moduli (GPa) = 31.71149 62.14265 71.06106
#
# Poissons Ratio (x) = 0.40789 0.72286
# Poissons Ratio (y) = 0.20815 0.26132
# Poissons Ratio (z) = 0.32258 0.22853
#
# Static dielectric constant tensor:
#      x y z
#    x 1.888440 0.006170 -0.015670 
#    y 0.006170 2.012540 -0.016830 
#    z -0.015670 -0.016830 1.948750 
# 
# From -- ./inp_files/10422.got.cif
#   From: 2010.05.17/outbox.cif.g08.bks.cpg/sg2_6_cif.got.tgz:10422.got - 2010.06.03 11:33:40.
