data_PCOD9035823
_publ_section_title
;
Structure prediction by ZEFSAII (Michael W. Deem and Ramdas Pophale) SiO2 
 PCOD9035823
Probable space group: P -1
;
_chemical_formula_sum "Si O2"
_cell_formula_units_Z 10
_cell_length_a 9.254877
_cell_length_b 8.836727
_cell_length_c 10.452845
_cell_angle_alpha 78.183216
_cell_angle_beta 113.368874
_cell_angle_gamma 49.522821
_cell_volume 447.386597
_symmetry_space_group_name_H-M "P -1"
_symmetry_group_IT_number 2
_symmetry_cell_setting 'triclinic'
loop_
_space_group_symop_operation_xyz
x,y,z
-x,-y,-z
loop_
_atom_site_type_symbol
_atom_site_label
_atom_site_fract_x
_atom_site_fract_y
_atom_site_fract_z
Si Si1 0.962132 0.633999 0.591625
Si Si2 0.213500 0.712604 0.791344
Si Si3 0.252266 0.230492 0.967043
Si Si4 0.956785 0.201154 0.007654
Si Si5 0.448970 0.792738 0.729713
O O1 0.000000 0.500000 0.500000
O O2 0.186814 0.588616 0.708041
O O3 0.000273 0.488535 0.749206
O O4 0.691310 0.953526 0.436161
O O5 0.206153 0.884479 0.689542
O O6 0.500000 0.500000 0.000000
O O7 0.022093 0.834121 0.824696
O O8 0.171996 0.149585 0.037530
O O9 0.359229 0.280346 0.085702
O O10 0.500000 0.000000 0.000000
O O11 0.662962 0.498066 0.802958
O O12 0.000000 0.000000 0.000000
#
# Coordination Sequence:
#
# PCOD9035823 Si02
#       5
#     2   2   2   2   2
#     4  12  25  42  76 108 137 181 235 284 353 413
#     4  10  22  46  73 100 140 185 225 285 350 409
#     4  12  24  46  71 100 144 186 229 288 351 409
#     4  11  25  43  72 101 141 190 231 282 349 411
#     4  11  24  44  74 100 140 184 230 287 345 412
#
# _framework density 22.352032999999999
#
# number of rings (size 3 to 8) (size 9 to 14) (size 15 to 20)
#    0.000    0.800    6.000    2.400    2.800    0.800 
#    0.000    1.000    0.000    0.000    0.000    0.000 
#    0.000    0.000    0.000    0.000    0.000    0.000 
#
# Total GULP energy -55787.626113 kJ/mol
# GULP energy per Si atom -5578.762611 kJ/mol
# Density = 2.230116 g / cm^3
# Si number density = 22.352033 Si / 1000 Ang^3
#
#
#
# Elastic Constant Matrix: (Units=GPa)
#
#
# Indices 1 2 3 4 5 6 
#
# 1 173.7419 54.8468 22.5534 22.8572 -17.8230 13.3722
# 2 54.8468 142.1735 51.5277 -10.2913 -4.9691 26.9188
# 3 22.5534 51.5277 108.8803 -0.9846 8.6758 16.8698
# 4 22.8572 -10.2913 -0.9846 44.5118 15.9663 8.3590
# 5 -17.8230 -4.9691 8.6758 15.9663 29.6469 5.3189
# 6 13.3722 26.9188 16.8698 8.3590 5.3189 40.1810
#
#
#
# Elastic Compliance Matrix: (Units=1/GPa)
#
#
# Indices 1 2 3 4 5 6 
#
# 1 0.009301 -0.003534 -0.001222 -0.009404 0.010354 0.000371
# 2 -0.003534 0.011149 -0.003470 0.005912 -0.001369 -0.005885
# 3 -0.001222 -0.003470 0.011877 0.002548 -0.005802 -0.002018
# 4 -0.009404 0.005912 0.002548 0.039020 -0.025224 -0.006679
# 5 0.010354 -0.001369 -0.005802 -0.025224 0.055399 -0.002179
# 6 0.000371 -0.005885 -0.002018 -0.006679 -0.002179 0.031231
#
#
# Mechanical properties :
#
#
# Convention : Reuss Voigt Hill
#
# Bulk Modulus (GPa) = 62.98893 75.85017 69.41955
# Shear Modulus (GPa) = 27.82087 42.59245 35.20666
#
# Velocity S-wave (km/s) = 3.53181 4.36997 3.97306
# Velocity P-wave (km/s) = 6.69875 7.71169 7.22300
#
# Compressibility (1/GPa) = 0.01587581
#
# Stress axis : x y z
#
# Youngs Moduli (GPa) = 107.51830 89.69403 84.19287
#
# Poissons Ratio (x) = 0.31701 0.10284
# Poissons Ratio (y) = 0.38001 0.29214
# Poissons Ratio (z) = 0.13133 0.31123
#
# Static dielectric constant tensor:
#      x y z
#    x 1.942880 0.040570 -0.042480 
#    y 0.040570 2.022150 -0.055840 
#    z -0.042480 -0.055840 1.890120 
# 
# From -- ./inp_files/146535.got.cif
#   From: 2010.05.17/outbox.cif.g08.bks.cpg/sg2_74_cif.got.tgz:146535.got - 2010.06.03 11:33:40.
