data_PCOD9035427
_publ_section_title
;
Structure prediction by ZEFSAII (Michael W. Deem and Ramdas Pophale) SiO2 
 PCOD9035427
Probable space group: P -1
;
_chemical_formula_sum "Si O2"
_cell_formula_units_Z 16
_cell_length_a 9.561163
_cell_length_b 17.496990
_cell_length_c 8.804885
_cell_angle_alpha 111.827166
_cell_angle_beta 32.976801
_cell_angle_gamma 112.991136
_cell_volume 735.187305
_symmetry_space_group_name_H-M "P -1"
_symmetry_group_IT_number 2
_symmetry_cell_setting 'triclinic'
loop_
_space_group_symop_operation_xyz
x,y,z
-x,-y,-z
loop_
_atom_site_type_symbol
_atom_site_label
_atom_site_fract_x
_atom_site_fract_y
_atom_site_fract_z
Si Si1 0.096583 0.204484 0.548996
Si Si2 0.622208 0.177775 0.739607
Si Si3 0.400735 0.337432 0.177871
Si Si4 0.030948 0.895206 0.142959
Si Si5 0.699901 0.948131 0.856410
Si Si6 0.489064 0.908102 0.509078
Si Si7 0.725282 0.494909 0.159456
Si Si8 0.785591 0.550026 0.808941
O O1 0.232202 0.294128 0.440027
O O2 0.279698 0.133459 0.322294
O O3 0.877929 0.174532 0.601662
O O4 0.982500 0.188193 0.806417
O O5 0.655589 0.162684 0.522654
O O6 0.528265 0.263715 0.931460
O O7 0.410702 0.099381 0.925543
O O8 0.615201 0.408749 0.107346
O O9 0.221995 0.370331 0.235124
O O10 0.777830 0.890724 0.267202
O O11 0.051192 0.983177 0.282115
O O12 0.304578 0.905651 0.818906
O O13 0.500000 0.000000 0.000000
O O14 0.500000 0.000000 0.500000
O O15 0.500000 0.500000 0.500000
O O16 0.788482 0.556215 0.996409
O O17 0.000000 0.500000 0.000000
O O18 0.000000 0.500000 0.500000
O O19 0.500000 0.500000 0.000000
#
# Coordination Sequence:
#
# PCOD9035427 Si02
#       8
#     2   2   2   2   2   2   2   2
#     4  11  25  42  69  97 140 189 234 297 358 414
#     4  11  25  42  68  96 141 191 234 291 352 411
#     4  10  26  46  72 104 147 183 234 284 355 441
#     4  12  25  43  66  95 139 182 248 303 348 408
#     4  11  21  40  67  98 125 187 255 292 338 414
#     4  12  26  43  65  97 139 185 247 304 353 404
#     4  11  24  47  78 113 141 178 233 294 354 430
#     4  10  22  45  78 105 138 186 229 273 346 447
#
# _framework density 21.763162999999999
#
# number of rings (size 3 to 8) (size 9 to 14) (size 15 to 20)
#    0.000    1.000    2.500    3.750   10.500    0.000 
#    2.250    0.000    0.000    0.000    0.000    0.000 
#    0.000    0.000    0.000    0.000    0.000    0.000 
#
# Total GULP energy -89237.077100 kJ/mol
# GULP energy per Si atom -5577.317319 kJ/mol
# Density = 2.171363 g / cm^3
# Si number density = 21.763163 Si / 1000 Ang^3
#
#
#
# Elastic Constant Matrix: (Units=GPa)
#
#
# Indices 1 2 3 4 5 6 
#
# 1 143.8302 42.3563 29.2867 6.3959 -10.9541 -12.5468
# 2 42.3563 113.4809 26.4238 -7.6210 6.1508 -21.5763
# 3 29.2867 26.4238 93.4753 1.9392 0.7549 -13.4632
# 4 6.3959 -7.6210 1.9392 40.0270 -0.7957 4.5396
# 5 -10.9541 6.1508 0.7549 -0.7957 38.2507 1.6221
# 6 -12.5468 -21.5763 -13.4632 4.5396 1.6221 26.0841
#
#
#
# Elastic Compliance Matrix: (Units=1/GPa)
#
#
# Indices 1 2 3 4 5 6 
#
# 1 0.008536 -0.002883 -0.001700 -0.001886 0.002860 0.000994
# 2 -0.002883 0.011954 -0.001390 0.001877 -0.003006 0.007644
# 3 -0.001700 -0.001390 0.012320 -0.001130 -0.000727 0.004634
# 4 -0.001886 0.001877 -0.001130 0.026205 -0.000084 -0.004493
# 5 0.002860 -0.003006 -0.000727 -0.000084 0.027593 -0.003187
# 6 0.000994 0.007644 0.004634 -0.004493 -0.003187 0.048511
#
#
# Mechanical properties :
#
#
# Convention : Reuss Voigt Hill
#
# Bulk Modulus (GPa) = 47.92735 60.76891 54.34813
# Shear Modulus (GPa) = 32.46326 37.72032 35.09179
#
# Velocity S-wave (km/s) = 3.86639 4.16771 4.01988
# Velocity P-wave (km/s) = 6.48090 7.15145 6.82441
#
# Compressibility (1/GPa) = 0.02086491
#
# Stress axis : x y z
#
# Youngs Moduli (GPa) = 117.14670 83.65342 81.16728
#
# Poissons Ratio (x) = 0.24117 0.13801
# Poissons Ratio (y) = 0.33772 0.11279
# Poissons Ratio (z) = 0.19919 0.11625
#
# Static dielectric constant tensor:
#      x y z
#    x 1.831690 -0.047690 0.112100 
#    y -0.047690 1.800420 -0.031840 
#    z 0.112100 -0.031840 1.950810 
# 
# From -- ./inp_files/208119.got.cif
#   From: 2010.05.17/outbox.cif.g08.bks.cpg/sg2_105_cif.got.tgz:208119.got - 2010.06.03 11:33:40.
