data_PCOD9035890
_publ_section_title
;
Structure prediction by ZEFSAII (Michael W. Deem and Ramdas Pophale) SiO2 
 PCOD9035890
Probable space group: P -1
;
_chemical_formula_sum "Si O2"
_cell_formula_units_Z 16
_cell_length_a 8.734106
_cell_length_b 11.481988
_cell_length_c 16.246506
_cell_angle_alpha 25.883819
_cell_angle_beta 106.383322
_cell_angle_gamma 112.299404
_cell_volume 650.930069
_symmetry_space_group_name_H-M "P -1"
_symmetry_group_IT_number 2
_symmetry_cell_setting 'triclinic'
loop_
_space_group_symop_operation_xyz
x,y,z
-x,-y,-z
loop_
_atom_site_type_symbol
_atom_site_label
_atom_site_fract_x
_atom_site_fract_y
_atom_site_fract_z
Si Si1 0.402980 0.442609 0.608099
Si Si2 0.781876 0.899307 0.696735
Si Si3 0.804010 0.268779 0.312907
Si Si4 0.039454 0.108843 0.726048
Si Si5 0.483615 0.896935 0.956842
Si Si6 0.159232 0.116373 0.008195
Si Si7 0.519747 0.061306 0.270777
Si Si8 0.145151 0.538474 0.116073
O O1 0.500000 0.500000 0.500000
O O2 0.461298 0.724763 0.488955
O O3 0.204912 0.352964 0.617663
O O4 0.448470 0.168485 0.817277
O O5 0.835095 0.625536 0.858520
O O6 0.943675 0.123248 0.618608
O O7 0.742304 0.026393 0.524784
O O8 0.625289 0.833795 0.776037
O O9 0.799667 0.559554 0.167749
O O10 0.997637 0.331270 0.277629
O O11 0.688982 0.195642 0.261245
O O12 0.096057 0.824397 0.914381
O O13 0.899037 0.060684 0.805347
O O14 0.467219 0.897436 0.852241
O O15 0.674077 0.913613 0.986434
O O16 0.328111 0.632428 0.125415
O O17 0.000000 0.000000 0.000000
#
# Coordination Sequence:
#
# PCOD9035890 Si02
#       8
#     2   2   2   2   2   2   2   2
#     4   9  22  42  65 101 135 174 224 282 333 403
#     4  12  24  42  69 100 139 181 224 288 344 399
#     4  11  27  44  65 105 142 177 224 288 343 399
#     4  10  23  44  70  98 132 182 235 276 334 413
#     4  10  22  46  74  98 132 188 228 277 342 408
#     4  11  25  47  71 102 136 173 230 285 339 408
#     4  11  24  42  70 102 141 177 230 283 339 407
#     4  10  24  44  69 102 135 180 230 278 338 406
#
# _framework density 24.580214000000002
#
# number of rings (size 3 to 8) (size 9 to 14) (size 15 to 20)
#    0.000    1.500    1.250    1.875   10.500    3.500 
#    4.500    3.125    0.000    0.000    0.000    0.000 
#    0.000    0.000    0.000    0.000    0.000    0.000 
#
# Total GULP energy -89614.660490 kJ/mol
# GULP energy per Si atom -5600.916281 kJ/mol
# Density = 2.452427 g / cm^3
# Si number density = 24.580214 Si / 1000 Ang^3
#
#
#
# Elastic Constant Matrix: (Units=GPa)
#
#
# Indices 1 2 3 4 5 6 
#
# 1 156.4261 41.5230 24.3925 -5.9588 -15.5713 5.6571
# 2 41.5230 139.2574 29.9416 -11.3241 -5.1604 18.1960
# 3 24.3925 29.9416 62.5523 -14.1653 -6.2313 -3.4568
# 4 -5.9588 -11.3241 -14.1653 40.2470 -1.8995 -4.8341
# 5 -15.5713 -5.1604 -6.2313 -1.8995 30.9216 -8.5093
# 6 5.6571 18.1960 -3.4568 -4.8341 -8.5093 51.5032
#
#
#
# Elastic Compliance Matrix: (Units=1/GPa)
#
#
# Indices 1 2 3 4 5 6 
#
# 1 0.007437 -0.001751 -0.001688 0.000193 0.003189 0.000234
# 2 -0.001751 0.008955 -0.003785 0.000476 -0.001044 -0.003353
# 3 -0.001688 -0.003785 0.020620 0.006651 0.004247 0.004233
# 4 0.000193 0.000476 0.006651 0.027979 0.004221 0.003581
# 5 0.003189 -0.001044 0.004247 0.004221 0.036750 0.006772
# 6 0.000234 -0.003353 0.004233 0.003581 0.006772 0.022314
#
#
# Mechanical properties :
#
#
# Convention : Reuss Voigt Hill
#
# Bulk Modulus (GPa) = 44.31825 61.10556 52.71190
# Shear Modulus (GPa) = 34.24066 42.02626 38.13346
#
# Velocity S-wave (km/s) = 3.73636 4.13941 3.94304
# Velocity P-wave (km/s) = 6.05666 6.91085 6.49781
#
# Compressibility (1/GPa) = 0.02256407
#
# Stress axis : x y z
#
# Youngs Moduli (GPa) = 134.45932 111.66712 48.49744
#
# Poissons Ratio (x) = 0.19557 0.08184
# Poissons Ratio (y) = 0.23549 0.18356
# Poissons Ratio (z) = 0.22691 0.42266
#
# Static dielectric constant tensor:
#      x y z
#    x 1.920430 -0.003490 0.030460 
#    y -0.003490 2.008870 0.046180 
#    z 0.030460 0.046180 1.994400 
# 
# From -- ./inp_files/446105.got.cif
#   From: 2010.05.17/outbox.cif.g08.bks.cpg/sg2_224_cif.got.tgz:446105.got - 2010.06.03 11:33:40.
