data_PCOD9035951
_publ_section_title
;
Structure prediction by ZEFSAII (Michael W. Deem and Ramdas Pophale) SiO2 
 PCOD9035951
Probable space group: P -1
;
_chemical_formula_sum "Si O2"
_cell_formula_units_Z 16
_cell_length_a 20.231332
_cell_length_b 5.838199
_cell_length_c 17.712263
_cell_angle_alpha 83.593020
_cell_angle_beta 158.714090
_cell_angle_gamma 106.238063
_cell_volume 659.221457
_symmetry_space_group_name_H-M "P -1"
_symmetry_group_IT_number 2
_symmetry_cell_setting 'triclinic'
loop_
_space_group_symop_operation_xyz
x,y,z
-x,-y,-z
loop_
_atom_site_type_symbol
_atom_site_label
_atom_site_fract_x
_atom_site_fract_y
_atom_site_fract_z
Si Si1 0.105754 0.600255 0.543090
Si Si2 0.561486 0.704952 0.625666
Si Si3 0.276475 0.569517 0.098119
Si Si4 0.314036 0.394851 0.658654
Si Si5 0.597476 0.178298 0.039950
Si Si6 0.996228 0.128177 0.713107
Si Si7 0.617911 0.954593 0.913319
Si Si8 0.204582 0.746292 0.179281
O O1 0.163580 0.404043 0.563936
O O2 0.044352 0.748677 0.408972
O O3 0.359816 0.876601 0.821346
O O4 0.853679 0.430741 0.318304
O O5 0.500000 0.500000 0.500000
O O6 0.585331 0.569228 0.730153
O O7 0.381608 0.785193 0.427676
O O8 0.775092 0.967926 0.822167
O O9 0.381610 0.816068 0.144975
O O10 0.242260 0.669083 0.138424
O O11 0.062644 0.342002 0.842338
O O12 0.487041 0.347020 0.887988
O O13 0.413296 0.672997 0.711520
O O14 0.198737 0.163475 0.483656
O O15 0.654918 0.053664 0.034897
O O16 0.194658 0.087494 0.913722
O O17 0.000000 0.500000 0.000000
#
# Coordination Sequence:
#
# PCOD9035951 Si02
#       8
#     2   2   2   2   2   2   2   2
#     4  12  25  41  67  96 132 181 239 301 363 420
#     4   9  21  44  73 105 143 178 226 277 342 415
#     4  11  24  47  69 102 148 186 226 286 351 420
#     4  12  25  45  69  98 136 183 247 297 361 424
#     4  12  24  43  68  97 131 181 243 305 360 417
#     4  12  26  45  66 100 140 185 236 294 357 422
#     4  12  26  46  70  98 142 188 240 296 360 419
#     4  10  22  46  78 110 138 182 230 279 344 417
#
# _framework density 24.271055
#
# number of rings (size 3 to 8) (size 9 to 14) (size 15 to 20)
#    0.000    0.750    2.500    4.875    1.750    3.000 
#    0.000   32.500    0.000    0.000    0.000    0.000 
#    0.000    0.000    0.000    0.000    0.000    0.000 
#
# Total GULP energy -89414.475122 kJ/mol
# GULP energy per Si atom -5588.404695 kJ/mol
# Density = 2.421581 g / cm^3
# Si number density = 24.271055 Si / 1000 Ang^3
#
#
#
# Elastic Constant Matrix: (Units=GPa)
#
#
# Indices 1 2 3 4 5 6 
#
# 1 85.7643 37.0151 49.1810 11.4480 -19.1684 3.9229
# 2 37.0151 144.1478 70.3004 18.9674 -18.4667 10.3504
# 3 49.1810 70.3004 143.9815 12.8731 -16.3226 19.1623
# 4 11.4480 18.9674 12.8731 41.2625 -10.4014 0.8974
# 5 -19.1684 -18.4667 -16.3226 -10.4014 43.2845 -2.5810
# 6 3.9229 10.3504 19.1623 0.8974 -2.5810 30.4249
#
#
#
# Elastic Compliance Matrix: (Units=1/GPa)
#
#
# Indices 1 2 3 4 5 6 
#
# 1 0.015846 -0.001298 -0.004348 -0.001317 0.004601 0.001566
# 2 -0.001298 0.009696 -0.003829 -0.002518 0.001482 -0.000520
# 3 -0.004348 -0.003829 0.011025 -0.000307 0.000224 -0.005053
# 4 -0.001317 -0.002518 -0.000307 0.027039 0.004774 0.000827
# 5 0.004601 0.001482 0.000224 0.004774 0.027059 0.000916
# 6 0.001566 -0.000520 -0.005053 0.000827 0.000916 0.036078
#
#
# Mechanical properties :
#
#
# Convention : Reuss Voigt Hill
#
# Bulk Modulus (GPa) = 56.76005 76.32072 66.54039
# Shear Modulus (GPa) = 32.98905 37.48753 35.23829
#
# Velocity S-wave (km/s) = 3.69072 3.93432 3.81447
# Velocity P-wave (km/s) = 6.44970 7.22163 6.84655
#
# Compressibility (1/GPa) = 0.01761802
#
# Stress axis : x y z
#
# Youngs Moduli (GPa) = 63.10791 103.13137 90.70244
#
# Poissons Ratio (x) = 0.13390 0.39435
# Poissons Ratio (y) = 0.08193 0.34726
# Poissons Ratio (z) = 0.27438 0.39485
#
# Static dielectric constant tensor:
#      x y z
#    x 1.880570 0.004810 0.078000 
#    y 0.004810 2.031480 0.120000 
#    z 0.078000 0.120000 2.141120 
# 
# From -- ./inp_files/601732.got.cif
#   From: 2010.05.17/outbox.cif.g08.bks.cpg/sg2_301_cif.got.tgz:601732.got - 2010.06.03 11:33:40.
