data_PCOD9035431
_publ_section_title
;
Structure prediction by ZEFSAII (Michael W. Deem and Ramdas Pophale) SiO2 
 PCOD9035431
Probable space group: P -1
;
_chemical_formula_sum "Si O2"
_cell_formula_units_Z 9
_cell_length_a 8.091767
_cell_length_b 5.372854
_cell_length_c 13.203029
_cell_angle_alpha 81.126875
_cell_angle_beta 141.894116
_cell_angle_gamma 82.426955
_cell_volume 318.399394
_symmetry_space_group_name_H-M "P -1"
_symmetry_group_IT_number 2
_symmetry_cell_setting 'triclinic'
loop_
_space_group_symop_operation_xyz
x,y,z
-x,-y,-z
loop_
_atom_site_type_symbol
_atom_site_label
_atom_site_fract_x
_atom_site_fract_y
_atom_site_fract_z
Si Si1 0.726969 0.040386 0.459444
Si Si2 0.724603 0.184983 0.657852
Si Si3 0.550308 0.707539 0.090987
Si Si4 0.752479 0.397520 0.863664
Si Si5 0.000000 0.500000 0.500000
O O1 0.452715 0.984123 0.373069
O O2 0.841647 0.832955 0.434378
O O3 0.887549 0.034457 0.643825
O O4 0.580365 0.361563 0.332423
O O5 0.500000 0.500000 0.500000
O O6 0.859977 0.241781 0.820764
O O7 0.316635 0.745240 0.065200
O O8 0.863114 0.567302 0.310396
O O9 0.500000 0.500000 0.000000
O O10 0.500000 0.000000 0.000000
O O11 0.000000 0.500000 0.000000
#
# Coordination Sequence:
#
# PCOD9035431 Si02
#       5
#     2   2   2   2   1
#     4  10  22  45  78 117 157 222 283 349 436 512
#     4   9  20  43  72 114 148 208 286 335 423 500
#     4  12  30  56  85 128 173 234 293 356 446 524
#     4  11  25  50  80 120 168 219 287 365 424 513
#     4  12  26  56  82 116 182 224 280 356 444 522
#
# _framework density 28.266380999999999
#
# number of rings (size 3 to 8) (size 9 to 14) (size 15 to 20)
#    0.000    1.333    2.222    1.333    0.000    9.778 
#   12.000    0.000    0.000    0.000    0.000    0.000 
#    0.000    0.000    0.000    0.000    0.000    0.000 
#
# Total GULP energy -50219.244837 kJ/mol
# GULP energy per Si atom -5579.916093 kJ/mol
# Density = 2.820205 g / cm^3
# Si number density = 28.266381 Si / 1000 Ang^3
#
#
#
# Elastic Constant Matrix: (Units=GPa)
#
#
# Indices 1 2 3 4 5 6 
#
# 1 107.6326 55.1075 63.2590 9.8825 -32.5561 -15.9672
# 2 55.1075 201.4978 87.6307 25.5974 -60.1405 -45.4931
# 3 63.2590 87.6307 180.1806 27.9848 -43.3433 -22.4586
# 4 9.8825 25.5974 27.9848 85.5431 -7.9582 -15.3343
# 5 -32.5561 -60.1405 -43.3433 -7.9582 56.1174 -0.2630
# 6 -15.9672 -45.4931 -22.4586 -15.3343 -0.2630 82.2603
#
#
#
# Elastic Compliance Matrix: (Units=1/GPa)
#
#
# Indices 1 2 3 4 5 6 
#
# 1 0.012941 -0.000555 -0.003034 0.000355 0.004627 0.001458
# 2 -0.000555 0.009506 -0.001725 -0.000605 0.008470 0.004593
# 3 -0.003034 -0.001725 0.008392 -0.001548 0.002655 0.000468
# 4 0.000355 -0.000605 -0.001548 0.012651 0.000164 0.001671
# 5 0.004627 0.008470 0.002655 0.000164 0.031686 0.006439
# 6 0.001458 0.004593 0.000468 0.001671 0.006439 0.015440
#
#
# Mechanical properties :
#
#
# Convention : Reuss Voigt Hill
#
# Bulk Modulus (GPa) = 49.47542 100.14504 74.81023
# Shear Modulus (GPa) = 46.30473 63.67173 54.98823
#
# Velocity S-wave (km/s) = 4.05180 4.75126 4.41541
# Velocity P-wave (km/s) = 6.27939 8.09971 7.24693
#
# Compressibility (1/GPa) = 0.02021206
#
# Stress axis : x y z
#
# Youngs Moduli (GPa) = 77.27148 105.19167 119.16676
#
# Poissons Ratio (x) = 0.05836 0.36157
# Poissons Ratio (y) = 0.04287 0.20554
# Poissons Ratio (z) = 0.23445 0.18143
#
# Static dielectric constant tensor:
#      x y z
#    x 2.332920 0.046830 0.074630 
#    y 0.046830 2.000240 -0.057810 
#    z 0.074630 -0.057810 2.240550 
# 
# From -- ./inp_files/16557.got.cif
#   From: 2010.05.17/outbox.cif.g08.bks.cpg/sg2_9_cif.got.tgz:16557.got - 2010.06.03 11:33:40.
