data_PCOD9035016
_publ_section_title
;
Structure prediction by ZEFSAII (Michael W. Deem and Ramdas Pophale) SiO2 
 PCOD9035016
Probable space group: P -1
;
_chemical_formula_sum "Si O2"
_cell_formula_units_Z 16
_cell_length_a 14.022919
_cell_length_b 10.914606
_cell_length_c 8.817277
_cell_angle_alpha 50.801544
_cell_angle_beta 69.278464
_cell_angle_gamma 106.688545
_cell_volume 694.018093
_symmetry_space_group_name_H-M "P -1"
_symmetry_group_IT_number 2
_symmetry_cell_setting 'triclinic'
loop_
_space_group_symop_operation_xyz
x,y,z
-x,-y,-z
loop_
_atom_site_type_symbol
_atom_site_label
_atom_site_fract_x
_atom_site_fract_y
_atom_site_fract_z
Si Si1 0.343475 0.043978 0.577242
Si Si2 0.824612 0.663945 0.467048
Si Si3 0.734384 0.751401 0.733122
Si Si4 0.456783 0.769611 0.178175
Si Si5 0.376965 0.610077 0.682956
Si Si6 0.761225 0.012825 0.741457
Si Si7 0.836941 0.358261 0.242407
Si Si8 0.856486 0.038329 0.997889
O O1 0.353438 0.226808 0.345483
O O2 0.495491 0.164890 0.470237
O O3 0.271564 0.848602 0.650637
O O4 0.229189 0.941787 0.856811
O O5 0.810447 0.707928 0.614834
O O6 0.687197 0.412469 0.694073
O O7 0.974209 0.744542 0.280452
O O8 0.829685 0.832367 0.236226
O O9 0.830155 0.980999 0.595010
O O10 0.653403 0.574752 0.052707
O O11 0.435655 0.662725 0.437451
O O12 0.589086 0.835201 0.964419
O O13 0.500000 0.000000 0.000000
O O14 0.225058 0.534051 0.809608
O O15 0.812976 0.248097 0.503468
O O16 0.796334 0.986071 0.905123
O O17 0.000000 0.500000 0.000000
#
# Coordination Sequence:
#
# PCOD9035016 Si02
#       8
#     2   2   2   2   2   2   2   2
#     4  10  23  44  69  98 136 173 230 283 336 408
#     4  10  25  43  69 101 140 174 229 281 350 403
#     4  10  25  42  71 103 134 173 228 289 340 395
#     4  12  26  44  67 100 139 184 227 279 336 410
#     4  12  24  43  69  98 132 182 228 276 342 404
#     4  11  24  46  69  99 138 173 233 283 336 408
#     4  11  27  45  65  97 142 182 223 277 345 412
#     4  10  22  45  70 103 131 179 226 290 342 401
#
# _framework density 23.054155000000002
#
# number of rings (size 3 to 8) (size 9 to 14) (size 15 to 20)
#    0.000    1.250    2.500    1.500   10.500    2.500 
#    2.250    1.250    0.000    0.000    0.000    0.000 
#    0.000    0.000    0.000    0.000    0.000    0.000 
#
# Total GULP energy -89395.828989 kJ/mol
# GULP energy per Si atom -5587.239312 kJ/mol
# Density = 2.300168 g / cm^3
# Si number density = 23.054155 Si / 1000 Ang^3
#
#
#
# Elastic Constant Matrix: (Units=GPa)
#
#
# Indices 1 2 3 4 5 6 
#
# 1 62.0855 16.6977 47.7092 8.4757 -21.2032 -0.4481
# 2 16.6977 60.7290 27.5945 12.6179 12.2331 1.1975
# 3 47.7092 27.5945 115.1242 12.8111 -10.0963 -0.1167
# 4 8.4757 12.6179 12.8111 36.8712 14.7507 3.4840
# 5 -21.2032 12.2331 -10.0963 14.7507 29.8705 2.7889
# 6 -0.4481 1.1975 -0.1167 3.4840 2.7889 21.9930
#
#
#
# Elastic Compliance Matrix: (Units=1/GPa)
#
#
# Indices 1 2 3 4 5 6 
#
# 1 0.043912 -0.012396 -0.009266 -0.019734 0.042935 -0.000798
# 2 -0.012396 0.024951 -0.003281 0.004329 -0.022313 0.000515
# 3 -0.009266 -0.003281 0.013478 -0.001465 0.000018 0.000291
# 4 -0.019734 0.004329 -0.001465 0.046573 -0.038987 -0.003080
# 5 0.042935 -0.022313 0.000018 -0.038987 0.092677 -0.003486
# 6 -0.000798 0.000515 0.000291 -0.003080 -0.003486 0.046356
#
#
# Mechanical properties :
#
#
# Convention : Reuss Voigt Hill
#
# Bulk Modulus (GPa) = 30.81330 46.88237 38.84784
# Shear Modulus (GPa) = 15.21362 27.47610 21.34486
#
# Velocity S-wave (km/s) = 2.57165 3.45600 3.04609
# Velocity P-wave (km/s) = 4.71301 6.02538 5.40914
#
# Compressibility (1/GPa) = 0.03245352
#
# Stress axis : x y z
#
# Youngs Moduli (GPa) = 22.77258 40.07845 74.19680
#
# Poissons Ratio (x) = 0.49683 0.68752
# Poissons Ratio (y) = 0.28230 0.24347
# Poissons Ratio (z) = 0.21101 0.13151
#
# Static dielectric constant tensor:
#      x y z
#    x 1.868650 -0.035520 0.009430 
#    y -0.035520 1.879900 -0.015940 
#    z 0.009430 -0.015940 1.867050 
# 
# From -- ./inp_files/208454.got.cif
#   From: 2010.05.17/outbox.cif.g08.bks.cpg/sg2_105_cif.got.tgz:208454.got - 2010.06.03 11:33:40.
