data_PCOD9035601
_publ_section_title
;
Structure prediction by ZEFSAII (Michael W. Deem and Ramdas Pophale) SiO2 
 PCOD9035601
Probable space group: P -1
;
_chemical_formula_sum "Si O2"
_cell_formula_units_Z 11
_cell_length_a 13.399819
_cell_length_b 6.290448
_cell_length_c 11.136816
_cell_angle_alpha 59.500096
_cell_angle_beta 34.017257
_cell_angle_gamma 79.496482
_cell_volume 393.291190
_symmetry_space_group_name_H-M "P -1"
_symmetry_group_IT_number 2
_symmetry_cell_setting 'triclinic'
loop_
_space_group_symop_operation_xyz
x,y,z
-x,-y,-z
loop_
_atom_site_type_symbol
_atom_site_label
_atom_site_fract_x
_atom_site_fract_y
_atom_site_fract_z
Si Si1 0.500000 0.500000 0.000000
Si Si2 0.374234 0.615215 0.345441
Si Si3 0.117303 0.266968 0.394777
Si Si4 0.782942 0.975725 0.976012
Si Si5 0.114455 0.820498 0.667534
Si Si6 0.707818 0.996420 0.313938
O O1 0.561851 0.344020 0.868177
O O2 0.674894 0.472950 0.928695
O O3 0.559190 0.827247 0.186974
O O4 0.180111 0.655999 0.557934
O O5 0.322294 0.305770 0.529884
O O6 0.245796 0.153671 0.388962
O O7 0.000000 0.000000 0.500000
O O8 0.943161 0.243115 0.662279
O O9 0.808018 0.052488 0.067456
O O10 0.885056 0.771661 0.911802
O O11 0.174573 0.806106 0.747342
O O12 0.500000 0.000000 0.500000
#
# Coordination Sequence:
#
# PCOD9035601 Si02
#       6
#     1   2   2   2   2   2
#     4  12  22  44  74 100 144 182 240 298 356 420
#     4  12  24  46  70 103 140 192 239 291 365 423
#     4  10  22  46  69 103 142 188 239 293 353 424
#     4  10  23  44  67 102 143 181 243 291 347 433
#     4  10  24  44  69 100 139 191 226 303 353 413
#     4  12  24  45  71 104 143 189 236 296 357 425
#
# _framework density 27.969097999999999
#
# number of rings (size 3 to 8) (size 9 to 14) (size 15 to 20)
#    1.091    0.000    5.455    1.091    0.000    1.455 
#    9.818    1.818    0.000    0.000    0.000    0.000 
#    0.000    0.000    0.000    0.000    0.000    0.000 
#
# Total GULP energy -61436.018718 kJ/mol
# GULP energy per Si atom -5585.092611 kJ/mol
# Density = 2.790544 g / cm^3
# Si number density = 27.969098 Si / 1000 Ang^3
#
#
#
# Elastic Constant Matrix: (Units=GPa)
#
#
# Indices 1 2 3 4 5 6 
#
# 1 110.8287 39.5723 21.2152 -2.7353 10.1277 35.9038
# 2 39.5723 105.4346 51.0032 10.9752 11.0813 1.4064
# 3 21.2152 51.0032 120.7537 25.8573 -0.9938 28.1484
# 4 -2.7353 10.9752 25.8573 66.7012 9.7768 0.7068
# 5 10.1277 11.0813 -0.9938 9.7768 63.1411 12.5709
# 6 35.9038 1.4064 28.1484 0.7068 12.5709 67.8472
#
#
#
# Elastic Compliance Matrix: (Units=1/GPa)
#
#
# Indices 1 2 3 4 5 6 
#
# 1 0.013257 -0.005843 0.001750 0.000861 0.000324 -0.007689
# 2 -0.005843 0.015265 -0.006979 0.000350 -0.003150 0.006251
# 3 0.001750 -0.006979 0.013511 -0.004416 0.003222 -0.006938
# 4 0.000861 0.000350 -0.004416 0.017144 -0.003282 0.001799
# 5 0.000324 -0.003150 0.003222 -0.003282 0.017836 -0.004713
# 6 -0.007689 0.006251 -0.006938 0.001799 -0.004713 0.022411
#
#
# Mechanical properties :
#
#
# Convention : Reuss Voigt Hill
#
# Bulk Modulus (GPa) = 50.28139 62.28870 56.28505
# Shear Modulus (GPa) = 39.00215 54.55299 46.77757
#
# Velocity S-wave (km/s) = 3.73832 4.42121 4.09403
# Velocity P-wave (km/s) = 6.05391 6.95569 6.52041
#
# Compressibility (1/GPa) = 0.01988808
#
# Stress axis : x y z
#
# Youngs Moduli (GPa) = 75.43215 65.50957 74.01366
#
# Poissons Ratio (x) = 0.38278 -0.12950
# Poissons Ratio (y) = 0.44076 0.51653
# Poissons Ratio (z) = -0.13198 0.45718
#
# Static dielectric constant tensor:
#      x y z
#    x 2.267590 -0.090470 -0.061580 
#    y -0.090470 2.360410 -0.189440 
#    z -0.061580 -0.189440 2.538670 
# 
# From -- ./inp_files/108168.got.cif
#   From: 2010.05.17/outbox.cif.g08.bks.cpg/sg2_55_cif.got.tgz:108168.got - 2010.06.03 11:33:40.
