data_PCOD9035955
_publ_section_title
;
Structure prediction by ZEFSAII (Michael W. Deem and Ramdas Pophale) SiO2 
 PCOD9035955
Probable space group: P -1
;
_chemical_formula_sum "Si O2"
_cell_formula_units_Z 15
_cell_length_a 6.743601
_cell_length_b 13.554496
_cell_length_c 7.226661
_cell_angle_alpha 63.461599
_cell_angle_beta 118.568840
_cell_angle_gamma 97.467309
_cell_volume 516.053877
_symmetry_space_group_name_H-M "P -1"
_symmetry_group_IT_number 2
_symmetry_cell_setting 'triclinic'
loop_
_space_group_symop_operation_xyz
x,y,z
-x,-y,-z
loop_
_atom_site_type_symbol
_atom_site_label
_atom_site_fract_x
_atom_site_fract_y
_atom_site_fract_z
Si Si1 0.795194 0.060536 0.213716
Si Si2 0.711189 0.368272 0.878227
Si Si3 0.945323 0.178588 0.881476
Si Si4 0.407128 0.326045 0.310463
Si Si5 0.641896 0.105479 0.485719
Si Si6 0.673654 0.821926 0.245334
Si Si7 0.000000 0.500000 0.000000
Si Si8 0.255643 0.499263 0.555352
O O1 0.568630 0.143043 0.989614
O O2 0.994316 0.089052 0.141592
O O3 0.821532 0.092622 0.409831
O O4 0.726834 0.938892 0.257553
O O5 0.442419 0.393105 0.759353
O O6 0.770326 0.483674 0.697548
O O7 0.857580 0.390975 0.099804
O O8 0.138671 0.206056 0.805808
O O9 0.764073 0.123706 0.718642
O O10 0.833179 0.281034 0.865410
O O11 0.486236 0.223022 0.298880
O O12 0.339244 0.264285 0.521145
O O13 0.200940 0.408186 0.073474
O O14 0.613666 0.400293 0.388701
O O15 0.500000 0.000000 0.500000
O O16 0.000000 0.500000 0.500000
#
# Coordination Sequence:
#
# PCOD9035955 Si02
#       8
#     2   2   2   2   2   2   1   2
#     4  11  24  47  75 119 161 211 274 333 410 511
#     4  10  23  46  70 111 157 206 274 333 418 490
#     4  12  26  47  76 121 163 219 268 342 419 500
#     4  11  23  52  79 121 170 220 281 342 424 499
#     4  12  24  48  81 116 170 219 274 345 411 502
#     4  11  24  48  80 109 168 216 267 347 416 498
#     4  10  26  46  76 114 164 214 286 346 400 510
#     4  10  22  46  79 105 155 213 272 351 417 480
#
# _framework density 29.066731000000001
#
# number of rings (size 3 to 8) (size 9 to 14) (size 15 to 20)
#    0.000    1.067    4.000    1.200    1.867    5.867 
#    2.400    1.333    0.000    0.000    0.000    0.000 
#    0.000    0.000    0.000    0.000    0.000    0.000 
#
# Total GULP energy -83893.499556 kJ/mol
# GULP energy per Si atom -5592.899970 kJ/mol
# Density = 2.900057 g / cm^3
# Si number density = 29.066731 Si / 1000 Ang^3
#
#
#
# Elastic Constant Matrix: (Units=GPa)
#
#
# Indices 1 2 3 4 5 6 
#
# 1 212.0361 89.1364 56.7258 -2.4319 -18.9849 7.1033
# 2 89.1364 179.0977 50.4896 5.5021 -23.8861 -27.4824
# 3 56.7258 50.4896 117.3469 10.2622 -13.5413 -1.8973
# 4 -2.4319 5.5021 10.2622 36.0920 -1.9475 -1.3094
# 5 -18.9849 -23.8861 -13.5413 -1.9475 65.8234 -0.2221
# 6 7.1033 -27.4824 -1.8973 -1.3094 -0.2221 61.0843
#
#
#
# Elastic Compliance Matrix: (Units=1/GPa)
#
#
# Indices 1 2 3 4 5 6 
#
# 1 0.006678 -0.003079 -0.002015 0.001436 0.000429 -0.002192
# 2 -0.003079 0.008535 -0.001842 -0.000736 0.001822 0.004132
# 3 -0.002015 -0.001842 0.010630 -0.002843 0.000852 -0.000322
# 4 0.001436 -0.000736 -0.002843 0.028748 0.000413 0.000031
# 5 0.000429 0.001822 0.000852 0.000413 0.016168 0.000864
# 6 -0.002192 0.004132 -0.000322 0.000031 0.000864 0.018478
#
#
# Mechanical properties :
#
#
# Convention : Reuss Voigt Hill
#
# Bulk Modulus (GPa) = 83.53668 100.13158 91.83413
# Shear Modulus (GPa) = 46.68579 53.40853 50.04716
#
# Velocity S-wave (km/s) = 4.01204 4.29119 4.15396
# Velocity P-wave (km/s) = 7.08971 7.68610 7.39392
#
# Compressibility (1/GPa) = 0.01197079
#
# Stress axis : x y z
#
# Youngs Moduli (GPa) = 149.75010 117.16673 94.07155
#
# Poissons Ratio (x) = 0.36072 0.18954
# Poissons Ratio (y) = 0.46103 0.17332
# Poissons Ratio (z) = 0.30173 0.21587
#
# Static dielectric constant tensor:
#      x y z
#    x 1.792030 -0.630660 -0.432830 
#    y -0.630660 1.591210 -0.723280 
#    z -0.432830 -0.723280 1.892020 
# 
# From -- ./inp_files/196220.got.cif
#   From: 2010.05.17/outbox.cif.g08.bks.cpg/sg2_99_cif.got.tgz:196220.got - 2010.06.03 11:33:40.
