data_PCOD9035275
_publ_section_title
;
Structure prediction by ZEFSAII (Michael W. Deem and Ramdas Pophale) SiO2 
 PCOD9035275
Probable space group: P -1
;
_chemical_formula_sum "Si O2"
_cell_formula_units_Z 14
_cell_length_a 5.122132
_cell_length_b 23.014637
_cell_length_c 16.916507
_cell_angle_alpha 164.094042
_cell_angle_beta 91.435804
_cell_angle_gamma 86.548101
_cell_volume 541.586282
_symmetry_space_group_name_H-M "P -1"
_symmetry_group_IT_number 2
_symmetry_cell_setting 'triclinic'
loop_
_space_group_symop_operation_xyz
x,y,z
-x,-y,-z
loop_
_atom_site_type_symbol
_atom_site_label
_atom_site_fract_x
_atom_site_fract_y
_atom_site_fract_z
Si Si1 0.397524 0.732888 0.268434
Si Si2 0.756303 0.438325 0.179570
Si Si3 0.481797 0.146042 0.902055
Si Si4 0.015563 0.171709 0.035231
Si Si5 0.946344 0.257983 0.323925
Si Si6 0.315328 0.715609 0.480794
Si Si7 0.115486 0.325410 0.904568
O O1 0.417544 0.916878 0.572994
O O2 0.500000 0.500000 0.000000
O O3 0.104034 0.729598 0.229891
O O4 0.600130 0.776060 0.256295
O O5 0.612763 0.602438 0.327674
O O6 0.997469 0.290921 0.945476
O O7 0.835987 0.597934 0.456219
O O8 0.566360 0.280029 0.004222
O O9 0.220654 0.264164 0.098312
O O10 0.747269 0.126933 0.932358
O O11 0.211107 0.959042 0.783459
O O12 0.923335 0.284364 0.264287
O O13 0.731953 0.317178 0.468446
O O14 0.000000 0.000000 0.000000
O O15 0.149452 0.575804 0.241853
#
# Coordination Sequence:
#
# PCOD9035275 Si02
#       7
#     2   2   2   2   2   2   2
#     4  12  24  44  70 101 137 185 233 283 340 412
#     4  11  26  45  72 105 143 178 231 290 347 413
#     4  12  29  45  67 105 146 179 233 289 348 404
#     4  11  26  45  70  99 141 185 231 284 347 408
#     4   9  23  42  74 102 136 181 240 277 344 417
#     4  10  22  45  73 103 135 182 237 284 341 419
#     4  11  23  43  71  96 136 182 230 278 344 405
#
# _framework density 25.849989999999998
#
# number of rings (size 3 to 8) (size 9 to 14) (size 15 to 20)
#    0.000    1.143    1.429    3.000   12.000    3.429 
#    0.000    0.000    0.000    0.000    0.000    0.000 
#    0.000    0.000    0.000    0.000    0.000    0.000 
#
# Total GULP energy -78268.359337 kJ/mol
# GULP energy per Si atom -5590.597095 kJ/mol
# Density = 2.579115 g / cm^3
# Si number density = 25.849990 Si / 1000 Ang^3
#
#
#
# Elastic Constant Matrix: (Units=GPa)
#
#
# Indices 1 2 3 4 5 6 
#
# 1 133.4754 41.0084 30.4336 -17.0533 7.2472 -1.8059
# 2 41.0084 100.0831 51.9836 -22.9878 2.9690 6.2291
# 3 30.4336 51.9836 112.7810 -12.1814 -10.9615 5.6100
# 4 -17.0533 -22.9878 -12.1814 49.7908 -1.4642 -4.8439
# 5 7.2472 2.9690 -10.9615 -1.4642 24.3507 -4.7081
# 6 -1.8059 6.2291 5.6100 -4.8439 -4.7081 47.5559
#
#
#
# Elastic Compliance Matrix: (Units=1/GPa)
#
#
# Indices 1 2 3 4 5 6 
#
# 1 0.008947 -0.002567 -0.001367 0.001534 -0.002733 0.000723
# 2 -0.002567 0.015557 -0.006309 0.004515 -0.003957 -0.001323
# 3 -0.001367 -0.006309 0.012815 -0.000047 0.006931 -0.000056
# 4 0.001534 0.004515 -0.000047 0.022886 0.000710 0.001874
# 5 -0.002733 -0.003957 0.006931 0.000710 0.046348 0.004258
# 6 0.000723 -0.001323 -0.000056 0.001874 0.004258 0.021848
#
#
# Mechanical properties :
#
#
# Convention : Reuss Voigt Hill
#
# Bulk Modulus (GPa) = 59.40925 65.91009 62.65967
# Shear Modulus (GPa) = 32.36296 39.20043 35.78170
#
# Velocity S-wave (km/s) = 3.54213 3.89840 3.72453
# Velocity P-wave (km/s) = 6.30564 6.76874 6.54129
#
# Compressibility (1/GPa) = 0.01683240
#
# Stress axis : x y z
#
# Youngs Moduli (GPa) = 111.77361 64.27810 78.03433
#
# Poissons Ratio (x) = 0.16503 0.10665
# Poissons Ratio (y) = 0.28698 0.49233
# Poissons Ratio (z) = 0.15276 0.40554
#
# Static dielectric constant tensor:
#      x y z
#    x 2.064410 0.056980 -0.006410 
#    y 0.056980 2.170170 0.021590 
#    z -0.006410 0.021590 1.972160 
# 
# From -- ./inp_files/485670.got.cif
#   From: 2010.05.17/outbox.cif.g08.bks.cpg/sg2_243_cif.got.tgz:485670.got - 2010.06.03 11:33:40.
