data_PCOD9035634
_publ_section_title
;
Structure prediction by ZEFSAII (Michael W. Deem and Ramdas Pophale) SiO2 
 PCOD9035634
Probable space group: P -1
;
_chemical_formula_sum "Si O2"
_cell_formula_units_Z 13
_cell_length_a 4.944399
_cell_length_b 7.413750
_cell_length_c 14.450587
_cell_angle_alpha 84.183663
_cell_angle_beta 101.431242
_cell_angle_gamma 64.941217
_cell_volume 459.976023
_symmetry_space_group_name_H-M "P -1"
_symmetry_group_IT_number 2
_symmetry_cell_setting 'triclinic'
loop_
_space_group_symop_operation_xyz
x,y,z
-x,-y,-z
loop_
_atom_site_type_symbol
_atom_site_label
_atom_site_fract_x
_atom_site_fract_y
_atom_site_fract_z
Si Si1 0.306442 0.321706 0.988488
Si Si2 0.974990 0.876831 0.376135
Si Si3 0.099754 0.248673 0.348678
Si Si4 0.500000 0.000000 0.500000
Si Si5 0.448260 0.587588 0.287178
Si Si6 0.849637 0.191895 0.910488
Si Si7 0.571687 0.796044 0.794504
O O1 0.434737 0.192708 0.097098
O O2 0.568150 0.346185 0.948749
O O3 0.000000 0.500000 0.000000
O O4 0.142135 0.233362 0.910908
O O5 0.232689 0.676892 0.356346
O O6 0.142792 0.024538 0.404064
O O7 0.775753 0.853037 0.445833
O O8 0.725957 0.016607 0.276239
O O9 0.423204 0.209182 0.417817
O O10 0.809408 0.456907 0.340681
O O11 0.131422 0.218540 0.241665
O O12 0.328845 0.782168 0.199445
O O13 0.408601 0.417675 0.230394
O O14 0.000000 0.000000 0.000000
#
# Coordination Sequence:
#
# PCOD9035634 Si02
#       7
#     2   2   2   1   2   2   2
#     4  12  24  43  68  95 143 192 234 291 339 406
#     4  10  23  43  69  96 132 172 219 282 344 418
#     4  10  23  43  69  95 132 172 221 281 341 424
#     4  10  22  46  70 100 130 168 218 272 362 420
#     4  11  24  42  65  99 134 176 231 281 342 404
#     4  12  27  43  67 103 142 189 243 289 340 405
#     4  10  23  41  65  94 136 182 227 276 345 394
#
# _framework density 28.262339999999998
#
# number of rings (size 3 to 8) (size 9 to 14) (size 15 to 20)
#    0.000    1.231    1.538    3.231    6.462    3.077 
#    0.000    7.692    0.000    0.000    0.000    0.000 
#    0.000    0.000    0.000    0.000    0.000    0.000 
#
# Total GULP energy -72490.187622 kJ/mol
# GULP energy per Si atom -5576.168279 kJ/mol
# Density = 2.819801 g / cm^3
# Si number density = 28.262340 Si / 1000 Ang^3
#
#
#
# Elastic Constant Matrix: (Units=GPa)
#
#
# Indices 1 2 3 4 5 6 
#
# 1 112.6270 38.2499 40.2791 18.2761 -6.7040 -13.0787
# 2 38.2499 164.0534 40.2274 27.7050 8.4359 -47.5964
# 3 40.2791 40.2274 157.5506 8.8064 -4.1471 -38.8737
# 4 18.2761 27.7050 8.8064 46.9419 -24.5864 -14.4973
# 5 -6.7040 8.4359 -4.1471 -24.5864 52.4390 -3.6281
# 6 -13.0787 -47.5964 -38.8737 -14.4973 -3.6281 45.9589
#
#
#
# Elastic Compliance Matrix: (Units=1/GPa)
#
#
# Indices 1 2 3 4 5 6 
#
# 1 0.010746 -0.001928 -0.002628 -0.003389 -0.000269 -0.002252
# 2 -0.001928 0.009725 0.000152 -0.004209 -0.003214 0.008070
# 3 -0.002628 0.000152 0.008850 0.002931 0.002267 0.007998
# 4 -0.003389 -0.004209 0.002931 0.037700 0.018881 0.010539
# 5 -0.000269 -0.003214 0.002267 0.018881 0.029052 0.006762
# 6 -0.002252 0.008070 0.007998 0.010539 0.006762 0.040098
#
#
# Mechanical properties :
#
#
# Convention : Reuss Voigt Hill
#
# Bulk Modulus (GPa) = 48.75420 74.63820 61.69620
# Shear Modulus (GPa) = 32.93399 50.09961 41.51680
#
# Velocity S-wave (km/s) = 3.41735 4.21487 3.83688
# Velocity P-wave (km/s) = 5.73228 7.08189 6.44253
#
# Compressibility (1/GPa) = 0.02051106
#
# Stress axis : x y z
#
# Youngs Moduli (GPa) = 93.05669 102.82408 112.99874
#
# Poissons Ratio (x) = 0.19828 0.29700
# Poissons Ratio (y) = 0.17945 -0.01714
# Poissons Ratio (z) = 0.24459 -0.01560
#
# Static dielectric constant tensor:
#      x y z
#    x 2.572210 0.057250 0.139380 
#    y 0.057250 3.470540 -0.065330 
#    z 0.139380 -0.065330 2.250010 
# 
# From -- ./inp_files/287438.got.cif
#   From: 2010.05.17/outbox.cif.g08.bks.cpg/sg2_144_cif.got.tgz:287438.got - 2010.06.03 11:33:40.
