data_PCOD9035612
_publ_section_title
;
Structure prediction by ZEFSAII (Michael W. Deem and Ramdas Pophale) SiO2 
 PCOD9035612
Probable space group: P -1
;
_chemical_formula_sum "Si O2"
_cell_formula_units_Z 14
_cell_length_a 9.647908
_cell_length_b 12.044130
_cell_length_c 15.008378
_cell_angle_alpha 26.178006
_cell_angle_beta 124.982026
_cell_angle_gamma 128.411799
_cell_volume 602.232964
_symmetry_space_group_name_H-M "P -1"
_symmetry_group_IT_number 2
_symmetry_cell_setting 'triclinic'
loop_
_space_group_symop_operation_xyz
x,y,z
-x,-y,-z
loop_
_atom_site_type_symbol
_atom_site_label
_atom_site_fract_x
_atom_site_fract_y
_atom_site_fract_z
Si Si1 0.245859 0.855028 0.006471
Si Si2 0.933150 0.347948 0.262318
Si Si3 0.217254 0.111567 0.997244
Si Si4 0.483710 0.477698 0.402960
Si Si5 0.174579 0.024121 0.662630
Si Si6 0.660106 0.269707 0.359253
Si Si7 0.799809 0.313673 0.560084
O O1 0.270453 0.020685 0.986908
O O2 0.610753 0.309646 0.820229
O O3 0.235561 0.991278 0.809289
O O4 0.052356 0.645658 0.095538
O O5 0.036342 0.190221 0.476014
O O6 0.744279 0.297940 0.273089
O O7 0.913004 0.245279 0.228048
O O8 0.319612 0.419924 0.832321
O O9 0.256097 0.933878 0.217540
O O10 0.000000 0.000000 0.000000
O O11 0.500000 0.500000 0.500000
O O12 0.341887 0.191084 0.545862
O O13 0.665139 0.472580 0.428299
O O14 0.778759 0.217028 0.521136
O O15 0.500000 0.000000 0.500000
O O16 0.000000 0.500000 0.500000
#
# Coordination Sequence:
#
# PCOD9035612 Si02
#       7
#     2   2   2   2   2   2   2
#     4  11  23  44  77 109 147 195 252 320 383 450
#     4  10  22  46  69 107 145 197 257 309 372 468
#     4  12  25  45  75 117 146 195 268 311 375 472
#     4  11  25  44  68 110 151 187 254 317 371 455
#     4  10  24  42  73 103 148 196 250 313 385 446
#     4  12  28  47  75 107 158 204 254 320 394 452
#     4  12  26  48  78 109 154 206 252 318 391 456
#
# _framework density 23.246818000000001
#
# number of rings (size 3 to 8) (size 9 to 14) (size 15 to 20)
#    0.000    0.857    4.286    1.286    6.000    2.286 
#    0.000    2.857    0.000    0.000    0.000    1.000 
#    0.000    0.000    0.000    0.000    0.000    0.000 
#
# Total GULP energy -78131.587530 kJ/mol
# GULP energy per Si atom -5580.827681 kJ/mol
# Density = 2.319391 g / cm^3
# Si number density = 23.246818 Si / 1000 Ang^3
#
#
#
# Elastic Constant Matrix: (Units=GPa)
#
#
# Indices 1 2 3 4 5 6 
#
# 1 117.3165 15.7695 31.6180 -17.8379 -17.8115 7.3675
# 2 15.7695 103.7482 48.0442 -21.9036 -10.5850 -3.2862
# 3 31.6180 48.0442 159.9697 -17.7395 -20.2138 -14.7328
# 4 -17.8379 -21.9036 -17.7395 60.1261 6.8250 -16.0764
# 5 -17.8115 -10.5850 -20.2138 6.8250 26.6431 1.4144
# 6 7.3675 -3.2862 -14.7328 -16.0764 1.4144 38.2270
#
#
#
# Elastic Compliance Matrix: (Units=1/GPa)
#
#
# Indices 1 2 3 4 5 6 
#
# 1 0.010058 -0.000150 -0.001294 0.001376 0.005441 -0.002073
# 2 -0.000150 0.011949 -0.002827 0.003699 0.001477 0.001467
# 3 -0.001294 -0.002827 0.008357 0.001639 0.003732 0.003778
# 4 0.001376 0.003699 0.001639 0.021813 -0.002483 0.009950
# 5 0.005441 0.001477 0.003732 -0.002483 0.045342 -0.002205
# 6 -0.002073 0.001467 0.003778 0.009950 -0.002205 0.032407
#
#
# Mechanical properties :
#
#
# Convention : Reuss Voigt Hill
#
# Bulk Modulus (GPa) = 45.82353 63.54420 54.68387
# Shear Modulus (GPa) = 34.30723 44.03942 39.17332
#
# Velocity S-wave (km/s) = 3.84576 4.35722 4.10946
# Velocity P-wave (km/s) = 6.28286 7.26001 6.78904
#
# Compressibility (1/GPa) = 0.02182285
#
# Stress axis : x y z
#
# Youngs Moduli (GPa) = 99.42163 83.69075 119.65680
#
# Poissons Ratio (x) = 0.01253 0.15482
# Poissons Ratio (y) = 0.01489 0.33828
# Poissons Ratio (z) = 0.12864 0.23660
#
# Static dielectric constant tensor:
#      x y z
#    x 1.899500 0.031760 0.052280 
#    y 0.031760 1.878950 -0.009940 
#    z 0.052280 -0.009940 1.938850 
# 
# From -- ./inp_files/499793.got.cif
#   From: 2010.05.17/outbox.cif.g08.bks.cpg/sg2_250_cif.got.tgz:499793.got - 2010.06.03 11:33:40.
