data_PCOD9035474
_publ_section_title
;
Structure prediction by ZEFSAII (Michael W. Deem and Ramdas Pophale) SiO2 
 PCOD9035474
Probable space group: P -1
;
_chemical_formula_sum "Si O2"
_cell_formula_units_Z 16
_cell_length_a 10.685037
_cell_length_b 7.539055
_cell_length_c 11.205561
_cell_angle_alpha 57.240807
_cell_angle_beta 59.756631
_cell_angle_gamma 86.333046
_cell_volume 628.169502
_symmetry_space_group_name_H-M "P -1"
_symmetry_group_IT_number 2
_symmetry_cell_setting 'triclinic'
loop_
_space_group_symop_operation_xyz
x,y,z
-x,-y,-z
loop_
_atom_site_type_symbol
_atom_site_label
_atom_site_fract_x
_atom_site_fract_y
_atom_site_fract_z
Si Si1 0.301527 0.119580 0.649065
Si Si2 0.862549 0.063444 0.962131
Si Si3 0.830832 0.493836 0.841123
Si Si4 0.503894 0.275403 0.139534
Si Si5 0.892333 0.656180 0.003702
Si Si6 0.658306 0.073996 0.828228
Si Si7 0.389619 0.708260 0.656862
Si Si8 0.160824 0.438992 0.450030
O O1 0.242002 0.051478 0.835119
O O2 0.482830 0.245829 0.521778
O O3 0.203639 0.259412 0.578132
O O4 0.307778 0.900208 0.650291
O O5 0.958422 0.891833 0.946565
O O6 0.937110 0.329163 0.842605
O O7 0.775266 0.042003 0.883374
O O8 0.853562 0.656369 0.881523
O O9 0.823738 0.614139 0.677812
O O10 0.676387 0.297814 0.009694
O O11 0.509903 0.285707 0.274158
O O12 0.376366 0.077242 0.216865
O O13 0.500000 0.500000 0.000000
O O14 0.740782 0.519864 0.194563
O O15 0.000000 0.500000 0.000000
O O16 0.714072 0.328170 0.672584
O O17 0.500000 0.000000 0.000000
O O18 0.000000 0.500000 0.500000
#
# Coordination Sequence:
#
# PCOD9035474 Si02
#       8
#     2   2   2   2   2   2   2   2
#     4  11  23  45  67  98 145 187 221 293 367 417
#     4  11  23  42  71 102 134 183 235 294 351 421
#     4  10  22  46  65  98 135 179 248 278 354 421
#     4  11  19  38  72  98 136 183 234 301 338 413
#     4  11  25  42  69 102 134 184 240 290 352 427
#     4  11  21  42  68 103 131 179 248 282 338 436
#     4  10  23  43  65 105 142 181 233 288 363 422
#     4  11  26  43  70 103 144 190 235 295 368 423
#
# _framework density 25.470829999999999
#
# number of rings (size 3 to 8) (size 9 to 14) (size 15 to 20)
#    0.000    1.250    5.000    2.250    3.500    3.000 
#    4.500    0.000    0.000    8.250    0.000    0.000 
#    0.000    0.000    0.000    0.000    0.000    0.000 
#
# Total GULP energy -89377.668888 kJ/mol
# GULP energy per Si atom -5586.104305 kJ/mol
# Density = 2.541286 g / cm^3
# Si number density = 25.470830 Si / 1000 Ang^3
#
#
#
# Elastic Constant Matrix: (Units=GPa)
#
#
# Indices 1 2 3 4 5 6 
#
# 1 68.0650 29.4220 39.0336 -7.9704 10.3723 -18.5988
# 2 29.4220 152.8595 52.6430 -11.3241 4.8071 -5.0285
# 3 39.0336 52.6430 133.9097 -13.3627 19.0182 -3.0354
# 4 -7.9704 -11.3241 -13.3627 32.3259 -11.6720 5.6207
# 5 10.3723 4.8071 19.0182 -11.6720 44.5571 -18.0722
# 6 -18.5988 -5.0285 -3.0354 5.6207 -18.0722 42.0606
#
#
#
# Elastic Compliance Matrix: (Units=1/GPa)
#
#
# Indices 1 2 3 4 5 6 
#
# 1 0.020929 -0.001868 -0.005259 0.001330 0.001647 0.009182
# 2 -0.001868 0.007871 -0.002551 0.001634 0.001194 0.000225
# 3 -0.005259 -0.002551 0.010656 0.001348 -0.004268 -0.003875
# 4 0.001330 0.001634 0.001348 0.035365 0.008045 -0.000388
# 5 0.001647 0.001194 -0.004268 0.008045 0.031066 0.012836
# 6 0.009182 0.000225 -0.003875 -0.000388 0.012836 0.033150
#
#
# Mechanical properties :
#
#
# Convention : Reuss Voigt Hill
#
# Bulk Modulus (GPa) = 49.75319 66.33682 58.04501
# Shear Modulus (GPa) = 30.28565 39.37111 34.82838
#
# Velocity S-wave (km/s) = 3.45198 3.93585 3.70183
# Velocity P-wave (km/s) = 5.95517 6.83778 6.41168
#
# Compressibility (1/GPa) = 0.02009921
#
# Stress axis : x y z
#
# Youngs Moduli (GPa) = 47.78016 127.04759 93.84053
#
# Poissons Ratio (x) = 0.23738 0.49353
# Poissons Ratio (y) = 0.08927 0.23940
# Poissons Ratio (z) = 0.25129 0.32411
#
# Static dielectric constant tensor:
#      x y z
#    x 2.254030 -0.208140 -0.049670 
#    y -0.208140 2.223580 0.097360 
#    z -0.049670 0.097360 2.023970 
# 
# From -- ./inp_files/418870.got.cif
#   From: 2010.05.17/outbox.cif.g08.bks.cpg/sg2_210_cif.got.tgz:418870.got - 2010.06.03 11:33:40.
