data_PCOD9035507
_publ_section_title
;
Structure prediction by ZEFSAII (Michael W. Deem and Ramdas Pophale) SiO2 
 PCOD9035507
Probable space group: P -1
;
_chemical_formula_sum "Si O2"
_cell_formula_units_Z 13
_cell_length_a 21.566337
_cell_length_b 10.453914
_cell_length_c 7.146417
_cell_angle_alpha 56.074003
_cell_angle_beta 42.298820
_cell_angle_gamma 31.480419
_cell_volume 554.004619
_symmetry_space_group_name_H-M "P -1"
_symmetry_group_IT_number 2
_symmetry_cell_setting 'triclinic'
loop_
_space_group_symop_operation_xyz
x,y,z
-x,-y,-z
loop_
_atom_site_type_symbol
_atom_site_label
_atom_site_fract_x
_atom_site_fract_y
_atom_site_fract_z
Si Si1 0.041692 0.441704 0.673090
Si Si2 0.272475 0.376048 0.328266
Si Si3 0.479832 0.558233 0.779686
Si Si4 0.000000 0.000000 0.000000
Si Si5 0.745086 0.127800 0.280892
Si Si6 0.449912 0.202013 0.721964
Si Si7 0.200285 0.463574 0.811974
O O1 0.116526 0.505741 0.503686
O O2 0.000000 0.500000 0.500000
O O3 0.164924 0.150072 0.681956
O O4 0.891834 0.571665 0.997364
O O5 0.241627 0.492198 0.501998
O O6 0.395822 0.082586 0.339154
O O7 0.354638 0.357749 0.995253
O O8 0.600969 0.304128 0.594580
O O9 0.318356 0.752777 0.882053
O O10 0.520425 0.682085 0.549278
O O11 0.500000 0.500000 0.000000
O O12 0.146900 0.884458 0.867859
O O13 0.099370 0.715487 0.946992
O O14 0.345283 0.234154 0.798427
#
# Coordination Sequence:
#
# PCOD9035507 Si02
#       7
#     2   2   2   1   2   2   2
#     4  11  22  43  69 102 145 179 226 290 354 418
#     4  11  24  43  71 102 137 190 223 289 352 414
#     4  11  24  45  71  99 137 188 241 288 351 414
#     4  10  22  46  66  98 140 178 228 294 342 418
#     4  10  23  45  68  96 144 179 231 296 345 420
#     4  11  23  45  67 102 142 173 239 290 342 413
#     4  11  23  42  70  97 139 179 231 278 350 420
#
# _framework density 23.465506999999999
#
# number of rings (size 3 to 8) (size 9 to 14) (size 15 to 20)
#    0.000    1.231    4.615    0.923    0.000    3.692 
#    5.538    1.538    0.000    0.000    0.000    0.000 
#    0.000    0.000    0.000    0.000    0.000    0.000 
#
# Total GULP energy -72452.313935 kJ/mol
# GULP energy per Si atom -5573.254918 kJ/mol
# Density = 2.341210 g / cm^3
# Si number density = 23.465507 Si / 1000 Ang^3
#
#
#
# Elastic Constant Matrix: (Units=GPa)
#
#
# Indices 1 2 3 4 5 6 
#
# 1 115.1436 31.1732 38.5545 -1.2279 -14.4251 -42.3022
# 2 31.1732 72.5728 35.4247 -10.2057 -0.7658 -30.1011
# 3 38.5545 35.4247 110.5426 -27.1130 10.7994 -21.8144
# 4 -1.2279 -10.2057 -27.1130 31.0487 -13.8081 -2.4361
# 5 -14.4251 -0.7658 10.7994 -13.8081 39.6821 -3.4483
# 6 -42.3022 -30.1011 -21.8144 -2.4361 -3.4483 47.0195
#
#
#
# Elastic Compliance Matrix: (Units=1/GPa)
#
#
# Indices 1 2 3 4 5 6 
#
# 1 0.015910 0.001332 -0.003122 0.003560 0.009164 0.014575
# 2 0.001332 0.022114 -0.003171 0.008364 0.005967 0.014756
# 3 -0.003122 -0.003171 0.014467 0.011196 -0.001031 0.002378
# 4 0.003560 0.008364 0.011196 0.054743 0.019020 0.017983
# 5 0.009164 0.005967 -0.001031 0.019020 0.036873 0.015276
# 6 0.014575 0.014756 0.002378 0.017983 0.015276 0.046982
#
#
# Mechanical properties :
#
#
# Convention : Reuss Voigt Hill
#
# Bulk Modulus (GPa) = 23.49055 56.50708 39.99882
# Shear Modulus (GPa) = 23.23403 36.42386 29.82895
#
# Velocity S-wave (km/s) = 3.15006 3.94411 3.56923
# Velocity P-wave (km/s) = 4.82316 6.69884 5.83684
#
# Compressibility (1/GPa) = 0.04257030
#
# Stress axis : x y z
#
# Youngs Moduli (GPa) = 62.85288 45.21993 69.12168
#
# Poissons Ratio (x) = -0.06025 0.21579
# Poissons Ratio (y) = -0.08375 0.21920
# Poissons Ratio (z) = 0.19622 0.14340
#
# Static dielectric constant tensor:
#      x y z
#    x 1.940750 -0.010540 -0.019230 
#    y -0.010540 1.860790 0.002290 
#    z -0.019230 0.002290 1.934550 
# 
# From -- ./inp_files/118060.got.cif
#   From: 2010.05.17/outbox.cif.g08.bks.cpg/sg2_60_cif.got.tgz:118060.got - 2010.06.03 11:33:40.
