data_PCOD9035445
_publ_section_title
;
Structure prediction by ZEFSAII (Michael W. Deem and Ramdas Pophale) SiO2 
 PCOD9035445
Probable space group: P -1
;
_chemical_formula_sum "Si O2"
_cell_formula_units_Z 16
_cell_length_a 19.424772
_cell_length_b 16.574595
_cell_length_c 11.980617
_cell_angle_alpha 33.144286
_cell_angle_beta 29.045984
_cell_angle_gamma 20.615325
_cell_volume 655.270940
_symmetry_space_group_name_H-M "P -1"
_symmetry_group_IT_number 2
_symmetry_cell_setting 'triclinic'
loop_
_space_group_symop_operation_xyz
x,y,z
-x,-y,-z
loop_
_atom_site_type_symbol
_atom_site_label
_atom_site_fract_x
_atom_site_fract_y
_atom_site_fract_z
Si Si1 0.504018 0.843682 0.739270
Si Si2 0.764586 0.102218 0.115497
Si Si3 0.875375 0.955099 0.373329
Si Si4 0.290175 0.126725 0.936112
Si Si5 0.450071 0.575750 0.610463
Si Si6 0.147842 0.564958 0.139107
Si Si7 0.768719 0.709217 0.853132
Si Si8 0.185501 0.506444 0.733551
O O1 0.427882 0.777655 0.838116
O O2 0.341285 0.001520 0.893279
O O3 0.500000 0.000000 0.500000
O O4 0.750668 0.617272 0.697523
O O5 0.732329 0.105655 0.289216
O O6 0.944498 0.829418 0.152099
O O7 0.887921 0.158372 0.853028
O O8 0.872983 0.786777 0.601461
O O9 0.745682 0.147355 0.429175
O O10 0.242395 0.342913 0.744768
O O11 0.516162 0.925471 0.917688
O O12 0.070985 0.246224 0.172383
O O13 0.500000 0.500000 0.500000
O O14 0.658965 0.477501 0.492450
O O15 0.351374 0.511784 0.883740
O O16 0.107314 0.500858 0.162105
O O17 0.765077 0.635010 0.063625
#
# Coordination Sequence:
#
# PCOD9035445 Si02
#       8
#     2   2   2   2   2   2   2   2
#     4  11  24  41  67  93 129 165 209 263 308 372
#     4  10  22  46  62  93 131 163 209 259 315 374
#     4  10  23  39  67  92 126 166 207 262 312 373
#     4  10  23  38  58  97 121 161 215 252 308 374
#     4  11  22  41  66  93 128 169 204 264 321 368
#     4  10  23  41  67  96 123 168 212 254 318 375
#     4  11  20  40  64  93 124 164 210 257 315 371
#     4  11  22  39  64  88 130 164 208 263 310 373
#
# _framework density 24.417379
#
# number of rings (size 3 to 8) (size 9 to 14) (size 15 to 20)
#    0.000    1.500    2.500    2.625    1.750    3.000 
#    4.500    8.125    0.000    0.000    0.000    0.000 
#    0.000    0.000    0.000    0.000    0.000    0.000 
#
# Total GULP energy -89608.204679 kJ/mol
# GULP energy per Si atom -5600.512792 kJ/mol
# Density = 2.436180 g / cm^3
# Si number density = 24.417379 Si / 1000 Ang^3
#
#
#
# Elastic Constant Matrix: (Units=GPa)
#
#
# Indices 1 2 3 4 5 6 
#
# 1 99.6149 3.1864 12.9776 -0.3378 -2.4849 18.4158
# 2 3.1864 82.0264 11.8514 0.8833 7.5272 11.6379
# 3 12.9776 11.8514 86.5589 -9.4196 -16.7940 8.2346
# 4 -0.3378 0.8833 -9.4196 30.9550 1.4501 2.2061
# 5 -2.4849 7.5272 -16.7940 1.4501 37.4819 -4.7646
# 6 18.4158 11.6379 8.2346 2.2061 -4.7646 42.6988
#
#
#
# Elastic Compliance Matrix: (Units=1/GPa)
#
#
# Indices 1 2 3 4 5 6 
#
# 1 0.011059 0.000491 -0.001386 0.000047 -0.000587 -0.004704
# 2 0.000491 0.013466 -0.002443 -0.000650 -0.004231 -0.003850
# 3 -0.001386 -0.002443 0.013850 0.004037 0.006332 -0.000909
# 4 0.000047 -0.000650 0.004037 0.033702 0.000343 -0.002325
# 5 -0.000587 -0.004231 0.006332 0.000343 0.030772 0.003601
# 6 -0.004704 -0.003850 -0.000909 -0.002325 0.003601 0.027195
#
#
# Mechanical properties :
#
#
# Convention : Reuss Voigt Hill
#
# Bulk Modulus (GPa) = 31.54642 36.02566 33.78604
# Shear Modulus (GPa) = 33.94759 38.23946 36.09353
#
# Velocity S-wave (km/s) = 3.73272 3.96166 3.84889
# Velocity P-wave (km/s) = 5.61474 5.97599 5.79818
#
# Compressibility (1/GPa) = 0.03169931
#
# Stress axis : x y z
#
# Youngs Moduli (GPa) = 90.42638 74.25859 72.20452
#
# Poissons Ratio (x) = -0.03649 0.10011
# Poissons Ratio (y) = -0.04444 0.17638
# Poissons Ratio (z) = 0.12537 0.18139
#
# Static dielectric constant tensor:
#      x y z
#    x 2.009890 -0.001550 -0.000300 
#    y -0.001550 1.966160 0.012100 
#    z -0.000300 0.012100 1.931100 
# 
# From -- ./inp_files/307996.got.cif
#   From: 2010.05.17/outbox.cif.g08.bks.cpg/sg2_154_cif.got.tgz:307996.got - 2010.06.03 11:33:40.
