data_PCOD9035723
_publ_section_title
;
Structure prediction by ZEFSAII (Michael W. Deem and Ramdas Pophale) SiO2 
 PCOD9035723
Probable space group: P -1
;
_chemical_formula_sum "Si O2"
_cell_formula_units_Z 12
_cell_length_a 7.591648
_cell_length_b 10.144000
_cell_length_c 9.898158
_cell_angle_alpha 141.214775
_cell_angle_beta 107.146603
_cell_angle_gamma 92.957333
_cell_volume 402.689766
_symmetry_space_group_name_H-M "P -1"
_symmetry_group_IT_number 2
_symmetry_cell_setting 'triclinic'
loop_
_space_group_symop_operation_xyz
x,y,z
-x,-y,-z
loop_
_atom_site_type_symbol
_atom_site_label
_atom_site_fract_x
_atom_site_fract_y
_atom_site_fract_z
Si Si1 0.675171 0.898777 0.364099
Si Si2 0.799616 0.908053 0.689597
Si Si3 0.848673 0.369270 0.596489
Si Si4 0.775029 0.086789 0.114132
Si Si5 0.802882 0.492170 0.033574
Si Si6 0.440114 0.419314 0.269289
O O1 0.731289 0.120885 0.454542
O O2 0.799489 0.002523 0.615721
O O3 0.754030 0.714918 0.178347
O O4 0.574128 0.260992 0.795407
O O5 0.620928 0.636421 0.408095
O O6 0.008626 0.909633 0.789414
O O7 0.745629 0.031386 0.903572
O O8 0.796929 0.314135 0.382584
O O9 0.767055 0.550748 0.772146
O O10 0.090263 0.470847 0.765206
O O11 0.602595 0.849130 0.961183
O O12 0.000000 0.500000 0.000000
O O13 0.500000 0.500000 0.500000
#
# Coordination Sequence:
#
# PCOD9035723 Si02
#       6
#     2   2   2   2   2   2
#     4  11  26  46  76 114 154 197 255 310 377 459
#     4  10  22  46  71 103 145 193 247 304 374 446
#     4  12  26  45  77 111 146 198 253 313 383 444
#     4  10  24  45  75 101 146 196 246 310 372 452
#     4  11  26  45  74 113 157 201 245 312 383 450
#     4  10  25  46  71 103 149 193 248 307 379 450
#
# _framework density 29.799616
#
# number of rings (size 3 to 8) (size 9 to 14) (size 15 to 20)
#    0.000    1.333    1.667    1.500    7.000    6.667 
#    0.000    7.500    7.333    0.000    0.000    0.000 
#    0.000    0.000    0.000    0.000    0.000    0.000 
#
# Total GULP energy -67309.297415 kJ/mol
# GULP energy per Si atom -5609.108118 kJ/mol
# Density = 2.973179 g / cm^3
# Si number density = 29.799616 Si / 1000 Ang^3
#
#
#
# Elastic Constant Matrix: (Units=GPa)
#
#
# Indices 1 2 3 4 5 6 
#
# 1 175.4577 27.5262 57.1960 -7.5170 -5.5830 -13.0837
# 2 27.5262 103.5604 51.6308 2.5703 -3.4966 6.7280
# 3 57.1960 51.6308 173.7808 -26.5077 -7.1408 16.0614
# 4 -7.5170 2.5703 -26.5077 73.2430 6.7606 8.9868
# 5 -5.5830 -3.4966 -7.1408 6.7606 69.4801 -0.2828
# 6 -13.0837 6.7280 16.0614 8.9868 -0.2828 52.0705
#
#
#
# Elastic Compliance Matrix: (Units=1/GPa)
#
#
# Indices 1 2 3 4 5 6 
#
# 1 0.006751 -0.000805 -0.002277 -0.000449 0.000322 0.002582
# 2 -0.000805 0.011647 -0.003410 -0.001713 0.000336 -0.000358
# 3 -0.002277 -0.003410 0.008327 0.003285 0.000168 -0.003266
# 4 -0.000449 -0.001713 0.003285 0.015414 -0.001299 -0.003572
# 5 0.000322 0.000336 0.000168 -0.001299 0.014580 0.000289
# 6 0.002582 -0.000358 -0.003266 -0.003572 0.000289 0.021525
#
#
# Mechanical properties :
#
#
# Convention : Reuss Voigt Hill
#
# Bulk Modulus (GPa) = 72.77020 80.61164 76.69092
# Shear Modulus (GPa) = 52.18713 60.05512 56.12112
#
# Velocity S-wave (km/s) = 4.18936 4.49408 4.34439
# Velocity P-wave (km/s) = 6.91909 7.35112 7.13837
#
# Compressibility (1/GPa) = 0.01374189
#
# Stress axis : x y z
#
# Youngs Moduli (GPa) = 148.11671 85.85694 120.09721
#
# Poissons Ratio (x) = 0.06912 0.27344
# Poissons Ratio (y) = 0.11925 0.40950
# Poissons Ratio (z) = 0.33724 0.29275
#
# Static dielectric constant tensor:
#      x y z
#    x 2.370510 0.060960 -0.017650 
#    y 0.060960 2.360070 0.008150 
#    z -0.017650 0.008150 2.367180 
# 
# From -- ./inp_files/391775.got.cif
#   From: 2010.05.17/outbox.cif.g08.bks.cpg/sg2_196_cif.got.tgz:391775.got - 2010.06.03 11:33:40.
