data_PCOD9035650
_publ_section_title
;
Structure prediction by ZEFSAII (Michael W. Deem and Ramdas Pophale) SiO2 
 PCOD9035650
Probable space group: P -1
;
_chemical_formula_sum "Si O2"
_cell_formula_units_Z 16
_cell_length_a 17.839671
_cell_length_b 17.203691
_cell_length_c 5.182137
_cell_angle_alpha 118.811871
_cell_angle_beta 55.096744
_cell_angle_gamma 150.111854
_cell_volume 649.578929
_symmetry_space_group_name_H-M "P -1"
_symmetry_group_IT_number 2
_symmetry_cell_setting 'triclinic'
loop_
_space_group_symop_operation_xyz
x,y,z
-x,-y,-z
loop_
_atom_site_type_symbol
_atom_site_label
_atom_site_fract_x
_atom_site_fract_y
_atom_site_fract_z
Si Si1 0.014291 0.735664 0.325304
Si Si2 0.275159 0.943637 0.790450
Si Si3 0.174932 0.288177 0.041777
Si Si4 0.017419 0.610983 0.531477
Si Si5 0.479907 0.088509 0.127214
Si Si6 0.831336 0.825728 0.630882
Si Si7 0.715276 0.426903 0.108734
Si Si8 0.493990 0.596836 0.771793
O O1 0.975193 0.769916 0.692614
O O2 0.068367 0.685163 0.265621
O O3 0.846759 0.578855 0.271018
O O4 0.137968 0.884810 0.132417
O O5 0.160184 0.768138 0.670890
O O6 0.360670 0.033054 0.494426
O O7 0.410581 0.039397 0.894768
O O8 0.166495 0.200988 0.119051
O O9 0.180217 0.264660 0.696323
O O10 0.346017 0.471062 0.060054
O O11 0.000000 0.500000 0.500000
O O12 0.834145 0.500685 0.752335
O O13 0.640903 0.276160 0.118431
O O14 0.500000 0.000000 0.000000
O O15 0.671113 0.755360 0.784192
O O16 0.000000 0.000000 0.500000
O O17 0.568785 0.375825 0.247701
O O18 0.500000 0.500000 0.500000
#
# Coordination Sequence:
#
# PCOD9035650 Si02
#       8
#     2   2   2   2   2   2   2   2
#     4  11  24  45  73 104 142 190 254 300 369 437
#     4  11  26  46  69 100 143 195 236 300 378 436
#     4  11  23  45  73 101 141 189 239 300 363 442
#     4  11  24  45  74 105 142 190 253 313 362 439
#     4  12  27  47  70 103 149 193 243 306 379 448
#     4  11  25  44  72 107 146 188 237 299 369 440
#     4  11  26  43  73 109 142 192 251 308 367 446
#     4  10  22  46  70 102 140 187 235 299 364 430
#
# _framework density 24.631340000000002
#
# number of rings (size 3 to 8) (size 9 to 14) (size 15 to 20)
#    0.000    1.000    2.500    3.375    5.250    3.000 
#    0.000    3.750    0.000    0.000    0.000    0.000 
#    0.000    0.000    0.000    0.000    0.000    0.000 
#
# Total GULP energy -89259.162089 kJ/mol
# GULP energy per Si atom -5578.697631 kJ/mol
# Density = 2.457528 g / cm^3
# Si number density = 24.631340 Si / 1000 Ang^3
#
#
#
# Elastic Constant Matrix: (Units=GPa)
#
#
# Indices 1 2 3 4 5 6 
#
# 1 108.3850 5.4666 7.5406 11.5167 4.7369 5.9223
# 2 5.4666 93.1060 13.8722 -21.7193 3.5650 13.3548
# 3 7.5406 13.8722 76.2510 -24.1453 14.0691 -7.1829
# 4 11.5167 -21.7193 -24.1453 26.8623 0.4860 0.0433
# 5 4.7369 3.5650 14.0691 0.4860 33.8906 -3.3867
# 6 5.9223 13.3548 -7.1829 0.0433 -3.3867 21.6592
#
#
#
# Elastic Compliance Matrix: (Units=1/GPa)
#
#
# Indices 1 2 3 4 5 6 
#
# 1 0.010837 -0.001895 -0.004234 -0.009984 0.000272 -0.003136
# 2 -0.001895 0.015510 0.001928 0.015160 -0.003279 -0.008949
# 3 -0.004234 0.001928 0.023107 0.024296 -0.008934 0.006187
# 4 -0.009984 0.015160 0.024296 0.075810 -0.011422 -0.000497
# 5 0.000272 -0.003279 -0.008934 -0.011422 0.034120 0.004342
# 6 -0.003136 -0.008949 0.006187 -0.000497 0.004342 0.055277
#
#
# Mechanical properties :
#
#
# Convention : Reuss Voigt Hill
#
# Bulk Modulus (GPa) = 24.35942 36.83343 30.59643
# Shear Modulus (GPa) = 21.11961 33.20657 27.16309
#
# Velocity S-wave (km/s) = 2.93136 3.67569 3.32442
# Velocity P-wave (km/s) = 4.62258 5.74462 5.21387
#
# Compressibility (1/GPa) = 0.04105187
#
# Stress axis : x y z
#
# Youngs Moduli (GPa) = 92.27750 64.47503 43.27676
#
# Poissons Ratio (x) = 0.12218 0.18324
# Poissons Ratio (y) = 0.17486 -0.08344
# Poissons Ratio (z) = 0.39071 -0.12431
#
# Static dielectric constant tensor:
#      x y z
#    x 2.072800 -0.009220 -0.026890 
#    y -0.009220 1.994330 0.005250 
#    z -0.026890 0.005250 2.144710 
# 
# From -- ./inp_files/111490.got.cif
#   From: 2010.05.17/outbox.cif.g08.bks.cpg/sg2_56_cif.got.tgz:111490.got - 2010.06.03 11:33:40.
