data_PCOD9035750
_publ_section_title
;
Structure prediction by ZEFSAII (Michael W. Deem and Ramdas Pophale) SiO2 
 PCOD9035750
Probable space group: P -1
;
_chemical_formula_sum "Si O2"
_cell_formula_units_Z 14
_cell_length_a 6.839608
_cell_length_b 16.207288
_cell_length_c 9.632712
_cell_angle_alpha 119.699427
_cell_angle_beta 135.066436
_cell_angle_gamma 57.440476
_cell_volume 623.780574
_symmetry_space_group_name_H-M "P -1"
_symmetry_group_IT_number 2
_symmetry_cell_setting 'triclinic'
loop_
_space_group_symop_operation_xyz
x,y,z
-x,-y,-z
loop_
_atom_site_type_symbol
_atom_site_label
_atom_site_fract_x
_atom_site_fract_y
_atom_site_fract_z
Si Si1 0.634629 0.096976 0.475771
Si Si2 0.817048 0.593545 0.817706
Si Si3 0.425858 0.798399 0.769958
Si Si4 0.830608 0.611851 0.548120
Si Si5 0.165604 0.622699 0.284591
Si Si6 0.687065 0.934443 0.165480
Si Si7 0.859740 0.778388 0.488560
O O1 0.553689 0.166202 0.350347
O O2 0.447200 0.146960 0.555634
O O3 0.970108 0.079905 0.669503
O O4 0.586839 0.994755 0.308754
O O5 0.507704 0.679178 0.734216
O O6 0.950316 0.623881 0.770717
O O7 0.800638 0.481776 0.705178
O O8 0.999048 0.606674 0.050384
O O9 0.089676 0.839214 0.674987
O O10 0.623388 0.833277 0.008262
O O11 0.485101 0.625792 0.401815
O O12 0.888940 0.688815 0.535701
O O13 0.000000 0.500000 0.500000
O O14 0.963588 0.719644 0.346493
O O15 0.500000 0.000000 0.000000
#
# Coordination Sequence:
#
# PCOD9035750 Si02
#       7
#     2   2   2   2   2   2   2
#     4  10  22  46  71  97 131 172 221 274 339 400
#     4  11  23  43  65  93 138 181 220 272 328 382
#     4  11  23  41  68 100 134 176 220 276 330 393
#     4  12  23  43  67  92 136 183 225 272 327 388
#     4  11  25  44  60  99 142 177 223 281 322 386
#     4   9  22  46  70  96 133 169 214 281 339 400
#     4  12  23  41  68 100 133 177 225 274 330 393
#
# _framework density 22.44379
#
# number of rings (size 3 to 8) (size 9 to 14) (size 15 to 20)
#    0.000    1.143    4.286    1.286    4.000    1.143 
#    7.714    6.429    0.000    0.000    0.000    0.000 
#    0.000    0.000    0.000    0.000    0.000    0.000 
#
# Total GULP energy -78049.718733 kJ/mol
# GULP energy per Si atom -5574.979909 kJ/mol
# Density = 2.239271 g / cm^3
# Si number density = 22.443790 Si / 1000 Ang^3
#
#
#
# Elastic Constant Matrix: (Units=GPa)
#
#
# Indices 1 2 3 4 5 6 
#
# 1 117.4183 29.3073 49.8306 3.2519 -8.9383 -20.3541
# 2 29.3073 73.0087 33.0737 2.7756 -4.2255 -26.6617
# 3 49.8306 33.0737 145.8477 2.2266 -5.5364 -15.7265
# 4 3.2519 2.7756 2.2266 37.5746 4.4692 -9.4407
# 5 -8.9383 -4.2255 -5.5364 4.4692 21.6126 2.6057
# 6 -20.3541 -26.6617 -15.7265 -9.4407 2.6057 41.8000
#
#
#
# Elastic Compliance Matrix: (Units=1/GPa)
#
#
# Indices 1 2 3 4 5 6 
#
# 1 0.010940 -0.001874 -0.002889 -0.000314 0.003148 0.002778
# 2 -0.001874 0.019605 -0.002624 0.001518 0.000757 0.010900
# 3 -0.002889 -0.002624 0.008464 -0.000101 0.000475 0.000051
# 4 -0.000314 0.001518 -0.000101 0.029318 -0.006865 0.007827
# 5 0.003148 0.000757 0.000475 -0.006865 0.049555 -0.002445
# 6 0.002778 0.010900 0.000051 0.007827 -0.002445 0.034168
#
#
# Mechanical properties :
#
#
# Convention : Reuss Voigt Hill
#
# Bulk Modulus (GPa) = 41.26541 62.29979 51.78260
# Shear Modulus (GPa) = 28.58707 35.13497 31.86102
#
# Velocity S-wave (km/s) = 3.57279 3.96089 3.77183
# Velocity P-wave (km/s) = 5.95364 6.98116 6.48777
#
# Compressibility (1/GPa) = 0.02423337
#
# Stress axis : x y z
#
# Youngs Moduli (GPa) = 91.40524 51.00698 118.15068
#
# Poissons Ratio (x) = 0.09561 0.34134
# Poissons Ratio (y) = 0.17133 0.31008
# Poissons Ratio (z) = 0.26407 0.13387
#
# Static dielectric constant tensor:
#      x y z
#    x 1.828250 -0.009170 -0.032490 
#    y -0.009170 1.993600 0.036910 
#    z -0.032490 0.036910 1.858130 
# 
# From -- ./inp_files/137427.got.cif
#   From: 2010.05.17/outbox.cif.g08.bks.cpg/sg2_69_cif.got.tgz:137427.got - 2010.06.03 11:33:40.
