data_PCOD9035164
_publ_section_title
;
Structure prediction by ZEFSAII (Michael W. Deem and Ramdas Pophale) SiO2 
 PCOD9035164
Probable space group: P -1
;
_chemical_formula_sum "Si O2"
_cell_formula_units_Z 16
_cell_length_a 6.271586
_cell_length_b 30.767074
_cell_length_c 12.759461
_cell_angle_alpha 24.828228
_cell_angle_beta 136.080736
_cell_angle_gamma 137.905087
_cell_volume 683.351936
_symmetry_space_group_name_H-M "P -1"
_symmetry_group_IT_number 2
_symmetry_cell_setting 'triclinic'
loop_
_space_group_symop_operation_xyz
x,y,z
-x,-y,-z
loop_
_atom_site_type_symbol
_atom_site_label
_atom_site_fract_x
_atom_site_fract_y
_atom_site_fract_z
Si Si1 0.221218 0.432485 0.774018
Si Si2 0.651145 0.966858 0.016750
Si Si3 0.465399 0.592702 0.672200
Si Si4 0.201030 0.640467 0.869464
Si Si5 0.328267 0.746733 0.107688
Si Si6 0.265805 0.783969 0.778887
Si Si7 0.649740 0.012999 0.341301
Si Si8 0.524623 0.734442 0.573867
O O1 0.239119 0.477314 0.802392
O O2 0.000000 0.500000 0.500000
O O3 0.045932 0.319359 0.900742
O O4 0.597362 0.445401 0.862658
O O5 0.583186 0.840734 0.292022
O O6 0.434050 0.998182 0.785290
O O7 0.500000 0.000000 0.000000
O O8 0.000000 0.000000 0.000000
O O9 0.467472 0.679703 0.388287
O O10 0.375039 0.639244 0.646010
O O11 0.821917 0.589334 0.832596
O O12 0.309805 0.721816 0.826818
O O13 0.299497 0.713558 0.640003
O O14 0.432164 0.749718 0.015105
O O15 0.371430 0.869661 0.887674
O O16 0.875695 0.749006 0.718613
O O17 0.403411 0.913435 0.533116
O O18 0.000000 0.000000 0.500000
#
# Coordination Sequence:
#
# PCOD9035164 Si02
#       8
#     2   2   2   2   2   2   2   2
#     4  10  22  45  71  96 140 178 227 293 361 432
#     4  12  27  46  74 106 150 198 251 304 370 441
#     4  10  24  44  70 102 134 180 239 296 356 425
#     4  11  23  45  71 102 132 181 237 293 360 429
#     4  11  23  46  66  98 145 182 232 292 356 433
#     4  11  24  43  70  98 143 182 236 287 366 433
#     4  12  26  42  69 107 142 191 238 293 364 438
#     4  11  23  44  71  98 141 185 235 301 354 433
#
# _framework density 23.413996999999998
#
# number of rings (size 3 to 8) (size 9 to 14) (size 15 to 20)
#    0.000    1.000    3.750    2.250    3.500    2.500 
#    6.750    1.250    0.000    0.000    0.000    0.000 
#    0.000    0.000    0.000    0.000    0.000    0.000 
#
# Total GULP energy -89076.838285 kJ/mol
# GULP energy per Si atom -5567.302393 kJ/mol
# Density = 2.336071 g / cm^3
# Si number density = 23.413997 Si / 1000 Ang^3
#
#
#
# Elastic Constant Matrix: (Units=GPa)
#
#
# Indices 1 2 3 4 5 6 
#
# 1 76.5471 42.2960 23.6991 6.6814 -13.5944 -20.2497
# 2 42.2960 133.6860 45.4941 6.2571 -4.3648 -16.4746
# 3 23.6991 45.4941 127.9169 19.6524 -17.8784 8.2546
# 4 6.6814 6.2571 19.6524 56.4352 -1.3510 -9.1148
# 5 -13.5944 -4.3648 -17.8784 -1.3510 36.8459 5.3438
# 6 -20.2497 -16.4746 8.2546 -9.1148 5.3438 29.5453
#
#
#
# Elastic Compliance Matrix: (Units=1/GPa)
#
#
# Indices 1 2 3 4 5 6 
#
# 1 0.019690 -0.003795 -0.002672 0.001009 0.003853 0.011740
# 2 -0.003795 0.010548 -0.004017 0.001478 -0.002824 0.005370
# 3 -0.002672 -0.004017 0.011904 -0.004849 0.005572 -0.009901
# 4 0.001009 0.001478 -0.004849 0.020629 -0.002453 0.009678
# 5 0.003853 -0.002824 0.005572 -0.002453 0.031858 -0.007010
# 6 0.011740 0.005370 -0.009901 0.009678 -0.007010 0.051907
#
#
# Mechanical properties :
#
#
# Convention : Reuss Voigt Hill
#
# Bulk Modulus (GPa) = 47.22724 62.34761 54.78742
# Shear Modulus (GPa) = 28.64317 39.67598 34.15957
#
# Velocity S-wave (km/s) = 3.50142 4.12095 3.82375
# Velocity P-wave (km/s) = 6.04656 7.02347 6.55324
#
# Compressibility (1/GPa) = 0.02117422
#
# Stress axis : x y z
#
# Youngs Moduli (GPa) = 50.78743 94.80374 84.00500
#
# Poissons Ratio (x) = 0.35976 0.22449
# Poissons Ratio (y) = 0.19273 0.33743
# Poissons Ratio (z) = 0.13572 0.38080
#
# Static dielectric constant tensor:
#      x y z
#    x 2.124670 0.010170 -0.139310 
#    y 0.010170 1.889110 -0.063660 
#    z -0.139310 -0.063660 2.038210 
# 
# From -- ./inp_files/333981.got.cif
#   From: 2010.05.17/outbox.cif.g08.bks.cpg/sg2_167_cif.got.tgz:333981.got - 2010.06.03 11:33:40.
