data_PCOD9035772
_publ_section_title
;
Structure prediction by ZEFSAII (Michael W. Deem and Ramdas Pophale) SiO2 
 PCOD9035772
Probable space group: P -1
;
_chemical_formula_sum "Si O2"
_cell_formula_units_Z 13
_cell_length_a 7.970040
_cell_length_b 7.129535
_cell_length_c 12.342283
_cell_angle_alpha 105.819887
_cell_angle_beta 124.206170
_cell_angle_gamma 72.418029
_cell_volume 548.191988
_symmetry_space_group_name_H-M "P -1"
_symmetry_group_IT_number 2
_symmetry_cell_setting 'triclinic'
loop_
_space_group_symop_operation_xyz
x,y,z
-x,-y,-z
loop_
_atom_site_type_symbol
_atom_site_label
_atom_site_fract_x
_atom_site_fract_y
_atom_site_fract_z
Si Si1 0.922095 0.873124 0.179781
Si Si2 0.982261 0.606402 0.348103
Si Si3 0.500000 0.000000 0.500000
Si Si4 0.029819 0.187350 0.401429
Si Si5 0.494584 0.377662 0.868979
Si Si6 0.730317 0.994426 0.810803
Si Si7 0.225589 0.364095 0.077663
O O1 0.046096 0.696984 0.273617
O O2 0.370796 0.841841 0.113236
O O3 0.061653 0.942996 0.148113
O O4 0.749015 0.781566 0.041193
O O5 0.034724 0.729591 0.490246
O O6 0.735235 0.632375 0.251779
O O7 0.054333 0.376271 0.365760
O O8 0.581140 0.010506 0.656216
O O9 0.744271 0.946657 0.539068
O O10 0.872256 0.061279 0.271135
O O11 0.605019 0.498106 0.840193
O O12 0.500000 0.500000 0.000000
O O13 0.767735 0.776382 0.839432
O O14 0.000000 0.500000 0.000000
#
# Coordination Sequence:
#
# PCOD9035772 Si02
#       7
#     2   2   1   2   2   2   2
#     4  11  24  42  76  98 139 186 237 292 356 414
#     4  11  24  47  69 107 145 185 240 285 369 416
#     4  10  22  46  72 102 140 180 240 286 352 418
#     4  10  24  44  72 102 145 188 235 298 345 434
#     4  12  26  44  70 103 147 185 233 296 359 432
#     4  11  26  46  70 105 141 188 240 300 350 427
#     4  12  27  45  71 104 140 186 239 293 359 424
#
# _framework density 23.714319
#
# number of rings (size 3 to 8) (size 9 to 14) (size 15 to 20)
#    0.000    0.923    4.615    0.923    6.462    1.846 
#   11.077    3.846    0.000    0.000    0.000    0.000 
#    0.000    0.000    0.000    0.000    0.000    0.000 
#
# Total GULP energy -72493.718709 kJ/mol
# GULP energy per Si atom -5576.439901 kJ/mol
# Density = 2.366034 g / cm^3
# Si number density = 23.714319 Si / 1000 Ang^3
#
#
#
# Elastic Constant Matrix: (Units=GPa)
#
#
# Indices 1 2 3 4 5 6 
#
# 1 60.5240 35.7623 4.5473 -3.6974 3.2549 9.7370
# 2 35.7623 112.4817 25.1083 3.5190 -0.4365 20.8827
# 3 4.5473 25.1083 87.5344 15.4241 -18.4023 -12.0682
# 4 -3.6974 3.5190 15.4241 26.9579 3.1341 -12.7215
# 5 3.2549 -0.4365 -18.4023 3.1341 40.4414 2.2889
# 6 9.7370 20.8827 -12.0682 -12.7215 2.2889 28.6564
#
#
#
# Elastic Compliance Matrix: (Units=1/GPa)
#
#
# Indices 1 2 3 4 5 6 
#
# 1 0.020892 -0.006573 -0.000446 0.003978 -0.002232 -0.000552
# 2 -0.006573 0.014657 -0.004588 -0.006406 -0.000156 -0.013211
# 3 -0.000446 -0.004588 0.016458 -0.006485 0.007585 0.006941
# 4 0.003978 -0.006406 -0.006485 0.055490 -0.009109 0.025947
# 5 -0.002232 -0.000156 0.007585 -0.009109 0.029193 -0.002309
# 6 -0.000552 -0.013211 0.006941 0.025947 -0.002309 0.059337
#
#
# Mechanical properties :
#
#
# Convention : Reuss Voigt Hill
#
# Bulk Modulus (GPa) = 34.73323 43.48620 39.10972
# Shear Modulus (GPa) = 21.84940 32.21931 27.03436
#
# Velocity S-wave (km/s) = 3.03868 3.68998 3.38005
# Velocity P-wave (km/s) = 5.19517 6.04416 5.63568
#
# Compressibility (1/GPa) = 0.02879087
#
# Stress axis : x y z
#
# Youngs Moduli (GPa) = 47.86559 68.22744 60.76244
#
# Poissons Ratio (x) = 0.44848 0.02711
# Poissons Ratio (y) = 0.31463 0.27879
# Poissons Ratio (z) = 0.02136 0.31304
#
# Static dielectric constant tensor:
#      x y z
#    x 1.895520 -0.009950 -0.046030 
#    y -0.009950 1.936670 0.027590 
#    z -0.046030 0.027590 1.899130 
# 
# From -- ./inp_files/487241.got.cif
#   From: 2010.05.17/outbox.cif.g08.bks.cpg/sg2_244_cif.got.tgz:487241.got - 2010.06.03 11:33:40.
