data_PCOD9035982
_publ_section_title
;
Structure prediction by ZEFSAII (Michael W. Deem and Ramdas Pophale) SiO2 
 PCOD9035982
Probable space group: P -1
;
_chemical_formula_sum "Si O2"
_cell_formula_units_Z 16
_cell_length_a 22.013602
_cell_length_b 11.792443
_cell_length_c 18.314987
_cell_angle_alpha 145.076692
_cell_angle_beta 161.391464
_cell_angle_gamma 26.404431
_cell_volume 660.511561
_symmetry_space_group_name_H-M "P -1"
_symmetry_group_IT_number 2
_symmetry_cell_setting 'triclinic'
loop_
_space_group_symop_operation_xyz
x,y,z
-x,-y,-z
loop_
_atom_site_type_symbol
_atom_site_label
_atom_site_fract_x
_atom_site_fract_y
_atom_site_fract_z
Si Si1 0.099444 0.808473 0.928137
Si Si2 0.967867 0.341705 0.090475
Si Si3 0.259953 0.560858 0.719942
Si Si4 0.935966 0.967229 0.673946
Si Si5 0.551769 0.958781 0.290927
Si Si6 0.337810 0.627105 0.676677
Si Si7 0.855070 0.741351 0.908013
Si Si8 0.208324 0.123035 0.852774
O O1 0.976704 0.727777 0.797858
O O2 0.096192 0.761082 0.813830
O O3 0.397057 0.621889 0.185887
O O4 0.946677 0.118651 0.928929
O O5 0.776782 0.657084 0.039213
O O6 0.135634 0.292395 0.186128
O O7 0.254739 0.346926 0.635847
O O8 0.297878 0.555359 0.673806
O O9 0.015518 0.835884 0.616693
O O10 0.500000 0.500000 0.000000
O O11 0.662873 0.080727 0.446091
O O12 0.009828 0.143048 0.859300
O O13 0.424721 0.076384 0.285937
O O14 0.340429 0.024594 0.029508
O O15 0.084369 0.741004 0.405925
O O16 0.335263 0.866800 0.812753
O O17 0.000000 0.500000 0.000000
#
# Coordination Sequence:
#
# PCOD9035982 Si02
#       8
#     2   2   2   2   2   2   2   2
#     4  10  22  47  66 101 137 181 235 285 344 428
#     4  10  23  44  67  98 140 176 235 286 346 416
#     4  12  20  43  74 100 137 181 234 284 345 424
#     4  11  24  42  74 105 134 179 235 286 341 420
#     4  12  24  44  70 104 140 181 230 291 351 413
#     4  11  24  44  73  96 140 189 230 290 352 414
#     4  11  22  45  66  97 140 180 229 282 348 411
#     4  11  24  45  62 105 137 179 232 286 356 409
#
# _framework density 24.223649000000002
#
# number of rings (size 3 to 8) (size 9 to 14) (size 15 to 20)
#    0.000    1.000    5.000    1.125    1.750    1.500 
#   13.500    0.000    0.000    0.000    0.000    0.000 
#    0.000    0.000    0.000    0.000    0.000    0.000 
#
# Total GULP energy -89221.945192 kJ/mol
# GULP energy per Si atom -5576.371575 kJ/mol
# Density = 2.416851 g / cm^3
# Si number density = 24.223649 Si / 1000 Ang^3
#
#
#
# Elastic Constant Matrix: (Units=GPa)
#
#
# Indices 1 2 3 4 5 6 
#
# 1 143.3787 44.7225 31.8924 -4.0070 21.8168 5.2273
# 2 44.7225 120.0096 6.6171 -8.5007 19.2602 10.5274
# 3 31.8924 6.6171 89.4785 -26.5106 15.9197 -8.8136
# 4 -4.0070 -8.5007 -26.5106 -39.7178 32.3914 -21.5860
# 5 21.8168 19.2602 15.9197 32.3914 18.4122 7.2849
# 6 5.2273 10.5274 -8.8136 -21.5860 7.2849 29.0196
#
#
#
# Elastic Compliance Matrix: (Units=1/GPa)
#
#
# Indices 1 2 3 4 5 6 
#
# 1 0.008951 -0.002555 -0.002723 -0.000834 -0.003628 -0.001222
# 2 -0.002555 0.009930 -0.000252 -0.001721 -0.002592 -0.003849
# 3 -0.002723 -0.000252 0.010380 -0.004473 0.002467 -0.000212
# 4 -0.000834 -0.001721 -0.004473 -0.003957 0.016667 -0.007711
# 5 -0.003628 -0.002592 0.002467 0.016667 0.026686 0.008042
# 6 -0.001222 -0.003849 -0.000212 -0.007711 0.008042 0.028257
#
#
# Mechanical properties :
#
#
# Convention : Reuss Voigt Hill
#
# Bulk Modulus (GPa) = 54.94070 57.70341 56.32205
# Shear Modulus (GPa) = 51.34844 19.51845 35.43345
#
# Velocity S-wave (km/s) = 4.60909 2.84167 3.82876
# Velocity P-wave (km/s) = 7.14526 5.88554 6.54578
#
# Compressibility (1/GPa) = 0.01820144
#
# Stress axis : x y z
#
# Youngs Moduli (GPa) = 111.72550 100.70265 96.33833
#
# Poissons Ratio (x) = 0.25728 0.26233
# Poissons Ratio (y) = 0.28545 0.02425
# Poissons Ratio (z) = 0.30423 0.02535
#
# Static dielectric constant tensor:
#      x y z
#    x 1.933410 -0.017640 -0.014940 
#    y -0.017640 1.958150 0.047110 
#    z -0.014940 0.047110 1.956780 
# 
# From -- ./inp_files/578001.got.cif
#   From: 2010.05.17/outbox.cif.g08.bks.cpg/sg2_290_cif.got.tgz:578001.got - 2010.06.03 11:33:40.
