data_PCOD9035108
_publ_section_title
;
Structure prediction by ZEFSAII (Michael W. Deem and Ramdas Pophale) SiO2 
 PCOD9035108
Probable space group: P -1
;
_chemical_formula_sum "Si O2"
_cell_formula_units_Z 12
_cell_length_a 4.952833
_cell_length_b 11.058287
_cell_length_c 14.020708
_cell_angle_alpha 42.725653
_cell_angle_beta 102.236301
_cell_angle_gamma 92.659265
_cell_volume 502.217669
_symmetry_space_group_name_H-M "P -1"
_symmetry_group_IT_number 2
_symmetry_cell_setting 'triclinic'
loop_
_space_group_symop_operation_xyz
x,y,z
-x,-y,-z
loop_
_atom_site_type_symbol
_atom_site_label
_atom_site_fract_x
_atom_site_fract_y
_atom_site_fract_z
Si Si1 0.420694 0.921642 0.671827
Si Si2 0.431301 0.123569 0.831697
Si Si3 0.126383 0.896610 0.288174
Si Si4 0.387877 0.524830 0.585686
Si Si5 0.759595 0.709561 0.646567
Si Si6 0.805262 0.401929 0.108663
O O1 0.555170 0.789056 0.673165
O O2 0.232414 0.805687 0.784223
O O3 0.683366 0.983847 0.708443
O O4 0.226425 0.103396 0.515527
O O5 0.706813 0.125134 0.787651
O O6 0.312496 0.334314 0.722895
O O7 0.195359 0.050544 0.794090
O O8 0.500000 0.000000 0.000000
O O9 0.153762 0.703141 0.456695
O O10 0.500000 0.500000 0.500000
O O11 0.616412 0.582555 0.640676
O O12 0.046033 0.603754 0.773352
O O13 0.500000 0.500000 0.000000
O O14 0.000000 0.500000 0.000000
#
# Coordination Sequence:
#
# PCOD9035108 Si02
#       6
#     2   2   2   2   2   2
#     4  10  23  44  70 101 138 175 235 279 345 408
#     4  11  23  42  65  98 133 176 224 274 334 397
#     4  10  23  42  69  94 130 178 221 281 330 394
#     4   9  21  45  69  98 132 176 230 279 330 399
#     4  10  22  45  71 103 135 184 226 289 336 410
#     4  12  25  44  64  99 143 180 221 274 343 413
#
# _framework density 23.894023000000001
#
# number of rings (size 3 to 8) (size 9 to 14) (size 15 to 20)
#    0.000    1.667    1.667    1.500    2.333    2.667 
#   24.000    0.000    0.000    0.000    0.000    0.000 
#    0.000    0.000    0.000    0.000    0.000    0.000 
#
# Total GULP energy -67084.555582 kJ/mol
# GULP energy per Si atom -5590.379632 kJ/mol
# Density = 2.383964 g / cm^3
# Si number density = 23.894023 Si / 1000 Ang^3
#
#
#
# Elastic Constant Matrix: (Units=GPa)
#
#
# Indices 1 2 3 4 5 6 
#
# 1 105.3396 27.2910 57.6242 -6.3262 4.6119 17.4804
# 2 27.2910 166.2161 66.4302 20.7712 -6.8190 23.4473
# 3 57.6242 66.4302 205.2786 12.0669 -4.3943 37.3044
# 4 -6.3262 20.7712 12.0669 17.6521 37.9535 1.8526
# 5 4.6119 -6.8190 -4.3943 37.9535 35.9746 2.0109
# 6 17.4804 23.4473 37.3044 1.8526 2.0109 36.3723
#
#
#
# Elastic Compliance Matrix: (Units=1/GPa)
#
#
# Indices 1 2 3 4 5 6 
#
# 1 0.010427 0.000524 -0.002047 -0.006046 0.005071 -0.003222
# 2 0.000524 0.006163 -0.002241 0.005788 -0.005171 -0.001936
# 3 -0.002047 -0.002241 0.006742 0.003308 -0.002577 -0.004512
# 4 -0.006046 0.005788 0.003308 -0.031890 0.036177 -0.004594
# 5 0.005071 -0.005171 -0.002577 0.036177 -0.012448 0.002384
# 6 -0.003222 -0.001936 -0.004512 -0.004594 0.002384 0.035020
#
#
# Mechanical properties :
#
#
# Convention : Reuss Voigt Hill
#
# Bulk Modulus (GPa) = 63.27411 86.61391 74.94401
# Shear Modulus (GPa) = 186.50612 39.69907 113.10259
#
# Velocity S-wave (km/s) = 8.84449 4.08053 6.88751
# Velocity P-wave (km/s) = 11.43847 7.65041 9.73056
#
# Compressibility (1/GPa) = 0.01580425
#
# Stress axis : x y z
#
# Youngs Moduli (GPa) = 95.90781 162.24740 148.33337
#
# Poissons Ratio (x) = -0.08505 0.30366
# Poissons Ratio (y) = -0.05028 0.33239
# Poissons Ratio (z) = 0.19633 0.36357
#
# Static dielectric constant tensor:
#      x y z
#    x 1.976910 -0.089260 0.004900 
#    y -0.089260 1.963150 0.002230 
#    z 0.004900 0.002230 1.881590 
# 
# From -- ./inp_files/75422.got.cif
#   From: 2010.05.17/outbox.cif.g08.bks.cpg/sg2_38_cif.got.tgz:75422.got - 2010.06.03 11:33:40.
