data_PCOD9035006
_publ_section_title
;
Structure prediction by ZEFSAII (Michael W. Deem and Ramdas Pophale) SiO2 
 PCOD9035006
Probable space group: P -1
;
_chemical_formula_sum "Si O2"
_cell_formula_units_Z 16
_cell_length_a 22.245468
_cell_length_b 13.184196
_cell_length_c 12.261398
_cell_angle_alpha 154.522065
_cell_angle_beta 152.776661
_cell_angle_gamma 35.261768
_cell_volume 705.921134
_symmetry_space_group_name_H-M "P -1"
_symmetry_group_IT_number 2
_symmetry_cell_setting 'triclinic'
loop_
_space_group_symop_operation_xyz
x,y,z
-x,-y,-z
loop_
_atom_site_type_symbol
_atom_site_label
_atom_site_fract_x
_atom_site_fract_y
_atom_site_fract_z
Si Si1 0.508662 0.254572 0.203247
Si Si2 0.070341 0.744079 0.327645
Si Si3 0.329202 0.613325 0.755489
Si Si4 0.235919 0.826486 0.043231
Si Si5 0.744522 0.513911 0.059895
Si Si6 0.405876 0.194076 0.597158
Si Si7 0.051044 0.157770 0.332460
Si Si8 0.797783 0.210425 0.636251
O O1 0.500000 0.500000 0.500000
O O2 0.655203 0.225058 0.363242
O O3 0.382644 0.304731 0.973460
O O4 0.500000 0.000000 0.000000
O O5 0.212947 0.710065 0.583943
O O6 0.094678 0.751705 0.244464
O O7 0.000000 0.000000 0.500000
O O8 0.000000 0.500000 0.000000
O O9 0.333578 0.335576 0.518246
O O10 0.293215 0.710063 0.912495
O O11 0.480947 0.664334 0.023026
O O12 0.295620 0.082560 0.384522
O O13 0.281002 0.687560 0.090102
O O14 0.079583 0.801685 0.766485
O O15 0.876162 0.642270 0.418682
O O16 0.778815 0.401083 0.887171
O O17 0.500000 0.000000 0.500000
O O18 0.159939 0.028210 0.461567
O O19 0.000000 0.000000 0.000000
#
# Coordination Sequence:
#
# PCOD9035006 Si02
#       8
#     2   2   2   2   2   2   2   2
#     4  10  22  45  70 101 145 191 239 291 356 440
#     4  12  31  50  77 109 147 202 250 306 370 442
#     4  10  24  47  71 104 144 189 246 307 362 437
#     4  11  24  40  72 107 144 184 236 303 370 439
#     4  11  25  44  70 111 145 191 241 300 376 436
#     4   9  22  44  73 103 140 186 246 306 366 428
#     4  12  25  41  69 105 148 186 236 295 373 440
#     4  11  26  47  71 103 144 193 243 301 359 445
#
# _framework density 22.665420999999998
#
# number of rings (size 3 to 8) (size 9 to 14) (size 15 to 20)
#    0.000    1.250    2.500    1.125   10.500    3.000 
#    4.500    0.000    0.000    0.000    0.000    0.000 
#    0.000    0.000    0.000    0.000    0.000    0.000 
#
# Total GULP energy -89218.204710 kJ/mol
# GULP energy per Si atom -5576.137794 kJ/mol
# Density = 2.261383 g / cm^3
# Si number density = 22.665421 Si / 1000 Ang^3
#
#
#
# Elastic Constant Matrix: (Units=GPa)
#
#
# Indices 1 2 3 4 5 6 
#
# 1 112.8229 17.9233 26.5791 9.6392 12.3137 5.9022
# 2 17.9233 157.3792 29.0751 -6.8335 14.0973 2.0690
# 3 26.5791 29.0751 86.2952 7.0050 29.7863 9.4448
# 4 9.6392 -6.8335 7.0050 39.6716 3.8489 8.3173
# 5 12.3137 14.0973 29.7863 3.8489 39.4000 0.9020
# 6 5.9022 2.0690 9.4448 8.3173 0.9020 35.7813
#
#
#
# Elastic Compliance Matrix: (Units=1/GPa)
#
#
# Indices 1 2 3 4 5 6 
#
# 1 0.009794 -0.000693 -0.002259 -0.001904 -0.000907 -0.000514
# 2 -0.000693 0.006959 -0.001915 0.001841 -0.001001 -0.000185
# 3 -0.002259 -0.001915 0.017400 -0.000977 -0.011586 -0.003591
# 4 -0.001904 0.001841 -0.000977 0.027578 -0.001884 -0.005898
# 5 -0.000907 -0.001001 -0.011586 -0.001884 0.034901 0.002824
# 6 -0.000514 -0.000185 -0.003591 -0.005898 0.002824 0.030290
#
#
# Mechanical properties :
#
#
# Convention : Reuss Voigt Hill
#
# Bulk Modulus (GPa) = 40.94986 55.96137 48.45561
# Shear Modulus (GPa) = 34.53111 41.83189 38.18150
#
# Velocity S-wave (km/s) = 3.90746 4.30074 4.10880
# Velocity P-wave (km/s) = 6.20193 7.02891 6.62833
#
# Compressibility (1/GPa) = 0.02442011
#
# Stress axis : x y z
#
# Youngs Moduli (GPa) = 102.09958 143.70310 57.46981
#
# Poissons Ratio (x) = 0.09954 0.12984
# Poissons Ratio (y) = 0.07073 0.11004
# Poissons Ratio (z) = 0.23067 0.27516
#
# Static dielectric constant tensor:
#      x y z
#    x 2.016920 -0.106990 -0.018960 
#    y -0.106990 1.945760 0.071520 
#    z -0.018960 0.071520 1.955860 
# 
# From -- ./inp_files/471266.got.cif
#   From: 2010.05.17/outbox.cif.g08.bks.cpg/sg2_236_cif.got.tgz:471266.got - 2010.06.03 11:33:40.
