data_PCOD9035921
_publ_section_title
;
Structure prediction by ZEFSAII (Michael W. Deem and Ramdas Pophale) SiO2 
 PCOD9035921
Probable space group: P -1
;
_chemical_formula_sum "Si O2"
_cell_formula_units_Z 11
_cell_length_a 6.112546
_cell_length_b 5.352075
_cell_length_c 18.139185
_cell_angle_alpha 129.180178
_cell_angle_beta 109.302303
_cell_angle_gamma 81.849682
_cell_volume 432.312006
_symmetry_space_group_name_H-M "P -1"
_symmetry_group_IT_number 2
_symmetry_cell_setting 'triclinic'
loop_
_space_group_symop_operation_xyz
x,y,z
-x,-y,-z
loop_
_atom_site_type_symbol
_atom_site_label
_atom_site_fract_x
_atom_site_fract_y
_atom_site_fract_z
Si Si1 0.858305 0.671441 0.222929
Si Si2 0.139003 0.281153 0.421906
Si Si3 0.523416 0.700207 0.811683
Si Si4 0.000000 0.000000 0.000000
Si Si5 0.743487 0.715404 0.069245
Si Si6 0.715229 0.365919 0.637734
O O1 0.593550 0.578688 0.199019
O O2 0.888850 0.547130 0.118848
O O3 0.036743 0.530634 0.274024
O O4 0.950434 0.042962 0.312534
O O5 0.713283 0.976669 0.568005
O O6 0.000000 0.500000 0.500000
O O7 0.281764 0.491355 0.416164
O O8 0.541832 0.526427 0.702912
O O9 0.761504 0.880874 0.902104
O O10 0.339464 0.963165 0.843803
O O11 0.128596 0.179524 0.971627
O O12 0.500000 0.500000 0.000000
#
# Coordination Sequence:
#
# PCOD9035921 Si02
#       6
#     2   2   2   1   2   2
#     4  10  24  44  70  98 148 187 234 305 357 428
#     4  10  22  46  76 105 139 186 237 297 364 435
#     4  12  25  43  66 105 141 190 245 298 357 426
#     4  12  26  42  68  98 142 186 256 288 360 414
#     4  12  27  46  69 101 147 194 249 300 354 432
#     4  10  25  44  74 102 143 191 233 297 370 426
#
# _framework density 25.444583999999999
#
# number of rings (size 3 to 8) (size 9 to 14) (size 15 to 20)
#    1.091    0.000    1.818    4.364    5.091    0.727 
#    0.000    1.818    0.000    0.000    0.000    0.000 
#    0.000    0.000    0.000    0.000    0.000    0.000 
#
# Total GULP energy -61285.230319 kJ/mol
# GULP energy per Si atom -5571.384574 kJ/mol
# Density = 2.538667 g / cm^3
# Si number density = 25.444584 Si / 1000 Ang^3
#
#
#
# Elastic Constant Matrix: (Units=GPa)
#
#
# Indices 1 2 3 4 5 6 
#
# 1 132.7329 64.0312 51.0538 -0.4848 -17.6736 33.9402
# 2 64.0312 157.2726 42.0571 -21.2010 -16.9788 33.4499
# 3 51.0538 42.0571 72.3645 -12.3633 -22.7306 17.6014
# 4 -0.4848 -21.2010 -12.3633 46.7282 10.1637 -0.9666
# 5 -17.6736 -16.9788 -22.7306 10.1637 69.3918 -2.4880
# 6 33.9402 33.4499 17.6014 -0.9666 -2.4880 58.7542
#
#
#
# Elastic Compliance Matrix: (Units=1/GPa)
#
#
# Indices 1 2 3 4 5 6 
#
# 1 0.012451 -0.002904 -0.006554 -0.003137 0.000644 -0.003600
# 2 -0.002904 0.009166 -0.001888 0.003511 0.000266 -0.002906
# 3 -0.006554 -0.001888 0.021955 0.003889 0.004438 -0.001464
# 4 -0.003137 0.003511 0.003889 0.024465 -0.002287 -0.001046
# 5 0.000644 0.000266 0.004438 -0.002287 0.016386 -0.001197
# 6 -0.003600 -0.002906 -0.001464 -0.001046 -0.001197 0.021125
#
#
# Mechanical properties :
#
#
# Convention : Reuss Voigt Hill
#
# Bulk Modulus (GPa) = 47.89550 75.18378 61.53964
# Shear Modulus (GPa) = 36.98236 48.65670 42.81953
#
# Velocity S-wave (km/s) = 3.81655 4.37769 4.10671
# Velocity P-wave (km/s) = 6.18754 7.42727 6.83557
#
# Compressibility (1/GPa) = 0.02087879
#
# Stress axis : x y z
#
# Youngs Moduli (GPa) = 80.31685 109.10261 45.54784
#
# Poissons Ratio (x) = 0.31685 0.29854
# Poissons Ratio (y) = 0.23325 0.08598
# Poissons Ratio (z) = 0.52643 0.20596
#
# Static dielectric constant tensor:
#      x y z
#    x 1.945030 0.063160 0.051450 
#    y 0.063160 2.544390 -0.080360 
#    z 0.051450 -0.080360 1.957920 
# 
# From -- ./inp_files/102199.got.cif
#   From: 2010.05.17/outbox.cif.g08.bks.cpg/sg2_52_cif.got.tgz:102199.got - 2010.06.03 11:33:40.
