data_PCOD9035905
_publ_section_title
;
Structure prediction by ZEFSAII (Michael W. Deem and Ramdas Pophale) SiO2 
 PCOD9035905
Probable space group: P -1
;
_chemical_formula_sum "Si O2"
_cell_formula_units_Z 16
_cell_length_a 9.018895
_cell_length_b 13.151443
_cell_length_c 8.728793
_cell_angle_alpha 132.691035
_cell_angle_beta 84.495911
_cell_angle_gamma 108.594823
_cell_volume 710.432594
_symmetry_space_group_name_H-M "P -1"
_symmetry_group_IT_number 2
_symmetry_cell_setting 'triclinic'
loop_
_space_group_symop_operation_xyz
x,y,z
-x,-y,-z
loop_
_atom_site_type_symbol
_atom_site_label
_atom_site_fract_x
_atom_site_fract_y
_atom_site_fract_z
Si Si1 0.794026 0.911872 0.295538
Si Si2 0.440442 0.594030 0.483892
Si Si3 0.345784 0.407744 0.012761
Si Si4 0.340441 0.144183 0.411364
Si Si5 0.066332 0.921107 0.046550
Si Si6 0.177357 0.556115 0.983464
Si Si7 0.364591 0.863791 0.457769
Si Si8 0.857823 0.374756 0.297806
O O1 0.767196 0.894930 0.464753
O O2 0.762589 0.060624 0.405680
O O3 0.661819 0.754407 0.103838
O O4 0.950181 0.907144 0.190664
O O5 0.500000 0.500000 0.500000
O O6 0.339631 0.493542 0.254186
O O7 0.611305 0.696412 0.503524
O O8 0.314540 0.657284 0.639632
O O9 0.223142 0.421471 0.912609
O O10 0.500000 0.500000 0.000000
O O11 0.521570 0.157300 0.443979
O O12 0.243548 0.024917 0.178711
O O13 0.082636 0.764757 0.850350
O O14 0.000000 0.000000 0.000000
O O15 0.283629 0.713526 0.214951
O O16 0.171149 0.580474 0.827578
O O17 0.000000 0.500000 0.000000
O O18 0.500000 0.000000 0.500000
O O19 0.000000 0.500000 0.500000
#
# Coordination Sequence:
#
# PCOD9035905 Si02
#       8
#     2   2   2   2   2   2   2   2
#     4  11  24  45  79 103 150 185 254 307 367 443
#     4  12  27  46  75 111 154 190 245 309 388 437
#     4  12  23  45  73 113 137 188 247 309 363 448
#     4  11  25  48  77 108 144 196 254 308 375 443
#     4  12  30  49  71 111 152 201 246 303 386 452
#     4  12  25  46  75 107 144 196 256 302 368 444
#     4  10  22  46  75 109 143 189 250 315 368 434
#     4  12  29  50  72 106 158 198 245 307 382 449
#
# _framework density 22.521488999999999
#
# number of rings (size 3 to 8) (size 9 to 14) (size 15 to 20)
#    0.000    0.500    2.500    5.625    5.250    2.500 
#    0.000    0.000    0.000    0.000    0.000    0.000 
#    0.000    0.000    0.000    0.000    0.000    0.000 
#
# Total GULP energy -89187.551807 kJ/mol
# GULP energy per Si atom -5574.221988 kJ/mol
# Density = 2.247023 g / cm^3
# Si number density = 22.521489 Si / 1000 Ang^3
#
#
#
# Elastic Constant Matrix: (Units=GPa)
#
#
# Indices 1 2 3 4 5 6 
#
# 1 111.3248 30.7157 52.8462 -13.3466 -5.5485 -0.6446
# 2 30.7157 117.1631 51.8625 -19.4791 2.6262 -11.5604
# 3 52.8462 51.8625 143.0140 6.7222 9.4659 -13.1190
# 4 -13.3466 -19.4791 6.7222 36.2724 4.8900 -2.4399
# 5 -5.5485 2.6262 9.4659 4.8900 48.4192 4.9930
# 6 -0.6446 -11.5604 -13.1190 -2.4399 4.9930 36.1034
#
#
#
# Elastic Compliance Matrix: (Units=1/GPa)
#
#
# Indices 1 2 3 4 5 6 
#
# 1 0.012035 -0.000467 -0.004783 0.004679 0.002036 -0.001638
# 2 -0.000467 0.012072 -0.004221 0.007418 -0.000937 0.002954
# 3 -0.004783 -0.004221 0.010920 -0.005597 -0.002141 0.002449
# 4 0.004679 0.007418 -0.005597 0.034876 -0.002619 0.003144
# 5 0.002036 -0.000937 -0.002141 -0.002619 0.022060 -0.004270
# 6 -0.001638 0.002954 0.002449 0.003144 -0.004270 0.030308
#
#
# Mechanical properties :
#
#
# Convention : Reuss Voigt Hill
#
# Bulk Modulus (GPa) = 62.16969 71.37231 66.77100
# Shear Modulus (GPa) = 34.11262 39.89750 37.00506
#
# Velocity S-wave (km/s) = 3.89610 4.21352 4.05791
# Velocity P-wave (km/s) = 6.92127 7.44522 7.18802
#
# Compressibility (1/GPa) = 0.01608501
#
# Stress axis : x y z
#
# Youngs Moduli (GPa) = 83.09150 82.83834 91.57892
#
# Poissons Ratio (x) = 0.03872 0.43798
# Poissons Ratio (y) = 0.03884 0.38652
# Poissons Ratio (z) = 0.39739 0.34963
#
# Static dielectric constant tensor:
#      x y z
#    x 1.877320 -0.174530 0.033690 
#    y -0.174530 2.060090 -0.035940 
#    z 0.033690 -0.035940 1.910030 
# 
# From -- ./inp_files/209381.got.cif
#   From: 2010.05.17/outbox.cif.g08.bks.cpg/sg2_105_cif.got.tgz:209381.got - 2010.06.03 11:33:40.
