data_PCOD9035943
_publ_section_title
;
Structure prediction by ZEFSAII (Michael W. Deem and Ramdas Pophale) SiO2 
 PCOD9035943
Probable space group: P -1
;
_chemical_formula_sum "Si O2"
_cell_formula_units_Z 12
_cell_length_a 7.246595
_cell_length_b 9.588764
_cell_length_c 10.572052
_cell_angle_alpha 120.369981
_cell_angle_beta 44.733633
_cell_angle_gamma 120.302622
_cell_volume 433.100892
_symmetry_space_group_name_H-M "P -1"
_symmetry_group_IT_number 2
_symmetry_cell_setting 'triclinic'
loop_
_space_group_symop_operation_xyz
x,y,z
-x,-y,-z
loop_
_atom_site_type_symbol
_atom_site_label
_atom_site_fract_x
_atom_site_fract_y
_atom_site_fract_z
Si Si1 0.222226 0.301527 0.284110
Si Si2 0.500000 0.500000 0.000000
Si Si3 0.054282 0.950214 0.091228
Si Si4 0.500000 0.500000 0.500000
Si Si5 0.220253 0.796257 0.338815
Si Si6 0.275218 0.146961 0.560115
Si Si7 0.201876 0.606575 0.849291
O O1 0.304231 0.416369 0.175766
O O2 0.472109 0.381123 0.295597
O O3 0.948538 0.275707 0.484623
O O4 0.222551 0.113084 0.156558
O O5 0.404451 0.678408 0.145554
O O6 0.790590 0.879054 0.272430
O O7 0.178747 0.791354 0.947767
O O8 0.000000 0.000000 0.000000
O O9 0.470324 0.319194 0.509736
O O10 0.170795 0.500303 0.690682
O O11 0.010054 0.840221 0.358129
O O12 0.367998 0.988195 0.389611
O O13 0.000000 0.500000 0.000000
#
# Coordination Sequence:
#
# PCOD9035943 Si02
#       7
#     2   1   2   1   2   2   2
#     4  11  26  46  78 110 156 207 255 323 392 469
#     4  12  26  40  78 116 152 204 252 332 388 472
#     4  11  26  48  76 114 158 201 260 328 394 470
#     4  12  24  42  78 104 146 196 262 322 372 458
#     4  10  23  47  74 112 152 202 273 311 396 465
#     4  10  22  46  77 107 153 209 253 326 384 478
#     4  12  26  47  76 113 152 206 266 312 389 476
#
# _framework density 27.707169
#
# number of rings (size 3 to 8) (size 9 to 14) (size 15 to 20)
#    0.000    1.000    3.333    2.000    4.667    0.000 
#    6.000    0.833    0.000    0.000    0.000    0.000 
#    0.000    0.000    0.000    0.000    0.000    0.000 
#
# Total GULP energy -66821.143757 kJ/mol
# GULP energy per Si atom -5568.428646 kJ/mol
# Density = 2.764411 g / cm^3
# Si number density = 27.707169 Si / 1000 Ang^3
#
#
#
# Elastic Constant Matrix: (Units=GPa)
#
#
# Indices 1 2 3 4 5 6 
#
# 1 76.6966 60.4896 65.1661 7.0846 5.6298 -10.3056
# 2 60.4896 259.2307 132.7956 5.2093 1.1000 -24.4837
# 3 65.1661 132.7956 219.5466 27.5310 11.9396 -26.9670
# 4 7.0846 5.2093 27.5310 102.6318 -19.4712 7.1583
# 5 5.6298 1.1000 11.9396 -19.4712 13.9918 -4.2340
# 6 -10.3056 -24.4837 -26.9670 7.1583 -4.2340 35.0311
#
#
#
# Elastic Compliance Matrix: (Units=1/GPa)
#
#
# Indices 1 2 3 4 5 6 
#
# 1 0.018564 -0.002462 -0.003421 -0.001458 -0.006187 0.000657
# 2 -0.002462 0.006294 -0.003514 0.001955 0.006630 0.001372
# 3 -0.003421 -0.003514 0.009279 -0.004488 -0.011541 0.003203
# 4 -0.001458 0.001955 -0.004488 0.016020 0.025746 -0.002679
# 5 -0.006187 0.006630 -0.011541 0.025746 0.120078 0.003181
# 6 0.000657 0.001372 0.003203 -0.002679 0.003181 0.033096
#
#
# Mechanical properties :
#
#
# Convention : Reuss Voigt Hill
#
# Bulk Modulus (GPa) = 65.16889 119.15294 92.16091
# Shear Modulus (GPa) = 22.00331 50.13244 36.06787
#
# Velocity S-wave (km/s) = 2.82110 4.25828 3.61189
# Velocity P-wave (km/s) = 5.84663 8.20213 7.12243
#
# Compressibility (1/GPa) = 0.01534475
#
# Stress axis : x y z
#
# Youngs Moduli (GPa) = 53.86835 158.88205 107.76563
#
# Poissons Ratio (x) = 0.39110 0.36868
# Poissons Ratio (y) = 0.13260 0.37864
# Poissons Ratio (z) = 0.18429 0.55824
#
# Static dielectric constant tensor:
#      x y z
#    x 3.856340 0.169130 1.279890 
#    y 0.169130 2.093550 0.169290 
#    z 1.279890 0.169290 3.221910 
# 
# From -- ./inp_files/377023.got.cif
#   From: 2010.05.17/outbox.cif.g08.bks.cpg/sg2_189_cif.got.tgz:377023.got - 2010.06.03 11:33:40.
