data_PCOD9035995
_publ_section_title
;
Structure prediction by ZEFSAII (Michael W. Deem and Ramdas Pophale) SiO2 
 PCOD9035995
Probable space group: P -1
;
_chemical_formula_sum "Si O2"
_cell_formula_units_Z 15
_cell_length_a 7.705884
_cell_length_b 14.265456
_cell_length_c 12.141752
_cell_angle_alpha 150.491376
_cell_angle_beta 88.242761
_cell_angle_gamma 97.151218
_cell_volume 644.015878
_symmetry_space_group_name_H-M "P -1"
_symmetry_group_IT_number 2
_symmetry_cell_setting 'triclinic'
loop_
_space_group_symop_operation_xyz
x,y,z
-x,-y,-z
loop_
_atom_site_type_symbol
_atom_site_label
_atom_site_fract_x
_atom_site_fract_y
_atom_site_fract_z
Si Si1 0.357620 0.257314 0.862460
Si Si2 0.821343 0.660280 0.826521
Si Si3 0.500000 0.500000 0.500000
Si Si4 0.131640 0.900980 0.800388
Si Si5 0.858149 0.562320 0.396311
Si Si6 0.663577 0.623527 0.251014
Si Si7 0.623493 0.202082 0.127215
Si Si8 0.436392 0.919233 0.652274
O O1 0.275152 0.277465 0.765252
O O2 0.391779 0.046919 0.680675
O O3 0.242610 0.321904 0.028904
O O4 0.543947 0.411092 0.015654
O O5 0.660287 0.541703 0.638086
O O6 0.994252 0.566677 0.723997
O O7 0.869465 0.879601 0.005133
O O8 0.476526 0.251827 0.262655
O O9 0.226700 0.864601 0.874311
O O10 0.254437 0.837105 0.635817
O O11 0.940580 0.763489 0.656533
O O12 0.812797 0.598907 0.309726
O O13 0.680909 0.435388 0.327772
O O14 0.542004 0.758352 0.447897
O O15 0.550958 0.075386 0.894810
#
# Coordination Sequence:
#
# PCOD9035995 Si02
#       8
#     2   2   1   2   2   2   2   2
#     4  10  22  47  68 100 126 179 231 270 328 396
#     4  11  25  43  68  96 140 173 222 273 325 405
#     4  12  22  44  70  92 136 180 218 270 316 402
#     4  11  25  41  65 100 131 180 216 267 339 394
#     4  12  26  43  62 103 140 170 217 279 337 388
#     4  11  24  41  74  95 133 176 222 282 334 385
#     4  12  25  42  67 100 134 178 219 271 332 398
#     4  11  23  45  68 101 129 172 233 269 322 408
#
# _framework density 23.291350000000001
#
# number of rings (size 3 to 8) (size 9 to 14) (size 15 to 20)
#    0.000    0.800    5.333    2.000    3.733    1.067 
#    0.000    2.667    0.000    0.000    0.000    0.000 
#    0.000    0.000    0.000    0.000    0.000    0.000 
#
# Total GULP energy -83852.362460 kJ/mol
# GULP energy per Si atom -5590.157497 kJ/mol
# Density = 2.323834 g / cm^3
# Si number density = 23.291350 Si / 1000 Ang^3
#
#
#
# Elastic Constant Matrix: (Units=GPa)
#
#
# Indices 1 2 3 4 5 6 
#
# 1 116.8648 54.2133 27.1122 -2.9713 1.8699 -19.2387
# 2 54.2133 168.0443 42.0617 -7.0508 13.8481 -19.2050
# 3 27.1122 42.0617 68.7525 -2.7799 8.8169 -6.4633
# 4 -2.9713 -7.0508 -2.7799 38.1008 4.4682 2.9462
# 5 1.8699 13.8481 8.8169 4.4682 38.3546 4.3271
# 6 -19.2387 -19.2050 -6.4633 2.9462 4.3271 35.6515
#
#
#
# Elastic Compliance Matrix: (Units=1/GPa)
#
#
# Indices 1 2 3 4 5 6 
#
# 1 0.010946 -0.002494 -0.002479 -0.000161 0.000497 0.004067
# 2 -0.002494 0.008159 -0.003396 0.001154 -0.002476 0.002639
# 3 -0.002479 -0.003396 0.018047 0.000809 -0.002940 0.000395
# 4 -0.000161 0.001154 0.000809 0.027016 -0.003617 -0.001112
# 5 0.000497 -0.002476 -0.002940 -0.003617 0.028577 -0.004768
# 6 0.004067 0.002639 0.000395 -0.001112 -0.004768 0.032408
#
#
# Mechanical properties :
#
#
# Convention : Reuss Voigt Hill
#
# Bulk Modulus (GPa) = 48.98280 66.71513 57.84896
# Shear Modulus (GPa) = 33.62533 37.77299 35.69916
#
# Velocity S-wave (km/s) = 3.80371 4.03148 3.91925
# Velocity P-wave (km/s) = 6.35350 7.09763 6.73585
#
# Compressibility (1/GPa) = 0.02041533
#
# Stress axis : x y z
#
# Youngs Moduli (GPa) = 91.35430 122.55676 55.41076
#
# Poissons Ratio (x) = 0.30564 0.13735
# Poissons Ratio (y) = 0.22783 0.18818
# Poissons Ratio (z) = 0.22645 0.41622
#
# Static dielectric constant tensor:
#      x y z
#    x 2.113600 0.108380 -0.100430 
#    y 0.108380 1.944570 0.024670 
#    z -0.100430 0.024670 1.926820 
# 
# From -- ./inp_files/400102.got.cif
#   From: 2010.05.17/outbox.cif.g08.bks.cpg/sg2_201_cif.got.tgz:400102.got - 2010.06.03 11:33:40.
