data_PCOD9035354
_publ_section_title
;
Structure prediction by ZEFSAII (Michael W. Deem and Ramdas Pophale) SiO2 
 PCOD9035354
Probable space group: P -1
;
_chemical_formula_sum "Si O2"
_cell_formula_units_Z 16
_cell_length_a 11.589525
_cell_length_b 15.084066
_cell_length_c 5.180701
_cell_angle_alpha 112.762807
_cell_angle_beta 83.959524
_cell_angle_gamma 128.781251
_cell_volume 639.071481
_symmetry_space_group_name_H-M "P -1"
_symmetry_group_IT_number 2
_symmetry_cell_setting 'triclinic'
loop_
_space_group_symop_operation_xyz
x,y,z
-x,-y,-z
loop_
_atom_site_type_symbol
_atom_site_label
_atom_site_fract_x
_atom_site_fract_y
_atom_site_fract_z
Si Si1 0.020121 0.807204 0.899797
Si Si2 0.258131 0.460776 0.466788
Si Si3 0.690964 0.213223 0.772834
Si Si4 0.054502 0.933354 0.547566
Si Si5 0.489944 0.424733 0.157859
Si Si6 0.357366 0.983846 0.120112
Si Si7 0.387156 0.152884 0.899103
Si Si8 0.174860 0.619809 0.557299
O O1 0.986421 0.874177 0.777410
O O2 0.907772 0.664777 0.683027
O O3 0.008583 0.828916 0.228133
O O4 0.196048 0.879017 0.904937
O O5 0.372968 0.433124 0.353503
O O6 0.333736 0.517934 0.790459
O O7 0.267013 0.568188 0.449233
O O8 0.669707 0.088147 0.685100
O O9 0.527145 0.175854 0.749979
O O10 0.790572 0.296859 0.602925
O O11 0.766711 0.297653 0.105805
O O12 0.232205 0.042940 0.671368
O O13 0.000000 0.000000 0.500000
O O14 0.500000 0.500000 0.000000
O O15 0.406744 0.277757 0.022893
O O16 0.500000 0.000000 0.000000
O O17 0.385518 0.107193 0.141402
O O18 0.000000 0.500000 0.500000
#
# Coordination Sequence:
#
# PCOD9035354 Si02
#       8
#     2   2   2   2   2   2   2   2
#     4  11  25  44  68 104 140 186 237 296 364 428
#     4  11  26  43  72 104 149 190 247 297 366 437
#     4  11  24  45  72 107 143 188 248 297 374 429
#     4  11  25  44  68 102 138 188 237 301 356 423
#     4  11  24  46  72 106 145 199 242 304 365 439
#     4   9  22  45  73 104 146 190 242 308 366 435
#     4  10  22  45  74 106 150 188 251 299 368 443
#     4  12  26  46  73 109 148 195 241 303 365 443
#
# _framework density 25.036324
#
# number of rings (size 3 to 8) (size 9 to 14) (size 15 to 20)
#    0.000    1.250    1.250    3.000    3.500    7.000 
#    4.500    6.250    0.000    0.000    0.000    0.000 
#    0.000    0.000    0.000    0.000    0.000    0.000 
#
# Total GULP energy -89263.196547 kJ/mol
# GULP energy per Si atom -5578.949784 kJ/mol
# Density = 2.497934 g / cm^3
# Si number density = 25.036324 Si / 1000 Ang^3
#
#
#
# Elastic Constant Matrix: (Units=GPa)
#
#
# Indices 1 2 3 4 5 6 
#
# 1 98.5929 42.9232 20.7045 2.7111 11.0805 -28.6011
# 2 42.9232 191.2391 66.7710 -6.6054 2.3974 -31.4235
# 3 20.7045 66.7710 104.0060 -1.0100 12.2027 -2.8374
# 4 2.7111 -6.6054 -1.0100 51.7466 -5.0088 6.9078
# 5 11.0805 2.3974 12.2027 -5.0088 39.6922 8.7923
# 6 -28.6011 -31.4235 -2.8374 6.9078 8.7923 61.2473
#
#
#
# Elastic Compliance Matrix: (Units=1/GPa)
#
#
# Indices 1 2 3 4 5 6 
#
# 1 0.013566 -0.001710 -0.000848 -0.002299 -0.005134 0.006415
# 2 -0.001710 0.007686 -0.004621 0.000707 0.000921 0.002719
# 3 -0.000848 -0.004621 0.013075 -0.000377 -0.003183 -0.001662
# 4 -0.002299 0.000707 -0.000377 0.020407 0.004091 -0.003617
# 5 -0.005134 0.000921 -0.003183 0.004091 0.029568 -0.006779
# 6 0.006415 0.002719 -0.001662 -0.003617 -0.006779 0.022022
#
#
# Mechanical properties :
#
#
# Convention : Reuss Voigt Hill
#
# Bulk Modulus (GPa) = 50.07587 72.73729 61.40658
# Shear Modulus (GPa) = 39.26568 48.09984 43.68276
#
# Velocity S-wave (km/s) = 3.96453 4.38791 4.18158
# Velocity P-wave (km/s) = 6.40324 7.40185 6.92058
#
# Compressibility (1/GPa) = 0.01996970
#
# Stress axis : x y z
#
# Youngs Moduli (GPa) = 73.71178 130.11000 76.48402
#
# Poissons Ratio (x) = 0.22247 0.06485
# Poissons Ratio (y) = 0.12604 0.35342
# Poissons Ratio (z) = 0.06250 0.60121
#
# Static dielectric constant tensor:
#      x y z
#    x 2.173670 -0.012840 -0.466480 
#    y -0.012840 1.927490 -0.054720 
#    z -0.466480 -0.054720 3.095810 
# 
# From -- ./inp_files/78190.got.cif
#   From: 2010.05.17/outbox.cif.g08.bks.cpg/sg2_40_cif.got.tgz:78190.got - 2010.06.03 11:33:40.
