data_PCOD9035571
_publ_section_title
;
Structure prediction by ZEFSAII (Michael W. Deem and Ramdas Pophale) SiO2 
 PCOD9035571
Probable space group: P -1
;
_chemical_formula_sum "Si O2"
_cell_formula_units_Z 15
_cell_length_a 13.501208
_cell_length_b 10.372329
_cell_length_c 6.893212
_cell_angle_alpha 116.796983
_cell_angle_beta 47.646264
_cell_angle_gamma 119.658022
_cell_volume 609.455479
_symmetry_space_group_name_H-M "P -1"
_symmetry_group_IT_number 2
_symmetry_cell_setting 'triclinic'
loop_
_space_group_symop_operation_xyz
x,y,z
-x,-y,-z
loop_
_atom_site_type_symbol
_atom_site_label
_atom_site_fract_x
_atom_site_fract_y
_atom_site_fract_z
Si Si1 0.650334 0.710709 0.606898
Si Si2 0.958833 0.783592 0.392872
Si Si3 0.483762 0.860489 0.156479
Si Si4 0.500000 0.500000 0.000000
Si Si5 0.098731 0.999219 0.053213
Si Si6 0.009440 0.494830 0.213911
Si Si7 0.758103 0.417999 0.758469
Si Si8 0.590767 0.849019 0.404360
O O1 0.810301 0.722276 0.438673
O O2 0.552790 0.574798 0.764983
O O3 0.607625 0.728861 0.455875
O O4 0.616789 0.856894 0.852097
O O5 0.936496 0.897998 0.661935
O O6 0.006171 0.664576 0.376963
O O7 0.064582 0.844573 0.115674
O O8 0.345310 0.748438 0.169312
O O9 0.503611 0.777662 0.278787
O O10 0.474519 0.025202 0.332583
O O11 0.664149 0.512905 0.852029
O O12 0.257034 0.059296 0.813389
O O13 0.000000 0.000000 0.000000
O O14 0.153766 0.490693 0.116467
O O15 0.871929 0.396093 0.437141
O O16 0.000000 0.500000 0.000000
#
# Coordination Sequence:
#
# PCOD9035571 Si02
#       8
#     2   2   2   1   2   2   2   2
#     4  11  21  44  66  97 133 184 223 285 351 407
#     4  11  24  43  67  97 141 173 233 293 343 422
#     4  10  24  42  67 102 145 174 236 289 348 429
#     4  10  22  46  68  96 136 174 232 284 344 420
#     4  11  24  40  68 102 132 185 227 286 357 416
#     4  11  26  46  69 101 135 186 240 286 357 417
#     4  10  24  46  70  99 135 184 228 295 351 408
#     4  11  23  42  68 103 138 183 233 287 355 425
#
# _framework density 24.612134000000001
#
# number of rings (size 3 to 8) (size 9 to 14) (size 15 to 20)
#    0.000    1.333    4.000    0.400    3.733    3.200 
#    9.600    3.333    0.000    0.000    0.000    0.000 
#    0.000    0.000    0.000    0.000    0.000    0.000 
#
# Total GULP energy -83660.424502 kJ/mol
# GULP energy per Si atom -5577.361633 kJ/mol
# Density = 2.455612 g / cm^3
# Si number density = 24.612134 Si / 1000 Ang^3
#
#
#
# Elastic Constant Matrix: (Units=GPa)
#
#
# Indices 1 2 3 4 5 6 
#
# 1 163.7272 17.3322 38.6968 -7.6895 12.5432 5.1625
# 2 17.3322 34.9331 25.3966 -27.6851 3.1647 -2.6189
# 3 38.6968 25.3966 86.3529 -7.1865 7.4530 3.5875
# 4 -7.6895 -27.6851 -7.1865 40.0263 -3.1330 8.8105
# 5 12.5432 3.1647 7.4530 -3.1330 36.6644 -5.8644
# 6 5.1625 -2.6189 3.5875 8.8105 -5.8644 35.7834
#
#
#
# Elastic Compliance Matrix: (Units=1/GPa)
#
#
# Indices 1 2 3 4 5 6 
#
# 1 0.007051 -0.001857 -0.002417 -0.000261 -0.001970 -0.001170
# 2 -0.001857 0.093703 -0.021438 0.061977 0.001277 -0.005775
# 3 -0.002417 -0.021438 0.018160 -0.012108 -0.002114 -0.000406
# 4 -0.000261 0.061977 -0.012108 0.068099 0.001298 -0.010767
# 5 -0.001970 0.001277 -0.002114 0.001298 0.029187 0.005053
# 6 -0.001170 -0.005775 -0.000406 -0.010767 0.005053 0.031212
#
#
# Mechanical properties :
#
#
# Convention : Reuss Voigt Hill
#
# Bulk Modulus (GPa) = 14.81715 49.76272 32.28994
# Shear Modulus (GPa) = 15.56016 36.06733 25.81375
#
# Velocity S-wave (km/s) = 2.51712 3.83225 3.24207
# Velocity P-wave (km/s) = 3.80541 6.31222 5.21178
#
# Compressibility (1/GPa) = 0.06748936
#
# Stress axis : x y z
#
# Youngs Moduli (GPa) = 141.82277 10.67201 55.06596
#
# Poissons Ratio (x) = 0.01982 0.13307
# Poissons Ratio (y) = 0.26343 1.18053
# Poissons Ratio (z) = 0.34272 0.22879
#
# Static dielectric constant tensor:
#      x y z
#    x 2.235560 -0.813730 -0.443930 
#    y -0.813730 4.178800 1.201960 
#    z -0.443930 1.201960 2.609620 
# 
# From -- ./inp_files/71632.got.cif
#   From: 2010.05.17/outbox.cif.g08.bks.cpg/sg2_36_cif.got.tgz:71632.got - 2010.06.03 11:33:40.
