data_PCOD9035232
_publ_section_title
;
Structure prediction by ZEFSAII (Michael W. Deem and Ramdas Pophale) SiO2 
 PCOD9035232
Probable space group: P -1
;
_chemical_formula_sum "Si O2"
_cell_formula_units_Z 16
_cell_length_a 11.310392
_cell_length_b 8.738460
_cell_length_c 9.596890
_cell_angle_alpha 115.884205
_cell_angle_beta 73.338376
_cell_angle_gamma 127.472993
_cell_volume 676.961159
_symmetry_space_group_name_H-M "P -1"
_symmetry_group_IT_number 2
_symmetry_cell_setting 'triclinic'
loop_
_space_group_symop_operation_xyz
x,y,z
-x,-y,-z
loop_
_atom_site_type_symbol
_atom_site_label
_atom_site_fract_x
_atom_site_fract_y
_atom_site_fract_z
Si Si1 0.548987 0.376575 0.842115
Si Si2 0.651540 0.027100 0.411061
Si Si3 0.326659 0.251384 0.218512
Si Si4 0.176597 0.101853 0.510043
Si Si5 0.069119 0.881350 0.989229
Si Si6 0.085060 0.593521 0.651889
Si Si7 0.404053 0.758666 0.954246
Si Si8 0.873608 0.610409 0.207531
O O1 0.408199 0.172517 0.744212
O O2 0.659805 0.543887 0.758306
O O3 0.500000 0.500000 0.000000
O O4 0.619754 0.302910 0.899745
O O5 0.759018 0.018310 0.485006
O O6 0.500000 0.000000 0.500000
O O7 0.743865 0.242070 0.384274
O O8 0.256163 0.183191 0.366895
O O9 0.492458 0.303804 0.177849
O O10 0.229307 0.062479 0.068718
O O11 0.211240 0.284939 0.675272
O O12 0.000000 0.000000 0.500000
O O13 0.055104 0.738302 0.810911
O O14 0.978626 0.738613 0.095145
O O15 0.000000 0.000000 0.000000
O O16 0.049754 0.408520 0.690341
O O17 0.000000 0.500000 0.500000
O O18 0.242571 0.625916 0.889438
O O19 0.500000 0.000000 0.000000
#
# Coordination Sequence:
#
# PCOD9035232 Si02
#       8
#     2   2   2   2   2   2   2   2
#     4  10  22  45  72 108 147 194 253 317 377 458
#     4  12  29  49  76 114 157 201 257 321 393 458
#     4  11  25  44  77 105 147 198 260 311 386 458
#     4  12  26  49  77 112 155 206 261 323 389 465
#     4  12  26  49  81 110 149 205 262 317 393 470
#     4  12  29  50  75 114 160 204 260 325 391 462
#     4  11  24  44  72 106 146 192 257 319 388 455
#     4  12  26  47  78 111 152 203 262 321 386 472
#
# _framework density 23.635037000000001
#
# number of rings (size 3 to 8) (size 9 to 14) (size 15 to 20)
#    0.000    0.500    1.250    7.125    7.000    2.000 
#    0.000    0.000    0.000    0.000    0.000    0.000 
#    0.000    0.000    0.000    0.000    0.000    0.000 
#
# Total GULP energy -89518.808092 kJ/mol
# GULP energy per Si atom -5594.925506 kJ/mol
# Density = 2.358124 g / cm^3
# Si number density = 23.635037 Si / 1000 Ang^3
#
#
#
# Elastic Constant Matrix: (Units=GPa)
#
#
# Indices 1 2 3 4 5 6 
#
# 1 94.8465 24.4972 38.8495 -7.1981 8.8689 0.1235
# 2 24.4972 127.7075 47.9166 -3.8838 6.6878 9.2344
# 3 38.8495 47.9166 124.1895 -15.5487 7.6945 11.5428
# 4 -7.1981 -3.8838 -15.5487 56.3814 0.1878 8.5556
# 5 8.8689 6.6878 7.6945 0.1878 41.6845 5.3947
# 6 0.1235 9.2344 11.5428 8.5556 5.3947 38.1478
#
#
#
# Elastic Compliance Matrix: (Units=1/GPa)
#
#
# Indices 1 2 3 4 5 6 
#
# 1 0.012448 -0.001086 -0.003443 0.000348 -0.002031 0.001473
# 2 -0.001086 0.009324 -0.003137 -0.000179 -0.000531 -0.001189
# 3 -0.003443 -0.003137 0.011015 0.002861 -0.000403 -0.003147
# 4 0.000348 -0.000179 0.002861 0.019341 0.000007 -0.005162
# 5 -0.002031 -0.000531 -0.000403 0.000007 0.025006 -0.003281
# 6 0.001473 -0.001189 -0.003147 -0.005162 -0.003281 0.029071
#
#
# Mechanical properties :
#
#
# Convention : Reuss Voigt Hill
#
# Bulk Modulus (GPa) = 57.28406 63.25221 60.26813
# Shear Modulus (GPa) = 39.26036 42.94143 41.10090
#
# Velocity S-wave (km/s) = 4.08009 4.26708 4.17463
# Velocity P-wave (km/s) = 6.81805 7.14825 6.98510
#
# Compressibility (1/GPa) = 0.01745686
#
# Stress axis : x y z
#
# Youngs Moduli (GPa) = 80.33177 107.25026 90.78369
#
# Poissons Ratio (x) = 0.11644 0.31254
# Poissons Ratio (y) = 0.08722 0.28478
# Poissons Ratio (z) = 0.27656 0.33643
#
# Static dielectric constant tensor:
#      x y z
#    x 1.959310 -0.037030 0.038780 
#    y -0.037030 1.933190 0.078250 
#    z 0.038780 0.078250 2.562120 
# 
# From -- ./inp_files/244528.got.cif
#   From: 2010.05.17/outbox.cif.g08.bks.cpg/sg2_123_cif.got.tgz:244528.got - 2010.06.03 11:33:40.
