data_PCOD9035555
_publ_section_title
;
Structure prediction by ZEFSAII (Michael W. Deem and Ramdas Pophale) SiO2 
 PCOD9035555
Probable space group: P -1
;
_chemical_formula_sum "Si O2"
_cell_formula_units_Z 14
_cell_length_a 11.023201
_cell_length_b 5.277928
_cell_length_c 11.576357
_cell_angle_alpha 64.528454
_cell_angle_beta 63.907830
_cell_angle_gamma 67.099564
_cell_volume 529.204500
_symmetry_space_group_name_H-M "P -1"
_symmetry_group_IT_number 2
_symmetry_cell_setting 'triclinic'
loop_
_space_group_symop_operation_xyz
x,y,z
-x,-y,-z
loop_
_atom_site_type_symbol
_atom_site_label
_atom_site_fract_x
_atom_site_fract_y
_atom_site_fract_z
Si Si1 0.541367 0.745829 0.780366
Si Si2 0.805083 0.792319 0.775960
Si Si3 0.605226 0.596693 0.525493
Si Si4 0.625022 0.122021 0.975541
Si Si5 0.111144 0.697093 0.623469
Si Si6 0.213344 0.037847 0.712751
Si Si7 0.908509 0.317439 0.004512
O O1 0.672631 0.875642 0.730734
O O2 0.546800 0.640492 0.668873
O O3 0.587238 0.451144 0.890172
O O4 0.400562 0.923288 0.868457
O O5 0.946827 0.796108 0.649356
O O6 0.763745 0.979769 0.874101
O O7 0.838794 0.479825 0.887623
O O8 0.500000 0.500000 0.500000
O O9 0.760543 0.377889 0.505091
O O10 0.355321 0.113823 0.595876
O O11 0.500000 0.000000 0.000000
O O12 0.140767 0.940209 0.649064
O O13 0.134392 0.361265 0.728513
O O14 0.207803 0.762132 0.847641
O O15 0.000000 0.500000 0.000000
O O16 0.000000 0.000000 0.000000
#
# Coordination Sequence:
#
# PCOD9035555 Si02
#       7
#     2   2   2   2   2   2   2
#     4  10  23  48  73 108 151 204 268 319 392 472
#     4  11  23  41  77 115 156 197 249 336 396 467
#     4  10  25  50  77 104 154 215 267 324 381 471
#     4   9  22  45  68 108 147 201 261 315 396 463
#     4  10  23  43  73 114 147 196 259 307 401 463
#     4  10  22  46  68 112 151 194 263 304 389 467
#     4  12  22  41  72 112 161 198 244 316 395 474
#
# _framework density 26.454802000000001
#
# number of rings (size 3 to 8) (size 9 to 14) (size 15 to 20)
#    0.857    0.857    2.857    0.000    4.000    3.429 
#   10.286    1.429    0.000    0.000    0.000    0.000 
#    0.000    0.000    0.000    0.000    0.000    0.000 
#
# Total GULP energy -78115.254601 kJ/mol
# GULP energy per Si atom -5579.661043 kJ/mol
# Density = 2.639459 g / cm^3
# Si number density = 26.454802 Si / 1000 Ang^3
#
#
#
# Elastic Constant Matrix: (Units=GPa)
#
#
# Indices 1 2 3 4 5 6 
#
# 1 128.4879 34.3746 43.0749 20.3594 5.7111 29.1796
# 2 34.3746 108.5534 27.1243 10.6074 -13.7639 13.9772
# 3 43.0749 27.1243 161.4246 26.0614 -2.2152 7.1605
# 4 20.3594 10.6074 26.0614 55.1286 10.2911 -15.8216
# 5 5.7111 -13.7639 -2.2152 10.2911 37.8025 5.9666
# 6 29.1796 13.9772 7.1605 -15.8216 5.9666 54.0571
#
#
#
# Elastic Compliance Matrix: (Units=1/GPa)
#
#
# Indices 1 2 3 4 5 6 
#
# 1 0.011109 -0.001765 -0.001563 -0.004976 0.000014 -0.006791
# 2 -0.001765 0.011470 -0.000677 -0.003352 0.005877 -0.003553
# 3 -0.001563 -0.000677 0.007338 -0.003359 0.001508 -0.001103
# 4 -0.004976 -0.003352 -0.003359 0.027975 -0.010385 0.013332
# 5 0.000014 0.005877 0.001508 -0.010385 0.032831 -0.008390
# 6 -0.006791 -0.003553 -0.001103 0.013332 -0.008390 0.028058
#
#
# Mechanical properties :
#
#
# Convention : Reuss Voigt Hill
#
# Bulk Modulus (GPa) = 45.64731 67.51260 56.57995
# Shear Modulus (GPa) = 37.28779 48.99046 43.13913
#
# Velocity S-wave (km/s) = 3.75839 4.30799 4.04254
# Velocity P-wave (km/s) = 6.01052 7.09369 6.57445
#
# Compressibility (1/GPa) = 0.02190710
#
# Stress axis : x y z
#
# Youngs Moduli (GPa) = 90.01672 87.18226 136.28309
#
# Poissons Ratio (x) = 0.15386 0.21302
# Poissons Ratio (y) = 0.15887 0.09226
# Poissons Ratio (z) = 0.14070 0.05902
#
# Static dielectric constant tensor:
#      x y z
#    x 2.291720 -0.021550 -0.100810 
#    y -0.021550 2.189610 -0.020190 
#    z -0.100810 -0.020190 2.305530 
# 
# From -- ./inp_files/410199.got.cif
#   From: 2010.05.17/outbox.cif.g08.bks.cpg/sg2_206_cif.got.tgz:410199.got - 2010.06.03 11:33:40.
