data_PCOD9035682
_publ_section_title
;
Structure prediction by ZEFSAII (Michael W. Deem and Ramdas Pophale) SiO2 
 PCOD9035682
Probable space group: P -1
;
_chemical_formula_sum "Si O2"
_cell_formula_units_Z 15
_cell_length_a 10.005572
_cell_length_b 10.706996
_cell_length_c 7.967943
_cell_angle_alpha 43.704683
_cell_angle_beta 100.270153
_cell_angle_gamma 83.664473
_cell_volume 543.222773
_symmetry_space_group_name_H-M "P -1"
_symmetry_group_IT_number 2
_symmetry_cell_setting 'triclinic'
loop_
_space_group_symop_operation_xyz
x,y,z
-x,-y,-z
loop_
_atom_site_type_symbol
_atom_site_label
_atom_site_fract_x
_atom_site_fract_y
_atom_site_fract_z
Si Si1 0.500000 0.000000 0.500000
Si Si2 0.413933 0.725512 0.784025
Si Si3 0.003234 0.283934 0.704564
Si Si4 0.171531 0.256592 0.252023
Si Si5 0.892357 0.303019 0.290585
Si Si6 0.272829 0.712435 0.178337
Si Si7 0.520901 0.687896 0.492923
Si Si8 0.280461 0.121195 0.764534
O O1 0.492467 0.835768 0.805657
O O2 0.686113 0.905349 0.625461
O O3 0.248129 0.751217 0.721506
O O4 0.480472 0.799827 0.553552
O O5 0.500000 0.500000 0.000000
O O6 0.944740 0.243848 0.549548
O O7 0.889890 0.263456 0.834001
O O8 0.000000 0.500000 0.500000
O O9 0.174852 0.163603 0.861462
O O10 0.202319 0.262173 0.454216
O O11 0.020441 0.218660 0.264792
O O12 0.148077 0.464350 0.963426
O O13 0.373748 0.668442 0.411129
O O14 0.359664 0.527267 0.264227
O O15 0.281373 0.910923 0.922430
O O16 0.580425 0.813838 0.260258
#
# Coordination Sequence:
#
# PCOD9035682 Si02
#       8
#     1   2   2   2   2   2   2   2
#     4  12  24  40  66 106 130 168 230 268 336 402
#     4  12  24  42  70  97 136 175 221 282 336 397
#     4  11  22  43  68  98 132 177 222 271 335 399
#     4  10  23  43  67 100 128 175 226 272 337 393
#     4  10  22  46  70  91 141 179 219 282 334 403
#     4  11  24  40  67  96 131 179 219 268 338 389
#     4  11  23  42  63  98 131 175 221 273 331 395
#     4  11  22  42  66  93 134 166 227 275 320 404
#
# _framework density 27.61298
#
# number of rings (size 3 to 8) (size 9 to 14) (size 15 to 20)
#    0.000    1.067    5.333    0.800    1.867    0.533 
#    2.400    0.000    0.000    0.000    0.000    0.000 
#    0.000    0.000    0.000    0.000    0.000    0.000 
#
# Total GULP energy -83760.051458 kJ/mol
# GULP energy per Si atom -5584.003431 kJ/mol
# Density = 2.755013 g / cm^3
# Si number density = 27.612980 Si / 1000 Ang^3
#
#
#
# Elastic Constant Matrix: (Units=GPa)
#
#
# Indices 1 2 3 4 5 6 
#
# 1 264.5040 60.4348 27.8324 -27.6277 -34.6485 -32.3813
# 2 60.4348 109.4215 10.0280 -8.6637 6.2989 -23.0007
# 3 27.8324 10.0280 68.6984 -27.0995 -5.4447 1.5923
# 4 -27.6277 -8.6637 -27.0995 50.8299 12.0922 5.6012
# 5 -34.6485 6.2989 -5.4447 12.0922 35.7208 -13.6907
# 6 -32.3813 -23.0007 1.5923 5.6012 -13.6907 60.4929
#
#
#
# Elastic Compliance Matrix: (Units=1/GPa)
#
#
# Indices 1 2 3 4 5 6 
#
# 1 0.006083 -0.002840 -0.001670 -0.000370 0.007813 0.004023
# 2 -0.002840 0.011461 -0.000519 0.001022 -0.004538 0.001729
# 3 -0.001670 -0.000519 0.019232 0.010436 -0.003407 -0.003335
# 4 -0.000370 0.001022 0.010436 0.028256 -0.010456 -0.005067
# 5 0.007813 -0.004538 -0.003407 -0.010456 0.044611 0.013611
# 6 0.004023 0.001729 -0.003335 -0.005067 0.013611 0.022979
#
#
# Mechanical properties :
#
#
# Convention : Reuss Voigt Hill
#
# Bulk Modulus (GPa) = 37.42728 71.02381 54.22554
# Shear Modulus (GPa) = 32.98486 52.36397 42.67442
#
# Velocity S-wave (km/s) = 3.45996 4.35944 3.93548
# Velocity P-wave (km/s) = 5.43557 7.14959 6.35067
#
# Compressibility (1/GPa) = 0.02671848
#
# Stress axis : x y z
#
# Youngs Moduli (GPa) = 164.40522 87.25433 51.99559
#
# Poissons Ratio (x) = 0.24780 0.08682
# Poissons Ratio (y) = 0.46690 0.02698
# Poissons Ratio (z) = 0.27452 0.04528
#
# Static dielectric constant tensor:
#      x y z
#    x 2.223490 -0.027080 -0.027760 
#    y -0.027080 2.323930 -0.019880 
#    z -0.027760 -0.019880 2.340410 
# 
# From -- ./inp_files/398159.got.cif
#   From: 2010.05.17/outbox.cif.g08.bks.cpg/sg2_200_cif.got.tgz:398159.got - 2010.06.03 11:33:40.
