data_PCOD9035153
_publ_section_title
;
Structure prediction by ZEFSAII (Michael W. Deem and Ramdas Pophale) SiO2 
 PCOD9035153
Probable space group: P -1
;
_chemical_formula_sum "Si O2"
_cell_formula_units_Z 15
_cell_length_a 12.150682
_cell_length_b 9.203168
_cell_length_c 9.499717
_cell_angle_alpha 134.773628
_cell_angle_beta 80.713415
_cell_angle_gamma 122.076042
_cell_volume 597.742380
_symmetry_space_group_name_H-M "P -1"
_symmetry_group_IT_number 2
_symmetry_cell_setting 'triclinic'
loop_
_space_group_symop_operation_xyz
x,y,z
-x,-y,-z
loop_
_atom_site_type_symbol
_atom_site_label
_atom_site_fract_x
_atom_site_fract_y
_atom_site_fract_z
Si Si1 0.579541 0.242661 0.491474
Si Si2 0.645467 0.465273 0.342947
Si Si3 0.000000 0.500000 0.000000
Si Si4 0.737932 0.994122 0.560296
Si Si5 0.475750 0.236036 0.972115
Si Si6 0.292421 0.429325 0.058405
Si Si7 0.107262 0.900919 0.694838
Si Si8 0.126626 0.606536 0.738912
O O1 0.616485 0.444224 0.500024
O O2 0.684841 0.385451 0.695888
O O3 0.422029 0.106909 0.481075
O O4 0.583855 0.029619 0.269524
O O5 0.734379 0.358693 0.225945
O O6 0.723707 0.750945 0.464451
O O7 0.503435 0.272271 0.155905
O O8 0.048241 0.572199 0.874512
O O9 0.844276 0.241955 0.800538
O O10 0.797556 0.042298 0.422634
O O11 0.630067 0.420609 0.996618
O O12 0.384661 0.333434 0.019996
O O13 0.137580 0.175248 0.898536
O O14 0.138728 0.810308 0.769193
O O15 0.957449 0.660215 0.513391
#
# Coordination Sequence:
#
# PCOD9035153 Si02
#       8
#     2   2   1   2   2   2   2   2
#     4  12  25  40  70 106 141 183 235 284 345 416
#     4  12  24  44  69 106 139 181 232 293 347 409
#     4  10  24  42  72 102 130 182 228 292 334 418
#     4  11  23  45  69 100 145 182 230 287 350 408
#     4  11  23  41  64  98 139 183 223 289 348 402
#     4  11  22  42  66  97 139 184 230 283 340 418
#     4  10  22  45  71  93 141 192 223 284 349 413
#     4  10  24  45  72  99 137 184 234 286 351 410
#
# _framework density 25.094421000000001
#
# number of rings (size 3 to 8) (size 9 to 14) (size 15 to 20)
#    0.000    1.067    2.667    3.600    1.867    3.200 
#    2.400    2.000    0.000    0.000    0.000    0.000 
#    0.000    0.000    0.000    0.000    0.000    0.000 
#
# Total GULP energy -83757.902120 kJ/mol
# GULP energy per Si atom -5583.860141 kJ/mol
# Density = 2.503731 g / cm^3
# Si number density = 25.094421 Si / 1000 Ang^3
#
#
#
# Elastic Constant Matrix: (Units=GPa)
#
#
# Indices 1 2 3 4 5 6 
#
# 1 35.2452 8.6260 11.2925 -3.3071 -4.8224 -5.6334
# 2 8.6260 131.3413 41.3810 -7.6161 -5.8240 10.7266
# 3 11.2925 41.3810 137.2407 7.1296 16.5045 3.5914
# 4 -3.3071 -7.6161 7.1296 47.1119 0.9448 7.2117
# 5 -4.8224 -5.8240 16.5045 0.9448 33.3212 0.5227
# 6 -5.6334 10.7266 3.5914 7.2117 0.5227 23.2242
#
#
#
# Elastic Compliance Matrix: (Units=1/GPa)
#
#
# Indices 1 2 3 4 5 6 
#
# 1 0.031990 -0.001480 -0.003158 0.001072 0.005772 0.008469
# 2 -0.001480 0.009371 -0.003060 0.002594 0.002946 -0.005086
# 3 -0.003158 -0.003060 0.009236 -0.001998 -0.005509 -0.000037
# 4 0.001072 0.002594 -0.001998 0.023205 0.001063 -0.007858
# 5 0.005772 0.002946 -0.005509 0.001063 0.034063 -0.000205
# 6 0.008469 -0.005086 -0.000037 -0.007858 -0.000205 0.049912
#
#
# Mechanical properties :
#
#
# Convention : Reuss Voigt Hill
#
# Bulk Modulus (GPa) = 28.40600 47.38067 37.89334
# Shear Modulus (GPa) = 27.04071 36.89997 31.97034
#
# Velocity S-wave (km/s) = 3.28618 3.83880 3.57319
# Velocity P-wave (km/s) = 5.07374 6.21051 5.67068
#
# Compressibility (1/GPa) = 0.03520382
#
# Stress axis : x y z
#
# Youngs Moduli (GPa) = 31.25945 106.70844 108.27003
#
# Poissons Ratio (x) = 0.15790 0.34186
# Poissons Ratio (y) = 0.04626 0.33128
# Poissons Ratio (z) = 0.09870 0.32650
#
# Static dielectric constant tensor:
#      x y z
#    x 2.001030 -0.017240 0.008750 
#    y -0.017240 1.992290 0.058150 
#    z 0.008750 0.058150 1.986780 
# 
# From -- ./inp_files/296833.got.cif
#   From: 2010.05.17/outbox.cif.g08.bks.cpg/sg2_149_cif.got.tgz:296833.got - 2010.06.03 11:33:40.
