data_PCOD9035146
_publ_section_title
;
Structure prediction by ZEFSAII (Michael W. Deem and Ramdas Pophale) SiO2 
 PCOD9035146
Probable space group: P -1
;
_chemical_formula_sum "Si O2"
_cell_formula_units_Z 16
_cell_length_a 5.393825
_cell_length_b 23.168517
_cell_length_c 5.088456
_cell_angle_alpha 110.455598
_cell_angle_beta 85.463431
_cell_angle_gamma 95.421583
_cell_volume 592.402281
_symmetry_space_group_name_H-M "P -1"
_symmetry_group_IT_number 2
_symmetry_cell_setting 'triclinic'
loop_
_space_group_symop_operation_xyz
x,y,z
-x,-y,-z
loop_
_atom_site_type_symbol
_atom_site_label
_atom_site_fract_x
_atom_site_fract_y
_atom_site_fract_z
Si Si1 0.031006 0.731687 0.509262
Si Si2 0.300458 0.963464 0.645199
Si Si3 0.953542 0.920576 0.133470
Si Si4 0.159944 0.461901 0.720787
Si Si5 0.665873 0.426216 0.494923
Si Si6 0.345562 0.206839 0.059907
Si Si7 0.307464 0.694732 0.959688
Si Si8 0.306850 0.855950 0.679575
O O1 0.758819 0.741292 0.655077
O O2 0.186581 0.716046 0.730939
O O3 0.123017 0.800669 0.509962
O O4 0.098266 0.689912 0.194087
O O5 0.461169 0.897108 0.529055
O O6 0.073138 0.940300 0.429614
O O7 0.500000 0.000000 0.500000
O O8 0.221107 0.029796 0.890292
O O9 0.866830 0.847461 0.055434
O O10 0.170881 0.917414 0.881520
O O11 0.426752 0.434189 0.717357
O O12 0.254518 0.510307 0.563642
O O13 0.938892 0.413029 0.566305
O O14 0.000000 0.500000 0.000000
O O15 0.590426 0.371313 0.212428
O O16 0.480955 0.250694 0.898890
O O17 0.542700 0.170072 0.141568
#
# Coordination Sequence:
#
# PCOD9035146 Si02
#       8
#     2   2   2   2   2   2   2   2
#     4  10  26  45  70 100 142 184 241 296 361 429
#     4  11  24  38  65  93 123 167 218 288 357 437
#     4  10  23  42  61  92 127 167 220 287 357 437
#     4  10  22  45  71 111 151 200 243 304 367 426
#     4  10  24  42  72 109 150 195 251 304 360 439
#     4  10  24  46  69  95 134 184 228 299 359 435
#     4  11  26  47  70 110 140 192 245 295 360 429
#     4  10  23  43  61  90 126 170 222 283 359 428
#
# _framework density 27.008673000000002
#
# number of rings (size 3 to 8) (size 9 to 14) (size 15 to 20)
#    0.000    1.750    0.000    1.500   10.500    8.000 
#    2.250    0.000    0.000    0.000    0.000    0.000 
#    0.000    0.000    0.000    0.000    0.000    0.000 
#
# Total GULP energy -89191.260976 kJ/mol
# GULP energy per Si atom -5574.453811 kJ/mol
# Density = 2.694720 g / cm^3
# Si number density = 27.008673 Si / 1000 Ang^3
#
#
#
# Elastic Constant Matrix: (Units=GPa)
#
#
# Indices 1 2 3 4 5 6 
#
# 1 119.5816 25.1837 31.9132 3.1865 -32.4720 13.8877
# 2 25.1837 104.7265 5.4431 4.5734 16.6568 10.6406
# 3 31.9132 5.4431 93.1978 -2.5798 -26.6394 -5.9417
# 4 3.1865 4.5734 -2.5798 35.1028 0.4022 0.9505
# 5 -32.4720 16.6568 -26.6394 0.4022 53.2888 2.1514
# 6 13.8877 10.6406 -5.9417 0.9505 2.1514 23.5925
#
#
#
# Elastic Compliance Matrix: (Units=1/GPa)
#
#
# Indices 1 2 3 4 5 6 
#
# 1 0.012739 -0.003435 -0.002373 -0.000778 0.007948 -0.007241
# 2 -0.003435 0.011850 -0.001592 -0.001192 -0.006459 -0.003087
# 3 -0.002373 -0.001592 0.013598 0.001223 0.005640 0.004976
# 4 -0.000778 -0.001192 0.001223 0.028797 0.000287 0.000117
# 5 0.007948 -0.006459 0.005640 0.000287 0.028565 -0.002961
# 6 -0.007241 -0.003087 0.004976 0.000117 -0.002961 0.049559
#
#
# Mechanical properties :
#
#
# Convention : Reuss Voigt Hill
#
# Bulk Modulus (GPa) = 42.75544 49.17620 45.96582
# Shear Modulus (GPa) = 29.81439 39.39454 34.60446
#
# Velocity S-wave (km/s) = 3.32608 3.82329 3.58332
# Velocity P-wave (km/s) = 5.53308 6.14306 5.84603
#
# Compressibility (1/GPa) = 0.02338884
#
# Stress axis : x y z
#
# Youngs Moduli (GPa) = 78.49906 84.38560 73.53767
#
# Poissons Ratio (x) = 0.28982 0.17449
# Poissons Ratio (y) = 0.26961 0.11708
# Poissons Ratio (z) = 0.18627 0.13435
#
# Static dielectric constant tensor:
#      x y z
#    x 2.250040 -0.052030 -0.043000 
#    y -0.052030 2.064300 0.070610 
#    z -0.043000 0.070610 2.332370 
# 
# From -- ./inp_files/13683.got.cif
#   From: 2010.05.17/outbox.cif.g08.bks.cpg/sg2_7_cif.got.tgz:13683.got - 2010.06.03 11:33:40.
