data_PCOD9035683
_publ_section_title
;
Structure prediction by ZEFSAII (Michael W. Deem and Ramdas Pophale) SiO2 
 PCOD9035683
Probable space group: P -1
;
_chemical_formula_sum "Si O2"
_cell_formula_units_Z 14
_cell_length_a 10.362265
_cell_length_b 9.210202
_cell_length_c 16.552734
_cell_angle_alpha 127.353282
_cell_angle_beta 134.054345
_cell_angle_gamma 88.212913
_cell_volume 658.450589
_symmetry_space_group_name_H-M "P -1"
_symmetry_group_IT_number 2
_symmetry_cell_setting 'triclinic'
loop_
_space_group_symop_operation_xyz
x,y,z
-x,-y,-z
loop_
_atom_site_type_symbol
_atom_site_label
_atom_site_fract_x
_atom_site_fract_y
_atom_site_fract_z
Si Si1 0.214948 0.490463 0.432486
Si Si2 0.379565 0.077842 0.529538
Si Si3 0.036845 0.436549 0.770938
Si Si4 0.284607 0.697646 0.807594
Si Si5 0.511215 0.430278 0.275916
Si Si6 0.046656 0.002206 0.115815
Si Si7 0.213275 0.724082 0.110135
O O1 0.443525 0.640130 0.642554
O O2 0.188833 0.612119 0.387695
O O3 0.974745 0.378477 0.343192
O O4 0.165087 0.260401 0.294239
O O5 0.415095 0.307512 0.590316
O O6 0.534172 0.180353 0.714589
O O7 0.500000 0.000000 0.500000
O O8 0.095727 0.833066 0.341589
O O9 0.240654 0.576291 0.836222
O O10 0.146036 0.623325 0.956080
O O11 0.331831 0.571598 0.721809
O O12 0.500000 0.000000 0.000000
O O13 0.233001 0.226205 0.054131
O O14 0.202753 0.933894 0.181502
O O15 0.000000 0.000000 0.000000
O O16 0.000000 0.500000 0.000000
#
# Coordination Sequence:
#
# PCOD9035683 Si02
#       7
#     2   2   2   2   2   2   2
#     4  10  24  41  68  94 129 162 224 271 321 379
#     4  12  25  42  66  94 137 172 212 264 327 396
#     4  10  24  43  63  98 129 173 214 266 325 385
#     4  10  22  46  70  93 132 165 224 277 321 380
#     4  12  24  42  67  96 126 179 215 267 331 380
#     4  12  23  39  64  99 128 169 223 266 324 386
#     4  12  23  43  65  92 139 174 211 266 327 385
#
# _framework density 21.262035000000001
#
# number of rings (size 3 to 8) (size 9 to 14) (size 15 to 20)
#    0.857    0.000    5.714    1.286    2.000    1.143 
#    0.000    0.714    0.000    0.000    0.000    0.000 
#    0.000    0.000    0.000    0.000    0.000    0.000 
#
# Total GULP energy -78163.988362 kJ/mol
# GULP energy per Si atom -5583.142026 kJ/mol
# Density = 2.121364 g / cm^3
# Si number density = 21.262035 Si / 1000 Ang^3
#
#
#
# Elastic Constant Matrix: (Units=GPa)
#
#
# Indices 1 2 3 4 5 6 
#
# 1 100.2098 19.1122 17.7204 6.0220 -21.3625 10.0038
# 2 19.1122 57.3506 -10.0872 -1.9544 -6.9693 4.2503
# 3 17.7204 -10.0872 52.8481 -8.5994 -0.0578 7.3076
# 4 6.0220 -1.9544 -8.5994 43.7096 4.4120 3.0589
# 5 -21.3625 -6.9693 -0.0578 4.4120 34.8851 0.6344
# 6 10.0038 4.2503 7.3076 3.0589 0.6344 29.6725
#
#
#
# Elastic Compliance Matrix: (Units=1/GPa)
#
#
# Indices 1 2 3 4 5 6 
#
# 1 0.014182 -0.004729 -0.005969 -0.004008 0.008280 -0.002398
# 2 -0.004729 0.020603 0.006457 0.002980 0.000914 -0.003274
# 3 -0.005969 0.006457 0.023962 0.006513 -0.003051 -0.005420
# 4 -0.004008 0.002980 0.006513 0.025577 -0.005025 -0.003209
# 5 0.008280 0.000914 -0.003051 -0.005025 0.034593 -0.002393
# 6 -0.002398 -0.003274 -0.005420 -0.003209 -0.002393 0.036695
#
#
# Mechanical properties :
#
#
# Convention : Reuss Voigt Hill
#
# Bulk Modulus (GPa) = 19.89478 29.32214 24.60846
# Shear Modulus (GPa) = 27.64728 33.89765 30.77246
#
# Velocity S-wave (km/s) = 3.60990 3.99718 3.80846
# Velocity P-wave (km/s) = 5.17227 5.92655 5.56221
#
# Compressibility (1/GPa) = 0.05026445
#
# Stress axis : x y z
#
# Youngs Moduli (GPa) = 70.51215 48.53576 41.73274
#
# Poissons Ratio (x) = 0.22951 0.24912
# Poissons Ratio (y) = 0.33343 -0.26946
# Poissons Ratio (z) = 0.42092 -0.31338
#
# Static dielectric constant tensor:
#      x y z
#    x 1.792550 0.042060 0.052760 
#    y 0.042060 1.806490 0.012770 
#    z 0.052760 0.012770 1.774490 
# 
# From -- ./inp_files/566958.got.cif
#   From: 2010.05.17/outbox.cif.g08.bks.cpg/sg2_284_cif.got.tgz:566958.got - 2010.06.03 11:33:40.
