data_PCOD9035566
_publ_section_title
;
Structure prediction by ZEFSAII (Michael W. Deem and Ramdas Pophale) SiO2 
 PCOD9035566
Probable space group: P -1
;
_chemical_formula_sum "Si O2"
_cell_formula_units_Z 16
_cell_length_a 11.484960
_cell_length_b 8.244642
_cell_length_c 11.085886
_cell_angle_alpha 78.005706
_cell_angle_beta 105.484536
_cell_angle_gamma 136.650591
_cell_volume 694.269532
_symmetry_space_group_name_H-M "P -1"
_symmetry_group_IT_number 2
_symmetry_cell_setting 'triclinic'
loop_
_space_group_symop_operation_xyz
x,y,z
-x,-y,-z
loop_
_atom_site_type_symbol
_atom_site_label
_atom_site_fract_x
_atom_site_fract_y
_atom_site_fract_z
Si Si1 0.056043 0.903916 0.662973
Si Si2 0.539801 0.351448 0.074746
Si Si3 0.722900 0.520336 0.771737
Si Si4 0.615300 0.905517 0.176895
Si Si5 0.755718 0.907045 0.803296
Si Si6 0.979947 0.205510 0.586539
Si Si7 0.105469 0.646408 0.122208
Si Si8 0.801749 0.394137 0.246876
O O1 0.856643 0.676240 0.676304
O O2 0.098396 0.850063 0.558896
O O3 0.196295 0.993280 0.787892
O O4 0.069688 0.113799 0.618782
O O5 0.439902 0.240183 0.192496
O O6 0.733975 0.487965 0.137828
O O7 0.500000 0.500000 0.000000
O O8 0.464827 0.172984 0.967847
O O9 0.516919 0.329937 0.740981
O O10 0.777089 0.728930 0.840071
O O11 0.749033 0.352305 0.837750
O O12 0.652387 0.117051 0.218960
O O13 0.847417 0.114843 0.893884
O O14 0.834325 0.045382 0.675806
O O15 0.128495 0.478407 0.624857
O O16 0.974311 0.491547 0.219356
O O17 0.000000 0.500000 0.000000
#
# Coordination Sequence:
#
# PCOD9035566 Si02
#       8
#     2   2   2   2   2   2   2   2
#     4  10  22  46  68  94 132 174 228 281 326 394
#     4  12  23  40  63  99 137 168 222 271 328 414
#     4  11  23  43  64 100 132 175 229 269 338 398
#     4  12  23  41  67  99 136 176 215 275 338 398
#     4  10  23  41  64  93 132 176 219 275 330 399
#     4   9  22  45  68  92 129 176 226 280 332 391
#     4  11  22  40  63  94 135 176 222 276 330 404
#     4  11  23  41  64  97 134 178 212 280 341 387
#
# _framework density 23.045804
#
# number of rings (size 3 to 8) (size 9 to 14) (size 15 to 20)
#    0.000    1.250    2.500    3.375    0.000    1.000 
#    2.250    2.500    0.000    0.000    0.000    0.000 
#    0.000    0.000    0.000    0.000    0.000    0.000 
#
# Total GULP energy -89125.353825 kJ/mol
# GULP energy per Si atom -5570.334614 kJ/mol
# Density = 2.299335 g / cm^3
# Si number density = 23.045804 Si / 1000 Ang^3
#
#
#
# Elastic Constant Matrix: (Units=GPa)
#
#
# Indices 1 2 3 4 5 6 
#
# 1 91.9308 36.7136 22.8857 3.9480 -18.2721 -14.9106
# 2 36.7136 124.2961 14.4660 9.5421 -18.2408 -23.5852
# 3 22.8857 14.4660 67.9024 15.4412 -25.4216 -0.4638
# 4 3.9480 9.5421 15.4412 27.3735 -2.0349 -13.5627
# 5 -18.2721 -18.2408 -25.4216 -2.0349 36.8029 -0.3172
# 6 -14.9106 -23.5852 -0.4638 -13.5627 -0.3172 44.5912
#
#
#
# Elastic Compliance Matrix: (Units=1/GPa)
#
#
# Indices 1 2 3 4 5 6 
#
# 1 0.014077 -0.002682 -0.003642 0.003334 0.003365 0.004288
# 2 -0.002682 0.010265 0.000526 -0.001084 0.004096 0.004237
# 3 -0.003642 0.000526 0.024719 -0.015070 0.014649 -0.005162
# 4 0.003334 -0.001084 -0.015070 0.052554 -0.006245 0.016325
# 5 0.003365 0.004096 0.014649 -0.006245 0.040662 0.001834
# 6 0.004288 0.004237 -0.005162 0.016325 0.001834 0.031026
#
#
# Mechanical properties :
#
#
# Convention : Reuss Voigt Hill
#
# Bulk Modulus (GPa) = 26.69262 48.02887 37.36075
# Shear Modulus (GPa) = 25.33104 35.75779 30.54441
#
# Velocity S-wave (km/s) = 3.31896 3.94330 3.64452
# Velocity P-wave (km/s) = 5.12785 6.45126 5.82725
#
# Compressibility (1/GPa) = 0.03746354
#
# Stress axis : x y z
#
# Youngs Moduli (GPa) = 71.03839 97.42154 40.45526
#
# Poissons Ratio (x) = 0.26133 0.14734
# Poissons Ratio (y) = 0.19056 -0.02129
# Poissons Ratio (z) = 0.25873 -0.05126
#
# Static dielectric constant tensor:
#      x y z
#    x 1.756850 -0.021470 0.061450 
#    y -0.021470 1.942230 -0.098700 
#    z 0.061450 -0.098700 1.850650 
# 
# From -- ./inp_files/417158.got.cif
#   From: 2010.05.17/outbox.cif.g08.bks.cpg/sg2_209_cif.got.tgz:417158.got - 2010.06.03 11:33:40.
