data_PCOD9035660
_publ_section_title
;
Structure prediction by ZEFSAII (Michael W. Deem and Ramdas Pophale) SiO2 
 PCOD9035660
Probable space group: P -1
;
_chemical_formula_sum "Si O2"
_cell_formula_units_Z 15
_cell_length_a 8.617175
_cell_length_b 18.356702
_cell_length_c 5.048654
_cell_angle_alpha 74.531817
_cell_angle_beta 83.843502
_cell_angle_gamma 127.753014
_cell_volume 568.913016
_symmetry_space_group_name_H-M "P -1"
_symmetry_group_IT_number 2
_symmetry_cell_setting 'triclinic'
loop_
_space_group_symop_operation_xyz
x,y,z
-x,-y,-z
loop_
_atom_site_type_symbol
_atom_site_label
_atom_site_fract_x
_atom_site_fract_y
_atom_site_fract_z
Si Si1 0.307204 0.448806 0.888905
Si Si2 0.384271 0.732203 0.220415
Si Si3 0.000191 0.827864 0.396813
Si Si4 0.000000 0.000000 0.000000
Si Si5 0.895674 0.384477 0.115889
Si Si6 0.744363 0.131584 0.169225
Si Si7 0.422886 0.083126 0.661078
Si Si8 0.407620 0.343625 0.616909
O O1 0.302107 0.375713 0.772136
O O2 0.375788 0.546291 0.620544
O O3 0.086201 0.388678 0.126700
O O4 0.500000 0.500000 0.000000
O O5 0.204777 0.664707 0.102556
O O6 0.498715 0.847672 0.158499
O O7 0.552389 0.719419 0.162365
O O8 0.280393 0.678617 0.571770
O O9 0.030807 0.923389 0.190697
O O10 0.753011 0.729622 0.515579
O O11 0.099763 0.847069 0.646566
O O12 0.119160 0.812059 0.175658
O O13 0.805727 0.954024 0.296449
O O14 0.000000 0.500000 0.000000
O O15 0.596852 0.144338 0.336914
O O16 0.600951 0.014295 0.223363
#
# Coordination Sequence:
#
# PCOD9035660 Si02
#       8
#     2   2   2   1   2   2   2   2
#     4  11  27  46  73 103 146 190 236 305 359 427
#     4  12  27  46  74 105 140 190 244 292 359 433
#     4  11  25  45  72 106 138 193 231 296 351 434
#     4  10  22  46  70 104 142 178 236 286 358 408
#     4  12  27  47  73 103 144 185 238 297 360 422
#     4  10  26  45  71 101 150 181 239 288 363 417
#     4  10  24  47  70 106 140 191 232 300 347 431
#     4  11  26  46  69 106 142 189 242 296 361 429
#
# _framework density 26.366071000000002
#
# number of rings (size 3 to 8) (size 9 to 14) (size 15 to 20)
#    0.000    1.067    2.667    1.200    9.333    9.067 
#    0.000    0.000    0.000    0.000    0.000    0.000 
#    0.000    0.000    0.000    0.000    0.000    0.000 
#
# Total GULP energy -83761.483806 kJ/mol
# GULP energy per Si atom -5584.098920 kJ/mol
# Density = 2.630606 g / cm^3
# Si number density = 26.366071 Si / 1000 Ang^3
#
#
#
# Elastic Constant Matrix: (Units=GPa)
#
#
# Indices 1 2 3 4 5 6 
#
# 1 136.5704 32.6142 18.5448 17.7344 -22.8744 -12.5515
# 2 32.6142 178.4080 29.0475 24.0917 14.5445 -13.2535
# 3 18.5448 29.0475 63.6550 25.3167 -0.8347 -8.7059
# 4 17.7344 24.0917 25.3167 37.6151 8.3813 2.9295
# 5 -22.8744 14.5445 -0.8347 8.3813 41.5622 6.7978
# 6 -12.5515 -13.2535 -8.7059 2.9295 6.7978 35.0530
#
#
#
# Elastic Compliance Matrix: (Units=1/GPa)
#
#
# Indices 1 2 3 4 5 6 
#
# 1 0.009634 -0.001459 0.000454 -0.005551 0.006582 0.002198
# 2 -0.001459 0.006860 -0.001558 -0.002135 -0.003211 0.002486
# 3 0.000454 -0.001558 0.023722 -0.016460 0.003586 0.006145
# 4 -0.005551 -0.002135 -0.016460 0.044597 -0.010220 -0.008628
# 5 0.006582 -0.003211 0.003586 -0.010220 0.031465 -0.003215
# 6 0.002198 0.002486 0.006145 -0.008628 -0.003215 0.033126
#
#
# Mechanical properties :
#
#
# Convention : Reuss Voigt Hill
#
# Bulk Modulus (GPa) = 28.49825 59.89405 44.19615
# Shear Modulus (GPa) = 30.07898 42.74118 36.41008
#
# Velocity S-wave (km/s) = 3.38127 4.03062 3.72014
# Velocity P-wave (km/s) = 5.10648 6.66534 5.93729
#
# Compressibility (1/GPa) = 0.03508987
#
# Stress axis : x y z
#
# Youngs Moduli (GPa) = 103.79625 145.76631 42.15418
#
# Poissons Ratio (x) = 0.21263 -0.01912
# Poissons Ratio (y) = 0.15141 0.06569
# Poissons Ratio (z) = -0.04708 0.22717
#
# Static dielectric constant tensor:
#      x y z
#    x 2.083800 0.019930 0.036740 
#    y 0.019930 2.087820 -0.016450 
#    z 0.036740 -0.016450 2.127890 
# 
# From -- ./inp_files/47812.got.cif
#   From: 2010.05.17/outbox.cif.g08.bks.cpg/sg2_24_cif.got.tgz:47812.got - 2010.06.03 11:33:40.
