data_PCOD9035948
_publ_section_title
;
Structure prediction by ZEFSAII (Michael W. Deem and Ramdas Pophale) SiO2 
 PCOD9035948
Probable space group: P -1
;
_chemical_formula_sum "Si O2"
_cell_formula_units_Z 14
_cell_length_a 16.087798
_cell_length_b 8.360463
_cell_length_c 5.942918
_cell_angle_alpha 59.090421
_cell_angle_beta 66.027882
_cell_angle_gamma 69.521956
_cell_volume 616.414230
_symmetry_space_group_name_H-M "P -1"
_symmetry_group_IT_number 2
_symmetry_cell_setting 'triclinic'
loop_
_space_group_symop_operation_xyz
x,y,z
-x,-y,-z
loop_
_atom_site_type_symbol
_atom_site_label
_atom_site_fract_x
_atom_site_fract_y
_atom_site_fract_z
Si Si1 0.075632 0.500755 0.722864
Si Si2 0.207219 0.622970 0.801069
Si Si3 0.654329 0.578123 0.825652
Si Si4 0.026933 0.778939 0.184465
Si Si5 0.606001 0.916541 0.354562
Si Si6 0.515911 0.697932 0.246832
Si Si7 0.327826 0.792679 0.225116
O O1 0.172583 0.487104 0.751200
O O2 0.055921 0.696908 0.460723
O O3 0.057283 0.330360 0.707623
O O4 0.000000 0.500000 0.000000
O O5 0.246384 0.782448 0.498422
O O6 0.280758 0.511071 0.975763
O O7 0.117173 0.706376 0.985160
O O8 0.668637 0.774087 0.558932
O O9 0.655626 0.414934 0.758345
O O10 0.554063 0.648574 0.992916
O O11 0.000000 0.000000 0.000000
O O12 0.583980 0.789725 0.259190
O O13 0.500000 0.000000 0.500000
O O14 0.666665 0.066481 0.089355
O O15 0.500000 0.500000 0.500000
O O16 0.415586 0.825544 0.251968
#
# Coordination Sequence:
#
# PCOD9035948 Si02
#       7
#     2   2   2   2   2   2   2
#     4   9  21  45  72 102 132 174 213 272 343 423
#     4  11  24  43  68  98 146 174 219 286 343 402
#     4  12  24  43  65  96 137 182 233 285 341 390
#     4  10  22  46  78 102 130 176 223 269 344 423
#     4  12  26  41  68  96 132 190 245 279 337 401
#     4  12  22  42  69  90 129 188 234 285 341 401
#     4  12  25  43  65  97 136 181 236 288 339 393
#
# _framework density 22.712001000000001
#
# number of rings (size 3 to 8) (size 9 to 14) (size 15 to 20)
#    0.000    0.857    4.286    2.571    0.000    2.286 
#    0.000   27.143    0.000    0.000    0.000    0.000 
#    0.000    0.000    0.000    0.000    0.000    0.000 
#
# Total GULP energy -78148.144803 kJ/mol
# GULP energy per Si atom -5582.010343 kJ/mol
# Density = 2.266031 g / cm^3
# Si number density = 22.712001 Si / 1000 Ang^3
#
#
#
# Elastic Constant Matrix: (Units=GPa)
#
#
# Indices 1 2 3 4 5 6 
#
# 1 95.6998 6.7712 29.6595 -6.3431 3.8558 3.5473
# 2 6.7712 67.6400 43.9291 -18.9305 -0.7465 -4.0648
# 3 29.6595 43.9291 186.7870 -35.0475 -12.4570 -12.6065
# 4 -6.3431 -18.9305 -35.0475 51.5280 -5.3922 -0.4183
# 5 3.8558 -0.7465 -12.4570 -5.3922 38.6302 8.3556
# 6 3.5473 -4.0648 -12.6065 -0.4183 8.3556 14.1794
#
#
#
# Elastic Compliance Matrix: (Units=1/GPa)
#
#
# Indices 1 2 3 4 5 6 
#
# 1 0.011307 -0.000050 -0.002178 -0.000241 -0.000951 -0.004225
# 2 -0.000050 0.018355 -0.003335 0.004417 -0.000718 0.002863
# 3 -0.002178 -0.003335 0.007739 0.004029 0.002047 0.005382
# 4 -0.000241 0.004417 0.004029 0.024194 0.004091 0.003211
# 5 -0.000951 -0.000718 0.002047 0.004091 0.030683 -0.016108
# 6 -0.004225 0.002863 0.005382 0.003211 -0.016108 0.086775
#
#
# Mechanical properties :
#
#
# Convention : Reuss Voigt Hill
#
# Bulk Modulus (GPa) = 38.05560 56.76072 47.40816
# Shear Modulus (GPa) = 25.13356 38.85198 31.99277
#
# Velocity S-wave (km/s) = 3.33020 4.14047 3.75724
# Velocity P-wave (km/s) = 5.61953 6.92125 6.30408
#
# Compressibility (1/GPa) = 0.02627734
#
# Stress axis : x y z
#
# Youngs Moduli (GPa) = 88.44305 54.48016 129.20776
#
# Poissons Ratio (x) = 0.00270 0.28137
# Poissons Ratio (y) = 0.00439 0.43089
# Poissons Ratio (z) = 0.19260 0.18168
#
# Static dielectric constant tensor:
#      x y z
#    x 1.932110 -0.015120 0.095030 
#    y -0.015120 1.853010 0.001770 
#    z 0.095030 0.001770 2.010370 
# 
# From -- ./inp_files/89615.got.cif
#   From: 2010.05.17/outbox.cif.g08.bks.cpg/sg2_45_cif.got.tgz:89615.got - 2010.06.03 11:33:40.
