data_PCOD9035126
_publ_section_title
;
Structure prediction by ZEFSAII (Michael W. Deem and Ramdas Pophale) SiO2 
 PCOD9035126
Probable space group: P -1
;
_chemical_formula_sum "Si O2"
_cell_formula_units_Z 11
_cell_length_a 9.550418
_cell_length_b 7.434293
_cell_length_c 8.988488
_cell_angle_alpha 90.260679
_cell_angle_beta 140.084483
_cell_angle_gamma 85.151668
_cell_volume 406.215615
_symmetry_space_group_name_H-M "P -1"
_symmetry_group_IT_number 2
_symmetry_cell_setting 'triclinic'
loop_
_space_group_symop_operation_xyz
x,y,z
-x,-y,-z
loop_
_atom_site_type_symbol
_atom_site_label
_atom_site_fract_x
_atom_site_fract_y
_atom_site_fract_z
Si Si1 0.132556 0.883009 0.787846
Si Si2 0.482173 0.362436 0.743728
Si Si3 0.723937 0.870132 0.660059
Si Si4 0.500000 0.500000 0.500000
Si Si5 0.878813 0.726648 0.333164
Si Si6 0.980073 0.336898 0.873133
O O1 0.897634 0.927932 0.681276
O O2 0.076311 0.752685 0.607310
O O3 0.205444 0.065541 0.780979
O O4 0.315808 0.780319 0.042696
O O5 0.354772 0.314447 0.481592
O O6 0.555788 0.537970 0.731217
O O7 0.306600 0.362406 0.730112
O O8 0.500000 0.000000 0.500000
O O9 0.863441 0.827614 0.922837
O O10 0.720427 0.336306 0.667832
O O11 0.956555 0.631282 0.244328
O O12 0.000000 0.500000 0.000000
#
# Coordination Sequence:
#
# PCOD9035126 Si02
#       6
#     2   2   2   1   2   2
#     4  10  22  45  71 105 142 179 237 291 354 415
#     4  11  23  45  70 102 140 187 233 290 348 419
#     4  11  24  41  73 106 139 184 237 294 348 415
#     4  12  26  44  72  98 144 196 232 276 360 420
#     4  10  25  43  72 103 141 184 234 294 351 412
#     4  12  26  47  69 102 147 185 236 289 347 425
#
# _framework density 27.079214
#
# number of rings (size 3 to 8) (size 9 to 14) (size 15 to 20)
#    0.000    1.091    3.636    1.636    2.545    6.545 
#    0.000    1.818    0.000    0.000    0.000    0.000 
#    0.000    0.000    0.000    0.000    0.000    0.000 
#
# Total GULP energy -61469.545796 kJ/mol
# GULP energy per Si atom -5588.140527 kJ/mol
# Density = 2.701758 g / cm^3
# Si number density = 27.079214 Si / 1000 Ang^3
#
#
#
# Elastic Constant Matrix: (Units=GPa)
#
#
# Indices 1 2 3 4 5 6 
#
# 1 268.8435 50.8434 90.3333 -11.8511 -17.9058 -6.7212
# 2 50.8434 91.1966 62.7005 -16.2539 -0.4904 -7.5299
# 3 90.3333 62.7005 192.5813 -53.1063 -15.6702 -9.7768
# 4 -11.8511 -16.2539 -53.1063 59.7443 1.9448 -8.2950
# 5 -17.9058 -0.4904 -15.6702 1.9448 48.8425 -4.5207
# 6 -6.7212 -7.5299 -9.7768 -8.2950 -4.5207 46.3478
#
#
#
# Elastic Compliance Matrix: (Units=1/GPa)
#
#
# Indices 1 2 3 4 5 6 
#
# 1 0.004680 -0.001477 -0.001985 -0.001288 0.001106 -0.000103
# 2 -0.001477 0.014750 -0.004096 0.000300 -0.001607 0.001215
# 3 -0.001985 -0.004096 0.009873 0.007568 0.002349 0.002713
# 4 -0.001288 0.000300 0.007568 0.024062 0.001548 0.005916
# 5 0.001106 -0.001607 0.002349 0.001548 0.021814 0.002800
# 6 -0.000103 0.001215 0.002713 0.005916 0.002800 0.023663
#
#
# Mechanical properties :
#
#
# Convention : Reuss Voigt Hill
#
# Bulk Modulus (GPa) = 70.48156 106.70843 88.59500
# Shear Modulus (GPa) = 42.12771 54.23653 48.18212
#
# Velocity S-wave (km/s) = 3.94854 4.48021 4.22275
# Velocity P-wave (km/s) = 6.84634 8.13970 7.52087
#
# Compressibility (1/GPa) = 0.01418811
#
# Stress axis : x y z
#
# Youngs Moduli (GPa) = 213.66760 67.79754 101.28561
#
# Poissons Ratio (x) = 0.10011 0.20105
# Poissons Ratio (y) = 0.31551 0.41485
# Poissons Ratio (z) = 0.42412 0.27769
#
# Static dielectric constant tensor:
#      x y z
#    x 2.326930 0.222830 0.043080 
#    y 0.222830 2.450540 0.086490 
#    z 0.043080 0.086490 2.083930 
# 
# From -- ./inp_files/17641.got.cif
#   From: 2010.05.17/outbox.cif.g08.bks.cpg/sg2_9_cif.got.tgz:17641.got - 2010.06.03 11:33:40.
