data_PCOD9035487
_publ_section_title
;
Structure prediction by ZEFSAII (Michael W. Deem and Ramdas Pophale) SiO2 
 PCOD9035487
Probable space group: P -1
;
_chemical_formula_sum "Si O2"
_cell_formula_units_Z 15
_cell_length_a 11.496166
_cell_length_b 11.627925
_cell_length_c 5.358044
_cell_angle_alpha 96.659428
_cell_angle_beta 75.891246
_cell_angle_gamma 130.698183
_cell_volume 525.743511
_symmetry_space_group_name_H-M "P -1"
_symmetry_group_IT_number 2
_symmetry_cell_setting 'triclinic'
loop_
_space_group_symop_operation_xyz
x,y,z
-x,-y,-z
loop_
_atom_site_type_symbol
_atom_site_label
_atom_site_fract_x
_atom_site_fract_y
_atom_site_fract_z
Si Si1 0.764366 0.379045 0.643682
Si Si2 0.397666 0.354369 0.190872
Si Si3 0.859596 0.658981 0.390858
Si Si4 0.495579 0.182186 0.102905
Si Si5 0.839637 0.847106 0.139582
Si Si6 0.808974 0.035070 0.519284
Si Si7 0.000000 0.500000 0.000000
Si Si8 0.245266 0.818622 0.786698
O O1 0.829701 0.504185 0.417142
O O2 0.784150 0.267832 0.480588
O O3 0.878771 0.471519 0.837651
O O4 0.586933 0.266541 0.816531
O O5 0.292722 0.376174 0.409635
O O6 0.495888 0.312060 0.259146
O O7 0.500000 0.500000 0.000000
O O8 0.290366 0.217547 0.016248
O O9 0.853609 0.718662 0.143111
O O10 0.018717 0.808728 0.470336
O O11 0.604173 0.152635 0.170925
O O12 0.320579 0.024407 0.213899
O O13 0.813976 0.901289 0.423036
O O14 0.000000 0.000000 0.000000
O O15 0.748041 0.049697 0.292350
O O16 0.098801 0.686767 0.994250
#
# Coordination Sequence:
#
# PCOD9035487 Si02
#       8
#     2   2   2   2   2   2   1   2
#     4  11  25  45  75 107 141 191 244 297 364 426
#     4  12  26  47  72 110 143 192 245 304 362 431
#     4  12  25  46  75 108 142 188 251 299 358 437
#     4  11  26  46  69 101 152 178 245 297 356 437
#     4  12  27  46  76 108 146 194 240 299 375 428
#     4  12  25  49  71 104 148 189 240 300 360 444
#     4  10  22  46  66 106 140 182 244 302 338 432
#     4  11  26  46  73 105 143 195 240 295 365 427
#
# _framework density 28.531019000000001
#
# number of rings (size 3 to 8) (size 9 to 14) (size 15 to 20)
#    0.000    0.533    5.333    2.000    3.733    2.133 
#    7.200    0.000    0.000    0.000    0.000    0.000 
#    0.000    0.000    0.000    0.000    0.000    0.000 
#
# Total GULP energy -83838.454933 kJ/mol
# GULP energy per Si atom -5589.230329 kJ/mol
# Density = 2.846608 g / cm^3
# Si number density = 28.531019 Si / 1000 Ang^3
#
#
#
# Elastic Constant Matrix: (Units=GPa)
#
#
# Indices 1 2 3 4 5 6 
#
# 1 109.9175 31.8060 14.3585 -17.8660 10.8321 -6.9800
# 2 31.8060 116.8809 25.8809 -28.3992 8.6764 3.5484
# 3 14.3585 25.8809 95.9208 -29.2809 12.8701 17.3203
# 4 -17.8660 -28.3992 -29.2809 72.3642 -2.9513 -3.7108
# 5 10.8321 8.6764 12.8701 -2.9513 50.7602 -10.8686
# 6 -6.9800 3.5484 17.3203 -3.7108 -10.8686 39.4941
#
#
#
# Elastic Compliance Matrix: (Units=1/GPa)
#
#
# Indices 1 2 3 4 5 6 
#
# 1 0.010334 -0.002289 -0.000750 0.001419 -0.001070 0.002199
# 2 -0.002289 0.010251 -0.001291 0.002859 -0.000930 -0.000747
# 3 -0.000750 -0.001291 0.014114 0.004479 -0.004438 -0.007006
# 4 0.001419 0.002859 0.004479 0.017025 -0.001080 -0.000668
# 5 -0.001070 -0.000930 -0.004438 -0.001080 0.022870 0.008033
# 6 0.002199 -0.000747 -0.007006 -0.000668 0.008033 0.030997
#
#
# Mechanical properties :
#
#
# Convention : Reuss Voigt Hill
#
# Bulk Modulus (GPa) = 38.40272 51.86781 45.13527
# Shear Modulus (GPa) = 40.67409 49.23528 44.95468
#
# Velocity S-wave (km/s) = 3.77982 4.15863 3.97374
# Velocity P-wave (km/s) = 5.70426 6.42479 6.07521
#
# Compressibility (1/GPa) = 0.02603982
#
# Stress axis : x y z
#
# Youngs Moduli (GPa) = 96.77088 97.55358 70.85386
#
# Poissons Ratio (x) = 0.22326 0.05312
# Poissons Ratio (y) = 0.22147 0.09145
# Poissons Ratio (z) = 0.07256 0.12592
#
# Static dielectric constant tensor:
#      x y z
#    x 1.830560 0.329970 1.106820 
#    y 0.329970 1.880980 -0.955700 
#    z 1.106820 -0.955700 -1.444910 
# 
# From -- ./inp_files/70531.got.cif
#   From: 2010.05.17/outbox.cif.g08.bks.cpg/sg2_36_cif.got.tgz:70531.got - 2010.06.03 11:33:40.
