data_PCOD9035762
_publ_section_title
;
Structure prediction by ZEFSAII (Michael W. Deem and Ramdas Pophale) SiO2 
 PCOD9035762
Probable space group: P -1
;
_chemical_formula_sum "Si O2"
_cell_formula_units_Z 14
_cell_length_a 17.220596
_cell_length_b 20.300642
_cell_length_c 9.928764
_cell_angle_alpha 146.629890
_cell_angle_beta 45.374246
_cell_angle_gamma 159.748274
_cell_volume 598.016700
_symmetry_space_group_name_H-M "P -1"
_symmetry_group_IT_number 2
_symmetry_cell_setting 'triclinic'
loop_
_space_group_symop_operation_xyz
x,y,z
-x,-y,-z
loop_
_atom_site_type_symbol
_atom_site_label
_atom_site_fract_x
_atom_site_fract_y
_atom_site_fract_z
Si Si1 0.066737 0.571610 0.773081
Si Si2 0.080795 0.846893 0.342823
Si Si3 0.477343 0.556709 0.255984
Si Si4 0.005757 0.830193 0.935423
Si Si5 0.713132 0.320839 0.550553
Si Si6 0.196787 0.904949 0.587360
Si Si7 0.292320 0.321572 0.557543
O O1 0.847248 0.376155 0.596989
O O2 0.294489 0.761572 0.720803
O O3 0.079314 0.706057 0.069424
O O4 0.009240 0.612208 0.352343
O O5 0.092814 0.877806 0.541838
O O6 0.846956 0.689843 0.303668
O O7 0.328726 0.144356 0.482597
O O8 0.199549 0.330865 0.198690
O O9 0.567898 0.565193 0.281498
O O10 0.500000 0.500000 0.000000
O O11 0.883907 0.603506 0.784051
O O12 0.222490 0.997050 0.857052
O O13 0.086937 0.017027 0.253152
O O14 0.453774 0.107978 0.562377
O O15 0.500000 0.500000 0.500000
#
# Coordination Sequence:
#
# PCOD9035762 Si02
#       7
#     2   2   2   2   2   2   2
#     4  10  24  43  68 103 139 181 247 289 359 426
#     4  12  25  44  72 102 146 187 241 295 360 425
#     4  12  26  47  74 105 148 192 240 295 358 431
#     4  11  25  47  74 107 147 184 243 288 366 426
#     4  10  22  46  71  99 139 189 233 302 354 425
#     4  11  24  44  72 103 139 191 233 302 353 425
#     4  12  29  46  72 111 145 191 240 296 361 434
#
# _framework density 23.410717999999999
#
# number of rings (size 3 to 8) (size 9 to 14) (size 15 to 20)
#    0.000    0.857    2.857    3.000    6.000    1.714 
#    5.143    0.000    0.000    0.000    0.000    0.000 
#    0.000    0.000    0.000    0.000    0.000    0.000 
#
# Total GULP energy -78382.911432 kJ/mol
# GULP energy per Si atom -5598.779388 kJ/mol
# Density = 2.335743 g / cm^3
# Si number density = 23.410718 Si / 1000 Ang^3
#
#
#
# Elastic Constant Matrix: (Units=GPa)
#
#
# Indices 1 2 3 4 5 6 
#
# 1 98.7435 15.0263 1.4102 -3.8182 24.3889 7.6562
# 2 15.0263 109.4685 7.6614 -23.8806 11.1641 4.5445
# 3 1.4102 7.6614 53.6518 -12.9977 0.6478 4.4509
# 4 -3.8182 -23.8806 -12.9977 31.3901 -0.3968 5.4738
# 5 24.3889 11.1641 0.6478 -0.3968 43.8452 -3.9104
# 6 7.6562 4.5445 4.4509 5.4738 -3.9104 32.7436
#
#
#
# Elastic Compliance Matrix: (Units=1/GPa)
#
#
# Indices 1 2 3 4 5 6 
#
# 1 0.012337 -0.000380 0.000672 0.002120 -0.007125 -0.004129
# 2 -0.000380 0.011745 0.001088 0.009949 -0.003037 -0.003715
# 3 0.000672 0.001088 0.021504 0.010700 -0.001334 -0.005179
# 4 0.002120 0.009949 0.010700 0.046075 -0.004485 -0.011569
# 5 -0.007125 -0.003037 -0.001334 -0.004485 0.028091 0.006373
# 6 -0.004129 -0.003715 -0.005179 -0.011569 0.006373 0.035420
#
#
# Mechanical properties :
#
#
# Convention : Reuss Voigt Hill
#
# Bulk Modulus (GPa) = 20.68423 34.45106 27.56765
# Shear Modulus (GPa) = 29.66848 37.44685 33.55766
#
# Velocity S-wave (km/s) = 3.56378 4.00379 3.79018
# Velocity P-wave (km/s) = 5.07825 6.01013 5.56373
#
# Compressibility (1/GPa) = 0.04834602
#
# Stress axis : x y z
#
# Youngs Moduli (GPa) = 81.05481 85.13938 46.50397
#
# Poissons Ratio (x) = 0.03236 -0.03125
# Poissons Ratio (y) = 0.03081 -0.05059
# Poissons Ratio (z) = -0.05447 -0.09263
#
# Static dielectric constant tensor:
#      x y z
#    x 1.864070 0.046060 -0.011410 
#    y 0.046060 1.932440 0.013290 
#    z -0.011410 0.013290 1.914650 
# 
# From -- ./inp_files/337896.got.cif
#   From: 2010.05.17/outbox.cif.g08.bks.cpg/sg2_169_cif.got.tgz:337896.got - 2010.06.03 11:33:40.
