data_PCOD9035023
_publ_section_title
;
Structure prediction by ZEFSAII (Michael W. Deem and Ramdas Pophale) SiO2 
 PCOD9035023
Probable space group: P -1
;
_chemical_formula_sum "Si O2"
_cell_formula_units_Z 14
_cell_length_a 21.371103
_cell_length_b 8.233231
_cell_length_c 5.575184
_cell_angle_alpha 105.647721
_cell_angle_beta 95.735922
_cell_angle_gamma 35.355180
_cell_volume 533.760957
_symmetry_space_group_name_H-M "P -1"
_symmetry_group_IT_number 2
_symmetry_cell_setting 'triclinic'
loop_
_space_group_symop_operation_xyz
x,y,z
-x,-y,-z
loop_
_atom_site_type_symbol
_atom_site_label
_atom_site_fract_x
_atom_site_fract_y
_atom_site_fract_z
Si Si1 0.823293 0.302393 0.115492
Si Si2 0.877847 0.336969 0.639714
Si Si3 0.627123 0.183907 0.984487
Si Si4 0.578782 0.914123 0.805114
Si Si5 0.367535 0.486559 0.668924
Si Si6 0.165954 0.224800 0.388024
Si Si7 0.995724 0.653567 0.865607
O O1 0.812501 0.439174 0.406227
O O2 0.719806 0.403358 0.135834
O O3 0.833828 0.359098 0.880074
O O4 0.939113 0.947352 0.049710
O O5 0.874932 0.544664 0.726779
O O6 0.000000 0.000000 0.500000
O O7 0.654630 0.263317 0.232560
O O8 0.500000 0.500000 0.000000
O O9 0.634528 0.965343 0.943017
O O10 0.705425 0.062865 0.741676
O O11 0.644937 0.606088 0.603912
O O12 0.494358 0.174172 0.673884
O O13 0.500000 0.000000 0.000000
O O14 0.097202 0.205848 0.307953
O O15 0.114641 0.402349 0.687454
O O16 0.000000 0.500000 0.000000
#
# Coordination Sequence:
#
# PCOD9035023 Si02
#       7
#     2   2   2   2   2   2   2
#     4  12  26  45  73 106 146 195 247 313 379 453
#     4  12  26  45  73 107 151 194 252 311 380 457
#     4  10  22  45  70 103 146 195 252 314 382 457
#     4  10  23  44  71 100 144 189 249 314 377 450
#     4  10  23  44  68 102 141 192 247 310 378 451
#     4  11  24  44  69 103 147 192 248 306 380 453
#     4  11  25  44  69 102 146 194 241 308 375 457
#
# _framework density 26.228971000000001
#
# number of rings (size 3 to 8) (size 9 to 14) (size 15 to 20)
#    0.000    1.143    2.857    2.143    8.000    0.571 
#    2.571    1.429    0.000    0.000    0.000    0.000 
#    0.000    0.000    0.000    0.000    0.000    0.000 
#
# Total GULP energy -78216.207755 kJ/mol
# GULP energy per Si atom -5586.871982 kJ/mol
# Density = 2.616927 g / cm^3
# Si number density = 26.228971 Si / 1000 Ang^3
#
#
#
# Elastic Constant Matrix: (Units=GPa)
#
#
# Indices 1 2 3 4 5 6 
#
# 1 192.8261 19.5847 97.3499 11.8715 19.1945 13.2575
# 2 19.5847 88.0387 30.5807 16.6747 -4.2218 -2.8404
# 3 97.3499 30.5807 185.5250 20.9915 -4.2731 17.1963
# 4 11.8715 16.6747 20.9915 45.2867 -1.8210 -11.2521
# 5 19.1945 -4.2218 -4.2731 -1.8210 62.8472 13.2153
# 6 13.2575 -2.8404 17.1963 -11.2521 13.2153 43.8995
#
#
#
# Elastic Compliance Matrix: (Units=1/GPa)
#
#
# Indices 1 2 3 4 5 6 
#
# 1 0.007455 -0.000411 -0.003891 -0.000105 -0.002571 -0.000007
# 2 -0.000411 0.012721 -0.001469 -0.003782 0.000698 0.000343
# 3 -0.003891 -0.001469 0.008437 -0.003187 0.002360 -0.003752
# 4 -0.000105 -0.003782 -0.003187 0.027005 -0.001419 0.008384
# 5 -0.002571 0.000698 0.002360 -0.001419 0.018107 -0.005918
# 6 -0.000007 0.000343 -0.003752 0.008384 -0.005918 0.028204
#
#
# Mechanical properties :
#
#
# Convention : Reuss Voigt Hill
#
# Bulk Modulus (GPa) = 58.57727 84.60227 71.58977
# Shear Modulus (GPa) = 41.96023 51.66496 46.81259
#
# Velocity S-wave (km/s) = 4.00405 4.44302 4.22923
# Velocity P-wave (km/s) = 6.61499 7.65806 7.15555
#
# Compressibility (1/GPa) = 0.01707147
#
# Stress axis : x y z
#
# Youngs Moduli (GPa) = 134.14149 78.60894 118.53040
#
# Poissons Ratio (x) = 0.03227 0.46118
# Poissons Ratio (y) = 0.05507 0.17415
# Poissons Ratio (z) = 0.52192 0.11550
#
# Static dielectric constant tensor:
#      x y z
#    x 2.185280 -0.063090 0.120590 
#    y -0.063090 2.086400 -0.025980 
#    z 0.120590 -0.025980 2.092510 
# 
# From -- ./inp_files/106444.got.cif
#   From: 2010.05.17/outbox.cif.g08.bks.cpg/sg2_54_cif.got.tgz:106444.got - 2010.06.03 11:33:40.
