data_PCOD9035079
_publ_section_title
;
Structure prediction by ZEFSAII (Michael W. Deem and Ramdas Pophale) SiO2 
 PCOD9035079
Probable space group: P -1
;
_chemical_formula_sum "Si O2"
_cell_formula_units_Z 12
_cell_length_a 8.793028
_cell_length_b 9.976920
_cell_length_c 16.399686
_cell_angle_alpha 152.238135
_cell_angle_beta 38.896521
_cell_angle_gamma 135.023075
_cell_volume 419.933091
_symmetry_space_group_name_H-M "P -1"
_symmetry_group_IT_number 2
_symmetry_cell_setting 'triclinic'
loop_
_space_group_symop_operation_xyz
x,y,z
-x,-y,-z
loop_
_atom_site_type_symbol
_atom_site_label
_atom_site_fract_x
_atom_site_fract_y
_atom_site_fract_z
Si Si1 0.563605 0.944644 0.037926
Si Si2 0.775680 0.836787 0.331343
Si Si3 0.079108 0.560339 0.819388
Si Si4 0.784298 0.268509 0.434379
Si Si5 0.483991 0.161778 0.358326
Si Si6 0.682607 0.378087 0.764626
O O1 0.562051 0.614943 0.888133
O O2 0.435465 0.105692 0.252547
O O3 0.500000 0.000000 0.000000
O O4 0.823487 0.115028 0.032040
O O5 0.948893 0.613240 0.177496
O O6 0.495529 0.717509 0.404180
O O7 0.827085 0.949309 0.279749
O O8 0.808634 0.143381 0.530024
O O9 0.861391 0.545836 0.841522
O O10 0.278907 0.364591 0.586062
O O11 0.000000 0.500000 0.500000
O O12 0.730513 0.282524 0.367601
O O13 0.464043 0.844669 0.235208
#
# Coordination Sequence:
#
# PCOD9035079 Si02
#       6
#     2   2   2   2   2   2
#     4  12  27  42  68 100 145 181 230 292 359 410
#     4   9  20  39  69 102 137 178 237 292 340 416
#     4  10  22  45  71  99 136 183 236 285 348 419
#     4   9  19  36  68 105 136 174 235 287 345 405
#     4  10  23  45  73  99 136 185 240 286 341 424
#     4  10  22  45  70  98 141 186 222 293 362 411
#
# _framework density 28.575980000000001
#
# number of rings (size 3 to 8) (size 9 to 14) (size 15 to 20)
#    0.000    2.333    0.000    3.500   11.667    0.000 
#    6.000    1.667    0.000    0.000    0.000    0.000 
#    0.000    0.000    0.000    0.000    0.000    0.000 
#
# Total GULP energy -67058.665034 kJ/mol
# GULP energy per Si atom -5588.222086 kJ/mol
# Density = 2.851094 g / cm^3
# Si number density = 28.575980 Si / 1000 Ang^3
#
#
#
# Elastic Constant Matrix: (Units=GPa)
#
#
# Indices 1 2 3 4 5 6 
#
# 1 165.3171 70.8479 49.8976 1.8979 32.6403 -16.4550
# 2 70.8479 150.3220 61.2159 32.5442 0.6888 -22.2634
# 3 49.8976 61.2159 129.9776 8.8775 -1.6653 -10.3182
# 4 1.8979 32.5442 8.8775 57.1985 -3.6958 1.1881
# 5 32.6403 0.6888 -1.6653 -3.6958 56.4726 15.3375
# 6 -16.4550 -22.2634 -10.3182 1.1881 15.3375 66.5654
#
#
#
# Elastic Compliance Matrix: (Units=1/GPa)
#
#
# Indices 1 2 3 4 5 6 
#
# 1 0.009650 -0.003767 -0.001949 0.001688 -0.006074 0.002193
# 2 -0.003767 0.011365 -0.003320 -0.005811 0.000952 0.002240
# 3 -0.001949 -0.003320 0.009956 0.000521 0.001612 -0.000429
# 4 0.001688 -0.005811 0.000521 0.020761 0.001027 -0.002053
# 5 -0.006074 0.000952 0.001612 0.001027 0.023021 -0.006256
# 6 0.002193 0.002240 -0.000429 -0.002053 -0.006256 0.017725
#
#
# Mechanical properties :
#
#
# Convention : Reuss Voigt Hill
#
# Bulk Modulus (GPa) = 77.52311 89.94884 83.73597
# Shear Modulus (GPa) = 43.53475 53.62434 48.57954
#
# Velocity S-wave (km/s) = 3.90740 4.33662 4.12759
# Velocity P-wave (km/s) = 6.89527 7.52466 7.21683
#
# Compressibility (1/GPa) = 0.01289938
#
# Stress axis : x y z
#
# Youngs Moduli (GPa) = 103.62792 87.98863 100.43783
#
# Poissons Ratio (x) = 0.33145 0.19579
# Poissons Ratio (y) = 0.39036 0.33342
# Poissons Ratio (z) = 0.20201 0.29209
#
# Static dielectric constant tensor:
#      x y z
#    x 2.249750 0.000440 -0.013850 
#    y 0.000440 2.478940 -0.140690 
#    z -0.013850 -0.140690 2.268610 
# 
# From -- ./inp_files/556667.got.cif
#   From: 2010.05.17/outbox.cif.g08.bks.cpg/sg2_279_cif.got.tgz:556667.got - 2010.06.03 11:33:40.
