data_PCOD9035804
_publ_section_title
;
Structure prediction by ZEFSAII (Michael W. Deem and Ramdas Pophale) SiO2 
 PCOD9035804
Probable space group: P -1
;
_chemical_formula_sum "Si O2"
_cell_formula_units_Z 14
_cell_length_a 12.057839
_cell_length_b 15.425268
_cell_length_c 4.906657
_cell_angle_alpha 92.306553
_cell_angle_beta 74.949952
_cell_angle_gamma 141.166862
_cell_volume 532.481335
_symmetry_space_group_name_H-M "P -1"
_symmetry_group_IT_number 2
_symmetry_cell_setting 'triclinic'
loop_
_space_group_symop_operation_xyz
x,y,z
-x,-y,-z
loop_
_atom_site_type_symbol
_atom_site_label
_atom_site_fract_x
_atom_site_fract_y
_atom_site_fract_z
Si Si1 0.712231 0.452385 0.011417
Si Si2 0.611329 0.027920 0.184944
Si Si3 0.000000 0.500000 0.500000
Si Si4 0.227883 0.230327 0.790341
Si Si5 0.026663 0.686796 0.253501
Si Si6 0.500000 0.500000 0.000000
Si Si7 0.340057 0.133253 0.053057
Si Si8 0.004307 0.149304 0.424216
O O1 0.860719 0.487634 0.740294
O O2 0.644953 0.504047 0.949102
O O3 0.519569 0.280041 0.119902
O O4 0.826328 0.539237 0.227929
O O5 0.500000 0.000000 0.500000
O O6 0.826603 0.191489 0.053991
O O7 0.500000 0.000000 0.000000
O O8 0.608854 0.923181 0.148292
O O9 0.112301 0.649560 0.309288
O O10 0.403929 0.393809 0.785086
O O11 0.268628 0.160980 0.882599
O O12 0.054045 0.161212 0.081399
O O13 0.181118 0.217278 0.501439
O O14 0.014357 0.761710 0.470352
O O15 0.175999 0.008627 0.356676
#
# Coordination Sequence:
#
# PCOD9035804 Si02
#       8
#     2   2   1   2   2   1   2   2
#     4  11  24  48  71 112 151 204 258 322 388 463
#     4  11  27  49  77 107 152 201 263 320 393 465
#     4  12  26  46  72 110 148 202 262 322 388 456
#     4  11  23  44  73 108 152 196 253 312 386 462
#     4  11  26  45  78 105 157 205 261 321 396 465
#     4  10  22  46  72 110 150 194 254 312 384 468
#     4  10  25  45  71 111 144 199 259 316 379 467
#     4  11  24  46  74 105 153 199 251 313 393 451
#
# _framework density 26.291999000000001
#
# number of rings (size 3 to 8) (size 9 to 14) (size 15 to 20)
#    0.000    1.143    1.429    3.000    4.000    5.143 
#   12.857    0.000    0.000    0.000    0.000    0.000 
#    0.000    0.000    0.000    0.000    0.000    0.000 
#
# Total GULP energy -78076.000810 kJ/mol
# GULP energy per Si atom -5576.857201 kJ/mol
# Density = 2.623216 g / cm^3
# Si number density = 26.291999 Si / 1000 Ang^3
#
#
#
# Elastic Constant Matrix: (Units=GPa)
#
#
# Indices 1 2 3 4 5 6 
#
# 1 150.7693 35.7237 38.0109 22.7579 -18.8008 -64.4666
# 2 35.7237 131.8234 3.6091 14.0920 10.4196 -17.2518
# 3 38.0109 3.6091 91.0226 14.5849 0.4122 -15.7361
# 4 22.7579 14.0920 14.5849 22.3904 -1.9625 1.2683
# 5 -18.8008 10.4196 0.4122 -1.9625 35.4991 17.3609
# 6 -64.4666 -17.2518 -15.7361 1.2683 17.3609 57.3005
#
#
#
# Elastic Compliance Matrix: (Units=1/GPa)
#
#
# Indices 1 2 3 4 5 6 
#
# 1 0.019391 0.000101 -0.000862 -0.020669 -0.001977 0.022666
# 2 0.000101 0.009562 0.001859 -0.008159 -0.005902 0.005472
# 3 -0.000862 0.001859 0.013697 -0.009842 -0.004051 0.004796
# 4 -0.020669 -0.008159 -0.009842 0.080251 0.012636 -0.034017
# 5 -0.001977 -0.005902 -0.004051 0.012636 0.037846 -0.016860
# 6 0.022666 0.005472 0.004796 -0.034017 -0.016860 0.051779
#
#
# Mechanical properties :
#
#
# Convention : Reuss Voigt Hill
#
# Bulk Modulus (GPa) = 22.29884 58.70030 40.49957
# Shear Modulus (GPa) = 22.19454 42.78943 32.49199
#
# Velocity S-wave (km/s) = 2.90859 4.03857 3.51923
# Velocity P-wave (km/s) = 4.44741 6.64240 5.65248
#
# Compressibility (1/GPa) = 0.04484538
#
# Stress axis : x y z
#
# Youngs Moduli (GPa) = 51.56968 104.57550 73.00685
#
# Poissons Ratio (x) = -0.01054 0.06296
# Poissons Ratio (y) = -0.00520 -0.13570
# Poissons Ratio (z) = 0.04447 -0.19438
#
# Static dielectric constant tensor:
#      x y z
#    x 2.011720 0.012550 0.036020 
#    y 0.012550 2.161100 -0.109700 
#    z 0.036020 -0.109700 2.076920 
# 
# From -- ./inp_files/78116.got.cif
#   From: 2010.05.17/outbox.cif.g08.bks.cpg/sg2_40_cif.got.tgz:78116.got - 2010.06.03 11:33:40.
