data_PCOD9035580
_publ_section_title
;
Structure prediction by ZEFSAII (Michael W. Deem and Ramdas Pophale) SiO2 
 PCOD9035580
Probable space group: P -1
;
_chemical_formula_sum "Si O2"
_cell_formula_units_Z 14
_cell_length_a 5.237627
_cell_length_b 5.585547
_cell_length_c 23.028735
_cell_angle_alpha 65.238860
_cell_angle_beta 64.612161
_cell_angle_gamma 85.266147
_cell_volume 548.805283
_symmetry_space_group_name_H-M "P -1"
_symmetry_group_IT_number 2
_symmetry_cell_setting 'triclinic'
loop_
_space_group_symop_operation_xyz
x,y,z
-x,-y,-z
loop_
_atom_site_type_symbol
_atom_site_label
_atom_site_fract_x
_atom_site_fract_y
_atom_site_fract_z
Si Si1 0.219545 0.026527 0.356942
Si Si2 0.305318 0.667382 0.778126
Si Si3 0.390970 0.293053 0.580797
Si Si4 0.273053 0.712487 0.950409
Si Si5 0.777041 0.357792 0.914894
Si Si6 0.083507 0.486668 0.690865
Si Si7 0.631270 0.173049 0.824714
O O1 0.382426 0.913293 0.406888
O O2 0.928600 0.841073 0.389505
O O3 0.105650 0.314720 0.344068
O O4 0.470567 0.069724 0.278626
O O5 0.177617 0.611822 0.731387
O O6 0.505377 0.446958 0.798984
O O7 0.042398 0.585721 0.855086
O O8 0.500000 0.500000 0.500000
O O9 0.348836 0.444826 0.629690
O O10 0.521954 0.531529 0.932367
O O11 0.364359 0.949253 0.872976
O O12 0.241295 0.822570 0.007741
O O13 0.000000 0.500000 0.000000
O O14 0.748474 0.181400 0.878057
O O15 0.901362 0.202471 0.752955
#
# Coordination Sequence:
#
# PCOD9035580 Si02
#       7
#     2   2   2   2   2   2   2
#     4  11  25  48  73 106 149 186 238 299 351 428
#     4  10  22  46  68  98 134 184 237 294 354 412
#     4  12  28  47  76 111 147 192 237 288 363 436
#     4  11  24  39  61  96 132 182 232 292 356 418
#     4  10  23  41  61  92 134 178 232 288 361 409
#     4  10  25  46  71 106 139 191 240 297 360 421
#     4  10  23  41  65  92 133 181 234 291 352 423
#
# _framework density 25.509958000000001
#
# number of rings (size 3 to 8) (size 9 to 14) (size 15 to 20)
#    0.000    1.429    1.429    1.714    6.000    9.143 
#    0.000    0.000    0.000    0.000    0.000    0.000 
#    0.000    0.000    0.000    0.000    0.000    0.000 
#
# Total GULP energy -78220.460103 kJ/mol
# GULP energy per Si atom -5587.175722 kJ/mol
# Density = 2.545190 g / cm^3
# Si number density = 25.509958 Si / 1000 Ang^3
#
#
#
# Elastic Constant Matrix: (Units=GPa)
#
#
# Indices 1 2 3 4 5 6 
#
# 1 92.5568 12.3553 24.9392 -10.5926 -19.1386 10.5584
# 2 12.3553 43.6201 38.2919 -9.4086 -6.9419 16.7978
# 3 24.9392 38.2919 186.3816 -25.7019 -20.4619 9.8749
# 4 -10.5926 -9.4086 -25.7019 39.8708 4.4364 -10.0438
# 5 -19.1386 -6.9419 -20.4619 4.4364 43.8965 -13.0448
# 6 10.5584 16.7978 9.8749 -10.0438 -13.0448 42.6804
#
#
#
# Elastic Compliance Matrix: (Units=1/GPa)
#
#
# Indices 1 2 3 4 5 6 
#
# 1 0.012389 -0.001767 -0.000504 0.001940 0.004573 -0.000399
# 2 -0.001767 0.033048 -0.006046 0.000725 -0.001875 -0.011573
# 3 -0.000504 -0.006046 0.007311 0.003474 0.002602 0.002425
# 4 0.001940 0.000725 0.003474 0.029303 0.001321 0.005731
# 5 0.004573 -0.001875 0.002602 0.001321 0.027887 0.007839
# 6 -0.000399 -0.011573 0.002425 0.005731 0.007839 0.031267
#
#
# Mechanical properties :
#
#
# Convention : Reuss Voigt Hill
#
# Bulk Modulus (GPa) = 27.69004 52.63679 40.16341
# Shear Modulus (GPa) = 29.43316 41.75435 35.59375
#
# Velocity S-wave (km/s) = 3.40043 4.05011 3.73941
# Velocity P-wave (km/s) = 5.12791 6.52302 5.86708
#
# Compressibility (1/GPa) = 0.03611407
#
# Stress axis : x y z
#
# Youngs Moduli (GPa) = 80.71758 30.25916 136.77901
#
# Poissons Ratio (x) = 0.05347 0.06894
# Poissons Ratio (y) = 0.14262 0.82695
# Poissons Ratio (z) = 0.04068 0.18294
#
# Static dielectric constant tensor:
#      x y z
#    x 2.135010 0.149020 -0.053840 
#    y 0.149020 2.235850 -0.165880 
#    z -0.053840 -0.165880 2.176470 
# 
# From -- ./inp_files/603138.got.cif
#   From: 2010.05.17/outbox.cif.g08.bks.cpg/sg2_302_cif.got.tgz:603138.got - 2010.06.03 11:33:40.
