data_PCOD9035713
_publ_section_title
;
Structure prediction by ZEFSAII (Michael W. Deem and Ramdas Pophale) SiO2 
 PCOD9035713
Probable space group: P -1
;
_chemical_formula_sum "Si O2"
_cell_formula_units_Z 14
_cell_length_a 11.399581
_cell_length_b 7.572959
_cell_length_c 11.599113
_cell_angle_alpha 142.226188
_cell_angle_beta 95.727488
_cell_angle_gamma 70.540327
_cell_volume 554.659226
_symmetry_space_group_name_H-M "P -1"
_symmetry_group_IT_number 2
_symmetry_cell_setting 'triclinic'
loop_
_space_group_symop_operation_xyz
x,y,z
-x,-y,-z
loop_
_atom_site_type_symbol
_atom_site_label
_atom_site_fract_x
_atom_site_fract_y
_atom_site_fract_z
Si Si1 0.987806 0.383282 0.744054
Si Si2 0.792823 0.185944 0.748949
Si Si3 0.619853 0.550516 0.495087
Si Si4 0.226052 0.475348 0.840654
Si Si5 0.862424 0.546685 0.573053
Si Si6 0.521276 0.267057 0.771150
Si Si7 0.855905 0.091492 0.156845
O O1 0.907500 0.189550 0.681078
O O2 0.945420 0.491882 0.665685
O O3 0.143160 0.264859 0.711313
O O4 0.925926 0.718217 0.979349
O O5 0.648458 0.279824 0.729183
O O6 0.827155 0.855339 0.649458
O O7 0.778117 0.426910 0.976928
O O8 0.500000 0.500000 0.500000
O O9 0.723674 0.555208 0.601863
O O10 0.706848 0.256659 0.270271
O O11 0.568220 0.898945 0.616437
O O12 0.376045 0.355671 0.755711
O O13 0.149117 0.774599 0.903315
O O14 0.083779 0.745265 0.662106
O O15 0.500000 0.500000 0.000000
#
# Coordination Sequence:
#
# PCOD9035713 Si02
#       7
#     2   2   2   2   2   2   2
#     4  12  24  46  73 105 140 190 232 288 351 428
#     4  10  22  46  71 102 139 185 240 284 344 419
#     4   9  21  43  66 103 137 181 239 286 346 414
#     4  11  23  43  71 104 141 188 230 284 363 416
#     4   9  23  46  66 105 141 176 244 288 345 411
#     4   9  21  41  71  94 139 183 227 291 342 410
#     4  10  24  43  71 101 143 186 224 303 347 408
#
# _framework density 25.240724
#
# number of rings (size 3 to 8) (size 9 to 14) (size 15 to 20)
#    0.857    1.143    1.429    0.857    4.000    2.286 
#    5.143    2.143    0.000    0.000    0.000    0.000 
#    0.000    0.000    0.000    0.000    0.000    0.000 
#
# Total GULP energy -78205.581426 kJ/mol
# GULP energy per Si atom -5586.112959 kJ/mol
# Density = 2.518327 g / cm^3
# Si number density = 25.240724 Si / 1000 Ang^3
#
#
#
# Elastic Constant Matrix: (Units=GPa)
#
#
# Indices 1 2 3 4 5 6 
#
# 1 289.1934 70.7183 39.2845 -2.3275 0.2955 4.5405
# 2 70.7183 72.5055 21.6635 -0.6268 4.2058 -0.0354
# 3 39.2845 21.6635 85.0462 6.7119 7.7538 -2.6120
# 4 -2.3275 -0.6268 6.7119 34.1541 2.2538 -1.8593
# 5 0.2955 4.2058 7.7538 2.2538 38.2094 -0.9812
# 6 4.5405 -0.0354 -2.6120 -1.8593 -0.9812 50.5883
#
#
#
# Elastic Compliance Matrix: (Units=1/GPa)
#
#
# Indices 1 2 3 4 5 6 
#
# 1 0.004662 -0.004228 -0.001180 0.000405 0.000633 -0.000455
# 2 -0.004228 0.018833 -0.002755 0.000712 -0.001517 0.000247
# 3 -0.001180 -0.002755 0.013434 -0.002587 -0.002244 0.000659
# 4 0.000405 0.000712 -0.002587 0.029963 -0.001301 0.000907
# 5 0.000633 -0.001517 -0.002244 -0.001301 0.026874 0.000300
# 6 -0.000455 0.000247 0.000659 0.000907 0.000300 0.019882
#
#
# Mechanical properties :
#
#
# Convention : Reuss Voigt Hill
#
# Bulk Modulus (GPa) = 48.53494 78.89751 63.71622
# Shear Modulus (GPa) = 36.53889 45.59560 41.06724
#
# Velocity S-wave (km/s) = 3.80888 4.25482 4.03801
# Velocity P-wave (km/s) = 6.21402 7.44741 6.85850
#
# Compressibility (1/GPa) = 0.02060371
#
# Stress axis : x y z
#
# Youngs Moduli (GPa) = 214.50918 53.09851 74.43693
#
# Poissons Ratio (x) = 0.22449 0.08785
# Poissons Ratio (y) = 0.90689 0.20505
# Poissons Ratio (z) = 0.25316 0.14627
#
# Static dielectric constant tensor:
#      x y z
#    x 2.106080 -0.000270 0.001400 
#    y -0.000270 1.996730 0.033460 
#    z 0.001400 0.033460 2.027110 
# 
# From -- ./inp_files/180770.got.cif
#   From: 2010.05.17/outbox.cif.g08.bks.cpg/sg2_91_cif.got.tgz:180770.got - 2010.06.03 11:33:40.
