data_PCOD9035558
_publ_section_title
;
Structure prediction by ZEFSAII (Michael W. Deem and Ramdas Pophale) SiO2 
 PCOD9035558
Probable space group: P -1
;
_chemical_formula_sum "Si O2"
_cell_formula_units_Z 15
_cell_length_a 11.665447
_cell_length_b 12.348427
_cell_length_c 11.766878
_cell_angle_alpha 73.343219
_cell_angle_beta 94.047890
_cell_angle_gamma 31.324962
_cell_volume 653.349428
_symmetry_space_group_name_H-M "P -1"
_symmetry_group_IT_number 2
_symmetry_cell_setting 'triclinic'
loop_
_space_group_symop_operation_xyz
x,y,z
-x,-y,-z
loop_
_atom_site_type_symbol
_atom_site_label
_atom_site_fract_x
_atom_site_fract_y
_atom_site_fract_z
Si Si1 0.000000 0.500000 0.500000
Si Si2 0.216465 0.652046 0.647923
Si Si3 0.930372 0.614130 0.082445
Si Si4 0.628703 0.738253 0.201749
Si Si5 0.176217 0.755168 0.867987
Si Si6 0.075024 0.172240 0.634538
Si Si7 0.318166 0.458123 0.130596
Si Si8 0.710966 0.357518 0.712811
O O1 0.258114 0.327327 0.647077
O O2 0.898244 0.718238 0.388200
O O3 0.388344 0.381777 0.769174
O O4 0.136656 0.780367 0.722787
O O5 0.961750 0.838261 0.494362
O O6 0.410539 0.564901 0.617773
O O7 0.864724 0.576326 0.180091
O O8 0.191696 0.459894 0.178236
O O9 0.000000 0.500000 0.000000
O O10 0.659148 0.940526 0.951654
O O11 0.500000 0.500000 0.000000
O O12 0.140232 0.664108 0.949408
O O13 0.952521 0.044257 0.816005
O O14 0.807181 0.365889 0.627620
O O15 0.364874 0.855054 0.793821
O O16 0.300966 0.572141 0.187269
#
# Coordination Sequence:
#
# PCOD9035558 Si02
#       8
#     1   2   2   2   2   2   2   2
#     4  10  22  46  68  90 134 176 210 278 328 374
#     4  11  25  43  66  95 135 175 218 270 328 392
#     4  11  23  41  67  96 127 171 220 275 328 388
#     4  10  23  43  66  95 131 169 222 271 326 389
#     4  12  24  42  65  98 135 170 214 273 324 393
#     4  11  25  45  67  97 134 174 223 273 324 395
#     4  12  25  42  70  99 134 174 220 273 330 392
#     4  12  24  42  69  98 131 176 220 267 335 389
#
# _framework density 22.958617
#
# number of rings (size 3 to 8) (size 9 to 14) (size 15 to 20)
#    0.000    0.800    2.667    4.000    1.867    5.333 
#    0.000   14.667    0.000    0.000    0.000    0.000 
#    0.000    0.000    0.000    0.000    0.000    0.000 
#
# Total GULP energy -83692.079096 kJ/mol
# GULP energy per Si atom -5579.471940 kJ/mol
# Density = 2.290636 g / cm^3
# Si number density = 22.958617 Si / 1000 Ang^3
#
#
#
# Elastic Constant Matrix: (Units=GPa)
#
#
# Indices 1 2 3 4 5 6 
#
# 1 121.9298 52.4648 -1.5108 -3.9624 -5.8401 13.7623
# 2 52.4648 65.0862 -0.0306 3.1564 -11.1765 7.8894
# 3 -1.5108 -0.0306 26.1068 -2.6351 -13.7392 8.2923
# 4 -3.9624 3.1564 -2.6351 21.1988 7.3419 -5.3645
# 5 -5.8401 -11.1765 -13.7392 7.3419 34.6555 -4.6490
# 6 13.7623 7.8894 8.2923 -5.3645 -4.6490 32.2548
#
#
#
# Elastic Compliance Matrix: (Units=1/GPa)
#
#
# Indices 1 2 3 4 5 6 
#
# 1 0.013274 -0.010944 0.000922 0.004275 -0.002212 -0.002832
# 2 -0.010944 0.026859 0.004938 -0.009879 0.010424 -0.003310
# 3 0.000922 0.004938 0.053770 -0.004918 0.022361 -0.013020
# 4 0.004275 -0.009879 -0.004918 0.056365 -0.015143 0.009049
# 5 -0.002212 0.010424 0.022361 -0.015143 0.043433 -0.003613
# 6 -0.002832 -0.003310 -0.013020 0.009049 -0.003613 0.037353
#
#
# Mechanical properties :
#
#
# Convention : Reuss Voigt Hill
#
# Bulk Modulus (GPa) = 11.94222 34.99665 23.46943
# Shear Modulus (GPa) = 18.57820 28.43512 23.50666
#
# Velocity S-wave (km/s) = 2.84774 3.52311 3.20327
# Velocity P-wave (km/s) = 4.00321 5.64147 4.89141
#
# Compressibility (1/GPa) = 0.08373652
#
# Stress axis : x y z
#
# Youngs Moduli (GPa) = 75.33271 37.23206 18.59768
#
# Poissons Ratio (x) = 0.40746 -0.01715
# Poissons Ratio (y) = 0.82443 -0.09184
# Poissons Ratio (z) = -0.06946 -0.18387
#
# Static dielectric constant tensor:
#      x y z
#    x 1.897550 -0.027390 -0.027170 
#    y -0.027390 1.846250 0.029400 
#    z -0.027170 0.029400 1.869300 
# 
# From -- ./inp_files/51728.got.cif
#   From: 2010.05.17/outbox.cif.g08.bks.cpg/sg2_26_cif.got.tgz:51728.got - 2010.06.03 11:33:40.
