data_PCOD9035477
_publ_section_title
;
Structure prediction by ZEFSAII (Michael W. Deem and Ramdas Pophale) SiO2 
 PCOD9035477
Probable space group: P -1
;
_chemical_formula_sum "Si O2"
_cell_formula_units_Z 13
_cell_length_a 6.799505
_cell_length_b 8.354336
_cell_length_c 10.591768
_cell_angle_alpha 68.375786
_cell_angle_beta 79.078799
_cell_angle_gamma 105.180485
_cell_volume 511.653579
_symmetry_space_group_name_H-M "P -1"
_symmetry_group_IT_number 2
_symmetry_cell_setting 'triclinic'
loop_
_space_group_symop_operation_xyz
x,y,z
-x,-y,-z
loop_
_atom_site_type_symbol
_atom_site_label
_atom_site_fract_x
_atom_site_fract_y
_atom_site_fract_z
Si Si1 0.151149 0.950915 0.099080
Si Si2 0.846560 0.572823 0.345446
Si Si3 0.620861 0.570172 0.610219
Si Si4 0.580180 0.165812 0.102847
Si Si5 0.348876 0.044121 0.605756
Si Si6 0.047296 0.295483 0.265911
Si Si7 0.000000 0.500000 0.000000
O O1 0.005349 0.784392 0.254813
O O2 0.332042 0.112034 0.108256
O O3 0.291123 0.857923 0.029151
O O4 0.000000 0.000000 0.000000
O O5 0.773883 0.505605 0.517705
O O6 0.624115 0.559403 0.308137
O O7 0.938513 0.438691 0.294922
O O8 0.731846 0.644418 0.706038
O O9 0.591719 0.016038 0.248586
O O10 0.734403 0.365879 0.073987
O O11 0.383175 0.254143 0.519064
O O12 0.500000 0.000000 0.500000
O O13 0.108040 0.912887 0.636859
O O14 0.053359 0.335399 0.106790
#
# Coordination Sequence:
#
# PCOD9035477 Si02
#       7
#     2   2   2   2   2   2   1
#     4  11  24  43  70 100 132 180 228 277 343 400
#     4  11  24  42  66 102 133 172 235 281 337 396
#     4  11  25  42  68 100 133 179 230 280 333 416
#     4  10  24  44  68  95 139 172 224 285 328 407
#     4  11  23  44  66  98 138 178 224 277 351 399
#     4  11  23  44  70  94 137 178 223 286 339 402
#     4  10  22  46  66 100 134 178 224 276 344 404
#
# _framework density 25.407817000000001
#
# number of rings (size 3 to 8) (size 9 to 14) (size 15 to 20)
#    0.000    1.231    3.077    1.846    4.308    2.462 
#    5.538    1.538    0.000    0.000    0.000    0.000 
#    0.000    0.000    0.000    0.000    0.000    0.000 
#
# Total GULP energy -72462.385119 kJ/mol
# GULP energy per Si atom -5574.029625 kJ/mol
# Density = 2.534999 g / cm^3
# Si number density = 25.407817 Si / 1000 Ang^3
#
#
#
# Elastic Constant Matrix: (Units=GPa)
#
#
# Indices 1 2 3 4 5 6 
#
# 1 121.1721 52.9944 26.5227 -9.1775 -7.6790 42.7147
# 2 52.9944 93.7450 9.7385 -11.5841 -7.0703 32.0425
# 3 26.5227 9.7385 52.1487 -17.9416 -10.2988 25.2932
# 4 -9.1775 -11.5841 -17.9416 33.7314 11.3909 -2.5751
# 5 -7.6790 -7.0703 -10.2988 11.3909 31.4489 4.3574
# 6 42.7147 32.0425 25.2932 -2.5751 4.3574 66.9884
#
#
#
# Elastic Compliance Matrix: (Units=1/GPa)
#
#
# Indices 1 2 3 4 5 6 
#
# 1 0.013027 -0.005439 -0.003396 -0.001117 0.001886 -0.004588
# 2 -0.005439 0.016220 0.005194 0.005387 0.002932 -0.006235
# 3 -0.003396 0.005194 0.032523 0.014706 0.007397 -0.012515
# 4 -0.001117 0.005387 0.014706 0.041498 -0.008547 -0.005266
# 5 0.001886 0.002932 0.007397 -0.008547 0.039586 -0.008302
# 6 -0.004588 -0.006235 -0.012515 -0.005266 -0.008302 0.025899
#
#
# Mechanical properties :
#
#
# Convention : Reuss Voigt Hill
#
# Bulk Modulus (GPa) = 18.35260 49.50856 33.93058
# Shear Modulus (GPa) = 25.74675 38.28776 32.01726
#
# Velocity S-wave (km/s) = 3.18675 3.88613 3.55369
# Velocity P-wave (km/s) = 4.55844 6.29793 5.49742
#
# Compressibility (1/GPa) = 0.05448820
#
# Stress axis : x y z
#
# Youngs Moduli (GPa) = 76.76228 61.65054 30.74720
#
# Poissons Ratio (x) = 0.33532 0.10443
# Poissons Ratio (y) = 0.41751 -0.15970
# Poissons Ratio (z) = 0.26071 -0.32021
#
# Static dielectric constant tensor:
#      x y z
#    x 2.082030 -0.044090 -0.018370 
#    y -0.044090 2.068330 0.117180 
#    z -0.018370 0.117180 2.115770 
# 
# From -- ./inp_files/362593.got.cif
#   From: 2010.05.17/outbox.cif.g08.bks.cpg/sg2_182_cif.got.tgz:362593.got - 2010.06.03 11:33:40.
