data_PCOD9035286
_publ_section_title
;
Structure prediction by ZEFSAII (Michael W. Deem and Ramdas Pophale) SiO2 
 PCOD9035286
Probable space group: P -1
;
_chemical_formula_sum "Si O2"
_cell_formula_units_Z 13
_cell_length_a 18.093955
_cell_length_b 6.351246
_cell_length_c 5.286669
_cell_angle_alpha 100.793283
_cell_angle_beta 106.188274
_cell_angle_gamma 92.319087
_cell_volume 570.357142
_symmetry_space_group_name_H-M "P -1"
_symmetry_group_IT_number 2
_symmetry_cell_setting 'triclinic'
loop_
_space_group_symop_operation_xyz
x,y,z
-x,-y,-z
loop_
_atom_site_type_symbol
_atom_site_label
_atom_site_fract_x
_atom_site_fract_y
_atom_site_fract_z
Si Si1 0.077102 0.645666 0.176369
Si Si2 0.206529 0.917750 0.153612
Si Si3 0.145139 0.302723 0.505329
Si Si4 0.412632 0.542355 0.973299
Si Si5 0.279898 0.261802 0.979444
Si Si6 0.000000 0.000000 0.500000
Si Si7 0.662347 0.347829 0.579613
O O1 0.130023 0.749536 0.020075
O O2 0.127549 0.502137 0.362551
O O3 0.049709 0.843316 0.348992
O O4 0.000000 0.500000 0.000000
O O5 0.272151 0.810338 0.346435
O O6 0.175643 0.118108 0.315567
O O7 0.246957 0.021320 0.964867
O O8 0.212380 0.361188 0.784645
O O9 0.067056 0.204970 0.547236
O O10 0.358673 0.315321 0.910123
O O11 0.378460 0.661288 0.729820
O O12 0.500000 0.500000 0.000000
O O13 0.398195 0.670971 0.247221
O O14 0.298642 0.407901 0.279227
#
# Coordination Sequence:
#
# PCOD9035286 Si02
#       7
#     2   2   2   2   2   1   2
#     4  11  26  44  67  96 142 183 250 302 378 419
#     4  11  24  42  66 102 133 186 242 298 357 435
#     4  11  25  44  66  98 139 182 247 297 366 426
#     4  10  22  45  73 105 145 187 232 297 361 427
#     4  10  24  40  72  94 142 181 238 289 359 428
#     4  10  26  42  68  94 134 184 238 302 360 428
#     4  10  24  43  73 103 140 188 239 292 359 429
#
# _framework density 22.792735
#
# number of rings (size 3 to 8) (size 9 to 14) (size 15 to 20)
#    0.923    0.615    0.000    3.692    8.615    2.462 
#    0.000    1.538    0.000    0.000    0.000    0.000 
#    0.000    0.000    0.000    0.000    0.000    0.000 
#
# Total GULP energy -72396.727438 kJ/mol
# GULP energy per Si atom -5568.979034 kJ/mol
# Density = 2.274086 g / cm^3
# Si number density = 22.792735 Si / 1000 Ang^3
#
#
#
# Elastic Constant Matrix: (Units=GPa)
#
#
# Indices 1 2 3 4 5 6 
#
# 1 160.1567 63.4212 36.8097 -18.5258 -18.0663 21.8037
# 2 63.4212 84.1872 34.2331 -5.0319 -4.5755 5.2624
# 3 36.8097 34.2331 70.9941 -22.1968 -1.8383 8.4535
# 4 -18.5258 -5.0319 -22.1968 20.7071 -3.3049 -9.9999
# 5 -18.0663 -4.5755 -1.8383 -3.3049 27.7902 -2.7696
# 6 21.8037 5.2624 8.4535 -9.9999 -2.7696 30.6811
#
#
#
# Elastic Compliance Matrix: (Units=1/GPa)
#
#
# Indices 1 2 3 4 5 6 
#
# 1 0.011427 -0.008044 0.001435 0.009224 0.006947 -0.003503
# 2 -0.008044 0.021146 -0.010494 -0.013925 -0.004091 0.000073
# 3 0.001435 -0.010494 0.027848 0.031212 0.005132 0.003744
# 4 0.009224 -0.013925 0.031212 0.100270 0.019856 0.021707
# 5 0.006947 -0.004091 0.005132 0.019856 0.042996 0.004704
# 6 -0.003503 0.000073 0.003744 0.021707 0.004704 0.041538
#
#
# Mechanical properties :
#
#
# Convention : Reuss Voigt Hill
#
# Bulk Modulus (GPa) = 38.14730 64.91844 51.53287
# Shear Modulus (GPa) = 17.35088 27.89394 22.62241
#
# Velocity S-wave (km/s) = 2.76206 3.50209 3.15386
# Velocity P-wave (km/s) = 5.19085 6.70051 5.99340
#
# Compressibility (1/GPa) = 0.02621417
#
# Stress axis : x y z
#
# Youngs Moduli (GPa) = 87.51267 47.28986 35.90964
#
# Poissons Ratio (x) = 0.38040 -0.05153
# Poissons Ratio (y) = 0.70395 0.37684
# Poissons Ratio (z) = -0.12557 0.49627
#
# Static dielectric constant tensor:
#      x y z
#    x 1.847800 0.025410 -0.034180 
#    y 0.025410 1.906310 0.007540 
#    z -0.034180 0.007540 1.885760 
# 
# From -- ./inp_files/102884.got.cif
#   From: 2010.05.17/outbox.cif.g08.bks.cpg/sg2_52_cif.got.tgz:102884.got - 2010.06.03 11:33:40.
