data_PCOD9035202
_publ_section_title
;
Structure prediction by ZEFSAII (Michael W. Deem and Ramdas Pophale) SiO2 
 PCOD9035202
Probable space group: P -1
;
_chemical_formula_sum "Si O2"
_cell_formula_units_Z 11
_cell_length_a 9.359080
_cell_length_b 9.087009
_cell_length_c 12.094070
_cell_angle_alpha 114.215135
_cell_angle_beta 137.342445
_cell_angle_gamma 44.660786
_cell_volume 475.933218
_symmetry_space_group_name_H-M "P -1"
_symmetry_group_IT_number 2
_symmetry_cell_setting 'triclinic'
loop_
_space_group_symop_operation_xyz
x,y,z
-x,-y,-z
loop_
_atom_site_type_symbol
_atom_site_label
_atom_site_fract_x
_atom_site_fract_y
_atom_site_fract_z
Si Si1 0.856047 0.131736 0.758229
Si Si2 0.697551 0.572854 0.868700
Si Si3 0.735283 0.279477 0.500015
Si Si4 0.533493 0.292574 0.978151
Si Si5 0.848812 0.715422 0.408926
Si Si6 0.500000 0.000000 0.500000
O O1 0.756158 0.351369 0.821394
O O2 0.912976 0.125141 0.657008
O O3 0.613711 0.123725 0.633411
O O4 0.141580 0.922167 0.909938
O O5 0.458260 0.736577 0.692021
O O6 0.583220 0.673990 0.954678
O O7 0.000000 0.500000 0.000000
O O8 0.500000 0.500000 0.500000
O O9 0.924608 0.294380 0.533606
O O10 0.352361 0.275054 0.787823
O O11 0.500000 0.500000 0.000000
O O12 0.000000 0.500000 0.500000
O O13 0.686148 0.907826 0.463142
#
# Coordination Sequence:
#
# PCOD9035202 Si02
#       6
#     2   2   2   2   2   1
#     4  11  26  46  71 105 143 189 238 293 357 424
#     4  11  25  45  72 105 141 181 234 297 359 426
#     4  10  22  45  72 101 140 184 234 288 353 425
#     4  12  26  44  69 103 142 186 239 296 356 422
#     4  12  26  46  70 100 142 189 238 295 354 423
#     4  12  26  44  70 100 138 188 240 286 352 424
#
# _framework density 23.112485
#
# number of rings (size 3 to 8) (size 9 to 14) (size 15 to 20)
#    0.000    0.727    0.000    8.727    0.000   13.091 
#    0.000    0.000    0.000    0.000    0.000    0.000 
#    0.000    0.000    0.000    0.000    0.000    0.000 
#
# Total GULP energy -61360.980383 kJ/mol
# GULP energy per Si atom -5578.270944 kJ/mol
# Density = 2.305988 g / cm^3
# Si number density = 23.112485 Si / 1000 Ang^3
#
#
#
# Elastic Constant Matrix: (Units=GPa)
#
#
# Indices 1 2 3 4 5 6 
#
# 1 142.3546 17.0917 24.4877 8.2844 12.8978 -20.0163
# 2 17.0917 93.7937 47.9286 12.7859 5.3305 -17.0013
# 3 24.4877 47.9286 122.1707 8.7545 -4.9840 4.0148
# 4 8.2844 12.7859 8.7545 45.3611 7.5856 -7.9680
# 5 12.8978 5.3305 -4.9840 7.5856 48.8335 17.2080
# 6 -20.0163 -17.0013 4.0148 -7.9680 17.2080 41.2172
#
#
#
# Elastic Compliance Matrix: (Units=1/GPa)
#
#
# Indices 1 2 3 4 5 6 
#
# 1 0.008901 0.001476 -0.002908 0.000826 -0.005664 0.007739
# 2 0.001476 0.016641 -0.007432 -0.000449 -0.006790 0.011053
# 3 -0.002908 -0.007432 0.012399 -0.002362 0.006303 -0.008774
# 4 0.000826 -0.000449 -0.002362 0.025155 -0.007256 0.008339
# 5 -0.005664 -0.006790 0.006303 -0.007256 0.031836 -0.020860
# 6 0.007739 0.011053 -0.008774 0.008339 -0.020860 0.043755
#
#
# Mechanical properties :
#
#
# Convention : Reuss Voigt Hill
#
# Bulk Modulus (GPa) = 49.47431 59.70389 54.58910
# Shear Modulus (GPa) = 30.64619 45.00310 37.82465
#
# Velocity S-wave (km/s) = 3.64532 4.41742 4.04981
# Velocity P-wave (km/s) = 6.25861 7.20459 6.74820
#
# Compressibility (1/GPa) = 0.02021251
#
# Stress axis : x y z
#
# Youngs Moduli (GPa) = 112.34694 60.09160 80.65413
#
# Poissons Ratio (x) = -0.08869 0.23452
# Poissons Ratio (y) = -0.16582 0.59945
# Poissons Ratio (z) = 0.32668 0.44663
#
# Static dielectric constant tensor:
#      x y z
#    x 1.828650 0.064750 -0.115860 
#    y 0.064750 1.809770 0.126750 
#    z -0.115860 0.126750 1.419040 
# 
# From -- ./inp_files/152652.got.cif
#   From: 2010.05.17/outbox.cif.g08.bks.cpg/sg2_77_cif.got.tgz:152652.got - 2010.06.03 11:33:40.
