data_PCOD9035224
_publ_section_title
;
Structure prediction by ZEFSAII (Michael W. Deem and Ramdas Pophale) SiO2 
 PCOD9035224
Probable space group: P -1
;
_chemical_formula_sum "Si O2"
_cell_formula_units_Z 16
_cell_length_a 11.803701
_cell_length_b 5.189429
_cell_length_c 23.962783
_cell_angle_alpha 95.897566
_cell_angle_beta 32.307725
_cell_angle_gamma 112.344599
_cell_volume 650.819416
_symmetry_space_group_name_H-M "P -1"
_symmetry_group_IT_number 2
_symmetry_cell_setting 'triclinic'
loop_
_space_group_symop_operation_xyz
x,y,z
-x,-y,-z
loop_
_atom_site_type_symbol
_atom_site_label
_atom_site_fract_x
_atom_site_fract_y
_atom_site_fract_z
Si Si1 0.913055 0.802745 0.928199
Si Si2 0.649948 0.197995 0.495634
Si Si3 0.781145 0.181704 0.912909
Si Si4 0.071411 0.135574 0.357010
Si Si5 0.112129 0.757044 0.250491
Si Si6 0.512802 0.806344 0.164519
Si Si7 0.489691 0.298304 0.677018
Si Si8 0.353398 0.047738 0.325737
O O1 0.835462 0.457401 0.937587
O O2 0.835427 0.944421 0.913347
O O3 0.757944 0.809590 0.045656
O O4 0.214778 0.036646 0.810432
O O5 0.495720 0.253088 0.607125
O O6 0.793703 0.062087 0.464354
O O7 0.881881 0.514395 0.379912
O O8 0.500000 0.000000 0.500000
O O9 0.947148 0.326036 0.790748
O O10 0.500000 0.000000 0.000000
O O11 0.298602 0.493629 0.278402
O O12 0.106729 0.962749 0.389988
O O13 0.141694 0.071699 0.264796
O O14 0.367149 0.794322 0.168267
O O15 0.542114 0.075746 0.197918
O O16 0.547793 0.631803 0.676737
O O17 0.675481 0.209435 0.625523
#
# Coordination Sequence:
#
# PCOD9035224 Si02
#       8
#     2   2   2   2   2   2   2   2
#     4  12  27  43  69 108 149 188 239 296 357 428
#     4  11  27  47  72 106 147 190 233 295 365 431
#     4  12  24  42  71 107 146 191 239 293 350 430
#     4  10  23  47  74 104 138 191 240 298 353 424
#     4  10  23  41  71 102 142 189 236 291 357 422
#     4  10  22  45  72 106 138 183 241 294 363 414
#     4  12  28  48  71 108 146 191 241 294 357 419
#     4  11  25  50  74 104 143 188 248 295 351 427
#
# _framework density 24.584392000000001
#
# number of rings (size 3 to 8) (size 9 to 14) (size 15 to 20)
#    0.000    1.000    2.500    2.625    8.750    2.500 
#    0.000    0.000    0.000    0.000    0.000    0.000 
#    0.000    0.000    0.000    0.000    0.000    0.000 
#
# Total GULP energy -89512.055339 kJ/mol
# GULP energy per Si atom -5594.503459 kJ/mol
# Density = 2.452844 g / cm^3
# Si number density = 24.584392 Si / 1000 Ang^3
#
#
#
# Elastic Constant Matrix: (Units=GPa)
#
#
# Indices 1 2 3 4 5 6 
#
# 1 87.7651 14.1887 25.7332 6.0124 8.6328 8.9582
# 2 14.1887 126.4227 34.9754 21.5571 4.5726 22.3130
# 3 25.7332 34.9754 103.7691 14.3966 1.5466 28.3939
# 4 6.0124 21.5571 14.3966 35.3457 9.4100 10.6958
# 5 8.6328 4.5726 1.5466 9.4100 34.8367 7.0626
# 6 8.9582 22.3130 28.3939 10.6958 7.0626 38.7712
#
#
#
# Elastic Compliance Matrix: (Units=1/GPa)
#
#
# Indices 1 2 3 4 5 6 
#
# 1 0.012620 -0.000529 -0.002939 0.000153 -0.002977 0.000041
# 2 -0.000529 0.009714 -0.001679 -0.004396 0.000759 -0.003165
# 3 -0.002939 -0.001679 0.013393 -0.002187 0.002573 -0.008029
# 4 0.000153 -0.004396 -0.002187 0.035237 -0.008038 -0.004161
# 5 -0.002977 0.000759 0.002573 -0.008038 0.032482 -0.005333
# 6 0.000041 -0.003165 -0.008029 -0.004161 -0.005333 0.035603
#
#
# Mechanical properties :
#
#
# Convention : Reuss Voigt Hill
#
# Bulk Modulus (GPa) = 39.31804 51.97239 45.64521
# Shear Modulus (GPa) = 31.68165 37.99471 34.83818
#
# Velocity S-wave (km/s) = 3.59373 3.93553 3.76850
# Velocity P-wave (km/s) = 5.76608 6.46819 6.12720
#
# Compressibility (1/GPa) = 0.02543362
#
# Stress axis : x y z
#
# Youngs Moduli (GPa) = 79.24232 102.94068 74.66368
#
# Poissons Ratio (x) = 0.05444 0.21947
# Poissons Ratio (y) = 0.04191 0.12533
# Poissons Ratio (z) = 0.23292 0.17279
#
# Static dielectric constant tensor:
#      x y z
#    x 1.977890 -0.031550 0.024520 
#    y -0.031550 2.071320 0.035480 
#    z 0.024520 0.035480 2.047370 
# 
# From -- ./inp_files/609217.got.cif
#   From: 2010.05.17/outbox.cif.g08.bks.cpg/sg2_305_cif.got.tgz:609217.got - 2010.06.03 11:33:40.
