data_PCOD9035349
_publ_section_title
;
Structure prediction by ZEFSAII (Michael W. Deem and Ramdas Pophale) SiO2 
 PCOD9035349
Probable space group: P -1
;
_chemical_formula_sum "Si O2"
_cell_formula_units_Z 10
_cell_length_a 13.050197
_cell_length_b 4.858770
_cell_length_c 8.579017
_cell_angle_alpha 47.648549
_cell_angle_beta 63.887566
_cell_angle_gamma 74.246973
_cell_volume 360.724446
_symmetry_space_group_name_H-M "P -1"
_symmetry_group_IT_number 2
_symmetry_cell_setting 'triclinic'
loop_
_space_group_symop_operation_xyz
x,y,z
-x,-y,-z
loop_
_atom_site_type_symbol
_atom_site_label
_atom_site_fract_x
_atom_site_fract_y
_atom_site_fract_z
Si Si1 0.474613 0.658402 0.787549
Si Si2 0.372353 0.724115 0.413702
Si Si3 0.046343 0.606127 0.174424
Si Si4 0.168654 0.565013 0.437122
Si Si5 0.763724 0.295938 0.212887
O O1 0.527987 0.414068 0.709638
O O2 0.341600 0.714826 0.833382
O O3 0.560451 0.015432 0.607667
O O4 0.500000 0.500000 0.000000
O O5 0.277791 0.827362 0.309972
O O6 0.287128 0.506465 0.675424
O O7 0.122910 0.627501 0.270952
O O8 0.934104 0.372661 0.395722
O O9 0.126925 0.500590 0.017292
O O10 0.000000 0.000000 0.000000
O O11 0.204767 0.128405 0.595199
#
# Coordination Sequence:
#
# PCOD9035349 Si02
#       5
#     2   2   2   2   2
#     4  12  27  46  72 108 146 191 237 289 355 425
#     4  12  25  46  73 105 148 186 236 295 351 422
#     4   9  21  46  73 107 141 190 237 296 359 419
#     4  10  22  45  74 105 146 185 241 294 351 425
#     4  11  24  42  74 104 148 187 238 291 354 420
#
# _framework density 27.721988
#
# number of rings (size 3 to 8) (size 9 to 14) (size 15 to 20)
#    0.000    1.200    2.000    3.000    2.800    0.800 
#    3.600    9.000    0.000    0.000    0.000    0.000 
#    0.000    0.000    0.000    0.000    0.000    0.000 
#
# Total GULP energy -55959.437464 kJ/mol
# GULP energy per Si atom -5595.943746 kJ/mol
# Density = 2.765889 g / cm^3
# Si number density = 27.721988 Si / 1000 Ang^3
#
#
#
# Elastic Constant Matrix: (Units=GPa)
#
#
# Indices 1 2 3 4 5 6 
#
# 1 203.1828 18.4901 21.8067 -10.6320 4.2383 -9.4617
# 2 18.4901 92.9676 13.4375 17.6837 -14.8752 -10.3846
# 3 21.8067 13.4375 116.6428 31.6617 -6.6963 -40.0431
# 4 -10.6320 17.6837 31.6617 39.3741 -15.7937 -11.1852
# 5 4.2383 -14.8752 -6.6963 -15.7937 57.0705 4.8437
# 6 -9.4617 -10.3846 -40.0431 -11.1852 4.8437 44.7753
#
#
#
# Elastic Compliance Matrix: (Units=1/GPa)
#
#
# Indices 1 2 3 4 5 6 
#
# 1 0.005444 -0.001501 -0.001788 0.003606 -0.000017 0.000105
# 2 -0.001501 0.012471 0.001180 -0.005675 0.001758 0.002022
# 3 -0.001788 0.001180 0.015500 -0.010990 -0.001733 0.011200
# 4 0.003606 -0.005675 -0.010990 0.040794 0.008346 -0.001095
# 5 -0.000017 0.001758 -0.001733 0.008346 0.020194 -0.001245
# 6 0.000105 0.002022 0.011200 -0.001095 -0.001245 0.032702
#
#
# Mechanical properties :
#
#
# Convention : Reuss Voigt Hill
#
# Bulk Modulus (GPa) = 34.25127 57.80685 46.02906
# Shear Modulus (GPa) = 35.44669 52.18124 43.81396
#
# Velocity S-wave (km/s) = 3.57970 4.34326 3.97983
# Velocity P-wave (km/s) = 5.42842 6.78598 6.14480
#
# Compressibility (1/GPa) = 0.02919600
#
# Stress axis : x y z
#
# Youngs Moduli (GPa) = 183.68420 80.18489 64.51525
#
# Poissons Ratio (x) = 0.12036 0.11537
# Poissons Ratio (y) = 0.27570 -0.07610
# Poissons Ratio (z) = 0.32849 -0.09458
#
# Static dielectric constant tensor:
#      x y z
#    x 1.882650 0.155790 -0.193020 
#    y 0.155790 2.124560 -0.018130 
#    z -0.193020 -0.018130 2.140510 
# 
# From -- ./inp_files/20409.got.cif
#   From: 2010.05.17/outbox.cif.g08.bks.cpg/sg2_11_cif.got.tgz:20409.got - 2010.06.03 11:33:40.
