data_PCOD9035449
_publ_section_title
;
Structure prediction by ZEFSAII (Michael W. Deem and Ramdas Pophale) SiO2 
 PCOD9035449
Probable space group: P -1
;
_chemical_formula_sum "Si O2"
_cell_formula_units_Z 16
_cell_length_a 19.335641
_cell_length_b 5.843551
_cell_length_c 5.983908
_cell_angle_alpha 85.137927
_cell_angle_beta 77.500546
_cell_angle_gamma 88.049701
_cell_volume 657.628597
_symmetry_space_group_name_H-M "P -1"
_symmetry_group_IT_number 2
_symmetry_cell_setting 'triclinic'
loop_
_space_group_symop_operation_xyz
x,y,z
-x,-y,-z
loop_
_atom_site_type_symbol
_atom_site_label
_atom_site_fract_x
_atom_site_fract_y
_atom_site_fract_z
Si Si1 0.588025 0.249476 0.355803
Si Si2 0.768814 0.822874 0.129374
Si Si3 0.580806 0.735553 0.589884
Si Si4 0.334034 0.463666 0.061351
Si Si5 0.838995 0.215767 0.158849
Si Si6 0.207839 0.440651 0.475652
Si Si7 0.021282 0.906649 0.742405
Si Si8 0.098528 0.420119 0.193189
O O1 0.599251 0.485231 0.477505
O O2 0.504209 0.247556 0.363312
O O3 0.605413 0.990495 0.461040
O O4 0.629752 0.320916 0.097291
O O5 0.768190 0.792503 0.400178
O O6 0.779939 0.089063 0.071479
O O7 0.703444 0.703923 0.075278
O O8 0.843797 0.731016 0.976909
O O9 0.610433 0.687073 0.820591
O O10 0.267371 0.522238 0.261379
O O11 0.797814 0.395611 0.323782
O O12 0.894002 0.093469 0.298969
O O13 0.890905 0.330876 0.935527
O O14 0.131807 0.419336 0.415482
O O15 0.979766 0.666531 0.776607
O O16 0.000000 0.000000 0.500000
O O17 0.000000 0.000000 0.000000
#
# Coordination Sequence:
#
# PCOD9035449 Si02
#       8
#     2   2   2   2   2   2   2   2
#     4  10  23  47  76 113 147 197 248 321 372 462
#     4  10  22  46  63  96 142 183 235 299 366 452
#     4  10  23  47  77 108 155 190 252 315 386 442
#     4  11  23  46  70 108 147 194 252 298 386 457
#     4  11  24  44  72  96 140 184 241 303 380 445
#     4  10  24  44  65  98 140 187 239 306 364 457
#     4  12  26  44  77 102 139 188 248 314 387 465
#     4  10  23  43  68 100 130 179 241 300 376 443
#
# _framework density 24.329840000000001
#
# number of rings (size 3 to 8) (size 9 to 14) (size 15 to 20)
#    0.000    1.500    1.250    2.250    3.500    3.500 
#   29.250    3.750    0.000    0.000    0.000    0.000 
#    0.000    0.000    0.000    0.000    0.000    0.000 
#
# Total GULP energy -89214.258624 kJ/mol
# GULP energy per Si atom -5575.891164 kJ/mol
# Density = 2.427446 g / cm^3
# Si number density = 24.329840 Si / 1000 Ang^3
#
#
#
# Elastic Constant Matrix: (Units=GPa)
#
#
# Indices 1 2 3 4 5 6 
#
# 1 96.5834 53.5910 37.6007 -12.4810 23.9948 8.9605
# 2 53.5910 124.5882 55.5688 -33.5440 5.3735 25.7813
# 3 37.6007 55.5688 94.2835 -23.9577 15.6546 13.3267
# 4 -12.4810 -33.5440 -23.9577 34.7172 -2.5521 -4.0950
# 5 23.9948 5.3735 15.6546 -2.5521 46.9942 -5.3150
# 6 8.9605 25.7813 13.3267 -4.0950 -5.3150 42.0923
#
#
#
# Elastic Compliance Matrix: (Units=1/GPa)
#
#
# Indices 1 2 3 4 5 6 
#
# 1 0.016097 -0.006281 -0.002149 -0.002272 -0.006908 0.000007
# 2 -0.006281 0.016519 -0.004178 0.010285 0.002575 -0.006132
# 3 -0.002149 -0.004178 0.016360 0.005958 -0.003784 -0.002061
# 4 -0.002272 0.010285 0.005958 0.041592 -0.000158 -0.003676
# 5 -0.006908 0.002575 -0.003784 -0.000158 0.026260 0.004392
# 6 0.000007 -0.006132 -0.002061 -0.003676 0.004392 0.028361
#
#
# Mechanical properties :
#
#
# Convention : Reuss Voigt Hill
#
# Bulk Modulus (GPa) = 42.08925 67.66403 54.87664
# Shear Modulus (GPa) = 28.03867 36.00706 32.02286
#
# Velocity S-wave (km/s) = 3.39844 3.85119 3.63188
# Velocity P-wave (km/s) = 5.72156 6.90269 6.33969
#
# Compressibility (1/GPa) = 0.02375904
#
# Stress axis : x y z
#
# Youngs Moduli (GPa) = 62.12214 60.53752 61.12559
#
# Poissons Ratio (x) = 0.38022 0.13138
# Poissons Ratio (y) = 0.39017 0.25540
# Poissons Ratio (z) = 0.13352 0.25295
#
# Static dielectric constant tensor:
#      x y z
#    x 1.930160 -0.126490 0.036710 
#    y -0.126490 2.196400 -0.069240 
#    z 0.036710 -0.069240 2.026200 
# 
# From -- ./inp_files/12817.got.cif
#   From: 2010.05.17/outbox.cif.g08.bks.cpg/sg2_7_cif.got.tgz:12817.got - 2010.06.03 11:33:40.
