data_PCOD9035839
_publ_section_title
;
Structure prediction by ZEFSAII (Michael W. Deem and Ramdas Pophale) SiO2 
 PCOD9035839
Probable space group: P -1
;
_chemical_formula_sum "Si O2"
_cell_formula_units_Z 16
_cell_length_a 5.561640
_cell_length_b 23.756278
_cell_length_c 5.544973
_cell_angle_alpha 61.924842
_cell_angle_beta 98.824572
_cell_angle_gamma 104.090115
_cell_volume 626.322245
_symmetry_space_group_name_H-M "P -1"
_symmetry_group_IT_number 2
_symmetry_cell_setting 'triclinic'
loop_
_space_group_symop_operation_xyz
x,y,z
-x,-y,-z
loop_
_atom_site_type_symbol
_atom_site_label
_atom_site_fract_x
_atom_site_fract_y
_atom_site_fract_z
Si Si1 0.069841 0.251825 0.827754
Si Si2 0.331904 0.645886 0.820409
Si Si3 0.129889 0.966329 0.890240
Si Si4 0.694546 0.777158 0.598484
Si Si5 0.631686 0.939300 0.577158
Si Si6 0.786248 0.622400 0.612372
Si Si7 0.382125 0.849521 0.131689
Si Si8 0.238084 0.511218 0.339359
O O1 0.195266 0.237142 0.620033
O O2 0.166714 0.330124 0.711112
O O3 0.781210 0.221980 0.802291
O O4 0.132087 0.216312 0.153457
O O5 0.482483 0.716357 0.769028
O O6 0.519409 0.626200 0.680430
O O7 0.046772 0.652366 0.722527
O O8 0.297027 0.585137 0.115378
O O9 0.915869 0.943777 0.700926
O O10 0.334451 0.031788 0.741605
O O11 0.217130 0.899779 0.097500
O O12 0.000000 0.000000 0.000000
O O13 0.573082 0.837921 0.390652
O O14 0.500000 0.000000 0.500000
O O15 0.488709 0.879506 0.832054
O O16 0.812989 0.547567 0.742415
O O17 0.500000 0.500000 0.500000
O O18 0.000000 0.500000 0.500000
#
# Coordination Sequence:
#
# PCOD9035839 Si02
#       8
#     2   2   2   2   2   2   2   2
#     4  11  26  50  73 111 153 202 260 321 386 471
#     4  11  23  45  73 105 152 205 270 327 401 470
#     4  10  22  46  73 106 142 184 245 308 381 451
#     4  11  26  50  73 109 153 206 253 324 391 468
#     4   9  21  44  69 100 141 180 237 299 374 448
#     4  11  23  45  73 105 152 209 265 331 398 469
#     4  11  23  49  71 111 145 198 251 308 387 468
#     4  12  24  40  68 111 150 207 268 332 401 468
#
# _framework density 25.545953999999998
#
# number of rings (size 3 to 8) (size 9 to 14) (size 15 to 20)
#    0.000    1.250    1.250    3.750    0.000    5.000 
#   29.250    0.000    0.000    0.000    0.000    0.000 
#    0.000    0.000    0.000    0.000    0.000    0.000 
#
# Total GULP energy -89107.134850 kJ/mol
# GULP energy per Si atom -5569.195928 kJ/mol
# Density = 2.548781 g / cm^3
# Si number density = 25.545954 Si / 1000 Ang^3
#
#
#
# Elastic Constant Matrix: (Units=GPa)
#
#
# Indices 1 2 3 4 5 6 
#
# 1 94.5321 -0.9933 36.0607 -9.1648 -5.4259 -2.1089
# 2 -0.9933 50.6247 3.6374 -29.7257 -10.2852 0.8209
# 3 36.0607 3.6374 152.2458 -29.5538 -3.6016 -4.7038
# 4 -9.1648 -29.7257 -29.5538 48.6026 8.6847 -0.6549
# 5 -5.4259 -10.2852 -3.6016 8.6847 70.4485 -8.3115
# 6 -2.1089 0.8209 -4.7038 -0.6549 -8.3115 49.6711
#
#
#
# Elastic Compliance Matrix: (Units=1/GPa)
#
#
# Indices 1 2 3 4 5 6 
#
# 1 0.011744 0.001397 -0.002512 0.001394 0.000855 0.000399
# 2 0.001397 0.032901 0.003210 0.021909 0.002435 0.000516
# 3 -0.002512 0.003210 0.008390 0.006606 -0.000026 0.000718
# 4 0.001394 0.021909 0.006606 0.038445 -0.001018 0.000659
# 5 0.000855 0.002435 -0.000026 -0.001018 0.015035 0.002496
# 6 0.000399 0.000516 0.000718 0.000659 0.002496 0.020635
#
#
# Mechanical properties :
#
#
# Convention : Reuss Voigt Hill
#
# Bulk Modulus (GPa) = 17.47494 41.64581 29.56037
# Shear Modulus (GPa) = 35.20199 50.99095 43.09647
#
# Velocity S-wave (km/s) = 3.71615 4.47256 4.11179
# Velocity P-wave (km/s) = 5.02678 6.55816 5.84286
#
# Compressibility (1/GPa) = 0.05722480
#
# Stress axis : x y z
#
# Youngs Moduli (GPa) = 85.14646 30.39417 119.18275
#
# Poissons Ratio (x) = -0.04245 0.29939
# Poissons Ratio (y) = -0.11892 -0.38254
# Poissons Ratio (z) = 0.21389 -0.09756
#
# Static dielectric constant tensor:
#      x y z
#    x 1.915100 0.054520 0.081300 
#    y 0.054520 2.188800 -0.009700 
#    z 0.081300 -0.009700 2.034610 
# 
# From -- ./inp_files/12578.got.cif
#   From: 2010.05.17/outbox.cif.g08.bks.cpg/sg2_7_cif.got.tgz:12578.got - 2010.06.03 11:33:40.
