data_PCOD9035946
_publ_section_title
;
Structure prediction by ZEFSAII (Michael W. Deem and Ramdas Pophale) SiO2 
 PCOD9035946
Probable space group: P -1
;
_chemical_formula_sum "Si O2"
_cell_formula_units_Z 10
_cell_length_a 8.607330
_cell_length_b 10.778220
_cell_length_c 5.076883
_cell_angle_alpha 126.516879
_cell_angle_beta 78.336399
_cell_angle_gamma 96.315112
_cell_volume 370.679035
_symmetry_space_group_name_H-M "P -1"
_symmetry_group_IT_number 2
_symmetry_cell_setting 'triclinic'
loop_
_space_group_symop_operation_xyz
x,y,z
-x,-y,-z
loop_
_atom_site_type_symbol
_atom_site_label
_atom_site_fract_x
_atom_site_fract_y
_atom_site_fract_z
Si Si1 0.163068 0.935323 0.495669
Si Si2 0.917214 0.387197 0.676685
Si Si3 0.416892 0.578780 0.376232
Si Si4 0.799861 0.789819 0.832860
Si Si5 0.614000 0.828928 0.444221
O O1 0.329062 0.993197 0.378676
O O2 0.850630 0.244776 0.692601
O O3 0.832810 0.969111 0.110758
O O4 0.000000 0.000000 0.500000
O O5 0.769033 0.443198 0.623953
O O6 0.041590 0.309971 0.332680
O O7 0.742172 0.764333 0.526577
O O8 0.000000 0.500000 0.000000
O O9 0.500000 0.500000 0.500000
O O10 0.456413 0.761655 0.540593
O O11 0.500000 0.500000 0.000000
O O12 0.662007 0.763249 0.059555
#
# Coordination Sequence:
#
# PCOD9035946 Si02
#       5
#     2   2   2   2   2
#     4  10  23  44  83 111 154 191 263 319 383 450
#     4  12  26  48  82 119 152 209 263 317 387 463
#     4  12  29  51  71 111 167 205 247 323 393 453
#     4  10  22  46  77 111 145 194 258 313 377 456
#     4  10  23  45  79 104 152 196 251 309 390 442
#
# _framework density 26.977518
#
# number of rings (size 3 to 8) (size 9 to 14) (size 15 to 20)
#    1.200    0.000    2.000    3.000    0.000    4.000 
#    0.000   11.000    0.000    0.000    0.000    0.000 
#    0.000    0.000    0.000    0.000    0.000    0.000 
#
# Total GULP energy -55886.038210 kJ/mol
# GULP energy per Si atom -5588.603821 kJ/mol
# Density = 2.691612 g / cm^3
# Si number density = 26.977518 Si / 1000 Ang^3
#
#
#
# Elastic Constant Matrix: (Units=GPa)
#
#
# Indices 1 2 3 4 5 6 
#
# 1 143.9514 62.1569 39.0665 11.8147 20.6281 2.0900
# 2 62.1569 197.9803 34.4790 4.8730 14.7387 45.6460
# 3 39.0665 34.4790 116.5241 -3.4801 14.8879 -7.1415
# 4 11.8147 4.8730 -3.4801 48.6015 -1.1166 5.5444
# 5 20.6281 14.7387 14.8879 -1.1166 38.6789 1.6637
# 6 2.0900 45.6460 -7.1415 5.5444 1.6637 59.9378
#
#
#
# Elastic Compliance Matrix: (Units=1/GPa)
#
#
# Indices 1 2 3 4 5 6 
#
# 1 0.009262 -0.002701 -0.001837 -0.002398 -0.003351 0.001830
# 2 -0.002701 0.007567 -0.001610 0.000441 -0.000557 -0.005886
# 3 -0.001837 -0.001610 0.010162 0.000998 -0.002396 0.002475
# 4 -0.002398 0.000441 0.000998 0.021465 0.001439 -0.002159
# 5 -0.003351 -0.000557 -0.002396 0.001439 0.028846 -0.000678
# 6 0.001830 -0.005886 0.002475 -0.002159 -0.000678 0.021616
#
#
# Mechanical properties :
#
#
# Convention : Reuss Voigt Hill
#
# Bulk Modulus (GPa) = 68.05351 81.09563 74.57457
# Shear Modulus (GPa) = 43.06131 50.96052 47.01092
#
# Velocity S-wave (km/s) = 3.99957 4.35098 4.17897
# Velocity P-wave (km/s) = 6.82712 7.44090 7.14061
#
# Compressibility (1/GPa) = 0.01469432
#
# Stress axis : x y z
#
# Youngs Moduli (GPa) = 107.96417 132.15079 98.40784
#
# Poissons Ratio (x) = 0.35700 0.18080
# Poissons Ratio (y) = 0.29166 0.15841
# Poissons Ratio (z) = 0.19836 0.21273
#
# Static dielectric constant tensor:
#      x y z
#    x 2.064580 0.058830 0.124870 
#    y 0.058830 2.283080 0.068180 
#    z 0.124870 0.068180 1.897480 
# 
# From -- ./inp_files/20461.got.cif
#   From: 2010.05.17/outbox.cif.g08.bks.cpg/sg2_11_cif.got.tgz:20461.got - 2010.06.03 11:33:40.
