data_PCOD9035835
_publ_section_title
;
Structure prediction by ZEFSAII (Michael W. Deem and Ramdas Pophale) SiO2 
 PCOD9035835
Probable space group: P -1
;
_chemical_formula_sum "Si O2"
_cell_formula_units_Z 14
_cell_length_a 17.015422
_cell_length_b 7.576902
_cell_length_c 8.427729
_cell_angle_alpha 69.332952
_cell_angle_beta 41.906380
_cell_angle_gamma 91.444969
_cell_volume 602.674614
_symmetry_space_group_name_H-M "P -1"
_symmetry_group_IT_number 2
_symmetry_cell_setting 'triclinic'
loop_
_space_group_symop_operation_xyz
x,y,z
-x,-y,-z
loop_
_atom_site_type_symbol
_atom_site_label
_atom_site_fract_x
_atom_site_fract_y
_atom_site_fract_z
Si Si1 0.521300 0.043939 0.695534
Si Si2 0.689488 0.154553 0.683186
Si Si3 0.580418 0.370600 0.240702
Si Si4 0.026948 0.778745 0.695542
Si Si5 0.395355 0.470544 0.304481
Si Si6 0.879527 0.713173 0.615649
Si Si7 0.101213 0.246279 0.778565
O O1 0.641221 0.050574 0.617726
O O2 0.576052 0.259187 0.447723
O O3 0.458462 0.831457 0.753418
O O4 0.401126 0.017974 0.997844
O O5 0.841157 0.242873 0.465687
O O6 0.640610 0.335141 0.702932
O O7 0.464991 0.437206 0.365340
O O8 0.723457 0.562130 0.925887
O O9 0.955870 0.687177 0.663051
O O10 0.079591 0.035323 0.528299
O O11 0.933072 0.684957 0.021268
O O12 0.250599 0.278579 0.553355
O O13 0.500000 0.500000 0.000000
O O14 0.911362 0.663795 0.404514
O O15 0.000000 0.000000 0.000000
#
# Coordination Sequence:
#
# PCOD9035835 Si02
#       7
#     2   2   2   2   2   2   2
#     4  10  25  43  68 108 138 186 233 302 366 417
#     4  11  25  46  70 106 148 186 233 309 360 428
#     4  11  24  45  72 103 142 183 249 290 365 433
#     4  10  25  45  70 108 150 185 253 291 375 434
#     4  12  24  45  75 104 143 193 245 293 368 436
#     4  10  22  46  73 105 143 200 236 307 356 444
#     4  10  23  42  71 106 141 197 237 297 366 430
#
# _framework density 23.229783000000001
#
# number of rings (size 3 to 8) (size 9 to 14) (size 15 to 20)
#    0.000    1.429    2.857    0.000   10.000    4.571 
#    2.571    1.429    0.000    0.000    0.000    0.000 
#    0.000    0.000    0.000    0.000    0.000    0.000 
#
# Total GULP energy -78252.535862 kJ/mol
# GULP energy per Si atom -5589.466847 kJ/mol
# Density = 2.317691 g / cm^3
# Si number density = 23.229783 Si / 1000 Ang^3
#
#
#
# Elastic Constant Matrix: (Units=GPa)
#
#
# Indices 1 2 3 4 5 6 
#
# 1 181.7557 44.9834 100.7412 24.0594 0.8157 11.1169
# 2 44.9834 59.4072 43.5371 5.6735 0.0015 -3.6797
# 3 100.7412 43.5371 164.5113 -3.0040 -6.9759 -5.5224
# 4 24.0594 5.6735 -3.0040 33.2481 0.3758 -5.6606
# 5 0.8157 0.0015 -6.9759 0.3758 55.0163 -2.6702
# 6 11.1169 -3.6797 -5.5224 -5.6606 -2.6702 30.6126
#
#
#
# Elastic Compliance Matrix: (Units=1/GPa)
#
#
# Indices 1 2 3 4 5 6 
#
# 1 0.012094 -0.003580 -0.006973 -0.010130 -0.001386 -0.008074
# 2 -0.003580 0.022550 -0.003701 -0.001057 -0.000258 0.003125
# 3 -0.006973 -0.003701 0.011740 0.007703 0.001820 0.005789
# 4 -0.010130 -0.001057 0.007703 0.040402 0.001460 0.012539
# 5 -0.001386 -0.000258 0.001820 0.001460 0.018548 0.002689
# 6 -0.008074 0.003125 0.005789 0.012539 0.002689 0.039571
#
#
# Mechanical properties :
#
#
# Convention : Reuss Voigt Hill
#
# Bulk Modulus (GPa) = 55.93924 87.13305 71.53615
# Shear Modulus (GPa) = 27.87477 38.20290 33.03884
#
# Velocity S-wave (km/s) = 3.46780 4.05972 3.77538
# Velocity P-wave (km/s) = 6.33777 7.71789 7.06162
#
# Compressibility (1/GPa) = 0.01787654
#
# Stress axis : x y z
#
# Youngs Moduli (GPa) = 82.68634 44.34496 85.17533
#
# Poissons Ratio (x) = 0.15874 0.59395
# Poissons Ratio (y) = 0.29600 0.31524
# Poissons Ratio (z) = 0.57660 0.16412
#
# Static dielectric constant tensor:
#      x y z
#    x 1.951280 0.077140 0.053210 
#    y 0.077140 1.964290 -0.016950 
#    z 0.053210 -0.016950 1.849500 
# 
# From -- ./inp_files/297570.got.cif
#   From: 2010.05.17/outbox.cif.g08.bks.cpg/sg2_149_cif.got.tgz:297570.got - 2010.06.03 11:33:40.
