data_PCOD9035107
_publ_section_title
;
Structure prediction by ZEFSAII (Michael W. Deem and Ramdas Pophale) SiO2 
 PCOD9035107
Probable space group: P -1
;
_chemical_formula_sum "Si O2"
_cell_formula_units_Z 14
_cell_length_a 10.486453
_cell_length_b 5.312492
_cell_length_c 11.734696
_cell_angle_alpha 88.330280
_cell_angle_beta 83.257828
_cell_angle_gamma 123.797708
_cell_volume 535.953049
_symmetry_space_group_name_H-M "P -1"
_symmetry_group_IT_number 2
_symmetry_cell_setting 'triclinic'
loop_
_space_group_symop_operation_xyz
x,y,z
-x,-y,-z
loop_
_atom_site_type_symbol
_atom_site_label
_atom_site_fract_x
_atom_site_fract_y
_atom_site_fract_z
Si Si1 0.776033 0.996391 0.260500
Si Si2 0.283825 0.420849 0.920987
Si Si3 0.483993 0.744361 0.423595
Si Si4 0.743128 0.719567 0.705598
Si Si5 0.093711 0.426350 0.135235
Si Si6 0.098193 0.855241 0.500429
Si Si7 0.384514 0.119391 0.090974
O O1 0.825151 0.046067 0.386320
O O2 0.913008 0.295043 0.174205
O O3 0.758121 0.710958 0.199915
O O4 0.603764 0.907817 0.302957
O O5 0.434811 0.766556 0.922968
O O6 0.136742 0.358426 0.008896
O O7 0.338803 0.224514 0.981684
O O8 0.500000 0.500000 0.500000
O O9 0.321224 0.542829 0.377894
O O10 0.500000 0.000000 0.500000
O O11 0.878218 0.754263 0.768426
O O12 0.618691 0.676959 0.809924
O O13 0.789045 0.005779 0.620635
O O14 0.236389 0.777237 0.134711
O O15 0.000000 0.500000 0.500000
O O16 0.000000 0.000000 0.500000
#
# Coordination Sequence:
#
# PCOD9035107 Si02
#       7
#     2   2   2   2   2   2   2
#     4  12  25  47  75 108 152 190 255 321 372 443
#     4  10  23  45  69 110 146 197 253 303 380 449
#     4  12  29  49  72 110 152 196 252 311 377 451
#     4  11  24  45  73 103 150 197 253 301 383 461
#     4  11  24  44  75 107 145 200 249 313 374 451
#     4  12  27  47  73 111 149 194 248 309 384 443
#     4  10  22  45  71 102 151 196 248 304 378 458
#
# _framework density 26.121689
#
# number of rings (size 3 to 8) (size 9 to 14) (size 15 to 20)
#    0.000    0.857    4.286    1.714    4.000    0.571 
#   10.286    0.000    0.000    0.000    0.000    0.000 
#    0.000    0.000    0.000    0.000    0.000    0.000 
#
# Total GULP energy -78293.178916 kJ/mol
# GULP energy per Si atom -5592.369923 kJ/mol
# Density = 2.606224 g / cm^3
# Si number density = 26.121689 Si / 1000 Ang^3
#
#
#
# Elastic Constant Matrix: (Units=GPa)
#
#
# Indices 1 2 3 4 5 6 
#
# 1 48.3484 31.6977 31.6634 -18.3445 -11.7694 -0.2817
# 2 31.6977 173.3907 60.0249 3.1632 -6.0162 13.1356
# 3 31.6634 60.0249 146.8913 5.3748 -10.7772 2.3485
# 4 -18.3445 3.1632 5.3748 55.2415 13.0940 -9.1466
# 5 -11.7694 -6.0162 -10.7772 13.0940 53.8609 -6.4961
# 6 -0.2817 13.1356 2.3485 -9.1466 -6.4961 40.9277
#
#
#
# Elastic Compliance Matrix: (Units=1/GPa)
#
#
# Indices 1 2 3 4 5 6 
#
# 1 0.032443 -0.004546 -0.005401 0.011626 0.003291 0.005113
# 2 -0.004546 0.007535 -0.002003 -0.002132 -0.000381 -0.002871
# 3 -0.005401 -0.002003 0.008978 -0.002863 0.001042 -0.000384
# 4 0.011626 -0.002132 -0.002863 0.024136 -0.003441 0.005776
# 5 0.003291 -0.000381 0.001042 -0.003441 0.020600 0.002586
# 6 0.005113 -0.002871 -0.000384 0.005776 0.002586 0.027113
#
#
# Mechanical properties :
#
#
# Convention : Reuss Voigt Hill
#
# Bulk Modulus (GPa) = 39.91260 68.37804 54.14532
# Shear Modulus (GPa) = 32.66723 46.35563 39.51143
#
# Velocity S-wave (km/s) = 3.54019 4.21717 3.89342
# Velocity P-wave (km/s) = 5.65891 7.06727 6.40193
#
# Compressibility (1/GPa) = 0.02505474
#
# Stress axis : x y z
#
# Youngs Moduli (GPa) = 30.82308 132.71199 111.38422
#
# Poissons Ratio (x) = 0.60336 0.60161
# Poissons Ratio (y) = 0.14013 0.22312
# Poissons Ratio (z) = 0.16648 0.26584
#
# Static dielectric constant tensor:
#      x y z
#    x 2.142930 0.041390 -0.026820 
#    y 0.041390 2.108780 -0.061240 
#    z -0.026820 -0.061240 2.025380 
# 
# From -- ./inp_files/410524.got.cif
#   From: 2010.05.17/outbox.cif.g08.bks.cpg/sg2_206_cif.got.tgz:410524.got - 2010.06.03 11:33:40.
