data_PCOD9035597
_publ_section_title
;
Structure prediction by ZEFSAII (Michael W. Deem and Ramdas Pophale) SiO2 
 PCOD9035597
Probable space group: P -1
;
_chemical_formula_sum "Si O2"
_cell_formula_units_Z 14
_cell_length_a 14.233177
_cell_length_b 8.234690
_cell_length_c 11.895544
_cell_angle_alpha 121.969676
_cell_angle_beta 29.782972
_cell_angle_gamma 124.481798
_cell_volume 568.382988
_symmetry_space_group_name_H-M "P -1"
_symmetry_group_IT_number 2
_symmetry_cell_setting 'triclinic'
loop_
_space_group_symop_operation_xyz
x,y,z
-x,-y,-z
loop_
_atom_site_type_symbol
_atom_site_label
_atom_site_fract_x
_atom_site_fract_y
_atom_site_fract_z
Si Si1 0.048863 0.609510 0.648845
Si Si2 0.285589 0.991217 0.416467
Si Si3 0.654462 0.951966 0.137743
Si Si4 0.940739 0.072094 0.706946
Si Si5 0.122837 0.650975 0.837446
Si Si6 0.300899 0.713132 0.097731
Si Si7 0.413688 0.541630 0.340792
O O1 0.135639 0.811800 0.569864
O O2 0.012383 0.654714 0.834516
O O3 0.228305 0.504762 0.434952
O O4 0.855574 0.468196 0.747617
O O5 0.146194 0.132577 0.581614
O O6 0.347739 0.893161 0.202557
O O7 0.476226 0.041953 0.313766
O O8 0.802869 0.125529 0.113918
O O9 0.560107 0.749737 0.226483
O O10 0.779467 0.915019 0.887020
O O11 0.174901 0.766008 0.145065
O O12 0.000000 0.000000 0.500000
O O13 0.316252 0.582401 0.573313
O O14 0.000000 0.500000 0.000000
O O15 0.479488 0.632535 0.841094
#
# Coordination Sequence:
#
# PCOD9035597 Si02
#       7
#     2   2   2   2   2   2   2
#     4   9  21  39  65  97 133 173 225 272 336 396
#     4  10  23  40  67 100 134 182 223 277 335 402
#     4  11  22  45  68 102 135 175 233 274 338 406
#     4  10  24  41  63  97 141 179 219 276 336 397
#     4  10  22  46  69 101 137 176 225 281 346 402
#     4  11  21  41  66 100 138 176 226 275 342 397
#     4   9  23  40  71 100 131 179 223 280 333 400
#
# _framework density 24.631278999999999
#
# number of rings (size 3 to 8) (size 9 to 14) (size 15 to 20)
#    0.857    1.143    0.000    2.571    0.000    9.143 
#    2.571    2.857    0.000    0.000    0.000    0.000 
#    0.000    0.000    0.000    0.000    0.000    0.000 
#
# Total GULP energy -78261.180548 kJ/mol
# GULP energy per Si atom -5590.084325 kJ/mol
# Density = 2.457522 g / cm^3
# Si number density = 24.631279 Si / 1000 Ang^3
#
#
#
# Elastic Constant Matrix: (Units=GPa)
#
#
# Indices 1 2 3 4 5 6 
#
# 1 73.8988 24.4630 23.8361 14.3386 -6.3305 -9.0796
# 2 24.4630 84.8300 52.5609 -13.1570 14.3589 0.2572
# 3 23.8361 52.5609 158.0750 -15.3093 7.0572 -25.8861
# 4 14.3386 -13.1570 -15.3093 51.7617 -17.9592 -4.1979
# 5 -6.3305 14.3589 7.0572 -17.9592 49.3780 4.4067
# 6 -9.0796 0.2572 -25.8861 -4.1979 4.4067 36.3976
#
#
#
# Elastic Compliance Matrix: (Units=1/GPa)
#
#
# Indices 1 2 3 4 5 6 
#
# 1 0.017263 -0.005587 -0.000901 -0.005664 0.001652 0.002852
# 2 -0.005587 0.017819 -0.005394 0.002830 -0.003689 -0.004583
# 3 -0.000901 -0.005394 0.009598 0.002392 0.000338 0.006874
# 4 -0.005664 0.002830 0.002392 0.024919 0.006967 0.002299
# 5 0.001652 -0.003689 0.000338 0.006967 0.024151 -0.001442
# 6 0.002852 -0.004583 0.006874 0.002299 -0.001442 0.033547
#
#
# Mechanical properties :
#
#
# Convention : Reuss Voigt Hill
#
# Bulk Modulus (GPa) = 47.81008 57.61374 52.71191
# Shear Modulus (GPa) = 31.63925 41.90372 36.77148
#
# Velocity S-wave (km/s) = 3.58790 4.12908 3.86797
# Velocity P-wave (km/s) = 6.05116 6.79512 6.43390
#
# Compressibility (1/GPa) = 0.02091609
#
# Stress axis : x y z
#
# Youngs Moduli (GPa) = 57.92769 56.12035 104.19046
#
# Poissons Ratio (x) = 0.31354 0.09384
# Poissons Ratio (y) = 0.32364 0.56202
# Poissons Ratio (z) = 0.05217 0.30272
#
# Static dielectric constant tensor:
#      x y z
#    x 1.988380 -0.048470 0.019820 
#    y -0.048470 1.988780 -0.029030 
#    z 0.019820 -0.029030 1.975430 
# 
# From -- ./inp_files/446254.got.cif
#   From: 2010.05.17/outbox.cif.g08.bks.cpg/sg2_224_cif.got.tgz:446254.got - 2010.06.03 11:33:40.
