data_PCOD9035578
_publ_section_title
;
Structure prediction by ZEFSAII (Michael W. Deem and Ramdas Pophale) SiO2 
 PCOD9035578
Probable space group: P -1
;
_chemical_formula_sum "Si O2"
_cell_formula_units_Z 14
_cell_length_a 9.535730
_cell_length_b 11.494009
_cell_length_c 17.890172
_cell_angle_alpha 149.367393
_cell_angle_beta 37.965843
_cell_angle_gamma 126.848348
_cell_volume 594.972213
_symmetry_space_group_name_H-M "P -1"
_symmetry_group_IT_number 2
_symmetry_cell_setting 'triclinic'
loop_
_space_group_symop_operation_xyz
x,y,z
-x,-y,-z
loop_
_atom_site_type_symbol
_atom_site_label
_atom_site_fract_x
_atom_site_fract_y
_atom_site_fract_z
Si Si1 0.947059 0.004994 0.687789
Si Si2 0.689435 0.588968 0.571620
Si Si3 0.657604 0.241924 0.519352
Si Si4 0.675492 0.767366 0.064930
Si Si5 0.280879 0.136620 0.505918
Si Si6 0.445428 0.528006 0.911518
Si Si7 0.182971 0.654762 0.770960
O O1 0.090761 0.019630 0.559017
O O2 0.836109 0.782303 0.611865
O O3 0.750712 0.247463 0.909934
O O4 0.125287 0.967604 0.662158
O O5 0.729389 0.440255 0.548527
O O6 0.409870 0.709447 0.744922
O O7 0.757029 0.401552 0.372013
O O8 0.464928 0.157697 0.505408
O O9 0.547785 0.363411 0.708973
O O10 0.660349 0.611810 0.058351
O O11 0.443808 0.981851 0.288714
O O12 0.644102 0.621512 0.923891
O O13 0.927529 0.824251 0.986761
O O14 0.171699 0.398755 0.667317
#
# Coordination Sequence:
#
# PCOD9035578 Si02
#       7
#     2   2   2   2   2   2   2
#     4  12  23  42  67  99 135 172 218 277 324 398
#     4  10  24  43  68  95 139 182 214 262 343 393
#     4  11  25  46  63 100 139 178 214 269 332 405
#     4  11  23  42  69 104 128 169 223 286 323 384
#     4  11  24  42  73 101 129 172 228 273 334 378
#     4  11  25  39  69 103 131 168 225 274 336 379
#     4  10  22  46  68  98 134 174 222 278 321 396
#
# _framework density 23.530512000000002
#
# number of rings (size 3 to 8) (size 9 to 14) (size 15 to 20)
#    0.000    1.143    2.857    2.571    2.000    4.571 
#    0.000   15.714    0.000    0.000    0.000    0.000 
#    0.000    0.000    0.000    0.000    0.000    0.000 
#
# Total GULP energy -78479.611303 kJ/mol
# GULP energy per Si atom -5605.686522 kJ/mol
# Density = 2.347696 g / cm^3
# Si number density = 23.530512 Si / 1000 Ang^3
#
#
#
# Elastic Constant Matrix: (Units=GPa)
#
#
# Indices 1 2 3 4 5 6 
#
# 1 90.5080 13.1475 26.8317 -10.2596 -3.5756 -17.7500
# 2 13.1475 125.4569 19.8441 -8.1949 -16.4768 5.6672
# 3 26.8317 19.8441 50.9050 5.9866 -17.1527 -3.6516
# 4 -10.2596 -8.1949 5.9866 28.0694 4.7099 -3.9233
# 5 -3.5756 -16.4768 -17.1527 4.7099 35.5394 -0.2449
# 6 -17.7500 5.6672 -3.6516 -3.9233 -0.2449 30.1951
#
#
#
# Elastic Compliance Matrix: (Units=1/GPa)
#
#
# Indices 1 2 3 4 5 6 
#
# 1 0.017617 -0.000487 -0.011468 0.011109 -0.005388 0.010460
# 2 -0.000487 0.009042 -0.002875 0.002389 0.002425 -0.002001
# 3 -0.011468 -0.002875 0.033648 -0.015413 0.015768 -0.004007
# 4 0.011109 0.002389 -0.015413 0.047010 -0.011373 0.010234
# 5 -0.005388 0.002425 0.015768 -0.011373 0.037817 -0.002887
# 6 0.010460 -0.002001 -0.004007 0.010234 -0.002887 0.040464
#
#
# Mechanical properties :
#
#
# Convention : Reuss Voigt Hill
#
# Bulk Modulus (GPa) = 32.62973 42.94631 37.78802
# Shear Modulus (GPa) = 22.17555 32.56389 27.36972
#
# Velocity S-wave (km/s) = 3.07321 3.72412 3.41421
# Velocity P-wave (km/s) = 5.14684 6.06490 5.62463
#
# Compressibility (1/GPa) = 0.03064690
#
# Stress axis : x y z
#
# Youngs Moduli (GPa) = 56.76358 110.60040 29.71925
#
# Poissons Ratio (x) = 0.05384 0.34081
# Poissons Ratio (y) = 0.02763 0.08546
# Poissons Ratio (z) = 0.65094 0.31802
#
# Static dielectric constant tensor:
#      x y z
#    x 1.875630 0.012330 -0.029000 
#    y 0.012330 1.894750 0.008510 
#    z -0.029000 0.008510 1.854650 
# 
# From -- ./inp_files/226604.got.cif
#   From: 2010.05.17/outbox.cif.g08.bks.cpg/sg2_114_cif.got.tgz:226604.got - 2010.06.03 11:33:40.
