data_PCOD9035475
_publ_section_title
;
Structure prediction by ZEFSAII (Michael W. Deem and Ramdas Pophale) SiO2 
 PCOD9035475
Probable space group: P -1
;
_chemical_formula_sum "Si O2"
_cell_formula_units_Z 11
_cell_length_a 10.221067
_cell_length_b 13.434638
_cell_length_c 7.482846
_cell_angle_alpha 135.953119
_cell_angle_beta 54.570548
_cell_angle_gamma 146.249206
_cell_volume 396.467421
_symmetry_space_group_name_H-M "P -1"
_symmetry_group_IT_number 2
_symmetry_cell_setting 'triclinic'
loop_
_space_group_symop_operation_xyz
x,y,z
-x,-y,-z
loop_
_atom_site_type_symbol
_atom_site_label
_atom_site_fract_x
_atom_site_fract_y
_atom_site_fract_z
Si Si1 0.066999 0.091786 0.766342
Si Si2 0.270529 0.786646 0.493948
Si Si3 0.500161 0.262781 0.481320
Si Si4 0.149013 0.305290 0.412076
Si Si5 0.961795 0.640880 0.046044
Si Si6 0.500000 0.000000 0.000000
O O1 0.329793 0.192210 0.687735
O O2 0.089766 0.275007 0.958262
O O3 0.000000 0.000000 0.500000
O O4 0.899768 0.893193 0.773033
O O5 0.346367 0.777565 0.619622
O O6 0.069932 0.773542 0.626002
O O7 0.500000 0.000000 0.500000
O O8 0.162161 0.582126 0.212339
O O9 0.625457 0.485549 0.598418
O O10 0.410064 0.112422 0.190405
O O11 0.138676 0.368995 0.699309
O O12 0.241853 0.802539 0.057082
#
# Coordination Sequence:
#
# PCOD9035475 Si02
#       6
#     2   2   2   2   2   1
#     4  10  22  46  65  99 138 178 220 287 331 410
#     4  12  24  43  68 101 138 180 224 286 330 405
#     4  12  25  41  70 101 138 174 231 278 341 395
#     4  11  23  44  69 101 132 181 224 280 333 408
#     4  11  25  44  72  99 138 177 232 274 342 402
#     4  12  22  42  72  98 130 180 230 274 334 402
#
# _framework density 27.745028000000001
#
# number of rings (size 3 to 8) (size 9 to 14) (size 15 to 20)
#    0.000    0.727    7.273    1.091    2.545    3.636 
#    0.000    0.909    0.000    0.000    0.000    0.000 
#    0.000    0.000    0.000    0.000    0.000    0.000 
#
# Total GULP energy -61409.427017 kJ/mol
# GULP energy per Si atom -5582.675183 kJ/mol
# Density = 2.768188 g / cm^3
# Si number density = 27.745028 Si / 1000 Ang^3
#
#
#
# Elastic Constant Matrix: (Units=GPa)
#
#
# Indices 1 2 3 4 5 6 
#
# 1 125.6821 14.6517 30.3533 20.2628 -30.3510 -33.2440
# 2 14.6517 171.2761 44.4662 45.3155 -10.9969 -32.9118
# 3 30.3533 44.4662 86.6068 12.2436 -2.8366 -23.5968
# 4 20.2628 45.3155 12.2436 37.2246 -13.8659 -7.9827
# 5 -30.3510 -10.9969 -2.8366 -13.8659 34.2451 10.7649
# 6 -33.2440 -32.9118 -23.5968 -7.9827 10.7649 51.2797
#
#
#
# Elastic Compliance Matrix: (Units=1/GPa)
#
#
# Indices 1 2 3 4 5 6 
#
# 1 0.012764 0.002741 -0.003266 -0.004920 0.008018 0.006082
# 2 0.002741 0.010842 -0.003241 -0.012937 -0.001328 0.005509
# 3 -0.003266 -0.003241 0.015200 0.000091 -0.003772 0.003604
# 4 -0.004920 -0.012937 0.000091 0.048806 0.013346 -0.006655
# 5 0.008018 -0.001328 -0.003772 0.013346 0.042290 -0.004190
# 6 0.006082 0.005509 0.003604 -0.006655 -0.004190 0.028481
#
#
# Mechanical properties :
#
#
# Convention : Reuss Voigt Hill
#
# Bulk Modulus (GPa) = 31.97375 62.50084 47.23729
# Shear Modulus (GPa) = 28.35461 44.15613 36.25537
#
# Velocity S-wave (km/s) = 3.20030 3.99368 3.61880
# Velocity P-wave (km/s) = 5.02046 6.62131 5.87566
#
# Compressibility (1/GPa) = 0.03127566
#
# Stress axis : x y z
#
# Youngs Moduli (GPa) = 78.34526 92.23719 65.78870
#
# Poissons Ratio (x) = -0.25283 0.21483
# Poissons Ratio (y) = -0.21475 0.21320
# Poissons Ratio (z) = 0.25584 0.29891
#
# Static dielectric constant tensor:
#      x y z
#    x 2.275710 0.189980 -0.300300 
#    y 0.189980 2.259480 -0.061010 
#    z -0.300300 -0.061010 1.438510 
# 
# From -- ./inp_files/149033.got.cif
#   From: 2010.05.17/outbox.cif.g08.bks.cpg/sg2_75_cif.got.tgz:149033.got - 2010.06.03 11:33:40.
