data_PCOD9035885
_publ_section_title
;
Structure prediction by ZEFSAII (Michael W. Deem and Ramdas Pophale) SiO2 
 PCOD9035885
Probable space group: P -1
;
_chemical_formula_sum "Si O2"
_cell_formula_units_Z 15
_cell_length_a 13.566141
_cell_length_b 15.589628
_cell_length_c 14.647286
_cell_angle_alpha 144.941674
_cell_angle_beta 20.307415
_cell_angle_gamma 145.556432
_cell_volume 591.773294
_symmetry_space_group_name_H-M "P -1"
_symmetry_group_IT_number 2
_symmetry_cell_setting 'triclinic'
loop_
_space_group_symop_operation_xyz
x,y,z
-x,-y,-z
loop_
_atom_site_type_symbol
_atom_site_label
_atom_site_fract_x
_atom_site_fract_y
_atom_site_fract_z
Si Si1 0.978979 0.642788 0.750280
Si Si2 0.671265 0.316504 0.022395
Si Si3 0.606682 0.293525 0.711412
Si Si4 0.901758 0.391548 0.189539
Si Si5 0.589882 0.914646 0.120637
Si Si6 0.844009 0.084603 0.776492
Si Si7 0.149097 0.099989 0.711999
Si Si8 0.500000 0.500000 0.500000
O O1 0.793736 0.470179 0.727144
O O2 0.190682 0.743463 0.576712
O O3 0.165556 0.611870 0.647470
O O4 0.710658 0.716149 0.065059
O O5 0.517837 0.182383 0.964900
O O6 0.895143 0.257952 0.843624
O O7 0.870330 0.449358 0.902036
O O8 0.499140 0.394286 0.312938
O O9 0.531302 0.199110 0.788277
O O10 0.630772 0.375616 0.340833
O O11 0.095396 0.269065 0.910857
O O12 0.448517 0.056945 0.388673
O O13 0.944174 0.987810 0.868219
O O14 0.962670 0.053065 0.741290
O O15 0.000000 0.000000 0.500000
O O16 0.500000 0.000000 0.000000
#
# Coordination Sequence:
#
# PCOD9035885 Si02
#       8
#     2   2   2   2   2   2   2   1
#     4  10  23  43  77 106 142 184 240 310 363 430
#     4  12  27  45  74 103 145 196 248 298 353 441
#     4  10  22  46  74 110 137 181 251 308 359 427
#     4  12  29  47  71 111 150 197 241 301 376 433
#     4  12  26  48  77 107 142 197 246 303 361 438
#     4  12  24  43  67 101 140 188 246 290 351 416
#     4  12  27  45  70 105 154 191 240 301 366 438
#     4  12  30  42  74 106 156 182 248 306 358 426
#
# _framework density 25.347545
#
# number of rings (size 3 to 8) (size 9 to 14) (size 15 to 20)
#    0.000    0.533    5.333    1.200    7.467    1.067 
#    0.000    4.000    0.000    0.000    0.000    0.000 
#    0.000    0.000    0.000    0.000    0.000    0.000 
#
# Total GULP energy -83526.230226 kJ/mol
# GULP energy per Si atom -5568.415348 kJ/mol
# Density = 2.528985 g / cm^3
# Si number density = 25.347545 Si / 1000 Ang^3
#
#
#
# Elastic Constant Matrix: (Units=GPa)
#
#
# Indices 1 2 3 4 5 6 
#
# 1 146.3311 25.9681 41.3097 -17.7631 3.7118 -28.8950
# 2 25.9681 96.0879 38.1666 -12.7357 18.7843 -24.8983
# 3 41.3097 38.1666 132.9693 11.0191 13.5120 -0.9136
# 4 -17.7631 -12.7357 11.0191 27.8375 -10.2345 2.9740
# 5 3.7118 18.7843 13.5120 -10.2345 22.0411 -4.0638
# 6 -28.8950 -24.8983 -0.9136 2.9740 -4.0638 39.9816
#
#
#
# Elastic Compliance Matrix: (Units=1/GPa)
#
#
# Indices 1 2 3 4 5 6 
#
# 1 0.011084 0.001624 -0.005555 0.011732 0.007217 0.008756
# 2 0.001624 0.016970 -0.005318 0.007570 -0.006035 0.010443
# 3 -0.005555 -0.005318 0.012948 -0.014152 -0.010337 -0.007028
# 4 0.011732 0.007570 -0.014152 0.062850 0.031534 0.011400
# 5 0.007217 -0.006035 -0.010337 0.031534 0.071408 0.006134
# 6 0.008756 0.010443 -0.007028 0.011400 0.006134 0.037458
#
#
# Mechanical properties :
#
#
# Convention : Reuss Voigt Hill
#
# Bulk Modulus (GPa) = 44.43714 65.14190 54.78952
# Shear Modulus (GPa) = 20.94546 35.96832 28.45689
#
# Velocity S-wave (km/s) = 2.87772 3.77106 3.35426
# Velocity P-wave (km/s) = 5.34891 6.68704 6.05505
#
# Compressibility (1/GPa) = 0.02250370
#
# Stress axis : x y z
#
# Youngs Moduli (GPa) = 90.22135 58.92824 77.23442
#
# Poissons Ratio (x) = -0.09570 0.42904
# Poissons Ratio (y) = -0.14652 0.41071
# Poissons Ratio (z) = 0.50118 0.31336
#
# Static dielectric constant tensor:
#      x y z
#    x 1.998820 0.113630 -0.076090 
#    y 0.113630 1.922870 0.106590 
#    z -0.076090 0.106590 1.928480 
# 
# From -- ./inp_files/533797.got.cif
#   From: 2010.05.17/outbox.cif.g08.bks.cpg/sg2_267_cif.got.tgz:533797.got - 2010.06.03 11:33:40.
