data_PCOD9035483
_publ_section_title
;
Structure prediction by ZEFSAII (Michael W. Deem and Ramdas Pophale) SiO2 
 PCOD9035483
Probable space group: P -1
;
_chemical_formula_sum "Si O2"
_cell_formula_units_Z 13
_cell_length_a 15.790985
_cell_length_b 19.271112
_cell_length_c 4.992161
_cell_angle_alpha 129.281405
_cell_angle_beta 122.920710
_cell_angle_gamma 24.346428
_cell_volume 482.114581
_symmetry_space_group_name_H-M "P -1"
_symmetry_group_IT_number 2
_symmetry_cell_setting 'triclinic'
loop_
_space_group_symop_operation_xyz
x,y,z
-x,-y,-z
loop_
_atom_site_type_symbol
_atom_site_label
_atom_site_fract_x
_atom_site_fract_y
_atom_site_fract_z
Si Si1 0.368334 0.733264 0.866452
Si Si2 0.861713 0.927866 0.623631
Si Si3 0.500000 0.500000 0.000000
Si Si4 0.458287 0.252523 0.491137
Si Si5 0.728069 0.865200 0.573391
Si Si6 0.828022 0.689939 0.816299
Si Si7 0.714478 0.464967 0.457380
O O1 0.365909 0.667754 0.942967
O O2 0.481584 0.604973 0.484836
O O3 0.544215 0.674806 0.088202
O O4 0.164968 0.950217 0.010760
O O5 0.746045 0.948350 0.676789
O O6 0.087639 0.711130 0.460039
O O7 0.706987 0.055514 0.413849
O O8 0.281225 0.608782 0.959958
O O9 0.367109 0.225763 0.312088
O O10 0.327510 0.404437 0.411366
O O11 0.797577 0.797449 0.830049
O O12 0.500000 0.000000 0.500000
O O13 0.860443 0.699798 0.194440
O O14 0.000000 0.500000 0.500000
#
# Coordination Sequence:
#
# PCOD9035483 Si02
#       7
#     2   2   1   2   2   2   2
#     4   9  22  43  67  93 133 169 217 287 340 426
#     4  10  24  43  67 100 134 184 231 279 357 409
#     4  10  22  46  66 104 126 164 224 284 350 436
#     4   9  23  42  61  98 136 176 235 280 340 413
#     4  12  25  43  68 101 143 192 242 294 345 422
#     4  12  26  42  69 101 144 191 244 300 349 412
#     4  11  22  44  70  93 136 173 223 287 350 429
#
# _framework density 26.964544
#
# number of rings (size 3 to 8) (size 9 to 14) (size 15 to 20)
#    0.923    0.615    1.538    2.308    6.462    0.615 
#    5.538    1.538    0.000    0.000    0.000    0.000 
#    0.000    0.000    0.000    0.000    0.000    0.000 
#
# Total GULP energy -72375.895138 kJ/mol
# GULP energy per Si atom -5567.376549 kJ/mol
# Density = 2.690317 g / cm^3
# Si number density = 26.964544 Si / 1000 Ang^3
#
#
#
# Elastic Constant Matrix: (Units=GPa)
#
#
# Indices 1 2 3 4 5 6 
#
# 1 113.1055 35.3855 39.9277 0.6741 4.7445 33.4396
# 2 35.3855 170.3651 34.1255 31.8979 -16.0007 14.9536
# 3 39.9277 34.1255 115.7230 10.1685 -8.0144 20.0458
# 4 0.6741 31.8979 10.1685 43.4935 7.3523 12.3871
# 5 4.7445 -16.0007 -8.0144 7.3523 40.8610 5.0776
# 6 33.4396 14.9536 20.0458 12.3871 5.0776 43.8822
#
#
#
# Elastic Compliance Matrix: (Units=1/GPa)
#
#
# Indices 1 2 3 4 5 6 
#
# 1 0.013612 -0.002772 -0.002982 0.005699 -0.003119 -0.009313
# 2 -0.002772 0.008207 -0.000734 -0.006869 0.004495 0.001070
# 3 -0.002982 -0.000734 0.010599 -0.001743 0.002717 -0.002141
# 4 0.005699 -0.006869 -0.001743 0.032438 -0.008363 -0.009395
# 5 -0.003119 0.004495 0.002717 -0.008363 0.028803 -0.001368
# 6 -0.009313 0.001070 -0.002141 -0.009395 -0.001368 0.033309
#
#
# Mechanical properties :
#
#
# Convention : Reuss Voigt Hill
#
# Bulk Modulus (GPa) = 51.44065 68.67454 60.05760
# Shear Modulus (GPa) = 34.14680 44.96433 39.55557
#
# Velocity S-wave (km/s) = 3.56245 4.08798 3.83423
# Velocity P-wave (km/s) = 6.00333 6.91418 6.47479
#
# Compressibility (1/GPa) = 0.01943988
#
# Stress axis : x y z
#
# Youngs Moduli (GPa) = 73.46513 121.84829 94.34751
#
# Poissons Ratio (x) = 0.33782 0.28139
# Poissons Ratio (y) = 0.20368 0.06926
# Poissons Ratio (z) = 0.21911 0.08945
#
# Static dielectric constant tensor:
#      x y z
#    x 2.207330 -0.110280 -0.177760 
#    y -0.110280 2.190890 0.129060 
#    z -0.177760 0.129060 2.756500 
# 
# From -- ./inp_files/99254.got.cif
#   From: 2010.05.17/outbox.cif.g08.bks.cpg/sg2_50_cif.got.tgz:99254.got - 2010.06.03 11:33:40.
