data_PCOD9035632
_publ_section_title
;
Structure prediction by ZEFSAII (Michael W. Deem and Ramdas Pophale) SiO2 
 PCOD9035632
Probable space group: P -1
;
_chemical_formula_sum "Si O2"
_cell_formula_units_Z 14
_cell_length_a 10.072906
_cell_length_b 8.827243
_cell_length_c 8.867389
_cell_angle_alpha 120.427690
_cell_angle_beta 118.114778
_cell_angle_gamma 57.963563
_cell_volume 553.745829
_symmetry_space_group_name_H-M "P -1"
_symmetry_group_IT_number 2
_symmetry_cell_setting 'triclinic'
loop_
_space_group_symop_operation_xyz
x,y,z
-x,-y,-z
loop_
_atom_site_type_symbol
_atom_site_label
_atom_site_fract_x
_atom_site_fract_y
_atom_site_fract_z
Si Si1 0.497534 0.680671 0.004582
Si Si2 0.709747 0.388323 0.366911
Si Si3 0.830069 0.643516 0.093730
Si Si4 0.131627 0.695205 0.279192
Si Si5 0.639485 0.927460 0.912005
Si Si6 0.969787 0.924993 0.778653
Si Si7 0.651251 0.817324 0.554924
O O1 0.448760 0.647071 0.792643
O O2 0.500000 0.500000 0.000000
O O3 0.667282 0.702788 0.130759
O O4 0.361853 0.883618 0.074277
O O5 0.739103 0.346391 0.539083
O O6 0.134379 0.759587 0.717127
O O7 0.681487 0.603569 0.413860
O O8 0.984713 0.652674 0.262300
O O9 0.838356 0.452397 0.918650
O O10 0.797939 0.797965 0.020320
O O11 0.085137 0.900566 0.283333
O O12 0.605861 0.810615 0.702890
O O13 0.500000 0.000000 0.000000
O O14 0.822425 0.847836 0.660788
O O15 0.000000 0.000000 0.000000
O O16 0.500000 0.000000 0.500000
#
# Coordination Sequence:
#
# PCOD9035632 Si02
#       7
#     2   2   2   2   2   2   2
#     4  11  25  42  73 109 148 190 249 304 379 434
#     4  12  27  47  74 112 150 195 255 308 375 442
#     4  10  23  44  73 102 145 198 244 297 370 454
#     4  11  25  46  75 106 145 198 253 299 371 441
#     4  10  22  46  69  99 142 196 241 293 369 450
#     4  12  29  49  77 107 154 197 251 310 380 449
#     4  12  27  48  72 111 150 193 247 317 375 432
#
# _framework density 25.282356
#
# number of rings (size 3 to 8) (size 9 to 14) (size 15 to 20)
#    0.000    0.857    1.429    4.286    8.000    6.286 
#    0.000    0.000    0.000    0.000    0.000    0.000 
#    0.000    0.000    0.000    0.000    0.000    0.000 
#
# Total GULP energy -78216.600976 kJ/mol
# GULP energy per Si atom -5586.900070 kJ/mol
# Density = 2.522481 g / cm^3
# Si number density = 25.282356 Si / 1000 Ang^3
#
#
#
# Elastic Constant Matrix: (Units=GPa)
#
#
# Indices 1 2 3 4 5 6 
#
# 1 70.5789 13.0130 5.2230 2.9587 1.7773 1.3998
# 2 13.0130 162.6549 11.6280 17.4570 -16.5479 4.6995
# 3 5.2230 11.6280 102.7676 -7.0879 -3.3271 9.2476
# 4 2.9587 17.4570 -7.0879 43.4872 1.1957 -2.5481
# 5 1.7773 -16.5479 -3.3271 1.1957 36.5664 4.3145
# 6 1.3998 4.6995 9.2476 -2.5481 4.3145 32.1006
#
#
#
# Elastic Compliance Matrix: (Units=1/GPa)
#
#
# Indices 1 2 3 4 5 6 
#
# 1 0.014494 -0.001171 -0.000673 -0.000600 -0.001259 -0.000145
# 2 -0.001171 0.007009 -0.000698 -0.003029 0.003439 -0.001477
# 3 -0.000673 -0.000698 0.010250 0.001807 0.000921 -0.002802
# 4 -0.000600 -0.003029 0.001807 0.024738 -0.002247 0.002215
# 5 -0.001259 0.003439 0.000921 -0.002247 0.029698 -0.004884
# 6 -0.000145 -0.001477 -0.002802 0.002215 -0.004884 0.033014
#
#
# Mechanical properties :
#
#
# Convention : Reuss Voigt Hill
#
# Bulk Modulus (GPa) = 37.49712 43.96994 40.73353
# Shear Modulus (GPa) = 37.54362 42.84000 40.19181
#
# Velocity S-wave (km/s) = 3.85772 4.12085 3.99145
# Velocity P-wave (km/s) = 5.89119 6.33018 6.11463
#
# Compressibility (1/GPa) = 0.02666872
#
# Stress axis : x y z
#
# Youngs Moduli (GPa) = 68.99415 142.67053 97.55626
#
# Poissons Ratio (x) = 0.16706 0.06568
# Poissons Ratio (y) = 0.08079 0.06812
# Poissons Ratio (z) = 0.04645 0.09962
#
# Static dielectric constant tensor:
#      x y z
#    x 2.138640 -0.022180 -0.046710 
#    y -0.022180 2.052190 -0.010090 
#    z -0.046710 -0.010090 2.006430 
# 
# From -- ./inp_files/245701.got.cif
#   From: 2010.05.17/outbox.cif.g08.bks.cpg/sg2_123_cif.got.tgz:245701.got - 2010.06.03 11:33:40.
