data_PCOD9035417
_publ_section_title
;
Structure prediction by ZEFSAII (Michael W. Deem and Ramdas Pophale) SiO2 
 PCOD9035417
Probable space group: P -1
;
_chemical_formula_sum "Si O2"
_cell_formula_units_Z 14
_cell_length_a 9.275289
_cell_length_b 5.485237
_cell_length_c 28.579823
_cell_angle_alpha 59.535654
_cell_angle_beta 149.255840
_cell_angle_gamma 126.986240
_cell_volume 593.571487
_symmetry_space_group_name_H-M "P -1"
_symmetry_group_IT_number 2
_symmetry_cell_setting 'triclinic'
loop_
_space_group_symop_operation_xyz
x,y,z
-x,-y,-z
loop_
_atom_site_type_symbol
_atom_site_label
_atom_site_fract_x
_atom_site_fract_y
_atom_site_fract_z
Si Si1 0.206762 0.735647 0.318829
Si Si2 0.316731 0.213809 0.442749
Si Si3 0.376803 0.697485 0.025024
Si Si4 0.844473 0.172054 0.904973
Si Si5 0.061323 0.396867 0.841681
Si Si6 0.724706 0.940753 0.190698
Si Si7 0.876626 0.139503 0.494461
O O1 0.228214 0.401140 0.359810
O O2 0.119267 0.778319 0.237218
O O3 0.937917 0.750039 0.275561
O O4 0.515628 0.995406 0.397490
O O5 0.500000 0.500000 0.500000
O O6 0.500000 0.000000 0.500000
O O7 0.056537 0.996796 0.425026
O O8 0.580099 0.525769 0.075532
O O9 0.476403 0.766355 0.099122
O O10 0.021358 0.521650 0.936620
O O11 0.500000 0.000000 0.000000
O O12 0.483812 0.042324 0.825818
O O13 0.939610 0.207253 0.873393
O O14 0.000000 0.000000 0.000000
O O15 0.065093 0.738591 0.805810
O O16 0.000000 0.500000 0.500000
O O17 0.000000 0.000000 0.500000
#
# Coordination Sequence:
#
# PCOD9035417 Si02
#       7
#     2   2   2   2   2   2   2
#     4  10  26  47  70 100 150 184 238 308 367 447
#     4  10  22  45  77 102 138 192 236 288 368 449
#     4  11  21  42  68  95 137 188 245 300 352 429
#     4  12  23  43  74  99 139 196 255 291 353 449
#     4  11  24  44  66 104 146 191 234 311 378 405
#     4  11  24  43  67 102 143 193 237 304 380 415
#     4  11  24  47  77 112 138 189 243 298 372 454
#
# _framework density 23.586037999999999
#
# number of rings (size 3 to 8) (size 9 to 14) (size 15 to 20)
#    0.000    1.143    2.857    3.429    6.000    0.000 
#    5.143    0.000    0.000    0.000    0.000    0.000 
#    0.000    0.000    0.000    0.000    0.000    0.000 
#
# Total GULP energy -78164.073070 kJ/mol
# GULP energy per Si atom -5583.148076 kJ/mol
# Density = 2.353236 g / cm^3
# Si number density = 23.586038 Si / 1000 Ang^3
#
#
#
# Elastic Constant Matrix: (Units=GPa)
#
#
# Indices 1 2 3 4 5 6 
#
# 1 150.4866 46.6282 40.9823 -11.2933 4.2290 15.0048
# 2 46.6282 149.9328 32.4939 -8.9031 7.3638 4.3264
# 3 40.9823 32.4939 90.6261 0.8961 0.7721 6.1918
# 4 -11.2933 -8.9031 0.8961 33.8606 -6.7416 2.5795
# 5 4.2290 7.3638 0.7721 -6.7416 36.0342 -4.3497
# 6 15.0048 4.3264 6.1918 2.5795 -4.3497 45.1265
#
#
#
# Elastic Compliance Matrix: (Units=1/GPa)
#
#
# Indices 1 2 3 4 5 6 
#
# 1 0.008457 -0.001726 -0.003063 0.002554 -0.000387 -0.002410
# 2 -0.001726 0.007775 -0.002005 0.001307 -0.001108 -0.000078
# 3 -0.003063 -0.002005 0.013189 -0.001844 0.000083 -0.000486
# 4 0.002554 0.001307 -0.001844 0.031970 0.005207 -0.002047
# 5 -0.000387 -0.001108 0.000083 0.005207 0.029328 0.002753
# 6 -0.002410 -0.000078 -0.000486 -0.002047 0.002753 0.023418
#
#
# Mechanical properties :
#
#
# Convention : Reuss Voigt Hill
#
# Bulk Modulus (GPa) = 63.16002 70.13938 66.64970
# Shear Modulus (GPa) = 37.59318 41.06700 39.33009
#
# Velocity S-wave (km/s) = 3.99667 4.17724 4.08795
# Velocity P-wave (km/s) = 6.93790 7.28478 7.11346
#
# Compressibility (1/GPa) = 0.01583280
#
# Stress axis : x y z
#
# Youngs Moduli (GPa) = 118.24773 128.61131 75.81993
#
# Poissons Ratio (x) = 0.22199 0.23222
# Poissons Ratio (y) = 0.20410 0.15206
# Poissons Ratio (z) = 0.36216 0.25793
#
# Static dielectric constant tensor:
#      x y z
#    x 1.994580 -0.065800 0.019370 
#    y -0.065800 2.053410 -0.115300 
#    z 0.019370 -0.115300 2.014360 
# 
# From -- ./inp_files/106132.got.cif
#   From: 2010.05.17/outbox.cif.g08.bks.cpg/sg2_54_cif.got.tgz:106132.got - 2010.06.03 11:33:40.
