data_PCOD9035925
_publ_section_title
;
Structure prediction by ZEFSAII (Michael W. Deem and Ramdas Pophale) SiO2 
 PCOD9035925
Probable space group: P -1
;
_chemical_formula_sum "Si O2"
_cell_formula_units_Z 12
_cell_length_a 17.504343
_cell_length_b 5.528812
_cell_length_c 4.931565
_cell_angle_alpha 96.287326
_cell_angle_beta 97.568074
_cell_angle_gamma 68.969014
_cell_volume 440.594544
_symmetry_space_group_name_H-M "P -1"
_symmetry_group_IT_number 2
_symmetry_cell_setting 'triclinic'
loop_
_space_group_symop_operation_xyz
x,y,z
-x,-y,-z
loop_
_atom_site_type_symbol
_atom_site_label
_atom_site_fract_x
_atom_site_fract_y
_atom_site_fract_z
Si Si1 0.531714 0.751563 0.291421
Si Si2 0.242030 0.218275 0.370054
Si Si3 0.371416 0.704805 0.309632
Si Si4 0.054442 0.783321 0.788085
Si Si5 0.696594 0.607461 0.100590
Si Si6 0.905278 0.786858 0.354237
O O1 0.446926 0.717512 0.164472
O O2 0.584996 0.514016 0.477902
O O3 0.500000 0.000000 0.500000
O O4 0.597893 0.763247 0.103393
O O5 0.259579 0.259153 0.072385
O O6 0.156761 0.201631 0.427030
O O7 0.319222 0.968015 0.463970
O O8 0.258199 0.432136 0.597000
O O9 0.305543 0.645289 0.083153
O O10 0.087533 0.475808 0.845288
O O11 0.994770 0.761338 0.513005
O O12 0.118304 0.927178 0.755990
O O13 0.000000 0.000000 0.000000
#
# Coordination Sequence:
#
# PCOD9035925 Si02
#       6
#     2   2   2   2   2   2
#     4  11  23  47  70  99 138 187 247 304 356 436
#     4  12  29  45  70 105 146 185 238 300 370 429
#     4  11  25  44  72  98 138 189 242 296 374 418
#     4  10  22  46  76 107 144 189 244 286 365 433
#     4  12  26  47  66 103 139 185 242 297 364 435
#     4  10  25  44  71 110 145 188 241 298 356 446
#
# _framework density 27.235927
#
# number of rings (size 3 to 8) (size 9 to 14) (size 15 to 20)
#    0.000    1.000    3.333    1.000    7.000    4.000 
#    0.000    0.000    0.000    0.000    0.000    0.000 
#    0.000    0.000    0.000    0.000    0.000    0.000 
#
# Total GULP energy -67102.379323 kJ/mol
# GULP energy per Si atom -5591.864944 kJ/mol
# Density = 2.717394 g / cm^3
# Si number density = 27.235927 Si / 1000 Ang^3
#
#
#
# Elastic Constant Matrix: (Units=GPa)
#
#
# Indices 1 2 3 4 5 6 
#
# 1 136.0652 56.8588 25.9517 -10.2846 -40.5686 20.8173
# 2 56.8588 153.1232 42.0241 35.2526 -4.8573 11.7875
# 3 25.9517 42.0241 101.4720 2.6277 -29.2252 5.6250
# 4 -10.2846 35.2526 2.6277 35.3351 -1.6121 0.5634
# 5 -40.5686 -4.8573 -29.2252 -1.6121 57.2523 -3.6742
# 6 20.8173 11.7875 5.6250 0.5634 -3.6742 45.5817
#
#
#
# Elastic Compliance Matrix: (Units=1/GPa)
#
#
# Indices 1 2 3 4 5 6 
#
# 1 0.016250 -0.009566 0.003276 0.014672 0.012498 -0.004526
# 2 -0.009566 0.015699 -0.006234 -0.018408 -0.009111 0.000572
# 3 0.003276 -0.006234 0.014109 0.006555 0.009117 -0.000971
# 4 0.014672 -0.018408 0.006555 0.051099 0.013473 -0.002295
# 5 0.012498 -0.009111 0.009117 0.013473 0.030442 -0.002190
# 6 -0.004526 0.000572 -0.000971 -0.002295 -0.002190 0.023829
#
#
# Mechanical properties :
#
#
# Convention : Reuss Voigt Hill
#
# Bulk Modulus (GPa) = 47.59717 71.14773 59.37245
# Shear Modulus (GPa) = 27.25106 45.35552 36.30329
#
# Velocity S-wave (km/s) = 3.16659 4.08521 3.65488
# Velocity P-wave (km/s) = 5.55729 6.95927 6.29742
#
# Compressibility (1/GPa) = 0.02100965
#
# Stress axis : x y z
#
# Youngs Moduli (GPa) = 61.53881 63.69987 70.87887
#
# Poissons Ratio (x) = 0.60937 -0.23223
# Poissons Ratio (y) = 0.58870 0.44185
# Poissons Ratio (z) = -0.20163 0.39710
#
# Static dielectric constant tensor:
#      x y z
#    x 2.145180 0.080590 -0.014870 
#    y 0.080590 2.232100 -0.051350 
#    z -0.014870 -0.051350 2.129360 
# 
# From -- ./inp_files/6495.got.cif
#   From: 2010.05.17/outbox.cif.g08.bks.cpg/sg2_4_cif.got.tgz:6495.got - 2010.06.03 11:33:40.
