data_PCOD9035459
_publ_section_title
;
Structure prediction by ZEFSAII (Michael W. Deem and Ramdas Pophale) SiO2 
 PCOD9035459
Probable space group: P -1
;
_chemical_formula_sum "Si O2"
_cell_formula_units_Z 12
_cell_length_a 9.335895
_cell_length_b 7.738926
_cell_length_c 11.404378
_cell_angle_alpha 37.455260
_cell_angle_beta 105.147464
_cell_angle_gamma 91.279396
_cell_volume 459.001150
_symmetry_space_group_name_H-M "P -1"
_symmetry_group_IT_number 2
_symmetry_cell_setting 'triclinic'
loop_
_space_group_symop_operation_xyz
x,y,z
-x,-y,-z
loop_
_atom_site_type_symbol
_atom_site_label
_atom_site_fract_x
_atom_site_fract_y
_atom_site_fract_z
Si Si1 0.163275 0.810360 0.194002
Si Si2 0.491498 0.769406 0.263761
Si Si3 0.230303 0.573775 0.938125
Si Si4 0.057812 0.878147 0.394839
Si Si5 0.490096 0.403958 0.898314
Si Si6 0.946636 0.603073 0.732554
O O1 0.304667 0.929765 0.131338
O O2 0.188145 0.514388 0.280883
O O3 0.141395 0.765605 0.351510
O O4 0.000000 0.000000 0.000000
O O5 0.500000 0.500000 0.500000
O O6 0.550887 0.053273 0.145505
O O7 0.549285 0.623096 0.230170
O O8 0.117624 0.892388 0.788817
O O9 0.369689 0.457200 0.123884
O O10 0.094311 0.432583 0.942386
O O11 0.337469 0.573959 0.848316
O O12 0.125215 0.092913 0.373687
O O13 0.031834 0.644313 0.608083
#
# Coordination Sequence:
#
# PCOD9035459 Si02
#       6
#     2   2   2   2   2   2
#     4  12  24  41  63 102 129 167 220 270 329 389
#     4  11  27  41  66  98 131 178 215 268 327 393
#     4   9  19  40  69  90 122 181 206 270 338 369
#     4   9  21  39  66  95 124 165 213 273 324 380
#     4  10  22  46  64  88 138 170 219 263 324 401
#     4   9  21  39  66  95 124 165 213 273 324 380
#
# _framework density 26.143725
#
# number of rings (size 3 to 8) (size 9 to 14) (size 15 to 20)
#    1.000    1.000    0.000    2.500    4.667    2.000 
#    6.000    3.333    0.000    0.000    0.000    0.000 
#    0.000    0.000    0.000    0.000    0.000    0.000 
#
# Total GULP energy -66910.255502 kJ/mol
# GULP energy per Si atom -5575.854625 kJ/mol
# Density = 2.608422 g / cm^3
# Si number density = 26.143725 Si / 1000 Ang^3
#
#
#
# Elastic Constant Matrix: (Units=GPa)
#
#
# Indices 1 2 3 4 5 6 
#
# 1 99.5719 47.9771 13.7130 25.4119 -16.6240 -12.4375
# 2 47.9771 128.5613 17.6097 24.9743 -25.0457 -3.0112
# 3 13.7130 17.6097 77.8696 19.7505 -21.9454 -5.6396
# 4 25.4119 24.9743 19.7505 26.7764 -12.3937 -11.1305
# 5 -16.6240 -25.0457 -21.9454 -12.3937 40.1065 14.8429
# 6 -12.4375 -3.0112 -5.6396 -11.1305 14.8429 42.4760
#
#
#
# Elastic Compliance Matrix: (Units=1/GPa)
#
#
# Indices 1 2 3 4 5 6 
#
# 1 0.014478 -0.003281 0.001257 -0.010745 0.000938 0.001030
# 2 -0.003281 0.011230 0.001139 -0.007269 0.005444 -0.003821
# 3 0.001257 0.001139 0.017711 -0.012963 0.008199 -0.003462
# 4 -0.010745 -0.007269 -0.012963 0.069442 0.000724 0.012561
# 5 0.000938 0.005444 0.008199 0.000724 0.037574 -0.011191
# 6 0.001030 -0.003821 -0.003462 0.012561 -0.011191 0.030316
#
#
# Mechanical properties :
#
#
# Convention : Reuss Voigt Hill
#
# Bulk Modulus (GPa) = 24.01018 51.62250 37.81634
# Shear Modulus (GPa) = 25.45781 36.98531 31.22156
#
# Velocity S-wave (km/s) = 3.12390 3.76532 3.45951
# Velocity P-wave (km/s) = 4.71334 6.22029 5.51850
#
# Compressibility (1/GPa) = 0.04164900
#
# Stress axis : x y z
#
# Youngs Moduli (GPa) = 69.06862 89.04768 56.46291
#
# Poissons Ratio (x) = 0.29217 -0.07095
# Poissons Ratio (y) = 0.22662 -0.06434
# Poissons Ratio (z) = -0.08679 -0.10147
#
# Static dielectric constant tensor:
#      x y z
#    x 2.026480 0.106420 -0.016640 
#    y 0.106420 2.308070 -0.227600 
#    z -0.016640 -0.227600 2.300320 
# 
# From -- ./inp_files/380879.got.cif
#   From: 2010.05.17/outbox.cif.g08.bks.cpg/sg2_191_cif.got.tgz:380879.got - 2010.06.03 11:33:40.
