data_PCOD9035841
_publ_section_title
;
Structure prediction by ZEFSAII (Michael W. Deem and Ramdas Pophale) SiO2 
 PCOD9035841
Probable space group: P -1
;
_chemical_formula_sum "Si O2"
_cell_formula_units_Z 14
_cell_length_a 6.131435
_cell_length_b 18.149919
_cell_length_c 8.491186
_cell_angle_alpha 52.876258
_cell_angle_beta 118.076325
_cell_angle_gamma 129.439865
_cell_volume 576.002078
_symmetry_space_group_name_H-M "P -1"
_symmetry_group_IT_number 2
_symmetry_cell_setting 'triclinic'
loop_
_space_group_symop_operation_xyz
x,y,z
-x,-y,-z
loop_
_atom_site_type_symbol
_atom_site_label
_atom_site_fract_x
_atom_site_fract_y
_atom_site_fract_z
Si Si1 0.827192 0.050903 0.295383
Si Si2 0.653655 0.340789 0.532678
Si Si3 0.291639 0.830106 0.391159
Si Si4 0.723064 0.570495 0.853381
Si Si5 0.763394 0.484684 0.661022
Si Si6 0.730620 0.224127 0.187566
Si Si7 0.893613 0.885194 0.030925
O O1 0.852819 0.146871 0.283200
O O2 0.935731 0.090686 0.106335
O O3 0.502926 0.956214 0.302768
O O4 0.000000 0.000000 0.500000
O O5 0.605409 0.224364 0.633492
O O6 0.405257 0.360972 0.359112
O O7 0.716847 0.382868 0.677621
O O8 0.939377 0.418781 0.428526
O O9 0.313879 0.786076 0.625437
O O10 0.985723 0.815557 0.260320
O O11 0.753037 0.496153 0.829452
O O12 0.026285 0.655691 0.915779
O O13 0.500000 0.500000 0.000000
O O14 0.500000 0.500000 0.500000
O O15 0.435330 0.177743 0.052792
O O16 0.000000 0.000000 0.000000
#
# Coordination Sequence:
#
# PCOD9035841 Si02
#       7
#     2   2   2   2   2   2   2
#     4  12  24  46  75 112 155 194 245 316 385 462
#     4  10  22  46  73 107 143 200 258 314 388 450
#     4  12  24  48  77 109 158 199 248 320 383 465
#     4  11  25  48  73 108 151 205 260 320 387 457
#     4   9  20  46  71 101 142 185 261 311 374 450
#     4  12  26  50  73 111 153 202 256 313 388 458
#     4  12  27  49  74 113 154 203 257 307 380 469
#
# _framework density 24.305468999999999
#
# number of rings (size 3 to 8) (size 9 to 14) (size 15 to 20)
#    0.000    0.857    4.286    2.571    0.000    0.571 
#   10.286    0.000    0.000    0.000    0.000    0.000 
#    0.000    0.000    0.000    0.000    0.000    0.000 
#
# Total GULP energy -78472.264684 kJ/mol
# GULP energy per Si atom -5605.161763 kJ/mol
# Density = 2.425015 g / cm^3
# Si number density = 24.305469 Si / 1000 Ang^3
#
#
#
# Elastic Constant Matrix: (Units=GPa)
#
#
# Indices 1 2 3 4 5 6 
#
# 1 115.6840 66.9171 47.4225 17.7035 -3.8059 -15.0268
# 2 66.9171 165.9812 55.1888 24.0152 -12.5069 -15.8376
# 3 47.4225 55.1888 124.4526 26.2385 18.0935 4.0969
# 4 17.7035 24.0152 26.2385 37.5605 8.7838 1.6084
# 5 -3.8059 -12.5069 18.0935 8.7838 56.1858 1.0999
# 6 -15.0268 -15.8376 4.0969 1.6084 1.0999 67.0992
#
#
#
# Elastic Compliance Matrix: (Units=1/GPa)
#
#
# Indices 1 2 3 4 5 6 
#
# 1 0.012531 -0.003420 -0.003116 -0.001954 0.001353 0.002214
# 2 -0.003420 0.009100 -0.002556 -0.003210 0.003088 0.001564
# 3 -0.003116 -0.002556 0.011870 -0.004195 -0.003910 -0.001861
# 4 -0.001954 -0.003210 -0.004195 0.033706 -0.004733 -0.001669
# 5 0.001353 0.003088 -0.003910 -0.004733 0.020556 0.001047
# 6 0.002214 0.001564 -0.001861 -0.001669 0.001047 0.015905
#
#
# Mechanical properties :
#
#
# Convention : Reuss Voigt Hill
#
# Bulk Modulus (GPa) = 65.28523 82.79717 74.04120
# Shear Modulus (GPa) = 39.38345 47.94175 43.66260
#
# Velocity S-wave (km/s) = 4.02973 4.44607 4.24301
# Velocity P-wave (km/s) = 6.96923 7.77791 7.38465
#
# Compressibility (1/GPa) = 0.01531740
#
# Stress axis : x y z
#
# Youngs Moduli (GPa) = 79.80213 109.89227 84.24508
#
# Poissons Ratio (x) = 0.37583 0.26250
# Poissons Ratio (y) = 0.27292 0.21532
# Poissons Ratio (z) = 0.24866 0.28087
#
# Static dielectric constant tensor:
#      x y z
#    x 1.917570 0.049310 0.005210 
#    y 0.049310 1.921710 0.006640 
#    z 0.005210 0.006640 1.971100 
# 
# From -- ./inp_files/138811.got.cif
#   From: 2010.05.17/outbox.cif.g08.bks.cpg/sg2_70_cif.got.tgz:138811.got - 2010.06.03 11:33:40.
