data_PCOD9035780
_publ_section_title
;
Structure prediction by ZEFSAII (Michael W. Deem and Ramdas Pophale) SiO2 
 PCOD9035780
Probable space group: P -1
;
_chemical_formula_sum "Si O2"
_cell_formula_units_Z 14
_cell_length_a 21.816019
_cell_length_b 16.084020
_cell_length_c 5.155099
_cell_angle_alpha 105.210028
_cell_angle_beta 103.357717
_cell_angle_gamma 17.940517
_cell_volume 536.616618
_symmetry_space_group_name_H-M "P -1"
_symmetry_group_IT_number 2
_symmetry_cell_setting 'triclinic'
loop_
_space_group_symop_operation_xyz
x,y,z
-x,-y,-z
loop_
_atom_site_type_symbol
_atom_site_label
_atom_site_fract_x
_atom_site_fract_y
_atom_site_fract_z
Si Si1 0.768710 0.458186 0.655065
Si Si2 0.206195 0.718903 0.119525
Si Si3 0.966395 0.628244 0.902391
Si Si4 0.711234 0.202286 0.860334
Si Si5 0.341215 0.247257 0.849499
Si Si6 0.529821 0.164071 0.708881
Si Si7 0.872771 0.919817 0.333882
O O1 0.838725 0.275577 0.663829
O O2 0.767145 0.533654 0.930225
O O3 0.543710 0.737421 0.575737
O O4 0.939207 0.278016 0.493837
O O5 0.257699 0.750446 0.235693
O O6 0.378532 0.432987 0.916632
O O7 0.000000 0.000000 0.000000
O O8 0.921680 0.760450 0.174261
O O9 0.163236 0.408440 0.759239
O O10 0.000000 0.500000 0.000000
O O11 0.759759 0.883420 0.754058
O O12 0.712917 0.128072 0.578771
O O13 0.500000 0.500000 0.000000
O O14 0.823094 0.031471 0.100657
O O15 0.469073 0.141615 0.691373
O O16 0.500000 0.000000 0.000000
#
# Coordination Sequence:
#
# PCOD9035780 Si02
#       7
#     2   2   2   2   2   2   2
#     4  10  24  43  74 107 151 197 259 323 385 473
#     4  11  23  44  74 104 149 201 258 310 390 463
#     4  11  24  50  76 112 154 204 264 326 400 470
#     4  12  26  47  73 111 157 205 258 327 391 468
#     4  10  22  46  72 103 150 198 255 319 399 462
#     4  11  24  45  72 110 150 195 259 321 384 474
#     4  11  26  48  75 110 154 206 261 321 397 468
#
# _framework density 26.089389000000001
#
# number of rings (size 3 to 8) (size 9 to 14) (size 15 to 20)
#    0.000    1.143    2.857    2.143    6.000    1.714 
#   10.286    1.429    0.000    0.000    0.000    0.000 
#    0.000    0.000    0.000    0.000    0.000    0.000 
#
# Total GULP energy -78058.709302 kJ/mol
# GULP energy per Si atom -5575.622093 kJ/mol
# Density = 2.603001 g / cm^3
# Si number density = 26.089389 Si / 1000 Ang^3
#
#
#
# Elastic Constant Matrix: (Units=GPa)
#
#
# Indices 1 2 3 4 5 6 
#
# 1 165.2405 80.3027 40.8716 -14.4662 10.6626 8.1294
# 2 80.3027 182.0573 36.5603 -40.0887 0.7505 -5.4698
# 3 40.8716 36.5603 81.0605 -10.9404 -1.9192 2.9339
# 4 -14.4662 -40.0887 -10.9404 43.5620 -1.6251 -0.2813
# 5 10.6626 0.7505 -1.9192 -1.6251 20.3607 -10.3294
# 6 8.1294 -5.4698 2.9339 -0.2813 -10.3294 44.2281
#
#
#
# Elastic Compliance Matrix: (Units=1/GPa)
#
#
# Indices 1 2 3 4 5 6 
#
# 1 0.009179 -0.003839 -0.003140 -0.001554 -0.006899 -0.003575
# 2 -0.003839 0.009010 -0.001219 0.006860 0.003514 0.002765
# 3 -0.003140 -0.001219 0.014765 0.001669 0.003335 0.000236
# 4 -0.001554 0.006860 0.001669 0.029341 0.004168 0.002183
# 5 -0.006899 0.003514 0.003335 0.004168 0.061269 0.015817
# 6 -0.003575 0.002765 0.000236 0.002183 0.015817 0.027302
#
#
# Mechanical properties :
#
#
# Convention : Reuss Voigt Hill
#
# Bulk Modulus (GPa) = 60.39634 82.64751 71.52193
# Shear Modulus (GPa) = 28.93791 39.67174 34.30482
#
# Velocity S-wave (km/s) = 3.33405 3.90373 3.63008
# Velocity P-wave (km/s) = 6.16614 7.21569 6.71146
#
# Compressibility (1/GPa) = 0.01655729
#
# Stress axis : x y z
#
# Youngs Moduli (GPa) = 108.93900 110.98603 67.72592
#
# Poissons Ratio (x) = 0.42613 0.21269
# Poissons Ratio (y) = 0.41827 0.08256
# Poissons Ratio (z) = 0.34211 0.13529
#
# Static dielectric constant tensor:
#      x y z
#    x 1.819760 0.108460 0.131040 
#    y 0.108460 1.985460 -0.143130 
#    z 0.131040 -0.143130 2.078280 
# 
# From -- ./inp_files/119487.got.cif
#   From: 2010.05.17/outbox.cif.g08.bks.cpg/sg2_60_cif.got.tgz:119487.got - 2010.06.03 11:33:40.
