data_PCOD9035315
_publ_section_title
;
Structure prediction by ZEFSAII (Michael W. Deem and Ramdas Pophale) SiO2 
 PCOD9035315
Probable space group: P -1
;
_chemical_formula_sum "Si O2"
_cell_formula_units_Z 16
_cell_length_a 16.701092
_cell_length_b 16.505227
_cell_length_c 5.544845
_cell_angle_alpha 128.222470
_cell_angle_beta 55.472148
_cell_angle_gamma 147.121436
_cell_volume 647.854809
_symmetry_space_group_name_H-M "P -1"
_symmetry_group_IT_number 2
_symmetry_cell_setting 'triclinic'
loop_
_space_group_symop_operation_xyz
x,y,z
-x,-y,-z
loop_
_atom_site_type_symbol
_atom_site_label
_atom_site_fract_x
_atom_site_fract_y
_atom_site_fract_z
Si Si1 0.898620 0.591727 0.211803
Si Si2 0.405084 0.150415 0.340737
Si Si3 0.863458 0.677818 0.925472
Si Si4 0.213178 0.862939 0.391299
Si Si5 0.332681 0.890210 0.676622
Si Si6 0.349422 0.321979 0.502209
Si Si7 0.701146 0.276530 0.177316
Si Si8 0.924522 0.979033 0.841492
O O1 0.858385 0.604229 0.041490
O O2 0.837355 0.429388 0.074960
O O3 0.073831 0.739910 0.230915
O O4 0.835957 0.603837 0.576611
O O5 0.386869 0.248450 0.449041
O O6 0.569667 0.251026 0.319194
O O7 0.294152 0.036275 0.539746
O O8 0.357420 0.022529 0.000994
O O9 0.745428 0.673657 0.169027
O O10 0.025514 0.861664 0.961395
O O11 0.195361 0.809627 0.590701
O O12 0.330523 0.866017 0.118167
O O13 0.281919 0.740940 0.607366
O O14 0.500000 0.000000 0.500000
O O15 0.500000 0.500000 0.500000
O O16 0.241628 0.197393 0.237701
O O17 0.000000 0.000000 0.500000
O O18 0.000000 0.000000 0.000000
#
# Coordination Sequence:
#
# PCOD9035315 Si02
#       8
#     2   2   2   2   2   2   2   2
#     4  12  28  45  74 108 148 193 239 297 367 429
#     4  11  23  44  69 104 139 188 244 294 366 434
#     4  11  26  51  68 108 152 195 243 297 359 440
#     4  11  24  44  71 102 139 187 243 294 360 448
#     4  11  21  42  71 103 139 189 239 301 363 435
#     4  11  25  47  75 107 146 192 251 311 366 433
#     4  11  24  43  70 105 149 181 235 308 368 428
#     4  10  22  45  73  97 138 195 241 295 357 423
#
# _framework density 24.696892999999999
#
# number of rings (size 3 to 8) (size 9 to 14) (size 15 to 20)
#    0.000    1.000    2.500    4.125    7.000    2.500 
#    2.250    6.250    0.000    0.000    0.000    0.000 
#    0.000    0.000    0.000    0.000    0.000    0.000 
#
# Total GULP energy -89267.891448 kJ/mol
# GULP energy per Si atom -5579.243216 kJ/mol
# Density = 2.464068 g / cm^3
# Si number density = 24.696893 Si / 1000 Ang^3
#
#
#
# Elastic Constant Matrix: (Units=GPa)
#
#
# Indices 1 2 3 4 5 6 
#
# 1 194.0316 77.8708 34.3091 -7.6101 -9.0831 -36.8517
# 2 77.8708 178.4574 22.1424 3.9799 3.2162 -18.3837
# 3 34.3091 22.1424 86.1731 -1.4245 -7.5114 -10.4220
# 4 -7.6101 3.9799 -1.4245 31.5669 -1.4855 -5.1568
# 5 -9.0831 3.2162 -7.5114 -1.4855 33.0360 -7.4723
# 6 -36.8517 -18.3837 -10.4220 -5.1568 -7.4723 45.7963
#
#
#
# Elastic Compliance Matrix: (Units=1/GPa)
#
#
# Indices 1 2 3 4 5 6 
#
# 1 0.007960 -0.002835 -0.001349 0.003357 0.003651 0.005934
# 2 -0.002835 0.007004 -0.000872 -0.001714 -0.001771 -0.000150
# 3 -0.001349 -0.000872 0.012912 0.000862 0.003167 0.002117
# 4 0.003357 -0.001714 0.000862 0.034050 0.004344 0.006752
# 5 0.003651 -0.001771 0.003167 0.004344 0.034409 0.009051
# 6 0.005934 -0.000150 0.002117 0.006752 0.009051 0.029269
#
#
# Mechanical properties :
#
#
# Convention : Reuss Voigt Hill
#
# Bulk Modulus (GPa) = 56.29651 80.81186 68.55418
# Shear Modulus (GPa) = 35.30155 43.70250 39.50203
#
# Velocity S-wave (km/s) = 3.78483 4.21117 4.00368
# Velocity P-wave (km/s) = 6.47645 7.51251 7.01364
#
# Compressibility (1/GPa) = 0.01776309
#
# Stress axis : x y z
#
# Youngs Moduli (GPa) = 125.63209 142.78464 77.44724
#
# Poissons Ratio (x) = 0.40483 0.10450
# Poissons Ratio (y) = 0.35620 0.06750
# Poissons Ratio (z) = 0.16951 0.12445
#
# Static dielectric constant tensor:
#      x y z
#    x 1.948500 -0.277510 0.417690 
#    y -0.277510 1.819930 -0.027230 
#    z 0.417690 -0.027230 2.411150 
# 
# From -- ./inp_files/98573.got.cif
#   From: 2010.05.17/outbox.cif.g08.bks.cpg/sg2_50_cif.got.tgz:98573.got - 2010.06.03 11:33:40.
