data_PCOD9035719
_publ_section_title
;
Structure prediction by ZEFSAII (Michael W. Deem and Ramdas Pophale) SiO2 
 PCOD9035719
Probable space group: P -1
;
_chemical_formula_sum "Si O2"
_cell_formula_units_Z 12
_cell_length_a 4.864801
_cell_length_b 13.397495
_cell_length_c 7.596312
_cell_angle_alpha 90.605659
_cell_angle_beta 108.779232
_cell_angle_gamma 105.522357
_cell_volume 449.099605
_symmetry_space_group_name_H-M "P -1"
_symmetry_group_IT_number 2
_symmetry_cell_setting 'triclinic'
loop_
_space_group_symop_operation_xyz
x,y,z
-x,-y,-z
loop_
_atom_site_type_symbol
_atom_site_label
_atom_site_fract_x
_atom_site_fract_y
_atom_site_fract_z
Si Si1 0.257924 0.809884 0.921958
Si Si2 0.083223 0.112679 0.865537
Si Si3 0.727280 0.396512 0.907350
Si Si4 0.243672 0.438436 0.577088
Si Si5 0.431677 0.078540 0.344844
Si Si6 0.202290 0.743988 0.413536
O O1 0.318706 0.872704 0.752983
O O2 0.974035 0.824920 0.970707
O O3 0.278819 0.691042 0.945760
O O4 0.565183 0.874850 0.090239
O O5 0.968295 0.177076 0.695459
O O6 0.867776 0.995516 0.807399
O O7 0.422279 0.428938 0.796027
O O8 0.770318 0.335279 0.736419
O O9 0.000000 0.500000 0.000000
O O10 0.500000 0.500000 0.500000
O O11 0.000000 0.500000 0.500000
O O12 0.028650 0.323216 0.493041
O O13 0.468062 0.186851 0.456358
O O14 0.500000 0.000000 0.500000
#
# Coordination Sequence:
#
# PCOD9035719 Si02
#       6
#     2   2   2   2   2   2
#     4  11  23  46  72 103 144 187 240 296 352 432
#     4  10  22  46  71 103 141 185 237 293 353 431
#     4  11  26  49  75 107 146 197 247 298 362 435
#     4  12  25  47  74 105 146 187 242 308 364 425
#     4  10  23  44  73 107 141 190 233 296 362 429
#     4  10  23  48  66 106 146 185 241 297 359 433
#
# _framework density 26.720134000000002
#
# number of rings (size 3 to 8) (size 9 to 14) (size 15 to 20)
#    0.000    1.333    3.333    1.000    2.333    0.667 
#   12.000    5.833    0.000    0.000    0.000    0.000 
#    0.000    0.000    0.000    0.000    0.000    0.000 
#
# Total GULP energy -67033.264692 kJ/mol
# GULP energy per Si atom -5586.105391 kJ/mol
# Density = 2.665932 g / cm^3
# Si number density = 26.720134 Si / 1000 Ang^3
#
#
#
# Elastic Constant Matrix: (Units=GPa)
#
#
# Indices 1 2 3 4 5 6 
#
# 1 111.2543 40.8071 19.8612 -4.4263 15.0764 -3.6927
# 2 40.8071 254.7143 71.6779 -1.5755 4.0622 13.9545
# 3 19.8612 71.6779 128.5046 2.4936 13.7408 -6.2526
# 4 -4.4263 -1.5755 2.4936 78.0552 2.1979 6.7006
# 5 15.0764 4.0622 13.7408 2.1979 35.9015 -10.1398
# 6 -3.6927 13.9545 -6.2526 6.7006 -10.1398 36.4546
#
#
#
# Elastic Compliance Matrix: (Units=1/GPa)
#
#
# Indices 1 2 3 4 5 6 
#
# 1 0.010159 -0.001491 -0.000315 0.000637 -0.003921 0.000338
# 2 -0.001491 0.005079 -0.002772 0.000312 0.000381 -0.002522
# 3 -0.000315 -0.002772 0.009773 -0.000486 -0.002686 0.002048
# 4 0.000637 0.000312 -0.000486 0.013182 -0.001788 -0.003059
# 5 -0.003921 0.000381 -0.002686 -0.001788 0.032996 0.008503
# 6 0.000338 -0.002522 0.002048 -0.003059 0.008503 0.031709
#
#
# Mechanical properties :
#
#
# Convention : Reuss Voigt Hill
#
# Bulk Modulus (GPa) = 63.07199 84.35176 73.71188
# Shear Modulus (GPa) = 42.61082 54.22404 48.41743
#
# Velocity S-wave (km/s) = 3.99771 4.50970 4.26140
# Velocity P-wave (km/s) = 6.70558 7.66509 7.20134
#
# Compressibility (1/GPa) = 0.01585490
#
# Stress axis : x y z
#
# Youngs Moduli (GPa) = 98.43071 196.89240 102.32219
#
# Poissons Ratio (x) = 0.29356 0.03226
# Poissons Ratio (y) = 0.14676 0.28364
# Poissons Ratio (z) = 0.03103 0.54579
#
# Static dielectric constant tensor:
#      x y z
#    x 2.111480 -0.005620 -0.062300 
#    y -0.005620 2.039370 0.012400 
#    z -0.062300 0.012400 2.262700 
# 
# From -- ./inp_files/135209.got.cif
#   From: 2010.05.17/outbox.cif.g08.bks.cpg/sg2_68_cif.got.tgz:135209.got - 2010.06.03 11:33:40.
