data_PCOD9035467
_publ_section_title
;
Structure prediction by ZEFSAII (Michael W. Deem and Ramdas Pophale) SiO2 
 PCOD9035467
Probable space group: P -1
;
_chemical_formula_sum "Si O2"
_cell_formula_units_Z 16
_cell_length_a 6.506866
_cell_length_b 10.574171
_cell_length_c 11.034042
_cell_angle_alpha 117.555524
_cell_angle_beta 73.512350
_cell_angle_gamma 101.825562
_cell_volume 642.971158
_symmetry_space_group_name_H-M "P -1"
_symmetry_group_IT_number 2
_symmetry_cell_setting 'triclinic'
loop_
_space_group_symop_operation_xyz
x,y,z
-x,-y,-z
loop_
_atom_site_type_symbol
_atom_site_label
_atom_site_fract_x
_atom_site_fract_y
_atom_site_fract_z
Si Si1 0.561920 0.853337 0.372553
Si Si2 0.819710 0.357090 0.546652
Si Si3 0.020585 0.170641 0.076479
Si Si4 0.445622 0.711902 0.113303
Si Si5 0.009737 0.830400 0.199390
Si Si6 0.364865 0.669685 0.687926
Si Si7 0.580553 0.537117 0.805930
Si Si8 0.818425 0.832965 0.683644
O O1 0.384752 0.743049 0.414330
O O2 0.524551 0.855495 0.234373
O O3 0.810190 0.821474 0.322074
O O4 0.500000 0.000000 0.500000
O O5 0.753762 0.398569 0.440453
O O6 0.810575 0.490720 0.699284
O O7 0.017683 0.260893 0.458053
O O8 0.796426 0.234233 0.173827
O O9 0.153692 0.200593 0.192611
O O10 0.063472 0.209268 0.944433
O O11 0.000000 0.000000 0.000000
O O12 0.501796 0.587938 0.142134
O O13 0.191304 0.723862 0.150329
O O14 0.548933 0.676327 0.953839
O O15 0.112670 0.996661 0.263914
O O16 0.439791 0.553310 0.717451
O O17 0.577146 0.773567 0.663550
#
# Coordination Sequence:
#
# PCOD9035467 Si02
#       8
#     2   2   2   2   2   2   2   2
#     4  11  24  42  67  97 136 169 211 274 335 387
#     4  10  23  44  62  99 135 171 221 268 319 386
#     4   9  21  38  59  96 136 162 214 270 320 389
#     4  10  24  43  68  96 133 173 219 269 320 392
#     4  11  22  40  67  99 131 170 214 275 335 385
#     4  11  22  41  70  94 129 181 213 266 333 376
#     4  10  22  46  65  93 135 175 224 266 309 392
#     4  10  23  38  65 102 133 168 218 270 326 391
#
# _framework density 24.884475999999999
#
# number of rings (size 3 to 8) (size 9 to 14) (size 15 to 20)
#    0.000    1.750    2.500    0.375    3.500    5.000 
#    0.000   11.875    0.000    0.000    0.000    0.000 
#    0.000    0.000    0.000    0.000    0.000    0.000 
#
# Total GULP energy -89350.981352 kJ/mol
# GULP energy per Si atom -5584.436335 kJ/mol
# Density = 2.482784 g / cm^3
# Si number density = 24.884476 Si / 1000 Ang^3
#
#
#
# Elastic Constant Matrix: (Units=GPa)
#
#
# Indices 1 2 3 4 5 6 
#
# 1 65.9427 12.8762 28.7153 -5.1089 -30.6846 0.0228
# 2 12.8762 77.2268 9.8990 -1.4394 -24.5212 2.0028
# 3 28.7153 9.8990 190.5481 17.0105 -44.6075 -3.3048
# 4 -5.1089 -1.4394 17.0105 36.6017 0.9164 -3.4956
# 5 -30.6846 -24.5212 -44.6075 0.9164 50.2198 -5.7386
# 6 0.0228 2.0028 -3.3048 -3.4956 -5.7386 35.6286
#
#
#
# Elastic Compliance Matrix: (Units=1/GPa)
#
#
# Indices 1 2 3 4 5 6 
#
# 1 0.021711 0.000706 -0.000391 0.003131 0.013479 0.002388
# 2 0.000706 0.015586 0.001265 -0.000039 0.009250 0.000727
# 3 -0.000391 0.001265 0.007208 -0.003397 0.007002 0.001392
# 4 0.003131 -0.000039 -0.003397 0.029596 -0.001393 0.002364
# 5 0.013479 0.009250 0.007002 -0.001393 0.039637 0.006369
# 6 0.002388 0.000727 0.001392 0.002364 0.006369 0.029412
#
#
# Mechanical properties :
#
#
# Convention : Reuss Voigt Hill
#
# Bulk Modulus (GPa) = 20.97931 48.52204 34.75067
# Shear Modulus (GPa) = 32.07644 43.30517 37.69081
#
# Velocity S-wave (km/s) = 3.59418 4.17615 3.89605
# Velocity P-wave (km/s) = 5.06687 6.54178 5.85099
#
# Compressibility (1/GPa) = 0.04766602
#
# Stress axis : x y z
#
# Youngs Moduli (GPa) = 46.06018 64.15881 138.73730
#
# Poissons Ratio (x) = -0.04533 0.05427
# Poissons Ratio (y) = -0.03254 -0.17554
# Poissons Ratio (z) = 0.01802 -0.08118
#
# Static dielectric constant tensor:
#      x y z
#    x 2.059800 0.069270 0.083490 
#    y 0.069270 2.077160 0.080810 
#    z 0.083490 0.080810 2.064560 
# 
# From -- ./inp_files/365197.got.cif
#   From: 2010.05.17/outbox.cif.g08.bks.cpg/sg2_183_cif.got.tgz:365197.got - 2010.06.03 11:33:40.
