data_PCOD9035845
_publ_section_title
;
Structure prediction by ZEFSAII (Michael W. Deem and Ramdas Pophale) SiO2 
 PCOD9035845
Probable space group: P -1
;
_chemical_formula_sum "Si O2"
_cell_formula_units_Z 15
_cell_length_a 11.889837
_cell_length_b 5.294832
_cell_length_c 11.946701
_cell_angle_alpha 73.628367
_cell_angle_beta 74.238178
_cell_angle_gamma 51.164850
_cell_volume 557.548827
_symmetry_space_group_name_H-M "P -1"
_symmetry_group_IT_number 2
_symmetry_cell_setting 'triclinic'
loop_
_space_group_symop_operation_xyz
x,y,z
-x,-y,-z
loop_
_atom_site_type_symbol
_atom_site_label
_atom_site_fract_x
_atom_site_fract_y
_atom_site_fract_z
Si Si1 0.365758 0.640529 0.663167
Si Si2 0.079181 0.610313 0.541351
Si Si3 0.763326 0.952647 0.816297
Si Si4 0.852971 0.506056 0.204526
Si Si5 0.293874 0.722931 0.428419
Si Si6 0.000000 0.500000 0.000000
Si Si7 0.306965 0.844722 0.891154
Si Si8 0.389098 0.363662 0.094212
O O1 0.295923 0.454391 0.740796
O O2 0.282982 0.821453 0.548805
O O3 0.536403 0.453010 0.622489
O O4 0.326425 0.862936 0.753133
O O5 0.090335 0.533854 0.680354
O O6 0.241116 0.488943 0.470421
O O7 0.000000 0.500000 0.500000
O O8 0.000000 0.000000 0.500000
O O9 0.641800 0.893061 0.840822
O O10 0.883767 0.650945 0.897856
O O11 0.794380 0.999249 0.675219
O O12 0.695496 0.309038 0.845974
O O13 0.843746 0.797026 0.095172
O O14 0.946521 0.260319 0.109373
O O15 0.439823 0.812360 0.920038
O O16 0.330633 0.524084 0.968464
#
# Coordination Sequence:
#
# PCOD9035845 Si02
#       8
#     2   2   2   2   2   1   2   2
#     4  10  22  46  73 112 145 195 245 319 380 450
#     4  11  27  51  75 110 153 205 251 305 372 457
#     4  12  25  49  68 110 145 198 253 307 368 456
#     4  11  25  46  74 109 150 199 256 317 376 455
#     4  10  23  46  77 107 152 193 252 307 383 442
#     4  12  26  48  72 102 152 204 256 304 374 454
#     4  11  23  43  75 107 148 192 248 318 383 442
#     4  11  26  44  76 103 152 191 249 314 383 440
#
# _framework density 26.903473000000002
#
# number of rings (size 3 to 8) (size 9 to 14) (size 15 to 20)
#    0.000    1.067    2.667    2.400    3.733    3.733 
#    9.600    2.667    0.000    0.000    0.000    0.000 
#    0.000    0.000    0.000    0.000    0.000    0.000 
#
# Total GULP energy -83576.571312 kJ/mol
# GULP energy per Si atom -5571.771421 kJ/mol
# Density = 2.684224 g / cm^3
# Si number density = 26.903473 Si / 1000 Ang^3
#
#
#
# Elastic Constant Matrix: (Units=GPa)
#
#
# Indices 1 2 3 4 5 6 
#
# 1 200.8670 42.3415 91.7453 -2.5587 -3.8011 1.2210
# 2 42.3415 100.1579 60.8495 -6.0730 11.2277 -2.2870
# 3 91.7453 60.8495 295.7347 -4.0003 5.7000 0.9574
# 4 -2.5587 -6.0730 -4.0003 37.3608 -1.6943 2.3378
# 5 -3.8011 11.2277 5.7000 -1.6943 53.0172 -4.5812
# 6 1.2210 -2.2870 0.9574 2.3378 -4.5812 47.8525
#
#
#
# Elastic Compliance Matrix: (Units=1/GPa)
#
#
# Indices 1 2 3 4 5 6 
#
# 1 0.006068 -0.001737 -0.001543 0.000019 0.000959 -0.000116
# 2 -0.001737 0.012257 -0.001917 0.001535 -0.002434 0.000360
# 3 -0.001543 -0.001917 0.004259 0.000041 -0.000175 -0.000156
# 4 0.000019 0.001535 0.000041 0.027117 0.000434 -0.001211
# 5 0.000959 -0.002434 -0.000175 0.000434 0.019627 0.001721
# 6 -0.000116 0.000360 -0.000156 -0.001211 0.001721 0.021145
#
#
# Mechanical properties :
#
#
# Convention : Reuss Voigt Hill
#
# Bulk Modulus (GPa) = 82.02702 109.62581 95.82641
# Shear Modulus (GPa) = 47.65062 54.43430 51.04246
#
# Velocity S-wave (km/s) = 4.21309 4.50301 4.36046
# Velocity P-wave (km/s) = 7.36359 8.23847 7.81329
#
# Compressibility (1/GPa) = 0.01219111
#
# Stress axis : x y z
#
# Youngs Moduli (GPa) = 164.78644 81.58511 234.80285
#
# Poissons Ratio (x) = 0.14171 0.36232
# Poissons Ratio (y) = 0.28624 0.45002
# Poissons Ratio (z) = 0.25428 0.15637
#
# Static dielectric constant tensor:
#      x y z
#    x 2.359720 -0.100700 -0.124650 
#    y -0.100700 2.297200 0.053460 
#    z -0.124650 0.053460 2.161590 
# 
# From -- ./inp_files/409054.got.cif
#   From: 2010.05.17/outbox.cif.g08.bks.cpg/sg2_205_cif.got.tgz:409054.got - 2010.06.03 11:33:40.
