data_PCOD9035308
_publ_section_title
;
Structure prediction by ZEFSAII (Michael W. Deem and Ramdas Pophale) SiO2 
 PCOD9035308
Probable space group: P -1
;
_chemical_formula_sum "Si O2"
_cell_formula_units_Z 12
_cell_length_a 9.129065
_cell_length_b 5.194706
_cell_length_c 9.236845
_cell_angle_alpha 89.568352
_cell_angle_beta 73.285831
_cell_angle_gamma 89.748534
_cell_volume 419.517644
_symmetry_space_group_name_H-M "P -1"
_symmetry_group_IT_number 2
_symmetry_cell_setting 'triclinic'
loop_
_space_group_symop_operation_xyz
x,y,z
-x,-y,-z
loop_
_atom_site_type_symbol
_atom_site_label
_atom_site_fract_x
_atom_site_fract_y
_atom_site_fract_z
Si Si1 0.491134 0.247164 0.103299
Si Si2 0.000000 0.000000 0.000000
Si Si3 0.691882 0.242859 0.538167
Si Si4 0.000000 0.000000 0.500000
Si Si5 0.163569 0.219190 0.203680
Si Si6 0.662952 0.748307 0.347202
Si Si7 0.205936 0.557223 0.921486
O O1 0.332311 0.218816 0.229767
O O2 0.500000 0.500000 0.000000
O O3 0.639031 0.288764 0.157953
O O4 0.500000 0.000000 0.000000
O O5 0.219490 0.296708 0.820081
O O6 0.930040 0.262587 0.086633
O O7 0.696068 0.509873 0.446555
O O8 0.515976 0.244698 0.649879
O O9 0.841688 0.175728 0.590253
O O10 0.698340 0.004218 0.424080
O O11 0.959595 0.792192 0.636684
O O12 0.191195 0.461264 0.088729
O O13 0.126847 0.993592 0.098985
#
# Coordination Sequence:
#
# PCOD9035308 Si02
#       7
#     2   1   2   1   2   2   2
#     4  10  22  45  73 111 152 202 261 334 393 479
#     4  12  24  48  78 118 162 204 272 336 416 488
#     4  10  25  50  76 115 161 215 266 335 412 492
#     4  12  28  52  76 116 172 210 268 350 418 490
#     4  11  27  47  75 114 157 214 263 334 413 484
#     4  10  24  49  82 114 156 215 278 329 404 500
#     4  11  25  46  84 115 158 211 279 340 405 491
#
# _framework density 28.604277
#
# number of rings (size 3 to 8) (size 9 to 14) (size 15 to 20)
#    0.000    1.333    1.667    1.500    4.667    7.333 
#    3.000    0.000    0.000    0.000    0.000    0.000 
#    0.000    0.000    0.000    0.000    0.000    0.000 
#
# Total GULP energy -66810.670235 kJ/mol
# GULP energy per Si atom -5567.555853 kJ/mol
# Density = 2.853917 g / cm^3
# Si number density = 28.604277 Si / 1000 Ang^3
#
#
#
# Elastic Constant Matrix: (Units=GPa)
#
#
# Indices 1 2 3 4 5 6 
#
# 1 125.7400 31.2497 21.1556 4.0387 -13.7782 -7.9166
# 2 31.2497 188.2995 45.4816 3.6615 5.1727 -20.5257
# 3 21.1556 45.4816 173.3321 -3.2576 -16.5467 -4.6692
# 4 4.0387 3.6615 -3.2576 41.9842 -4.1342 -7.9179
# 5 -13.7782 5.1727 -16.5467 -4.1342 39.3779 1.8774
# 6 -7.9166 -20.5257 -4.6692 -7.9179 1.8774 55.7603
#
#
#
# Elastic Compliance Matrix: (Units=1/GPa)
#
#
# Indices 1 2 3 4 5 6 
#
# 1 0.008737 -0.001365 -0.000414 -0.000354 0.002999 0.000552
# 2 -0.001365 0.006208 -0.001617 -0.000371 -0.002106 0.001974
# 3 -0.000414 -0.001617 0.006539 0.000963 0.002920 -0.000068
# 4 -0.000354 -0.000371 0.000963 0.024862 0.002781 0.003331
# 5 0.002999 -0.002106 0.002920 0.002781 0.028271 -0.000662
# 6 0.000552 0.001974 -0.000068 0.003331 -0.000662 0.019229
#
#
# Mechanical properties :
#
#
# Convention : Reuss Voigt Hill
#
# Bulk Modulus (GPa) = 68.06577 75.90505 71.98541
# Shear Modulus (GPa) = 47.37786 53.39010 50.38398
#
# Velocity S-wave (km/s) = 4.07421 4.32500 4.20147
# Velocity P-wave (km/s) = 6.78082 7.17876 6.98263
#
# Compressibility (1/GPa) = 0.01469167
#
# Stress axis : x y z
#
# Youngs Moduli (GPa) = 114.46147 161.07872 152.92673
#
# Poissons Ratio (x) = 0.21993 0.06324
# Poissons Ratio (y) = 0.15628 0.24731
# Poissons Ratio (z) = 0.04734 0.26049
#
# Static dielectric constant tensor:
#      x y z
#    x 2.671930 0.137310 -0.015520 
#    y 0.137310 2.181270 0.116830 
#    z -0.015520 0.116830 2.065210 
# 
# From -- ./inp_files/407636.got.cif
#   From: 2010.05.17/outbox.cif.g08.bks.cpg/sg2_204_cif.got.tgz:407636.got - 2010.06.03 11:33:40.
