data_PCOD9035944
_publ_section_title
;
Structure prediction by ZEFSAII (Michael W. Deem and Ramdas Pophale) SiO2 
 PCOD9035944
Probable space group: P -1
;
_chemical_formula_sum "Si O2"
_cell_formula_units_Z 16
_cell_length_a 5.570063
_cell_length_b 9.260879
_cell_length_c 19.375932
_cell_angle_alpha 117.869712
_cell_angle_beta 64.582303
_cell_angle_gamma 126.377559
_cell_volume 694.970255
_symmetry_space_group_name_H-M "P -1"
_symmetry_group_IT_number 2
_symmetry_cell_setting 'triclinic'
loop_
_space_group_symop_operation_xyz
x,y,z
-x,-y,-z
loop_
_atom_site_type_symbol
_atom_site_label
_atom_site_fract_x
_atom_site_fract_y
_atom_site_fract_z
Si Si1 0.827193 0.976521 0.588552
Si Si2 0.541206 0.882379 0.407384
Si Si3 0.242550 0.310610 0.954878
Si Si4 0.337440 0.484017 0.309226
Si Si5 0.316893 0.861691 0.930187
Si Si6 0.802501 0.560911 0.155156
Si Si7 0.615801 0.279591 0.324220
Si Si8 0.569609 0.096203 0.815481
O O1 0.570645 0.765004 0.590966
O O2 0.654104 0.096073 0.625077
O O3 0.000000 0.000000 0.500000
O O4 0.095417 0.035928 0.625449
O O5 0.407019 0.663515 0.386927
O O6 0.500000 0.000000 0.500000
O O7 0.119726 0.377790 0.920637
O O8 0.349256 0.183306 0.872222
O O9 0.500000 0.500000 0.000000
O O10 0.028154 0.194526 0.018871
O O11 0.517281 0.553744 0.229459
O O12 0.485485 0.374416 0.307597
O O13 0.977574 0.378638 0.313556
O O14 0.277131 0.654830 0.882738
O O15 0.502994 0.978951 0.868148
O O16 0.500000 0.000000 0.000000
O O17 0.100722 0.720993 0.192413
O O18 0.516533 0.069032 0.264413
#
# Coordination Sequence:
#
# PCOD9035944 Si02
#       8
#     2   2   2   2   2   2   2   2
#     4  10  22  46  77 108 147 191 241 292 370 444
#     4  10  22  46  77 108 147 193 237 295 372 442
#     4  12  26  43  72 100 139 195 249 315 379 439
#     4  12  28  47  74 111 154 190 253 312 363 451
#     4  12  24  47  68 100 143 187 257 312 372 445
#     4  12  27  46  69 103 147 196 252 307 383 441
#     4  12  28  47  74 112 150 195 250 308 371 439
#     4  12  27  45  71 100 146 198 247 310 379 441
#
# _framework density 23.022569000000001
#
# number of rings (size 3 to 8) (size 9 to 14) (size 15 to 20)
#    0.000    0.500    3.750    3.750    8.750    0.000 
#    0.000   15.000    0.000    0.000    0.000    0.000 
#    0.000    0.000    0.000    0.000    0.000    0.000 
#
# Total GULP energy -89224.932944 kJ/mol
# GULP energy per Si atom -5576.558309 kJ/mol
# Density = 2.297017 g / cm^3
# Si number density = 23.022569 Si / 1000 Ang^3
#
#
#
# Elastic Constant Matrix: (Units=GPa)
#
#
# Indices 1 2 3 4 5 6 
#
# 1 146.9323 62.5942 20.7956 -17.3421 -35.1216 10.6410
# 2 62.5942 155.0731 48.0969 0.2345 -14.0167 12.2958
# 3 20.7956 48.0969 100.2189 10.3367 -5.2170 0.0626
# 4 -17.3421 0.2345 10.3367 91.5427 4.7152 2.2897
# 5 -35.1216 -14.0167 -5.2170 4.7152 20.2852 -0.3363
# 6 10.6410 12.2958 0.0626 2.2897 -0.3363 53.3027
#
#
#
# Elastic Compliance Matrix: (Units=1/GPa)
#
#
# Indices 1 2 3 4 5 6 
#
# 1 0.013534 -0.003365 -0.000282 0.001588 0.020635 -0.001863
# 2 -0.003365 0.008995 -0.003625 -0.000189 -0.000522 -0.001394
# 3 -0.000282 -0.003625 0.011947 -0.001439 0.000430 0.000943
# 4 0.001588 -0.000189 -0.001439 0.011428 -0.000420 -0.000765
# 5 0.020635 -0.000522 0.000430 -0.000420 0.084815 -0.003446
# 6 -0.001863 -0.001394 0.000943 -0.000765 -0.003446 0.019464
#
#
# Mechanical properties :
#
#
# Convention : Reuss Voigt Hill
#
# Bulk Modulus (GPa) = 50.17249 73.91083 62.04166
# Shear Modulus (GPa) = 29.17635 51.07528 40.12581
#
# Velocity S-wave (km/s) = 3.56377 4.71519 4.17932
# Velocity P-wave (km/s) = 6.22688 7.86240 7.09194
#
# Compressibility (1/GPa) = 0.01993124
#
# Stress axis : x y z
#
# Youngs Moduli (GPa) = 73.88719 111.17440 83.70519
#
# Poissons Ratio (x) = 0.37410 0.02359
# Poissons Ratio (y) = 0.24863 0.30346
# Poissons Ratio (z) = 0.02083 0.40305
#
# Static dielectric constant tensor:
#      x y z
#    x 1.946020 -0.053380 -0.001280 
#    y -0.053380 1.862140 -0.041680 
#    z -0.001280 -0.041680 2.124380 
# 
# From -- ./inp_files/53007.got.cif
#   From: 2010.05.17/outbox.cif.g08.bks.cpg/sg2_27_cif.got.tgz:53007.got - 2010.06.03 11:33:40.
