data_PCOD9035690
_publ_section_title
;
Structure prediction by ZEFSAII (Michael W. Deem and Ramdas Pophale) SiO2 
 PCOD9035690
Probable space group: P -1
;
_chemical_formula_sum "Si O2"
_cell_formula_units_Z 15
_cell_length_a 18.745957
_cell_length_b 8.896942
_cell_length_c 5.883347
_cell_angle_alpha 123.842882
_cell_angle_beta 128.237279
_cell_angle_gamma 72.848432
_cell_volume 638.264273
_symmetry_space_group_name_H-M "P -1"
_symmetry_group_IT_number 2
_symmetry_cell_setting 'triclinic'
loop_
_space_group_symop_operation_xyz
x,y,z
-x,-y,-z
loop_
_atom_site_type_symbol
_atom_site_label
_atom_site_fract_x
_atom_site_fract_y
_atom_site_fract_z
Si Si1 0.116518 0.413918 0.230833
Si Si2 0.785614 0.232277 0.333077
Si Si3 0.969731 0.177915 0.462200
Si Si4 0.301259 0.241810 0.530143
Si Si5 0.674016 0.070583 0.358097
Si Si6 0.547649 0.841876 0.595371
Si Si7 0.632233 0.383678 0.840606
Si Si8 0.000000 0.500000 0.500000
O O1 0.158019 0.585984 0.308955
O O2 0.200213 0.289861 0.310293
O O3 0.084945 0.479045 0.470606
O O4 0.029407 0.325655 0.857766
O O5 0.861179 0.157904 0.259081
O O6 0.751481 0.093644 0.340844
O O7 0.698904 0.301991 0.091159
O O8 0.992483 0.271897 0.342306
O O9 0.000000 0.000000 0.500000
O O10 0.370560 0.233865 0.450325
O O11 0.298630 0.046424 0.475049
O O12 0.342516 0.402091 0.916009
O O13 0.652769 0.272743 0.560281
O O14 0.589045 0.950679 0.984712
O O15 0.471538 0.680498 0.360189
O O16 0.500000 0.000000 0.500000
#
# Coordination Sequence:
#
# PCOD9035690 Si02
#       8
#     2   2   2   2   2   2   2   1
#     4  10  25  47  69 101 138 183 236 291 355 424
#     4  10  23  44  67  97 139 180 224 297 348 417
#     4  11  26  42  71 103 141 183 235 292 361 425
#     4  11  27  44  72 105 140 184 243 288 356 434
#     4  12  25  43  72 102 140 184 236 291 357 429
#     4  12  24  46  70  98 147 183 231 299 354 423
#     4  11  25  46  70 101 139 187 234 292 358 417
#     4  10  22  46  70  96 136 184 232 292 350 418
#
# _framework density 23.501238000000001
#
# number of rings (size 3 to 8) (size 9 to 14) (size 15 to 20)
#    0.000    1.067    2.667    2.400    5.600    9.600 
#    0.000    0.000    0.000    0.000    0.000    0.000 
#    0.000    0.000    0.000    0.000    0.000    0.000 
#
# Total GULP energy -83530.785217 kJ/mol
# GULP energy per Si atom -5568.719014 kJ/mol
# Density = 2.344775 g / cm^3
# Si number density = 23.501238 Si / 1000 Ang^3
#
#
#
# Elastic Constant Matrix: (Units=GPa)
#
#
# Indices 1 2 3 4 5 6 
#
# 1 151.5894 27.2008 18.4024 -7.0454 22.6306 -1.9807
# 2 27.2008 73.7817 4.8347 17.5349 10.0792 3.2880
# 3 18.4024 4.8347 108.0984 20.4126 25.4700 -9.5798
# 4 -7.0454 17.5349 20.4126 34.1006 1.8788 7.2923
# 5 22.6306 10.0792 25.4700 1.8788 22.8360 8.9699
# 6 -1.9807 3.2880 -9.5798 7.2923 8.9699 43.3874
#
#
#
# Elastic Compliance Matrix: (Units=1/GPa)
#
#
# Indices 1 2 3 4 5 6 
#
# 1 0.008505 -0.002824 0.000246 0.003126 -0.008452 0.001879
# 2 -0.002824 0.019091 0.005679 -0.014100 -0.012632 0.004660
# 3 0.000246 0.005679 0.019706 -0.015764 -0.028317 0.012436
# 4 0.003126 -0.014100 -0.015764 0.048645 0.022649 -0.015128
# 5 -0.008452 -0.012632 -0.028317 0.022649 0.099248 -0.030006
# 6 0.001879 0.004660 0.012436 -0.015128 -0.030006 0.034273
#
#
# Mechanical properties :
#
#
# Convention : Reuss Voigt Hill
#
# Bulk Modulus (GPa) = 18.68999 48.26058 33.47529
# Shear Modulus (GPa) = 20.73823 38.93359 29.83591
#
# Velocity S-wave (km/s) = 2.97380 4.07463 3.56693
# Velocity P-wave (km/s) = 4.44537 6.53580 5.58919
#
# Compressibility (1/GPa) = 0.05350458
#
# Stress axis : x y z
#
# Youngs Moduli (GPa) = 117.57570 52.37949 50.74625
#
# Poissons Ratio (x) = 0.14790 -0.01248
# Poissons Ratio (y) = 0.33200 -0.28818
# Poissons Ratio (z) = -0.02892 -0.29745
#
# Static dielectric constant tensor:
#      x y z
#    x 1.826700 -0.016130 -0.054540 
#    y -0.016130 1.997330 -0.014840 
#    z -0.054540 -0.014840 1.988180 
# 
# From -- ./inp_files/107851.got.cif
#   From: 2010.05.17/outbox.cif.g08.bks.cpg/sg2_54_cif.got.tgz:107851.got - 2010.06.03 11:33:40.
