data_PCOD9035419
_publ_section_title
;
Structure prediction by ZEFSAII (Michael W. Deem and Ramdas Pophale) SiO2 
 PCOD9035419
Probable space group: P -1
;
_chemical_formula_sum "Si O2"
_cell_formula_units_Z 14
_cell_length_a 9.215896
_cell_length_b 5.697543
_cell_length_c 26.142478
_cell_angle_alpha 50.980488
_cell_angle_beta 148.794189
_cell_angle_gamma 120.608188
_cell_volume 551.092095
_symmetry_space_group_name_H-M "P -1"
_symmetry_group_IT_number 2
_symmetry_cell_setting 'triclinic'
loop_
_space_group_symop_operation_xyz
x,y,z
-x,-y,-z
loop_
_atom_site_type_symbol
_atom_site_label
_atom_site_fract_x
_atom_site_fract_y
_atom_site_fract_z
Si Si1 0.570752 0.345793 0.217831
Si Si2 0.275526 0.781441 0.609481
Si Si3 0.201624 0.889736 0.323315
Si Si4 0.914948 0.349608 0.924468
Si Si5 0.327810 0.769519 0.944829
Si Si6 0.904756 0.653346 0.688075
Si Si7 0.384783 0.683733 0.267471
O O1 0.728190 0.386666 0.313489
O O2 0.305703 0.581993 0.106535
O O3 0.773436 0.329445 0.233212
O O4 0.443239 0.026976 0.233295
O O5 0.324298 0.525877 0.615254
O O6 0.535836 0.988058 0.645655
O O7 0.000000 0.000000 0.500000
O O8 0.217002 0.525848 0.372172
O O9 0.206356 0.031436 0.362554
O O10 0.902110 0.035908 0.188021
O O11 0.750518 0.401355 0.814808
O O12 0.154293 0.575607 0.958475
O O13 0.000000 0.000000 0.000000
O O14 0.500000 0.500000 0.000000
O O15 0.500000 0.000000 0.000000
O O16 0.832545 0.413473 0.742892
#
# Coordination Sequence:
#
# PCOD9035419 Si02
#       7
#     2   2   2   2   2   2   2
#     4  11  24  44  76 101 144 192 240 301 368 436
#     4  10  22  45  77 105 143 192 236 301 375 430
#     4  11  23  48  67 104 146 185 241 304 355 436
#     4  11  26  47  66 106 146 192 252 307 356 450
#     4  12  26  43  73  99 139 198 248 294 369 432
#     4  11  23  42  77 100 140 195 231 297 371 418
#     4  10  22  47  71  99 151 185 239 308 362 434
#
# _framework density 25.404104
#
# number of rings (size 3 to 8) (size 9 to 14) (size 15 to 20)
#    0.000    1.143    5.714    0.857    8.000    2.286 
#    0.000    4.286    0.000    0.000    0.000    0.000 
#    0.000    0.000    0.000    0.000    0.000    0.000 
#
# Total GULP energy -78154.176754 kJ/mol
# GULP energy per Si atom -5582.441197 kJ/mol
# Density = 2.534628 g / cm^3
# Si number density = 25.404104 Si / 1000 Ang^3
#
#
#
# Elastic Constant Matrix: (Units=GPa)
#
#
# Indices 1 2 3 4 5 6 
#
# 1 181.8115 34.4013 44.3911 -0.9051 50.3323 -3.9677
# 2 34.4013 131.0418 15.7992 -9.8996 23.2287 -21.4709
# 3 44.3911 15.7992 95.3440 -13.2526 41.6184 -8.7518
# 4 -0.9051 -9.8996 -13.2526 25.5706 -4.5072 11.1429
# 5 50.3323 23.2287 41.6184 -4.5072 35.9863 -3.9894
# 6 -3.9677 -21.4709 -8.7518 11.1429 -3.9894 41.5012
#
#
#
# Elastic Compliance Matrix: (Units=1/GPa)
#
#
# Indices 1 2 3 4 5 6 
#
# 1 0.009350 0.000052 0.002551 -0.001290 -0.016195 0.000248
# 2 0.000052 0.009710 0.002979 0.001835 -0.009080 0.004291
# 3 0.002551 0.002979 0.024017 0.007231 -0.032159 0.001817
# 4 -0.001290 0.001835 0.007231 0.047675 -0.002961 -0.010735
# 5 -0.016195 -0.009080 -0.032159 -0.002961 0.092754 -0.003316
# 6 0.000248 0.004291 0.001817 -0.010735 -0.003316 0.029286
#
#
# Mechanical properties :
#
#
# Convention : Reuss Voigt Hill
#
# Bulk Modulus (GPa) = 18.43652 66.37561 42.40606
# Shear Modulus (GPa) = 22.75753 41.51866 32.13810
#
# Velocity S-wave (km/s) = 2.99627 4.04707 3.56065
# Velocity P-wave (km/s) = 4.38671 6.92986 5.79941
#
# Compressibility (1/GPa) = 0.05424018
#
# Stress axis : x y z
#
# Youngs Moduli (GPa) = 106.95268 102.99126 41.63801
#
# Poissons Ratio (x) = -0.00534 -0.10622
# Poissons Ratio (y) = -0.00555 -0.12405
# Poissons Ratio (z) = -0.27283 -0.30684
#
# Static dielectric constant tensor:
#      x y z
#    x 2.001170 -0.105560 0.022920 
#    y -0.105560 2.084640 0.007040 
#    z 0.022920 0.007040 2.221040 
# 
# From -- ./inp_files/622180.got.cif
#   From: 2010.05.17/outbox.cif.g08.bks.cpg/sg2_312_cif.got.tgz:622180.got - 2010.06.03 11:33:40.
