data_PCOD9035185
_publ_section_title
;
Structure prediction by ZEFSAII (Michael W. Deem and Ramdas Pophale) SiO2 
 PCOD9035185
Probable space group: P -1
;
_chemical_formula_sum "Si O2"
_cell_formula_units_Z 14
_cell_length_a 10.063507
_cell_length_b 8.721141
_cell_length_c 7.975836
_cell_angle_alpha 95.666870
_cell_angle_beta 49.677230
_cell_angle_gamma 83.984504
_cell_volume 517.785983
_symmetry_space_group_name_H-M "P -1"
_symmetry_group_IT_number 2
_symmetry_cell_setting 'triclinic'
loop_
_space_group_symop_operation_xyz
x,y,z
-x,-y,-z
loop_
_atom_site_type_symbol
_atom_site_label
_atom_site_fract_x
_atom_site_fract_y
_atom_site_fract_z
Si Si1 0.815010 0.370859 0.723674
Si Si2 0.922810 0.100979 0.823509
Si Si3 0.507644 0.846618 0.806825
Si Si4 0.915839 0.219942 0.215513
Si Si5 0.738113 0.529058 0.465577
Si Si6 0.782658 0.610698 0.071161
Si Si7 0.466086 0.825541 0.205401
O O1 0.829765 0.488198 0.570072
O O2 0.759357 0.469618 0.950649
O O3 0.665937 0.282482 0.762969
O O4 0.960016 0.220849 0.663020
O O5 0.709773 0.101533 0.002139
O O6 0.948386 0.163070 0.994195
O O7 0.048680 0.926655 0.703280
O O8 0.575249 0.675949 0.649052
O O9 0.587283 0.989432 0.681794
O O10 0.573497 0.829953 0.943465
O O11 0.069516 0.314100 0.129677
O O12 0.731564 0.350132 0.394648
O O13 0.826871 0.576066 0.226809
O O14 0.598663 0.738152 0.226645
#
# Coordination Sequence:
#
# PCOD9035185 Si02
#       7
#     2   2   2   2   2   2   2
#     4  11  25  44  71 105 140 182 229 292 344 406
#     4  10  23  47  73  95 148 185 223 286 354 407
#     4  10  22  45  73 103 134 184 236 286 339 411
#     4  11  25  47  69 103 140 190 225 281 355 415
#     4  12  27  43  74 109 133 183 241 281 346 411
#     4  12  24  47  69 103 146 180 223 298 342 415
#     4  10  22  45  71  99 145 183 225 288 354 398
#
# _framework density 27.038198000000001
#
# number of rings (size 3 to 8) (size 9 to 14) (size 15 to 20)
#    0.000    1.143    4.286    0.857    2.000    4.000 
#    5.143    0.000    0.000    0.000    0.000    0.000 
#    0.000    0.000    0.000    0.000    0.000    0.000 
#
# Total GULP energy -78128.580662 kJ/mol
# GULP energy per Si atom -5580.612904 kJ/mol
# Density = 2.697666 g / cm^3
# Si number density = 27.038198 Si / 1000 Ang^3
#
#
#
# Elastic Constant Matrix: (Units=GPa)
#
#
# Indices 1 2 3 4 5 6 
#
# 1 103.3206 66.8679 25.7266 -6.9577 9.2084 -7.4867
# 2 66.8679 171.8773 53.9279 14.0320 11.4628 -13.9077
# 3 25.7266 53.9279 102.0465 2.1954 19.7050 3.7190
# 4 -6.9577 14.0320 2.1954 49.1297 -4.4679 10.3054
# 5 9.2084 11.4628 19.7050 -4.4679 41.0043 -12.8029
# 6 -7.4867 -13.9077 3.7190 10.3054 -12.8029 36.8854
#
#
#
# Elastic Compliance Matrix: (Units=1/GPa)
#
#
# Indices 1 2 3 4 5 6 
#
# 1 0.013578 -0.005423 -0.000385 0.003517 -0.001164 -0.000636
# 2 -0.005423 0.009890 -0.004233 -0.004267 0.001513 0.004772
# 3 -0.000385 -0.004233 0.013669 0.001123 -0.006985 -0.005791
# 4 0.003517 -0.004267 0.001123 0.023618 0.000069 -0.007583
# 5 -0.001164 0.001513 -0.006985 0.000069 0.031301 0.011884
# 6 -0.000636 0.004772 -0.005791 -0.007583 0.011884 0.035609
#
#
# Mechanical properties :
#
#
# Convention : Reuss Voigt Hill
#
# Bulk Modulus (GPa) = 58.63487 74.47658 66.55572
# Shear Modulus (GPa) = 32.58768 40.78534 36.68651
#
# Velocity S-wave (km/s) = 3.47543 3.88807 3.68753
# Velocity P-wave (km/s) = 6.15125 6.91092 6.54212
#
# Compressibility (1/GPa) = 0.01705470
#
# Stress axis : x y z
#
# Youngs Moduli (GPa) = 73.64584 101.11553 73.15597
#
# Poissons Ratio (x) = 0.54832 0.02819
# Poissons Ratio (y) = 0.39936 0.30970
# Poissons Ratio (z) = 0.02837 0.42807
#
# Static dielectric constant tensor:
#      x y z
#    x 2.082470 0.005950 -0.047810 
#    y 0.005950 2.241360 -0.011530 
#    z -0.047810 -0.011530 2.166270 
# 
# From -- ./inp_files/238840.got.cif
#   From: 2010.05.17/outbox.cif.g08.bks.cpg/sg2_120_cif.got.tgz:238840.got - 2010.06.03 11:33:40.
