data_PCOD9035198
_publ_section_title
;
Structure prediction by ZEFSAII (Michael W. Deem and Ramdas Pophale) SiO2 
 PCOD9035198
Probable space group: P -1
;
_chemical_formula_sum "Si O2"
_cell_formula_units_Z 13
_cell_length_a 6.388362
_cell_length_b 10.114292
_cell_length_c 11.382837
_cell_angle_alpha 109.870003
_cell_angle_beta 113.635848
_cell_angle_gamma 52.284669
_cell_volume 528.444328
_symmetry_space_group_name_H-M "P -1"
_symmetry_group_IT_number 2
_symmetry_cell_setting 'triclinic'
loop_
_space_group_symop_operation_xyz
x,y,z
-x,-y,-z
loop_
_atom_site_type_symbol
_atom_site_label
_atom_site_fract_x
_atom_site_fract_y
_atom_site_fract_z
Si Si1 0.947979 0.881390 0.372621
Si Si2 0.678934 0.870403 0.686865
Si Si3 0.500000 0.000000 0.000000
Si Si4 0.816427 0.444856 0.182901
Si Si5 0.168179 0.332832 0.564211
Si Si6 0.542270 0.676780 0.991902
Si Si7 0.890948 0.110766 0.836656
O O1 0.992381 0.733021 0.421375
O O2 0.114740 0.815781 0.270604
O O3 0.626399 0.999397 0.295594
O O4 0.000000 0.000000 0.500000
O O5 0.651108 0.812344 0.533628
O O6 0.874461 0.704168 0.757822
O O7 0.830097 0.968076 0.749520
O O8 0.621391 0.799533 0.996097
O O9 0.808845 0.964866 0.066131
O O10 0.718696 0.606785 0.291075
O O11 0.783288 0.511155 0.063162
O O12 0.617574 0.380117 0.142744
O O13 0.000000 0.500000 0.500000
O O14 0.321040 0.775105 0.076669
#
# Coordination Sequence:
#
# PCOD9035198 Si02
#       7
#     2   2   1   2   2   2   2
#     4  12  26  44  77 109 135 193 247 289 358 429
#     4  11  23  45  75 102 147 183 238 304 352 423
#     4  12  24  44  76 110 132 190 248 286 354 424
#     4  10  23  46  70 103 145 196 224 293 376 410
#     4  10  22  45  72 100 146 183 231 298 359 422
#     4  11  25  46  75 100 150 188 239 302 349 430
#     4  12  25  43  74 108 142 185 243 300 347 430
#
# _framework density 24.600511000000001
#
# number of rings (size 3 to 8) (size 9 to 14) (size 15 to 20)
#    0.000    0.923    3.077    3.692    4.308    0.000 
#    0.000   14.615    3.385    0.000    0.000    0.000 
#    0.000    0.000    0.000    0.000    0.000    0.000 
#
# Total GULP energy -72522.187278 kJ/mol
# GULP energy per Si atom -5578.629791 kJ/mol
# Density = 2.454452 g / cm^3
# Si number density = 24.600511 Si / 1000 Ang^3
#
#
#
# Elastic Constant Matrix: (Units=GPa)
#
#
# Indices 1 2 3 4 5 6 
#
# 1 104.6791 51.4502 38.0734 3.1736 6.8958 11.3896
# 2 51.4502 139.8929 24.6483 -1.7580 9.0742 37.5567
# 3 38.0734 24.6483 80.2371 24.1897 13.1284 11.7124
# 4 3.1736 -1.7580 24.1897 56.9448 -1.0303 13.7830
# 5 6.8958 9.0742 13.1284 -1.0303 55.0982 3.3118
# 6 11.3896 37.5567 11.7124 13.7830 3.3118 37.7806
#
#
#
# Elastic Compliance Matrix: (Units=1/GPa)
#
#
# Indices 1 2 3 4 5 6 
#
# 1 0.013577 -0.004433 -0.005717 0.001143 0.000316 0.001641
# 2 -0.004433 0.012234 -0.001035 0.003938 -0.000424 -0.011903
# 3 -0.005717 -0.001035 0.018363 -0.007618 -0.003641 0.000158
# 4 0.001143 0.003938 -0.007618 0.023469 0.002102 -0.010644
# 5 0.000316 -0.000424 -0.003641 0.002102 0.019146 -0.000990
# 6 0.001641 -0.011903 0.000158 -0.010644 -0.000990 0.041728
#
#
# Mechanical properties :
#
#
# Convention : Reuss Voigt Hill
#
# Bulk Modulus (GPa) = 45.86078 61.46143 53.66110
# Shear Modulus (GPa) = 31.61494 44.00718 37.81106
#
# Velocity S-wave (km/s) = 3.58877 4.23410 3.92472
# Velocity P-wave (km/s) = 5.98790 6.99582 6.51139
#
# Compressibility (1/GPa) = 0.02180513
#
# Stress axis : x y z
#
# Youngs Moduli (GPa) = 73.65422 81.74194 54.45752
#
# Poissons Ratio (x) = 0.36234 0.31131
# Poissons Ratio (y) = 0.32649 0.05635
# Poissons Ratio (z) = 0.42105 0.08459
#
# Static dielectric constant tensor:
#      x y z
#    x 1.927570 -0.027760 -0.019670 
#    y -0.027760 1.970110 -0.025730 
#    z -0.019670 -0.025730 2.104550 
# 
# From -- ./inp_files/25305.got.cif
#   From: 2010.05.17/outbox.cif.g08.bks.cpg/sg2_13_cif.got.tgz:25305.got - 2010.06.03 11:33:40.
