data_PCOD9035830
_publ_section_title
;
Structure prediction by ZEFSAII (Michael W. Deem and Ramdas Pophale) SiO2 
 PCOD9035830
Probable space group: P -1
;
_chemical_formula_sum "Si O2"
_cell_formula_units_Z 16
_cell_length_a 13.933623
_cell_length_b 13.226911
_cell_length_c 13.311048
_cell_angle_alpha 133.155796
_cell_angle_beta 133.043645
_cell_angle_gamma 21.145837
_cell_volume 636.238372
_symmetry_space_group_name_H-M "P -1"
_symmetry_group_IT_number 2
_symmetry_cell_setting 'triclinic'
loop_
_space_group_symop_operation_xyz
x,y,z
-x,-y,-z
loop_
_atom_site_type_symbol
_atom_site_label
_atom_site_fract_x
_atom_site_fract_y
_atom_site_fract_z
Si Si1 0.239624 0.135138 0.159809
Si Si2 0.724894 0.726013 0.083146
Si Si3 0.361786 0.409249 0.243431
Si Si4 0.751756 0.387696 0.262204
Si Si5 0.008942 0.265061 0.632435
Si Si6 0.089936 0.942394 0.663030
Si Si7 0.139018 0.439496 0.461029
Si Si8 0.216438 0.909875 0.128409
O O1 0.946219 0.436258 0.108812
O O2 0.280501 0.195256 0.326747
O O3 0.446420 0.971793 0.108924
O O4 0.279936 0.946820 0.104662
O O5 0.820420 0.798292 0.209896
O O6 0.688888 0.681425 0.921277
O O7 0.290006 0.446013 0.334112
O O8 0.643337 0.227618 0.303935
O O9 0.138528 0.730358 0.269795
O O10 0.821764 0.206967 0.270134
O O11 0.487392 0.595404 0.151922
O O12 0.671172 0.610215 0.403119
O O13 0.029053 0.162285 0.247395
O O14 0.021865 0.089282 0.499336
O O15 0.046561 0.309286 0.583654
O O16 0.000000 0.500000 0.500000
O O17 0.000000 0.000000 0.000000
#
# Coordination Sequence:
#
# PCOD9035830 Si02
#       8
#     2   2   2   2   2   2   2   2
#     4  11  25  44  70 104 140 188 232 291 355 427
#     4  11  26  45  72 103 146 187 238 294 357 426
#     4  12  25  47  76 106 144 191 242 297 358 426
#     4  11  25  44  68 104 136 187 230 292 351 427
#     4  10  25  47  74 109 145 190 241 297 359 427
#     4  11  26  45  75 105 147 186 241 297 361 422
#     4  10  22  46  73 104 141 182 235 292 356 418
#     4  12  26  41  67  97 147 181 239 284 352 418
#
# _framework density 25.147808000000001
#
# number of rings (size 3 to 8) (size 9 to 14) (size 15 to 20)
#    0.000    1.000    1.250    3.750    7.000    8.500 
#    0.000    4.375    0.000    0.000    0.000    0.000 
#    0.000    0.000    0.000    0.000    0.000    0.000 
#
# Total GULP energy -89558.593562 kJ/mol
# GULP energy per Si atom -5597.412098 kJ/mol
# Density = 2.509057 g / cm^3
# Si number density = 25.147808 Si / 1000 Ang^3
#
#
#
# Elastic Constant Matrix: (Units=GPa)
#
#
# Indices 1 2 3 4 5 6 
#
# 1 160.6883 44.7257 57.9076 3.1133 9.1325 18.2043
# 2 44.7257 124.0895 47.8404 -11.3956 5.9352 17.1744
# 3 57.9076 47.8404 174.2785 1.8466 7.3143 4.1993
# 4 3.1133 -11.3956 1.8466 38.8965 0.3164 -4.0541
# 5 9.1325 5.9352 7.3143 0.3164 39.9731 3.8515
# 6 18.2043 17.1744 4.1993 -4.0541 3.8515 29.7973
#
#
#
# Elastic Compliance Matrix: (Units=1/GPa)
#
#
# Indices 1 2 3 4 5 6 
#
# 1 0.007906 -0.001643 -0.002038 -0.001394 -0.000824 -0.003679
# 2 -0.001643 0.010367 -0.002212 0.002836 -0.000374 -0.004225
# 3 -0.002038 -0.002212 0.007019 -0.000654 -0.000632 0.001524
# 4 -0.001394 0.002836 -0.000654 0.027004 -0.000490 0.003047
# 5 -0.000824 -0.000374 -0.000632 -0.000490 0.025628 -0.002571
# 6 -0.003679 -0.004225 0.001524 0.003047 -0.002571 0.038775
#
#
# Mechanical properties :
#
#
# Convention : Reuss Voigt Hill
#
# Bulk Modulus (GPa) = 74.04645 84.44487 79.24566
# Shear Modulus (GPa) = 37.59755 42.30555 39.95155
#
# Velocity S-wave (km/s) = 3.87080 4.10601 3.99014
# Velocity P-wave (km/s) = 7.03462 7.49209 7.26695
#
# Compressibility (1/GPa) = 0.01350504
#
# Stress axis : x y z
#
# Youngs Moduli (GPa) = 126.49356 96.45886 142.46933
#
# Poissons Ratio (x) = 0.15851 0.29031
# Poissons Ratio (y) = 0.20787 0.31519
# Poissons Ratio (z) = 0.25776 0.21340
#
# Static dielectric constant tensor:
#      x y z
#    x 2.141150 -0.388780 -0.037410 
#    y -0.388780 2.897760 -0.011680 
#    z -0.037410 -0.011680 2.151660 
# 
# From -- ./inp_files/534454.got.cif
#   From: 2010.05.17/outbox.cif.g08.bks.cpg/sg2_268_cif.got.tgz:534454.got - 2010.06.03 11:33:40.
