data_PCOD9035189
_publ_section_title
;
Structure prediction by ZEFSAII (Michael W. Deem and Ramdas Pophale) SiO2 
 PCOD9035189
Probable space group: P -1
;
_chemical_formula_sum "Si O2"
_cell_formula_units_Z 16
_cell_length_a 6.435523
_cell_length_b 16.980342
_cell_length_c 20.495243
_cell_angle_alpha 160.529153
_cell_angle_beta 79.579062
_cell_angle_gamma 98.313972
_cell_volume 731.926292
_symmetry_space_group_name_H-M "P -1"
_symmetry_group_IT_number 2
_symmetry_cell_setting 'triclinic'
loop_
_space_group_symop_operation_xyz
x,y,z
-x,-y,-z
loop_
_atom_site_type_symbol
_atom_site_label
_atom_site_fract_x
_atom_site_fract_y
_atom_site_fract_z
Si Si1 0.258687 0.647947 0.553042
Si Si2 0.303019 0.360496 0.543246
Si Si3 0.037121 0.732307 0.766866
Si Si4 0.857836 0.181121 0.602743
Si Si5 0.453382 0.515343 0.927750
Si Si6 0.979510 0.034258 0.787783
Si Si7 0.778593 0.486330 0.197478
Si Si8 0.273076 0.190213 0.783244
O O1 0.502729 0.642159 0.518619
O O2 0.194405 0.711777 0.680104
O O3 0.144104 0.846704 0.667278
O O4 0.168804 0.395335 0.344727
O O5 0.134784 0.569762 0.692573
O O6 0.358744 0.416077 0.657637
O O7 0.194961 0.117017 0.352562
O O8 0.000000 0.000000 0.000000
O O9 0.668417 0.336041 0.771625
O O10 0.025913 0.350284 0.695318
O O11 0.746014 0.035816 0.438779
O O12 0.000000 0.000000 0.500000
O O13 0.358488 0.522316 0.866905
O O14 0.285146 0.404998 0.898989
O O15 0.523223 0.761226 0.145611
O O16 0.087054 0.179060 0.837702
O O17 0.879025 0.218520 0.990050
#
# Coordination Sequence:
#
# PCOD9035189 Si02
#       8
#     2   2   2   2   2   2   2   2
#     4  10  24  43  68 102 135 170 221 266 328 399
#     4  11  25  42  70 100 134 180 217 270 333 397
#     4  10  22  45  72 100 136 171 214 268 326 396
#     4  12  25  43  65  92 129 175 227 286 336 399
#     4  11  27  42  65  97 128 180 234 280 339 403
#     4  11  25  42  64  98 134 177 221 282 331 397
#     4  12  26  42  65  97 135 175 228 275 341 397
#     4  11  24  45  66  92 135 174 231 284 340 388
#
# _framework density 21.860123000000002
#
# number of rings (size 3 to 8) (size 9 to 14) (size 15 to 20)
#    0.000    1.000    3.750    1.500    3.500    4.500 
#    0.000    0.000    0.000    0.000    0.000    0.000 
#    0.000    0.000    0.000    0.000    0.000    0.000 
#
# Total GULP energy -89459.381620 kJ/mol
# GULP energy per Si atom -5591.211351 kJ/mol
# Density = 2.181037 g / cm^3
# Si number density = 21.860123 Si / 1000 Ang^3
#
#
#
# Elastic Constant Matrix: (Units=GPa)
#
#
# Indices 1 2 3 4 5 6 
#
# 1 61.7125 28.5285 45.1306 6.2449 18.5415 4.2039
# 2 28.5285 76.2661 25.2464 -9.2296 22.7922 11.4086
# 3 45.1306 25.2464 141.8645 0.1681 29.7541 -4.0694
# 4 6.2449 -9.2296 0.1681 30.6824 -11.4527 5.5069
# 5 18.5415 22.7922 29.7541 -11.4527 31.8230 -3.6020
# 6 4.2039 11.4086 -4.0694 5.5069 -3.6020 34.4337
#
#
#
# Elastic Compliance Matrix: (Units=1/GPa)
#
#
# Indices 1 2 3 4 5 6 
#
# 1 0.027577 -0.006592 -0.005426 -0.011268 -0.010455 -0.001116
# 2 -0.006592 0.020220 0.000379 0.005055 -0.010050 -0.007710
# 3 -0.005426 0.000379 0.010252 -0.001747 -0.007180 0.001277
# 4 -0.011268 0.005055 -0.001747 0.044926 0.020115 -0.005586
# 5 -0.010455 -0.010050 -0.007180 0.020115 0.059431 0.006757
# 6 -0.001116 -0.007710 0.001277 -0.005586 0.006757 0.033483
#
#
# Mechanical properties :
#
#
# Convention : Reuss Voigt Hill
#
# Bulk Modulus (GPa) = 28.75793 53.07266 40.91529
# Shear Modulus (GPa) = 21.66789 31.45033 26.55911
#
# Velocity S-wave (km/s) = 3.15176 3.79715 3.48940
# Velocity P-wave (km/s) = 5.14089 6.59965 5.91541
#
# Compressibility (1/GPa) = 0.03477302
#
# Stress axis : x y z
#
# Youngs Moduli (GPa) = 36.26267 49.45478 97.54027
#
# Poissons Ratio (x) = 0.32599 0.52921
# Poissons Ratio (y) = 0.23903 -0.03698
# Poissons Ratio (z) = 0.19675 -0.01875
#
# Static dielectric constant tensor:
#      x y z
#    x 1.801770 -0.024480 -0.009760 
#    y -0.024480 1.782710 0.001030 
#    z -0.009760 0.001030 1.786610 
# 
# From -- ./inp_files/584077.got.cif
#   From: 2010.05.17/outbox.cif.g08.bks.cpg/sg2_293_cif.got.tgz:584077.got - 2010.06.03 11:33:40.
