data_PCOD9035267
_publ_section_title
;
Structure prediction by ZEFSAII (Michael W. Deem and Ramdas Pophale) SiO2 
 PCOD9035267
Probable space group: P -1
;
_chemical_formula_sum "Si O2"
_cell_formula_units_Z 14
_cell_length_a 10.523169
_cell_length_b 13.591531
_cell_length_c 8.143396
_cell_angle_alpha 127.787137
_cell_angle_beta 58.657730
_cell_angle_gamma 147.206281
_cell_volume 498.504889
_symmetry_space_group_name_H-M "P -1"
_symmetry_group_IT_number 2
_symmetry_cell_setting 'triclinic'
loop_
_space_group_symop_operation_xyz
x,y,z
-x,-y,-z
loop_
_atom_site_type_symbol
_atom_site_label
_atom_site_fract_x
_atom_site_fract_y
_atom_site_fract_z
Si Si1 0.622799 0.726135 0.145653
Si Si2 0.912476 0.549122 0.741628
Si Si3 0.832274 0.471594 0.289983
Si Si4 0.804287 0.103212 0.539921
Si Si5 0.558154 0.657006 0.743691
Si Si6 0.397649 0.896485 0.789725
Si Si7 0.955920 0.079450 0.740802
O O1 0.377531 0.323590 0.091078
O O2 0.793434 0.747570 0.159987
O O3 0.349697 0.573840 0.220510
O O4 0.741819 0.938414 0.315274
O O5 0.970731 0.507851 0.826516
O O6 0.137667 0.786994 0.832937
O O7 0.000000 0.500000 0.500000
O O8 0.681052 0.419867 0.188150
O O9 0.638406 0.276461 0.334587
O O10 0.979088 0.685396 0.470939
O O11 0.880522 0.133500 0.712226
O O12 0.565615 0.025686 0.656028
O O13 0.500000 0.500000 0.500000
O O14 0.757227 0.882568 0.780284
O O15 0.500000 0.000000 0.000000
O O16 0.000000 0.000000 0.500000
#
# Coordination Sequence:
#
# PCOD9035267 Si02
#       7
#     2   2   2   2   2   2   2
#     4  11  24  43  78 111 149 205 255 310 387 440
#     4  10  22  48  73 111 151 185 261 311 377 449
#     4  10  25  45  74 108 149 195 251 305 384 447
#     4  11  22  48  75 107 154 203 243 318 371 455
#     4  12  25  47  72 112 156 197 257 317 374 458
#     4  10  23  44  75 107 151 194 247 310 380 435
#     4  10  22  45  73 101 149 198 253 308 376 445
#
# _framework density 28.083977999999998
#
# number of rings (size 3 to 8) (size 9 to 14) (size 15 to 20)
#    0.857    0.571    2.857    2.143    4.000    2.857 
#    2.571    7.857    6.286    0.000    0.000    0.000 
#    0.000    0.000    0.000    0.000    0.000    0.000 
#
# Total GULP energy -78087.398767 kJ/mol
# GULP energy per Si atom -5577.671341 kJ/mol
# Density = 2.802006 g / cm^3
# Si number density = 28.083978 Si / 1000 Ang^3
#
#
#
# Elastic Constant Matrix: (Units=GPa)
#
#
# Indices 1 2 3 4 5 6 
#
# 1 178.6567 53.2237 55.4045 -3.2458 42.4982 31.8869
# 2 53.2237 161.7510 70.9772 26.5589 6.6542 26.2126
# 3 55.4045 70.9772 164.1123 11.8249 32.1704 1.1742
# 4 -3.2458 26.5589 11.8249 53.1051 3.0721 -2.6695
# 5 42.4982 6.6542 32.1704 3.0721 49.7642 2.5008
# 6 31.8869 26.2126 1.1742 -2.6695 2.5008 46.2197
#
#
#
# Elastic Compliance Matrix: (Units=1/GPa)
#
#
# Indices 1 2 3 4 5 6 
#
# 1 0.008851 -0.001716 -0.001063 0.001779 -0.006518 -0.004651
# 2 -0.001716 0.009876 -0.003960 -0.004588 0.003227 -0.004756
# 3 -0.001063 -0.003960 0.009014 0.000324 -0.004561 0.003016
# 4 0.001779 -0.004588 0.000324 0.021449 -0.002577 0.002745
# 5 -0.006518 0.003227 -0.004561 -0.002577 0.028282 0.001103
# 6 -0.004651 -0.004756 0.003016 0.002745 0.001103 0.027564
#
#
# Mechanical properties :
#
#
# Convention : Reuss Voigt Hill
#
# Bulk Modulus (GPa) = 70.11223 95.97008 83.04115
# Shear Modulus (GPa) = 40.56167 51.47878 46.02023
#
# Velocity S-wave (km/s) = 3.80452 4.28603 4.05243
# Velocity P-wave (km/s) = 6.65722 7.66421 7.17840
#
# Compressibility (1/GPa) = 0.01426285
#
# Stress axis : x y z
#
# Youngs Moduli (GPa) = 112.97852 101.25539 110.93667
#
# Poissons Ratio (x) = 0.17379 0.11793
# Poissons Ratio (y) = 0.19391 0.43929
# Poissons Ratio (z) = 0.12010 0.40096
#
# Static dielectric constant tensor:
#      x y z
#    x 2.200160 0.105880 0.078210 
#    y 0.105880 2.168440 0.017330 
#    z 0.078210 0.017330 2.314450 
# 
# From -- ./inp_files/433201.got.cif
#   From: 2010.05.17/outbox.cif.g08.bks.cpg/sg2_217_cif.got.tgz:433201.got - 2010.06.03 11:33:40.
