data_PCOD9035715
_publ_section_title
;
Structure prediction by ZEFSAII (Michael W. Deem and Ramdas Pophale) SiO2 
 PCOD9035715
Probable space group: P -1
;
_chemical_formula_sum "Si O2"
_cell_formula_units_Z 14
_cell_length_a 8.761487
_cell_length_b 19.857790
_cell_length_c 5.628949
_cell_angle_alpha 84.554857
_cell_angle_beta 106.686913
_cell_angle_gamma 39.745457
_cell_volume 513.991643
_symmetry_space_group_name_H-M "P -1"
_symmetry_group_IT_number 2
_symmetry_cell_setting 'triclinic'
loop_
_space_group_symop_operation_xyz
x,y,z
-x,-y,-z
loop_
_atom_site_type_symbol
_atom_site_label
_atom_site_fract_x
_atom_site_fract_y
_atom_site_fract_z
Si Si1 0.892300 0.070866 0.184012
Si Si2 0.250141 0.336283 0.730171
Si Si3 0.717227 0.563154 0.962536
Si Si4 0.860108 0.382749 0.855513
Si Si5 0.720745 0.957828 0.794936
Si Si6 0.777635 0.770969 0.539738
Si Si7 0.165944 0.727848 0.410416
O O1 0.027563 0.097964 0.228561
O O2 0.550788 0.200449 0.007606
O O3 0.000000 0.000000 0.500000
O O4 0.000000 0.000000 0.000000
O O5 0.241748 0.303156 0.483162
O O6 0.985645 0.391423 0.720459
O O7 0.274925 0.406386 0.781850
O O8 0.721682 0.480277 0.959867
O O9 0.420192 0.683798 0.645170
O O10 0.000000 0.500000 0.000000
O O11 0.700534 0.373918 0.684879
O O12 0.150173 0.247321 0.146535
O O13 0.500000 0.000000 0.500000
O O14 0.508951 0.093268 0.735673
O O15 0.896950 0.861729 0.121885
O O16 0.029958 0.725031 0.543572
#
# Coordination Sequence:
#
# PCOD9035715 Si02
#       7
#     2   2   2   2   2   2   2
#     4  12  28  46  75 111 156 207 255 315 393 466
#     4  10  24  42  68 103 146 197 248 314 376 461
#     4  10  24  45  72 102 146 198 258 316 379 457
#     4  10  22  46  71 102 148 193 257 316 379 447
#     4  12  26  45  72 110 148 199 246 317 385 474
#     4  11  23  43  70 105 147 192 246 313 386 462
#     4  11  25  43  73 104 146 194 252 309 391 453
#
# _framework density 27.237794000000001
#
# number of rings (size 3 to 8) (size 9 to 14) (size 15 to 20)
#    0.000    1.143    2.857    1.714    6.000    2.286 
#    0.000    2.857    0.000    0.000    0.000    0.000 
#    0.000    0.000    0.000    0.000    0.000    0.000 
#
# Total GULP energy -78156.288133 kJ/mol
# GULP energy per Si atom -5582.592009 kJ/mol
# Density = 2.717580 g / cm^3
# Si number density = 27.237794 Si / 1000 Ang^3
#
#
#
# Elastic Constant Matrix: (Units=GPa)
#
#
# Indices 1 2 3 4 5 6 
#
# 1 138.7520 28.2832 61.2489 3.0419 22.7729 -1.7681
# 2 28.2832 95.9565 32.8557 1.6997 16.8773 14.8626
# 3 61.2489 32.8557 168.9764 -7.1362 25.8598 10.2947
# 4 3.0419 1.6997 -7.1362 39.5457 10.8270 13.7056
# 5 22.7729 16.8773 25.8598 10.8270 67.5055 -1.6004
# 6 -1.7681 14.8626 10.2947 13.7056 -1.6004 38.2338
#
#
#
# Elastic Compliance Matrix: (Units=1/GPa)
#
#
# Indices 1 2 3 4 5 6 
#
# 1 0.009171 -0.001828 -0.003021 -0.001733 -0.001142 0.002521
# 2 -0.001828 0.012575 -0.000953 0.002078 -0.002628 -0.005571
# 3 -0.003021 -0.000953 0.007912 0.003488 -0.002410 -0.003251
# 4 -0.001733 0.002078 0.003488 0.032615 -0.006829 -0.013804
# 5 -0.001142 -0.002628 -0.002410 -0.006829 0.017989 0.004819
# 6 0.002521 -0.005571 -0.003251 -0.013804 0.004819 0.034462
#
#
# Mechanical properties :
#
#
# Convention : Reuss Voigt Hill
#
# Bulk Modulus (GPa) = 55.38848 72.05116 63.71982
# Shear Modulus (GPa) = 37.78004 47.81013 42.79508
#
# Velocity S-wave (km/s) = 3.72835 4.19416 3.96809
# Velocity P-wave (km/s) = 6.23806 7.06857 6.66626
#
# Compressibility (1/GPa) = 0.01805430
#
# Stress axis : x y z
#
# Youngs Moduli (GPa) = 109.04344 79.52459 126.38291
#
# Poissons Ratio (x) = 0.14535 0.38178
# Poissons Ratio (y) = 0.19931 0.12047
# Poissons Ratio (z) = 0.32940 0.07580
#
# Static dielectric constant tensor:
#      x y z
#    x 2.069740 0.086340 0.011810 
#    y 0.086340 2.433240 0.039830 
#    z 0.011810 0.039830 2.207310 
# 
# From -- ./inp_files/53140.got.cif
#   From: 2010.05.17/outbox.cif.g08.bks.cpg/sg2_27_cif.got.tgz:53140.got - 2010.06.03 11:33:40.
