data_PCOD9035950
_publ_section_title
;
Structure prediction by ZEFSAII (Michael W. Deem and Ramdas Pophale) SiO2 
 PCOD9035950
Probable space group: P -1
;
_chemical_formula_sum "Si O2"
_cell_formula_units_Z 13
_cell_length_a 9.250022
_cell_length_b 11.976289
_cell_length_c 16.842160
_cell_angle_alpha 158.593484
_cell_angle_beta 121.949919
_cell_angle_gamma 59.414830
_cell_volume 577.034055
_symmetry_space_group_name_H-M "P -1"
_symmetry_group_IT_number 2
_symmetry_cell_setting 'triclinic'
loop_
_space_group_symop_operation_xyz
x,y,z
-x,-y,-z
loop_
_atom_site_type_symbol
_atom_site_label
_atom_site_fract_x
_atom_site_fract_y
_atom_site_fract_z
Si Si1 0.121553 0.281393 0.223044
Si Si2 0.631339 0.629748 0.449643
Si Si3 0.000000 0.500000 0.500000
Si Si4 0.504110 0.860020 0.818513
Si Si5 0.982534 0.365380 0.729975
Si Si6 0.323504 0.662940 0.085231
Si Si7 0.333753 0.461641 0.133548
O O1 0.310929 0.148383 0.170543
O O2 0.102117 0.438634 0.406460
O O3 0.070121 0.520929 0.297349
O O4 0.000000 0.000000 0.000000
O O5 0.813463 0.456330 0.371835
O O6 0.544967 0.483845 0.405001
O O7 0.494735 0.591753 0.313715
O O8 0.673290 0.982749 0.702522
O O9 0.500000 0.000000 0.000000
O O10 0.376539 0.097628 0.892902
O O11 0.833958 0.488781 0.828504
O O12 0.160303 0.511201 0.899976
O O13 0.000000 0.000000 0.500000
O O14 0.310404 0.626257 0.151875
O O15 0.500000 0.500000 0.000000
#
# Coordination Sequence:
#
# PCOD9035950 Si02
#       7
#     2   2   1   2   2   2   2
#     4  12  26  50  77 112 155 198 262 325 388 460
#     4  11  25  49  73 111 151 198 250 322 379 458
#     4  12  30  40  80 116 150 198 262 316 394 456
#     4  10  22  46  78 106 148 199 252 314 388 448
#     4  12  28  51  75 107 155 206 253 323 387 463
#     4  12  29  45  75 112 149 202 258 307 392 465
#     4  11  25  50  76 106 152 203 255 315 389 459
#
# _framework density 22.528998999999999
#
# number of rings (size 3 to 8) (size 9 to 14) (size 15 to 20)
#    0.000    0.615    3.077    4.615   10.769    1.846 
#    0.000    0.000    0.000    0.000    0.000    0.000 
#    0.000    0.000    0.000    0.000    0.000    0.000 
#
# Total GULP energy -72554.421219 kJ/mol
# GULP energy per Si atom -5581.109325 kJ/mol
# Density = 2.247772 g / cm^3
# Si number density = 22.528999 Si / 1000 Ang^3
#
#
#
# Elastic Constant Matrix: (Units=GPa)
#
#
# Indices 1 2 3 4 5 6 
#
# 1 198.2714 74.7559 53.1719 -0.6535 -15.7423 0.4400
# 2 74.7559 103.0306 61.4823 10.1777 -4.1960 -1.8014
# 3 53.1719 61.4823 130.7282 15.4191 21.3261 13.6557
# 4 -0.6535 10.1777 15.4191 49.2352 9.0879 13.6631
# 5 -15.7423 -4.1960 21.3261 9.0879 27.0267 0.2845
# 6 0.4400 -1.8014 13.6557 13.6631 0.2845 44.3713
#
#
#
# Elastic Compliance Matrix: (Units=1/GPa)
#
#
# Indices 1 2 3 4 5 6 
#
# 1 0.007559 -0.004071 -0.002102 0.000580 0.005233 0.000195
# 2 -0.004071 0.018525 -0.008440 -0.004082 0.008489 0.004592
# 3 -0.002102 -0.008440 0.015333 0.001147 -0.014964 -0.005298
# 4 0.000580 -0.004082 0.001147 0.024795 -0.009453 -0.008099
# 5 0.005233 0.008489 -0.014964 -0.009453 0.056274 0.007448
# 6 0.000195 0.004592 -0.005298 -0.008099 0.007448 0.026798
#
#
# Mechanical properties :
#
#
# Convention : Reuss Voigt Hill
#
# Bulk Modulus (GPa) = 82.02661 90.09449 86.06055
# Shear Modulus (GPa) = 27.38597 40.30131 33.84364
#
# Velocity S-wave (km/s) = 3.49031 4.23408 3.88006
# Velocity P-wave (km/s) = 7.26164 7.99879 7.63911
#
# Compressibility (1/GPa) = 0.01219117
#
# Stress axis : x y z
#
# Youngs Moduli (GPa) = 132.28728 53.98068 65.21852
#
# Poissons Ratio (x) = 0.21976 0.13712
# Poissons Ratio (y) = 0.53854 0.55043
# Poissons Ratio (z) = 0.27813 0.45558
#
# Static dielectric constant tensor:
#      x y z
#    x 1.774860 -0.016980 0.004110 
#    y -0.016980 1.874480 -0.015340 
#    z 0.004110 -0.015340 1.903260 
# 
# From -- ./inp_files/560236.got.cif
#   From: 2010.05.17/outbox.cif.g08.bks.cpg/sg2_281_cif.got.tgz:560236.got - 2010.06.03 11:33:40.
