data_PCOD9035321
_publ_section_title
;
Structure prediction by ZEFSAII (Michael W. Deem and Ramdas Pophale) SiO2 
 PCOD9035321
Probable space group: P -1
;
_chemical_formula_sum "Si O2"
_cell_formula_units_Z 13
_cell_length_a 11.919228
_cell_length_b 7.250766
_cell_length_c 7.148168
_cell_angle_alpha 64.917837
_cell_angle_beta 98.387796
_cell_angle_gamma 114.817254
_cell_volume 507.457903
_symmetry_space_group_name_H-M "P -1"
_symmetry_group_IT_number 2
_symmetry_cell_setting 'triclinic'
loop_
_space_group_symop_operation_xyz
x,y,z
-x,-y,-z
loop_
_atom_site_type_symbol
_atom_site_label
_atom_site_fract_x
_atom_site_fract_y
_atom_site_fract_z
Si Si1 0.263139 0.193645 0.316647
Si Si2 0.704027 0.426243 0.310763
Si Si3 0.594880 0.726228 0.329902
Si Si4 0.609468 0.287881 0.972566
Si Si5 0.000000 0.000000 0.500000
Si Si6 0.036116 0.553506 0.769528
Si Si7 0.772876 0.210902 0.759843
O O1 0.603038 0.278487 0.198991
O O2 0.331374 0.135703 0.534277
O O3 0.339159 0.445742 0.165034
O O4 0.246050 0.028914 0.212867
O O5 0.684701 0.647441 0.263819
O O6 0.700237 0.302795 0.557287
O O7 0.869696 0.829003 0.632996
O O8 0.500000 0.500000 0.500000
O O9 0.514488 0.809431 0.139265
O O10 0.715307 0.217818 0.944169
O O11 0.839386 0.480224 0.235087
O O12 0.945295 0.197318 0.386410
O O13 0.916688 0.373567 0.714089
O O14 0.000000 0.500000 0.000000
#
# Coordination Sequence:
#
# PCOD9035321 Si02
#       7
#     2   2   2   2   1   2   2
#     4  11  24  42  69 106 139 192 239 299 373 435
#     4  12  22  44  76  95 142 193 234 309 363 419
#     4  10  22  45  73  99 142 194 243 300 365 437
#     4  11  24  49  68 104 142 192 250 297 365 443
#     4  12  22  42  74 102 150 188 242 296 380 430
#     4  12  25  47  72 111 152 190 249 303 370 452
#     4  12  24  44  71 103 144 186 232 310 358 434
#
# _framework density 25.617892000000001
#
# number of rings (size 3 to 8) (size 9 to 14) (size 15 to 20)
#    0.000    0.615    7.692    0.923    2.154    0.615 
#    8.308    2.308    0.000    0.000    0.000    0.000 
#    0.000    0.000    0.000    0.000    0.000    0.000 
#
# Total GULP energy -72667.462848 kJ/mol
# GULP energy per Si atom -5589.804834 kJ/mol
# Density = 2.555958 g / cm^3
# Si number density = 25.617892 Si / 1000 Ang^3
#
#
#
# Elastic Constant Matrix: (Units=GPa)
#
#
# Indices 1 2 3 4 5 6 
#
# 1 111.8815 29.4106 29.5684 -10.9034 20.5543 -14.0613
# 2 29.4106 94.0255 28.2676 10.1994 -0.1576 -2.2861
# 3 29.5684 28.2676 94.0910 9.4057 -0.5635 -1.2792
# 4 -10.9034 10.1994 9.4057 41.0185 -2.9536 -9.7697
# 5 20.5543 -0.1576 -0.5635 -2.9536 39.8711 2.3523
# 6 -14.0613 -2.2861 -1.2792 -9.7697 2.3523 30.8905
#
#
#
# Elastic Compliance Matrix: (Units=1/GPa)
#
#
# Indices 1 2 3 4 5 6 
#
# 1 0.014142 -0.003816 -0.003940 0.007184 -0.007349 0.008823
# 2 -0.003816 0.012911 -0.002288 -0.004121 0.001817 -0.002318
# 3 -0.003940 -0.002288 0.012924 -0.003969 0.002078 -0.002841
# 4 0.007184 -0.004121 -0.003969 0.031114 -0.002227 0.012811
# 5 -0.007349 0.001817 0.002078 -0.002227 0.029098 -0.006045
# 6 0.008823 -0.002318 -0.002841 0.012811 -0.006045 0.040612
#
#
# Mechanical properties :
#
#
# Convention : Reuss Voigt Hill
#
# Bulk Modulus (GPa) = 50.28049 52.72123 51.50086
# Shear Modulus (GPa) = 29.84763 36.53944 33.19353
#
# Velocity S-wave (km/s) = 3.41707 3.78077 3.60351
# Velocity P-wave (km/s) = 5.93618 6.29948 6.12053
#
# Compressibility (1/GPa) = 0.01988843
#
# Stress axis : x y z
#
# Youngs Moduli (GPa) = 70.71362 77.45534 77.37484
#
# Poissons Ratio (x) = 0.29557 0.30484
# Poissons Ratio (y) = 0.26984 0.17705
# Poissons Ratio (z) = 0.27859 0.17723
#
# Static dielectric constant tensor:
#      x y z
#    x 1.965800 -0.003220 0.000960 
#    y -0.003220 2.046520 0.015260 
#    z 0.000960 0.015260 2.053270 
# 
# From -- ./inp_files/442593.got.cif
#   From: 2010.05.17/outbox.cif.g08.bks.cpg/sg2_222_cif.got.tgz:442593.got - 2010.06.03 11:33:40.
