data_PCOD9035961
_publ_section_title
;
Structure prediction by ZEFSAII (Michael W. Deem and Ramdas Pophale) SiO2 
 PCOD9035961
Probable space group: P -1
;
_chemical_formula_sum "Si O2"
_cell_formula_units_Z 14
_cell_length_a 8.392696
_cell_length_b 8.496548
_cell_length_c 14.187404
_cell_angle_alpha 55.646500
_cell_angle_beta 107.374954
_cell_angle_gamma 65.292325
_cell_volume 532.272714
_symmetry_space_group_name_H-M "P -1"
_symmetry_group_IT_number 2
_symmetry_cell_setting 'triclinic'
loop_
_space_group_symop_operation_xyz
x,y,z
-x,-y,-z
loop_
_atom_site_type_symbol
_atom_site_label
_atom_site_fract_x
_atom_site_fract_y
_atom_site_fract_z
Si Si1 0.122894 0.693121 0.604728
Si Si2 0.378396 0.852957 0.951382
Si Si3 0.611568 0.198702 0.649227
Si Si4 0.872055 0.839016 0.006105
Si Si5 0.392536 0.510936 0.178560
Si Si6 0.289741 0.101316 0.652660
Si Si7 0.950351 0.358144 0.195993
O O1 0.018836 0.645567 0.685035
O O2 0.997252 0.706019 0.488127
O O3 0.000000 0.000000 0.500000
O O4 0.338286 0.456176 0.916247
O O5 0.697993 0.976370 0.022055
O O6 0.311585 0.039074 0.788601
O O7 0.269092 0.736951 0.994100
O O8 0.500000 0.500000 0.500000
O O9 0.739540 0.055542 0.822456
O O10 0.403266 0.207147 0.606248
O O11 0.834649 0.958583 0.696945
O O12 0.146805 0.678187 0.139010
O O13 0.939975 0.569967 0.073405
O O14 0.538445 0.204165 0.268281
O O15 0.590836 0.482069 0.275499
#
# Coordination Sequence:
#
# PCOD9035961 Si02
#       7
#     2   2   2   2   2   2   2
#     4   9  23  45  77 113 155 207 260 327 401 473
#     4  11  24  44  82 116 158 212 264 326 398 487
#     4  12  28  48  78 122 165 207 267 340 401 471
#     4  12  24  48  81 118 159 210 270 329 395 481
#     4  10  22  46  81 112 155 209 270 323 395 477
#     4  11  22  48  77 114 163 211 263 328 404 475
#     4  11  23  48  80 110 157 218 264 322 402 478
#
# _framework density 26.302308
#
# number of rings (size 3 to 8) (size 9 to 14) (size 15 to 20)
#    0.000    1.143    2.857    2.571    0.000    6.286 
#    5.143    1.429    0.000    0.000    0.000    0.000 
#    0.000    0.000    0.000    0.000    0.000    0.000 
#
# Total GULP energy -78177.962490 kJ/mol
# GULP energy per Si atom -5584.140178 kJ/mol
# Density = 2.624244 g / cm^3
# Si number density = 26.302308 Si / 1000 Ang^3
#
#
#
# Elastic Constant Matrix: (Units=GPa)
#
#
# Indices 1 2 3 4 5 6 
#
# 1 184.0056 75.7133 62.7287 -3.7282 17.3173 3.5128
# 2 75.7133 113.2132 61.8267 -23.9889 16.4051 -17.4789
# 3 62.7287 61.8267 144.5036 -32.0352 -15.2113 -1.7796
# 4 -3.7282 -23.9889 -32.0352 58.5593 9.3305 1.2029
# 5 17.3173 16.4051 -15.2113 9.3305 38.2575 -9.7274
# 6 3.5128 -17.4789 -1.7796 1.2029 -9.7274 50.6789
#
#
#
# Elastic Compliance Matrix: (Units=1/GPa)
#
#
# Indices 1 2 3 4 5 6 
#
# 1 0.008576 -0.004876 -0.002490 -0.002283 -0.002956 -0.002877
# 2 -0.004876 0.017804 -0.005056 0.005320 -0.007533 0.004729
# 3 -0.002490 -0.005056 0.011581 0.002952 0.007218 0.000151
# 4 -0.002283 0.005320 0.002952 0.021538 -0.005176 0.000592
# 5 -0.002956 -0.007533 0.007218 -0.005176 0.036087 0.004910
# 6 -0.002877 0.004729 0.000151 0.000592 0.004910 0.022496
#
#
# Mechanical properties :
#
#
# Convention : Reuss Voigt Hill
#
# Bulk Modulus (GPa) = 76.23416 93.58442 84.90929
# Shear Modulus (GPa) = 33.94485 45.59605 39.77045
#
# Velocity S-wave (km/s) = 3.59634 4.16809 3.89273
# Velocity P-wave (km/s) = 6.80380 7.66952 7.24959
#
# Compressibility (1/GPa) = 0.01311748
#
# Stress axis : x y z
#
# Youngs Moduli (GPa) = 116.59936 56.16843 86.35200
#
# Poissons Ratio (x) = 0.27385 0.21499
# Poissons Ratio (y) = 0.56848 0.43662
# Poissons Ratio (z) = 0.29030 0.28400
#
# Static dielectric constant tensor:
#      x y z
#    x 2.151820 0.033530 -0.024370 
#    y 0.033530 2.115620 0.040720 
#    z -0.024370 0.040720 2.178200 
# 
# From -- ./inp_files/588587.got.cif
#   From: 2010.05.17/outbox.cif.g08.bks.cpg/sg2_295_cif.got.tgz:588587.got - 2010.06.03 11:33:40.
