data_PCOD9035099
_publ_section_title
;
Structure prediction by ZEFSAII (Michael W. Deem and Ramdas Pophale) SiO2 
 PCOD9035099
Probable space group: P -1
;
_chemical_formula_sum "Si O2"
_cell_formula_units_Z 14
_cell_length_a 8.269605
_cell_length_b 8.815240
_cell_length_c 12.425772
_cell_angle_alpha 68.988602
_cell_angle_beta 116.586221
_cell_angle_gamma 72.209919
_cell_volume 627.400197
_symmetry_space_group_name_H-M "P -1"
_symmetry_group_IT_number 2
_symmetry_cell_setting 'triclinic'
loop_
_space_group_symop_operation_xyz
x,y,z
-x,-y,-z
loop_
_atom_site_type_symbol
_atom_site_label
_atom_site_fract_x
_atom_site_fract_y
_atom_site_fract_z
Si Si1 0.851134 0.323762 0.182680
Si Si2 0.022326 0.809520 0.099705
Si Si3 0.551890 0.545093 0.619203
Si Si4 0.323933 0.259228 0.072911
Si Si5 0.672618 0.806081 0.663403
Si Si6 0.218720 0.024494 0.789324
Si Si7 0.905694 0.216683 0.461272
O O1 0.787623 0.170044 0.177093
O O2 0.854120 0.347278 0.306899
O O3 0.102451 0.213867 0.252744
O O4 0.719981 0.534196 0.031957
O O5 0.281538 0.653394 0.219037
O O6 0.910297 0.863191 0.170436
O O7 0.895228 0.735203 0.013470
O O8 0.000000 0.000000 0.000000
O O9 0.500000 0.500000 0.500000
O O10 0.691215 0.640033 0.635494
O O11 0.322315 0.693554 0.569252
O O12 0.387977 0.221492 0.227524
O O13 0.523408 0.073741 0.116402
O O14 0.500000 0.000000 0.500000
O O15 0.088274 0.174080 0.613516
O O16 0.000000 0.000000 0.500000
#
# Coordination Sequence:
#
# PCOD9035099 Si02
#       7
#     2   2   2   2   2   2   2
#     4  11  23  42  72 103 138 183 244 295 346 420
#     4  12  28  46  70 103 149 189 233 298 361 417
#     4  12  26  48  73 104 143 188 242 291 355 427
#     4  12  26  46  70 105 141 185 245 294 352 425
#     4  12  25  45  73 102 140 186 243 294 355 428
#     4  11  23  45  69 102 145 187 233 291 360 425
#     4  10  22  45  71 102 137 188 238 286 349 424
#
# _framework density 22.314305999999998
#
# number of rings (size 3 to 8) (size 9 to 14) (size 15 to 20)
#    0.000    0.571    2.857    6.429    6.000    0.000 
#    0.000    1.429    0.000    0.000    0.000    0.000 
#    0.000    0.000    0.000    0.000    0.000    0.000 
#
# Total GULP energy -78276.527237 kJ/mol
# GULP energy per Si atom -5591.180517 kJ/mol
# Density = 2.226352 g / cm^3
# Si number density = 22.314306 Si / 1000 Ang^3
#
#
#
# Elastic Constant Matrix: (Units=GPa)
#
#
# Indices 1 2 3 4 5 6 
#
# 1 63.3307 8.2879 27.8408 -1.6694 7.9519 -18.6479
# 2 8.2879 68.6755 41.2463 4.5707 -3.5489 -6.8963
# 3 27.8408 41.2463 150.8978 -9.3512 -3.8715 -4.3298
# 4 -1.6694 4.5707 -9.3512 41.7594 -13.9551 -2.4655
# 5 7.9519 -3.5489 -3.8715 -13.9551 46.8394 -9.6187
# 6 -18.6479 -6.8963 -4.3298 -2.4655 -9.6187 42.1058
#
#
#
# Elastic Compliance Matrix: (Units=1/GPa)
#
#
# Indices 1 2 3 4 5 6 
#
# 1 0.019959 0.000512 -0.003664 -0.000301 -0.002089 0.008052
# 2 0.000512 0.018043 -0.005107 -0.002749 0.000579 0.002628
# 3 -0.003664 -0.005107 0.008890 0.002887 0.001624 -0.001005
# 4 -0.000301 -0.002749 0.002887 0.028154 0.009180 0.003459
# 5 -0.002089 0.000579 0.001624 0.009180 0.025802 0.005768
# 6 0.008052 0.002628 -0.001005 0.003459 0.005768 0.029163
#
#
# Mechanical properties :
#
#
# Convention : Reuss Voigt Hill
#
# Bulk Modulus (GPa) = 32.91988 48.62824 40.77406
# Shear Modulus (GPa) = 31.91777 39.84286 35.88031
#
# Velocity S-wave (km/s) = 3.78613 4.23014 4.01428
# Velocity P-wave (km/s) = 5.82219 6.76006 6.30858
#
# Compressibility (1/GPa) = 0.03037678
#
# Stress axis : x y z
#
# Youngs Moduli (GPa) = 50.10302 55.42253 112.47966
#
# Poissons Ratio (x) = -0.02840 0.41209
# Poissons Ratio (y) = -0.02567 0.57439
# Poissons Ratio (z) = 0.18356 0.28302
#
# Static dielectric constant tensor:
#      x y z
#    x 1.810610 -0.056500 0.030550 
#    y -0.056500 1.801050 0.039640 
#    z 0.030550 0.039640 1.779090 
# 
# From -- ./inp_files/156870.got.cif
#   From: 2010.05.17/outbox.cif.g08.bks.cpg/sg2_79_cif.got.tgz:156870.got - 2010.06.03 11:33:40.
