data_PCOD9035980
_publ_section_title
;
Structure prediction by ZEFSAII (Michael W. Deem and Ramdas Pophale) SiO2 
 PCOD9035980
Probable space group: P -1
;
_chemical_formula_sum "Si O2"
_cell_formula_units_Z 16
_cell_length_a 8.850770
_cell_length_b 16.814546
_cell_length_c 6.725443
_cell_angle_alpha 106.584227
_cell_angle_beta 126.844207
_cell_angle_gamma 64.602909
_cell_volume 723.020799
_symmetry_space_group_name_H-M "P -1"
_symmetry_group_IT_number 2
_symmetry_cell_setting 'triclinic'
loop_
_space_group_symop_operation_xyz
x,y,z
-x,-y,-z
loop_
_atom_site_type_symbol
_atom_site_label
_atom_site_fract_x
_atom_site_fract_y
_atom_site_fract_z
Si Si1 0.483687 0.595738 0.466889
Si Si2 0.884157 0.374630 0.026416
Si Si3 0.686173 0.848835 0.194519
Si Si4 0.032024 0.081613 0.783421
Si Si5 0.761381 0.658181 0.985539
Si Si6 0.772475 0.543154 0.283531
Si Si7 0.970246 0.801902 0.748910
Si Si8 0.775650 0.117438 0.237885
O O1 0.500000 0.500000 0.500000
O O2 0.259432 0.648842 0.260691
O O3 0.563733 0.651390 0.723420
O O4 0.627036 0.578281 0.376263
O O5 0.740612 0.461902 0.083179
O O6 0.054098 0.395291 0.047192
O O7 0.982353 0.296696 0.202191
O O8 0.787703 0.912070 0.212168
O O9 0.771802 0.833865 0.476630
O O10 0.770851 0.755053 0.082298
O O11 0.448494 0.875129 0.994500
O O12 0.830642 0.117469 0.515621
O O13 0.079540 0.978752 0.789544
O O14 0.036358 0.136861 0.021924
O O15 0.766392 0.618367 0.177406
O O16 0.000000 0.500000 0.500000
O O17 0.150445 0.810053 0.759976
#
# Coordination Sequence:
#
# PCOD9035980 Si02
#       8
#     2   2   2   2   2   2   2   2
#     4  12  27  44  69  98 125 181 227 268 339 396
#     4  12  25  45  66  94 137 174 222 280 328 391
#     4  11  25  41  68 100 135 175 223 273 333 396
#     4  10  22  47  66 100 135 174 221 272 335 398
#     4  12  26  44  64  97 133 174 224 276 329 392
#     4  12  24  44  68  92 133 172 218 275 329 393
#     4  11  25  42  66 101 134 175 221 275 333 393
#     4  10  24  42  72  98 134 175 219 275 333 400
#
# _framework density 22.129379
#
# number of rings (size 3 to 8) (size 9 to 14) (size 15 to 20)
#    0.000    0.750    3.750    3.000    3.500    1.500 
#    0.000    0.000    0.000    0.000    0.000    0.000 
#    0.000    0.000    0.000    0.000    0.000    0.000 
#
# Total GULP energy -89502.058912 kJ/mol
# GULP energy per Si atom -5593.878682 kJ/mol
# Density = 2.207901 g / cm^3
# Si number density = 22.129379 Si / 1000 Ang^3
#
#
#
# Elastic Constant Matrix: (Units=GPa)
#
#
# Indices 1 2 3 4 5 6 
#
# 1 86.2411 14.4322 38.5166 -29.7084 6.4802 14.7940
# 2 14.4322 49.1108 6.9875 -0.6876 -12.4386 12.7065
# 3 38.5166 6.9875 139.6545 -13.9375 29.3954 -6.4634
# 4 -29.7084 -0.6876 -13.9375 42.6866 -3.3314 0.5438
# 5 6.4802 -12.4386 29.3954 -3.3314 46.2342 -6.7994
# 6 14.7940 12.7065 -6.4634 0.5438 -6.7994 30.5983
#
#
#
# Elastic Compliance Matrix: (Units=1/GPa)
#
#
# Indices 1 2 3 4 5 6 
#
# 1 0.020177 -0.002911 -0.004325 0.012600 -0.001424 -0.010000
# 2 -0.002911 0.025589 -0.002639 -0.001775 0.007660 -0.008043
# 3 -0.004325 -0.002639 0.009859 -0.000338 -0.005811 0.003984
# 4 0.012600 -0.001775 -0.000338 0.032087 -0.000619 -0.006134
# 5 -0.001424 0.007660 -0.005811 -0.000619 0.027906 0.002493
# 6 -0.010000 -0.008043 0.003984 -0.006134 0.002493 0.042361
#
#
# Mechanical properties :
#
#
# Convention : Reuss Voigt Hill
#
# Bulk Modulus (GPa) = 27.87417 43.87543 35.87480
# Shear Modulus (GPa) = 26.35928 38.24183 32.30056
#
# Velocity S-wave (km/s) = 3.45504 4.16156 3.82465
# Velocity P-wave (km/s) = 5.34226 6.55448 5.97917
#
# Compressibility (1/GPa) = 0.03587551
#
# Stress axis : x y z
#
# Youngs Moduli (GPa) = 49.56160 39.07912 101.42927
#
# Poissons Ratio (x) = 0.11376 0.43865
# Poissons Ratio (y) = 0.14427 0.26768
# Poissons Ratio (z) = 0.21434 0.10313
#
# Static dielectric constant tensor:
#      x y z
#    x 1.794770 -0.004490 0.030800 
#    y -0.004490 1.951930 0.044700 
#    z 0.030800 0.044700 1.899560 
# 
# From -- ./inp_files/48750.got.cif
#   From: 2010.05.17/outbox.cif.g08.bks.cpg/sg2_25_cif.got.tgz:48750.got - 2010.06.03 11:33:40.
