data_PCOD9035904
_publ_section_title
;
Structure prediction by ZEFSAII (Michael W. Deem and Ramdas Pophale) SiO2 
 PCOD9035904
Probable space group: P -1
;
_chemical_formula_sum "Si O2"
_cell_formula_units_Z 10
_cell_length_a 15.937022
_cell_length_b 11.111043
_cell_length_c 5.186919
_cell_angle_alpha 101.905478
_cell_angle_beta 106.808874
_cell_angle_gamma 24.143052
_cell_volume 355.713031
_symmetry_space_group_name_H-M "P -1"
_symmetry_group_IT_number 2
_symmetry_cell_setting 'triclinic'
loop_
_space_group_symop_operation_xyz
x,y,z
-x,-y,-z
loop_
_atom_site_type_symbol
_atom_site_label
_atom_site_fract_x
_atom_site_fract_y
_atom_site_fract_z
Si Si1 0.360496 0.993481 0.703932
Si Si2 0.463279 0.653234 0.315973
Si Si3 0.056478 0.281865 0.926212
Si Si4 0.130936 0.800150 0.774460
Si Si5 0.722051 0.640599 0.170536
O O1 0.510992 0.718962 0.544796
O O2 0.278403 0.228341 0.626448
O O3 0.490258 0.881659 0.013051
O O4 0.175974 0.137761 0.695782
O O5 0.500000 0.500000 0.500000
O O6 0.642599 0.420123 0.148246
O O7 0.237153 0.982691 0.132607
O O8 0.840846 0.500224 0.938327
O O9 0.000000 0.500000 0.000000
O O10 0.159623 0.618422 0.700319
O O11 0.000000 0.000000 0.500000
O O12 0.000000 0.000000 0.000000
#
# Coordination Sequence:
#
# PCOD9035904 Si02
#       5
#     2   2   2   2   2
#     4  10  23  47  74 107 149 198 262 314 392 461
#     4  12  27  47  75 112 155 205 256 327 389 474
#     4  10  23  45  71 110 147 197 251 319 390 463
#     4  12  27  48  74 114 155 207 262 321 398 469
#     4  10  22  46  75 107 149 200 254 323 382 467
#
# _framework density 28.112552000000001
#
# number of rings (size 3 to 8) (size 9 to 14) (size 15 to 20)
#    0.000    1.200    2.000    2.400    2.800    4.800 
#   10.800    0.000    0.000    0.000    0.000    0.000 
#    0.000    0.000    0.000    0.000    0.000    0.000 
#
# Total GULP energy -55941.649862 kJ/mol
# GULP energy per Si atom -5594.164986 kJ/mol
# Density = 2.804857 g / cm^3
# Si number density = 28.112552 Si / 1000 Ang^3
#
#
#
# Elastic Constant Matrix: (Units=GPa)
#
#
# Indices 1 2 3 4 5 6 
#
# 1 176.4894 86.0665 36.9956 6.0795 -22.5201 26.1984
# 2 86.0665 195.2015 61.4733 -0.3233 -19.8038 19.3845
# 3 36.9956 61.4733 89.1827 16.0880 -22.7043 12.0242
# 4 6.0795 -0.3233 16.0880 51.3534 -11.0664 -10.3012
# 5 -22.5201 -19.8038 -22.7043 -11.0664 42.4273 -3.9318
# 6 26.1984 19.3845 12.0242 -10.3012 -3.9318 85.2692
#
#
#
# Elastic Compliance Matrix: (Units=1/GPa)
#
#
# Indices 1 2 3 4 5 6 
#
# 1 0.007701 -0.002923 -0.000260 -0.000694 0.002251 -0.001645
# 2 -0.002923 0.007846 -0.004474 0.001834 0.000192 -0.000024
# 3 -0.000260 -0.004474 0.016800 -0.004392 0.005475 -0.001550
# 4 -0.000694 0.001834 -0.004392 0.022545 0.004327 0.003339
# 5 0.002251 0.000192 0.005475 0.004327 0.028945 0.000350
# 6 -0.001645 -0.000024 -0.001550 0.003339 0.000350 0.012877
#
#
# Mechanical properties :
#
#
# Convention : Reuss Voigt Hill
#
# Bulk Modulus (GPa) = 58.71060 92.21604 75.46332
# Shear Modulus (GPa) = 42.47932 54.23252 48.35592
#
# Velocity S-wave (km/s) = 3.89143 4.39694 4.15189
# Velocity P-wave (km/s) = 6.41252 7.65840 7.06299
#
# Compressibility (1/GPa) = 0.01703270
#
# Stress axis : x y z
#
# Youngs Moduli (GPa) = 129.84712 127.45866 59.52551
#
# Poissons Ratio (x) = 0.37259 0.01547
# Poissons Ratio (y) = 0.37957 0.26631
# Poissons Ratio (z) = 0.03374 0.57024
#
# Static dielectric constant tensor:
#      x y z
#    x 2.239510 -0.055560 0.023600 
#    y -0.055560 2.271090 -0.043820 
#    z 0.023600 -0.043820 2.220360 
# 
# From -- ./inp_files/29227.got.cif
#   From: 2010.05.17/outbox.cif.g08.bks.cpg/sg2_15_cif.got.tgz:29227.got - 2010.06.03 11:33:40.
