data_PCOD9035895
_publ_section_title
;
Structure prediction by ZEFSAII (Michael W. Deem and Ramdas Pophale) SiO2 
 PCOD9035895
Probable space group: P -1
;
_chemical_formula_sum "Si O2"
_cell_formula_units_Z 14
_cell_length_a 14.561714
_cell_length_b 22.793021
_cell_length_c 5.959728
_cell_angle_alpha 82.549439
_cell_angle_beta 85.899866
_cell_angle_gamma 159.165514
_cell_volume 584.262572
_symmetry_space_group_name_H-M "P -1"
_symmetry_group_IT_number 2
_symmetry_cell_setting 'triclinic'
loop_
_space_group_symop_operation_xyz
x,y,z
-x,-y,-z
loop_
_atom_site_type_symbol
_atom_site_label
_atom_site_fract_x
_atom_site_fract_y
_atom_site_fract_z
Si Si1 0.292133 0.142295 0.958110
Si Si2 0.628560 0.713770 0.796304
Si Si3 0.829159 0.526468 0.386471
Si Si4 0.899433 0.078824 0.646684
Si Si5 0.692517 0.575919 0.768420
Si Si6 0.843140 0.225326 0.388217
Si Si7 0.803543 0.319876 0.097013
O O1 0.584740 0.335477 0.657331
O O2 0.348998 0.205336 0.163085
O O3 0.191104 0.012732 0.069025
O O4 0.000000 0.000000 0.000000
O O5 0.380017 0.566324 0.711510
O O6 0.920946 0.857865 0.577188
O O7 0.525860 0.616194 0.092682
O O8 0.021737 0.689931 0.426424
O O9 0.086100 0.642161 0.172790
O O10 0.147269 0.284547 0.515836
O O11 0.562910 0.893715 0.713585
O O12 0.977463 0.720196 0.775004
O O13 0.500000 0.500000 0.000000
O O14 0.900575 0.327225 0.246370
O O15 0.500000 0.000000 0.500000
O O16 0.000000 0.500000 0.000000
#
# Coordination Sequence:
#
# PCOD9035895 Si02
#       7
#     2   2   2   2   2   2   2
#     4  12  25  43  76 108 141 191 248 310 373 427
#     4  11  23  48  74 103 143 190 249 309 365 433
#     4  12  25  47  78 103 150 199 246 300 378 429
#     4  11  24  44  71 107 145 188 245 306 362 438
#     4  10  22  46  75 101 145 190 241 308 362 430
#     4  12  25  50  73 106 150 198 245 302 371 441
#     4  12  27  46  73 109 155 192 247 304 366 450
#
# _framework density 23.961829999999999
#
# number of rings (size 3 to 8) (size 9 to 14) (size 15 to 20)
#    0.000    0.571    5.714    2.143    2.000    2.857 
#    0.000    9.286    0.000    0.000    0.000    0.000 
#    0.000    0.000    0.000    0.000    0.000    0.000 
#
# Total GULP energy -78036.940408 kJ/mol
# GULP energy per Si atom -5574.067172 kJ/mol
# Density = 2.390729 g / cm^3
# Si number density = 23.961830 Si / 1000 Ang^3
#
#
#
# Elastic Constant Matrix: (Units=GPa)
#
#
# Indices 1 2 3 4 5 6 
#
# 1 134.1505 36.2112 39.8575 -15.1821 4.8291 7.3172
# 2 36.2112 129.7789 51.7041 -14.0642 -3.6335 10.1496
# 3 39.8575 51.7041 102.9335 -23.3804 -0.6954 -9.2901
# 4 -15.1821 -14.0642 -23.3804 33.1486 6.1177 3.3230
# 5 4.8291 -3.6335 -0.6954 6.1177 58.7930 -28.3249
# 6 7.3172 10.1496 -9.2901 3.3230 -28.3249 46.8383
#
#
#
# Elastic Compliance Matrix: (Units=1/GPa)
#
#
# Indices 1 2 3 4 5 6 
#
# 1 0.009163 -0.000924 -0.002822 0.002734 -0.002941 -0.003763
# 2 -0.000924 0.010328 -0.004944 0.001128 -0.001385 -0.003992
# 3 -0.002822 -0.004944 0.015251 0.006474 0.001972 0.005270
# 4 0.002734 0.001128 0.006474 0.038439 -0.007192 -0.006464
# 5 -0.002941 -0.001385 0.001972 -0.007192 0.026440 0.017650
# 6 -0.003763 -0.003992 0.005270 -0.006464 0.017650 0.034981
#
#
# Mechanical properties :
#
#
# Convention : Reuss Voigt Hill
#
# Bulk Modulus (GPa) = 57.59793 69.15649 63.37721
# Shear Modulus (GPa) = 31.69187 43.69533 37.69360
#
# Velocity S-wave (km/s) = 3.64070 4.27492 3.97050
# Velocity P-wave (km/s) = 6.46239 7.30003 6.89394
#
# Compressibility (1/GPa) = 0.01736173
#
# Stress axis : x y z
#
# Youngs Moduli (GPa) = 109.13695 96.82014 65.57068
#
# Poissons Ratio (x) = 0.08945 0.18507
# Poissons Ratio (y) = 0.10083 0.32416
# Poissons Ratio (z) = 0.30803 0.47865
#
# Static dielectric constant tensor:
#      x y z
#    x 1.982330 -0.065660 0.002270 
#    y -0.065660 1.941590 -0.059820 
#    z 0.002270 -0.059820 1.998560 
# 
# From -- ./inp_files/101082.got.cif
#   From: 2010.05.17/outbox.cif.g08.bks.cpg/sg2_51_cif.got.tgz:101082.got - 2010.06.03 11:33:40.
