data_PCOD9035639
_publ_section_title
;
Structure prediction by ZEFSAII (Michael W. Deem and Ramdas Pophale) SiO2 
 PCOD9035639
Probable space group: P -1
;
_chemical_formula_sum "Si O2"
_cell_formula_units_Z 16
_cell_length_a 7.393030
_cell_length_b 21.986207
_cell_length_c 5.186359
_cell_angle_alpha 96.695022
_cell_angle_beta 137.178353
_cell_angle_gamma 78.233994
_cell_volume 560.283627
_symmetry_space_group_name_H-M "P -1"
_symmetry_group_IT_number 2
_symmetry_cell_setting 'triclinic'
loop_
_space_group_symop_operation_xyz
x,y,z
-x,-y,-z
loop_
_atom_site_type_symbol
_atom_site_label
_atom_site_fract_x
_atom_site_fract_y
_atom_site_fract_z
Si Si1 0.636858 0.422075 0.380941
Si Si2 0.817410 0.017674 0.062502
Si Si3 0.505007 0.256282 0.118586
Si Si4 0.954879 0.657734 0.562660
Si Si5 0.353922 0.104221 0.125567
Si Si6 0.273982 0.446294 0.505705
Si Si7 0.774055 0.776904 0.672451
Si Si8 0.178304 0.858405 0.669080
O O1 0.841187 0.362071 0.466583
O O2 0.475877 0.418010 0.474237
O O3 0.799304 0.480448 0.596371
O O4 0.426118 0.441845 0.937718
O O5 0.726226 0.092142 0.006168
O O6 0.610383 0.968820 0.823859
O O7 0.000000 0.000000 0.500000
O O8 0.000000 0.000000 0.000000
O O9 0.400891 0.213570 0.766032
O O10 0.343697 0.320342 0.863862
O O11 0.806277 0.217352 0.391857
O O12 0.388044 0.249674 0.276409
O O13 0.003199 0.717201 0.809210
O O14 0.947162 0.597526 0.701548
O O15 0.138450 0.115901 0.673942
O O16 0.633337 0.125874 0.362724
O O17 0.811322 0.845089 0.825225
#
# Coordination Sequence:
#
# PCOD9035639 Si02
#       8
#     2   2   2   2   2   2   2   2
#     4  10  23  41  66 101 132 173 229 284 342 408
#     4  10  23  42  70 100 130 178 230 288 352 414
#     4   9  22  41  63  96 132 175 232 271 343 417
#     4  10  23  44  68  91 142 178 234 268 366 391
#     4  10  22  46  70 100 139 179 233 289 352 414
#     4  10  23  41  66 101 132 173 229 284 342 408
#     4   9  22  41  63  96 132 175 232 271 343 417
#     4  10  22  46  70 100 139 179 233 289 352 414
#
# _framework density 28.556963
#
# number of rings (size 3 to 8) (size 9 to 14) (size 15 to 20)
#    0.750    1.500    0.000    0.750    3.500    8.000 
#    9.000    9.375    0.000    0.000    0.000    0.000 
#    0.000    0.000    0.000    0.000    0.000    0.000 
#
# Total GULP energy -89335.012510 kJ/mol
# GULP energy per Si atom -5583.438282 kJ/mol
# Density = 2.849197 g / cm^3
# Si number density = 28.556963 Si / 1000 Ang^3
#
#
#
# Elastic Constant Matrix: (Units=GPa)
#
#
# Indices 1 2 3 4 5 6 
#
# 1 136.2194 47.3194 30.1904 10.6309 -20.2801 -9.6881
# 2 47.3194 94.8600 5.9590 7.7231 -2.6076 -14.0512
# 3 30.1904 5.9590 61.7080 3.4448 -9.7921 11.4129
# 4 10.6309 7.7231 3.4448 40.6036 -8.7835 -10.2977
# 5 -20.2801 -2.6076 -9.7921 -8.7835 46.2224 -3.8748
# 6 -9.6881 -14.0512 11.4129 -10.2977 -3.8748 62.0332
#
#
#
# Elastic Compliance Matrix: (Units=1/GPa)
#
#
# Indices 1 2 3 4 5 6 
#
# 1 0.010608 -0.004652 -0.004456 -0.000353 0.003513 0.001584
# 2 -0.004652 0.013168 0.000519 -0.001118 -0.001242 0.001898
# 3 -0.004456 0.000519 0.019452 -0.001324 0.001585 -0.004278
# 4 -0.000353 -0.001118 -0.001324 0.027366 0.005104 0.004797
# 5 0.003513 -0.001242 0.001585 0.005104 0.024609 0.002360
# 6 0.001584 0.001898 -0.004278 0.004797 0.002360 0.018528
#
#
# Mechanical properties :
#
#
# Convention : Reuss Voigt Hill
#
# Bulk Modulus (GPa) = 38.38924 51.08055 44.73490
# Shear Modulus (GPa) = 35.81816 43.72642 39.77229
#
# Velocity S-wave (km/s) = 3.54541 3.91730 3.73599
# Velocity P-wave (km/s) = 5.49838 6.19568 5.85741
#
# Compressibility (1/GPa) = 0.02604897
#
# Stress axis : x y z
#
# Youngs Moduli (GPa) = 94.26912 75.94345 51.40815
#
# Poissons Ratio (x) = 0.35327 0.22909
# Poissons Ratio (y) = 0.43852 -0.02667
# Poissons Ratio (z) = 0.42010 -0.03939
#
# Static dielectric constant tensor:
#      x y z
#    x 2.194140 -0.096430 0.130550 
#    y -0.096430 2.563770 -0.210540 
#    z 0.130550 -0.210540 2.654230 
# 
# From -- ./inp_files/13376.got.cif
#   From: 2010.05.17/outbox.cif.g08.bks.cpg/sg2_7_cif.got.tgz:13376.got - 2010.06.03 11:33:40.
