data_PCOD9035569
_publ_section_title
;
Structure prediction by ZEFSAII (Michael W. Deem and Ramdas Pophale) SiO2 
 PCOD9035569
Probable space group: P -1
;
_chemical_formula_sum "Si O2"
_cell_formula_units_Z 12
_cell_length_a 9.950198
_cell_length_b 9.700419
_cell_length_c 12.582344
_cell_angle_alpha 131.323899
_cell_angle_beta 36.290088
_cell_angle_gamma 123.651426
_cell_volume 539.160776
_symmetry_space_group_name_H-M "P -1"
_symmetry_group_IT_number 2
_symmetry_cell_setting 'triclinic'
loop_
_space_group_symop_operation_xyz
x,y,z
-x,-y,-z
loop_
_atom_site_type_symbol
_atom_site_label
_atom_site_fract_x
_atom_site_fract_y
_atom_site_fract_z
Si Si1 0.993020 0.097265 0.833859
Si Si2 0.589844 0.263367 0.093348
Si Si3 0.936508 0.309927 0.383590
Si Si4 0.603718 0.694018 0.995611
Si Si5 0.547071 0.088067 0.237122
Si Si6 0.568883 0.676190 0.373943
O O1 0.229462 0.208995 0.755645
O O2 0.030184 0.884415 0.678889
O O3 0.843059 0.189871 0.885275
O O4 0.819437 0.109086 0.050616
O O5 0.458229 0.284749 0.079074
O O6 0.462390 0.128386 0.191654
O O7 0.617606 0.462567 0.231929
O O8 0.677391 0.307812 0.512640
O O9 0.000000 0.500000 0.500000
O O10 0.124685 0.307200 0.168808
O O11 0.500000 0.500000 0.000000
O O12 0.507968 0.880370 0.198156
O O13 0.451744 0.232915 0.451291
#
# Coordination Sequence:
#
# PCOD9035569 Si02
#       6
#     2   2   2   2   2   2
#     4   9  24  42  68  99 140 174 223 280 341 381
#     4  10  22  46  68  95 145 172 223 283 334 396
#     4  11  24  42  66  99 136 181 219 278 339 395
#     4  11  24  44  68 100 138 181 225 276 341 401
#     4   9  24  42  69 103 130 181 224 277 339 390
#     4  12  22  42  73 101 134 175 231 275 334 409
#
# _framework density 22.256813000000001
#
# number of rings (size 3 to 8) (size 9 to 14) (size 15 to 20)
#    1.000    0.667    1.667    2.000    2.333    5.333 
#    3.000    0.833    0.000    0.000    0.000    0.000 
#    0.000    0.000    0.000    0.000    0.000    0.000 
#
# Total GULP energy -66947.384128 kJ/mol
# GULP energy per Si atom -5578.948677 kJ/mol
# Density = 2.220616 g / cm^3
# Si number density = 22.256813 Si / 1000 Ang^3
#
#
#
# Elastic Constant Matrix: (Units=GPa)
#
#
# Indices 1 2 3 4 5 6 
#
# 1 75.2190 33.7698 24.8231 3.1312 -22.2283 -1.7296
# 2 33.7698 144.3603 45.3210 11.2076 -27.6741 -3.8012
# 3 24.8231 45.3210 73.6455 14.8744 -16.7090 -3.7891
# 4 3.1312 11.2076 14.8744 42.1709 2.5527 -7.7480
# 5 -22.2283 -27.6741 -16.7090 2.5527 36.5794 1.3355
# 6 -1.7296 -3.8012 -3.7891 -7.7480 1.3355 29.4412
#
#
#
# Elastic Compliance Matrix: (Units=1/GPa)
#
#
# Indices 1 2 3 4 5 6 
#
# 1 0.017372 -0.001555 -0.003018 -0.000300 0.008022 -0.000011
# 2 -0.001555 0.009526 -0.004065 -0.001238 0.004488 0.000086
# 3 -0.003018 -0.004065 0.019226 -0.005722 0.004269 0.000073
# 4 -0.000300 -0.001238 -0.005722 0.027659 -0.005905 0.006633
# 5 0.008022 0.004488 0.004269 -0.005905 0.038032 -0.001679
# 6 -0.000011 0.000086 0.000073 0.006633 -0.001679 0.035807
#
#
# Mechanical properties :
#
#
# Convention : Reuss Voigt Hill
#
# Bulk Modulus (GPa) = 34.66703 55.67251 45.16977
# Shear Modulus (GPa) = 28.65110 34.25903 31.45506
#
# Velocity S-wave (km/s) = 3.59178 3.92760 3.76344
# Velocity P-wave (km/s) = 5.72808 6.75544 6.26287
#
# Compressibility (1/GPa) = 0.02884586
#
# Stress axis : x y z
#
# Youngs Moduli (GPa) = 57.56480 104.97640 52.01420
#
# Poissons Ratio (x) = 0.16327 0.15699
# Poissons Ratio (y) = 0.08953 0.21145
# Poissons Ratio (z) = 0.17374 0.42675
#
# Static dielectric constant tensor:
#      x y z
#    x 1.859690 0.000960 0.010690 
#    y 0.000960 1.840540 0.002580 
#    z 0.010690 0.002580 1.843320 
# 
# From -- ./inp_files/519194.got.cif
#   From: 2010.05.17/outbox.cif.g08.bks.cpg/sg2_260_cif.got.tgz:519194.got - 2010.06.03 11:33:40.
