data_PCOD9035610
_publ_section_title
;
Structure prediction by ZEFSAII (Michael W. Deem and Ramdas Pophale) SiO2 
 PCOD9035610
Probable space group: P -1
;
_chemical_formula_sum "Si O2"
_cell_formula_units_Z 14
_cell_length_a 8.975999
_cell_length_b 14.319143
_cell_length_c 9.645819
_cell_angle_alpha 78.318217
_cell_angle_beta 61.379767
_cell_angle_gamma 34.755401
_cell_volume 573.398395
_symmetry_space_group_name_H-M "P -1"
_symmetry_group_IT_number 2
_symmetry_cell_setting 'triclinic'
loop_
_space_group_symop_operation_xyz
x,y,z
-x,-y,-z
loop_
_atom_site_type_symbol
_atom_site_label
_atom_site_fract_x
_atom_site_fract_y
_atom_site_fract_z
Si Si1 0.737113 0.175087 0.966334
Si Si2 0.526351 0.222938 0.758978
Si Si3 0.778923 0.826391 0.017828
Si Si4 0.923258 0.807442 0.255248
Si Si5 0.782903 0.653107 0.666385
Si Si6 0.250342 0.552555 0.674829
Si Si7 0.462964 0.880268 0.492361
O O1 0.749080 0.123323 0.823207
O O2 0.777901 0.269060 0.888568
O O3 0.393492 0.321884 0.142270
O O4 0.000000 0.000000 0.000000
O O5 0.396856 0.388068 0.727768
O O6 0.651164 0.123371 0.587080
O O7 0.273929 0.261271 0.904817
O O8 0.092096 0.687219 0.829283
O O9 0.760561 0.890966 0.151015
O O10 0.500000 0.000000 0.000000
O O11 0.824304 0.744991 0.344031
O O12 0.776250 0.921337 0.426944
O O13 0.492450 0.821267 0.647226
O O14 0.000000 0.500000 0.500000
O O15 0.987032 0.637379 0.658361
O O16 0.500000 0.500000 0.500000
#
# Coordination Sequence:
#
# PCOD9035610 Si02
#       7
#     2   2   2   2   2   2   2
#     4  12  25  45  71 108 144 192 250 300 374 441
#     4  11  25  48  74 107 153 198 243 310 377 446
#     4  11  23  47  75 105 149 195 247 304 372 443
#     4  10  23  40  70 103 141 183 241 303 361 438
#     4  12  25  46  72 100 151 188 243 305 371 433
#     4  12  28  48  74 112 151 199 253 307 378 445
#     4  10  22  46  69 106 144 190 240 301 374 429
#
# _framework density 24.415834
#
# number of rings (size 3 to 8) (size 9 to 14) (size 15 to 20)
#    0.000    0.857    4.286    2.143    4.000    0.571 
#    2.571    1.429    0.000    0.000    0.000    0.000 
#    0.000    0.000    0.000    0.000    0.000    0.000 
#
# Total GULP energy -78038.125321 kJ/mol
# GULP energy per Si atom -5574.151809 kJ/mol
# Density = 2.436026 g / cm^3
# Si number density = 24.415834 Si / 1000 Ang^3
#
#
#
# Elastic Constant Matrix: (Units=GPa)
#
#
# Indices 1 2 3 4 5 6 
#
# 1 121.2701 29.4406 74.2896 -6.1187 9.8023 -15.9509
# 2 29.4406 71.7121 52.8065 -6.7679 17.8730 3.2583
# 3 74.2896 52.8065 181.7809 -7.0288 -10.5640 0.2481
# 4 -6.1187 -6.7679 -7.0288 30.5678 -1.7740 8.5012
# 5 9.8023 17.8730 -10.5640 -1.7740 80.4210 -11.0304
# 6 -15.9509 3.2583 0.2481 8.5012 -11.0304 26.5133
#
#
#
# Elastic Compliance Matrix: (Units=1/GPa)
#
#
# Indices 1 2 3 4 5 6 
#
# 1 0.012656 -0.002103 -0.004657 -0.001284 -0.000608 0.008075
# 2 -0.002103 0.021171 -0.005449 0.004863 -0.006145 -0.007932
# 3 -0.004657 -0.005449 0.009172 0.000465 0.002831 -0.001190
# 4 -0.001284 0.004863 0.000465 0.037480 -0.001987 -0.014218
# 5 -0.000608 -0.006145 0.002831 -0.001987 0.015207 0.007327
# 6 0.008075 -0.007932 -0.001190 -0.014218 0.007327 0.051168
#
#
# Mechanical properties :
#
#
# Convention : Reuss Voigt Hill
#
# Bulk Modulus (GPa) = 53.82014 76.42630 65.12322
# Shear Modulus (GPa) = 28.17433 42.04884 35.11158
#
# Velocity S-wave (km/s) = 3.40065 4.15444 3.79630
# Velocity P-wave (km/s) = 6.12456 7.37444 6.77837
#
# Compressibility (1/GPa) = 0.01858040
#
# Stress axis : x y z
#
# Youngs Moduli (GPa) = 79.01304 47.23341 109.03292
#
# Poissons Ratio (x) = 0.09933 0.50781
# Poissons Ratio (y) = 0.16616 0.59413
# Poissons Ratio (z) = 0.36799 0.25738
#
# Static dielectric constant tensor:
#      x y z
#    x 2.048030 0.043260 -0.045100 
#    y 0.043260 2.229250 0.030830 
#    z -0.045100 0.030830 1.953370 
# 
# From -- ./inp_files/206753.got.cif
#   From: 2010.05.17/outbox.cif.g08.bks.cpg/sg2_104_cif.got.tgz:206753.got - 2010.06.03 11:33:40.
