data_PCOD9035763
_publ_section_title
;
Structure prediction by ZEFSAII (Michael W. Deem and Ramdas Pophale) SiO2 
 PCOD9035763
Probable space group: P -1
;
_chemical_formula_sum "Si O2"
_cell_formula_units_Z 12
_cell_length_a 5.373223
_cell_length_b 19.069225
_cell_length_c 18.074252
_cell_angle_alpha 159.835393
_cell_angle_beta 62.043025
_cell_angle_gamma 119.619388
_cell_volume 554.905446
_symmetry_space_group_name_H-M "P -1"
_symmetry_group_IT_number 2
_symmetry_cell_setting 'triclinic'
loop_
_space_group_symop_operation_xyz
x,y,z
-x,-y,-z
loop_
_atom_site_type_symbol
_atom_site_label
_atom_site_fract_x
_atom_site_fract_y
_atom_site_fract_z
Si Si1 0.614230 0.414469 0.325034
Si Si2 0.688945 0.658631 0.415710
Si Si3 0.703215 0.343980 0.895842
Si Si4 0.721673 0.336711 0.721818
Si Si5 0.511419 0.010924 0.708903
Si Si6 0.789739 0.712047 0.873098
O O1 0.500000 0.500000 0.500000
O O2 0.727738 0.607711 0.445701
O O3 0.361940 0.278568 0.176681
O O4 0.878234 0.298173 0.187350
O O5 0.386759 0.509344 0.292741
O O6 0.942089 0.587220 0.263673
O O7 0.680322 0.891408 0.624850
O O8 0.660880 0.246492 0.723286
O O9 0.702744 0.181974 0.800905
O O10 0.000000 0.500000 0.000000
O O11 0.454529 0.477444 0.075966
O O12 0.628712 0.162170 0.500941
O O13 0.289123 0.116904 0.891384
#
# Coordination Sequence:
#
# PCOD9035763 Si02
#       6
#     2   2   2   2   2   2
#     4  10  22  46  72 100 135 178 219 273 336 401
#     4  10  24  40  68  95 133 176 220 280 334 397
#     4  11  25  43  61  92 134 179 231 275 334 391
#     4  11  24  41  64  91 133 179 224 283 328 398
#     4  12  23  40  65  99 131 175 228 273 339 389
#     4  10  24  43  71  99 136 178 219 274 334 399
#
# _framework density 21.625305000000001
#
# number of rings (size 3 to 8) (size 9 to 14) (size 15 to 20)
#    1.000    0.333    0.000    6.000    2.333    5.333 
#    0.000    1.667    0.000    0.000    0.000    0.000 
#    0.000    0.000    0.000    0.000    0.000    0.000 
#
# Total GULP energy -67029.344785 kJ/mol
# GULP energy per Si atom -5585.778732 kJ/mol
# Density = 2.157609 g / cm^3
# Si number density = 21.625305 Si / 1000 Ang^3
#
#
#
# Elastic Constant Matrix: (Units=GPa)
#
#
# Indices 1 2 3 4 5 6 
#
# 1 113.9702 41.7448 38.5335 -17.3263 -23.9702 -4.8407
# 2 41.7448 101.5908 65.3603 -47.3754 -18.1988 -8.3655
# 3 38.5335 65.3603 84.0765 -27.9354 -8.0234 -6.1544
# 4 -17.3263 -47.3754 -27.9354 41.3480 -0.9446 2.3116
# 5 -23.9702 -18.1988 -8.0234 -0.9446 37.2546 -11.0381
# 6 -4.8407 -8.3655 -6.1544 2.3116 -11.0381 21.5538
#
#
#
# Elastic Compliance Matrix: (Units=1/GPa)
#
#
# Indices 1 2 3 4 5 6 
#
# 1 0.012758 0.002795 -0.004681 0.005208 0.010972 0.007674
# 2 0.002795 0.049817 -0.020897 0.043436 0.030063 0.024734
# 3 -0.004681 -0.020897 0.026305 -0.008034 -0.009422 -0.005614
# 4 0.005208 0.043436 -0.008034 0.070063 0.031890 0.024551
# 5 0.010972 0.030063 -0.009422 0.031890 0.058642 0.038054
# 6 0.007674 0.024734 -0.005614 0.024551 0.038054 0.072970
#
#
# Mechanical properties :
#
#
# Convention : Reuss Voigt Hill
#
# Bulk Modulus (GPa) = 23.08684 65.65718 44.37201
# Shear Modulus (GPa) = 14.26287 30.29787 22.28037
#
# Velocity S-wave (km/s) = 2.57095 3.74710 3.21330
# Velocity P-wave (km/s) = 4.41724 7.01058 5.85919
#
# Compressibility (1/GPa) = 0.04331473
#
# Stress axis : x y z
#
# Youngs Moduli (GPa) = 78.37967 20.07336 38.01565
#
# Poissons Ratio (x) = -0.05611 0.17796
# Poissons Ratio (y) = -0.21908 0.79441
# Poissons Ratio (z) = 0.36690 0.41947
#
# Static dielectric constant tensor:
#      x y z
#    x 1.850250 -0.045340 0.043330 
#    y -0.045340 1.778430 0.010470 
#    z 0.043330 0.010470 1.770180 
# 
# From -- ./inp_files/102432.got.cif
#   From: 2010.05.17/outbox.cif.g08.bks.cpg/sg2_52_cif.got.tgz:102432.got - 2010.06.03 11:33:40.
