data_PCOD9035453
_publ_section_title
;
Structure prediction by ZEFSAII (Michael W. Deem and Ramdas Pophale) SiO2 
 PCOD9035453
Probable space group: P -1
;
_chemical_formula_sum "Si O2"
_cell_formula_units_Z 13
_cell_length_a 18.300096
_cell_length_b 7.709491
_cell_length_c 5.138554
_cell_angle_alpha 117.343876
_cell_angle_beta 70.450275
_cell_angle_gamma 131.311435
_cell_volume 483.167827
_symmetry_space_group_name_H-M "P -1"
_symmetry_group_IT_number 2
_symmetry_cell_setting 'triclinic'
loop_
_space_group_symop_operation_xyz
x,y,z
-x,-y,-z
loop_
_atom_site_type_symbol
_atom_site_label
_atom_site_fract_x
_atom_site_fract_y
_atom_site_fract_z
Si Si1 0.317883 0.948263 0.541101
Si Si2 0.173822 0.489236 0.694508
Si Si3 0.354121 0.600802 0.768357
Si Si4 0.389742 0.405651 0.084037
Si Si5 0.500000 0.000000 0.500000
Si Si6 0.986215 0.810018 0.674206
Si Si7 0.862716 0.269083 0.717087
O O1 0.256383 0.667733 0.513285
O O2 0.250026 0.912223 0.359039
O O3 0.321159 0.134141 0.865227
O O4 0.428568 0.046746 0.455084
O O5 0.239833 0.484460 0.828512
O O6 0.085226 0.236941 0.508295
O O7 0.134358 0.641162 0.934219
O O8 0.386109 0.577822 0.998386
O O9 0.419722 0.871084 0.748999
O O10 0.367190 0.452678 0.429055
O O11 0.500000 0.500000 0.000000
O O12 0.922348 0.535066 0.687557
O O13 0.082842 0.847177 0.489127
O O14 0.000000 0.000000 0.000000
#
# Coordination Sequence:
#
# PCOD9035453 Si02
#       7
#     2   2   2   2   1   2   2
#     4  10  24  41  68  96 142 188 242 299 362 427
#     4  10  24  44  69 101 138 193 239 300 371 448
#     4  11  27  43  73 103 148 189 255 295 371 438
#     4  12  26  46  67 108 146 194 250 312 359 433
#     4  10  22  46  64 104 138 202 232 306 356 440
#     4  10  23  44  70 102 140 182 239 309 373 448
#     4  10  23  43  68 100 140 186 244 297 375 446
#
# _framework density 26.905763
#
# number of rings (size 3 to 8) (size 9 to 14) (size 15 to 20)
#    0.000    1.538    1.538    0.923   10.769    1.231 
#    0.000    0.000    0.000    0.000    0.000    0.000 
#    0.000    0.000    0.000    0.000    0.000    0.000 
#
# Total GULP energy -72520.140601 kJ/mol
# GULP energy per Si atom -5578.472354 kJ/mol
# Density = 2.684452 g / cm^3
# Si number density = 26.905763 Si / 1000 Ang^3
#
#
#
# Elastic Constant Matrix: (Units=GPa)
#
#
# Indices 1 2 3 4 5 6 
#
# 1 156.9075 38.3272 43.3119 2.6812 -21.3736 21.8829
# 2 38.3272 90.3789 21.0506 18.7919 2.2667 2.7170
# 3 43.3119 21.0506 161.5805 21.4606 -35.5741 11.1460
# 4 2.6812 18.7919 21.4606 47.5173 -4.4558 4.0517
# 5 -21.3736 2.2667 -35.5741 -4.4558 36.6871 -2.5797
# 6 21.8829 2.7170 11.1460 4.0517 -2.5797 42.7465
#
#
#
# Elastic Compliance Matrix: (Units=1/GPa)
#
#
# Indices 1 2 3 4 5 6 
#
# 1 0.008688 -0.003938 -0.000855 0.002206 0.004469 -0.003914
# 2 -0.003938 0.014239 -0.001285 -0.005436 -0.004963 0.001662
# 3 -0.000855 -0.001285 0.008671 -0.002558 0.007606 -0.001040
# 4 0.002206 -0.005436 -0.002558 0.024609 0.001966 -0.002331
# 5 0.004469 -0.004963 0.007606 0.001966 0.037650 -0.001869
# 6 -0.003914 0.001662 -0.001040 -0.002331 -0.001869 0.025671
#
#
# Mechanical properties :
#
#
# Convention : Reuss Voigt Hill
#
# Bulk Modulus (GPa) = 51.43499 68.24959 59.84229
# Shear Modulus (GPa) = 36.18877 45.80198 40.99537
#
# Velocity S-wave (km/s) = 3.67143 4.13038 3.90765
# Velocity P-wave (km/s) = 6.09350 6.94032 6.53065
#
# Compressibility (1/GPa) = 0.01944202
#
# Stress axis : x y z
#
# Youngs Moduli (GPa) = 115.10102 70.23148 115.32070
#
# Poissons Ratio (x) = 0.27660 0.09860
# Poissons Ratio (y) = 0.45331 0.14816
# Poissons Ratio (z) = 0.09841 0.09023
#
# Static dielectric constant tensor:
#      x y z
#    x 2.140780 -0.127380 0.082400 
#    y -0.127380 2.295080 0.002180 
#    z 0.082400 0.002180 2.176240 
# 
# From -- ./inp_files/104222.got.cif
#   From: 2010.05.17/outbox.cif.g08.bks.cpg/sg2_53_cif.got.tgz:104222.got - 2010.06.03 11:33:40.
