data_PCOD9035062
_publ_section_title
;
Structure prediction by ZEFSAII (Michael W. Deem and Ramdas Pophale) SiO2 
 PCOD9035062
Probable space group: P -1
;
_chemical_formula_sum "Si O2"
_cell_formula_units_Z 14
_cell_length_a 8.557615
_cell_length_b 8.131601
_cell_length_c 9.594680
_cell_angle_alpha 92.719312
_cell_angle_beta 111.704116
_cell_angle_gamma 104.539025
_cell_volume 593.117991
_symmetry_space_group_name_H-M "P -1"
_symmetry_group_IT_number 2
_symmetry_cell_setting 'triclinic'
loop_
_space_group_symop_operation_xyz
x,y,z
-x,-y,-z
loop_
_atom_site_type_symbol
_atom_site_label
_atom_site_fract_x
_atom_site_fract_y
_atom_site_fract_z
Si Si1 0.573048 0.674482 0.875616
Si Si2 0.147030 0.654304 0.976826
Si Si3 0.558818 0.144601 0.714847
Si Si4 0.344106 0.186262 0.387276
Si Si5 0.248762 0.386683 0.817265
Si Si6 0.963935 0.803184 0.520319
Si Si7 0.289819 0.874293 0.797481
O O1 0.620780 0.698099 0.732472
O O2 0.449084 0.479537 0.842507
O O3 0.454951 0.800867 0.872919
O O4 0.731642 0.715282 0.039847
O O5 0.293192 0.720961 0.145147
O O6 0.183016 0.541659 0.857441
O O7 0.175137 0.835586 0.902539
O O8 0.000000 0.500000 0.000000
O O9 0.484026 0.221382 0.560665
O O10 0.645690 0.999921 0.675195
O O11 0.393654 0.054703 0.760992
O O12 0.170013 0.213418 0.397507
O O13 0.128425 0.300766 0.647733
O O14 0.148878 0.780144 0.629044
O O15 0.000000 0.000000 0.500000
#
# Coordination Sequence:
#
# PCOD9035062 Si02
#       7
#     2   2   2   2   2   2   2
#     4   9  22  45  70  94 132 183 224 269 335 408
#     4  11  26  41  70 102 139 175 224 283 333 396
#     4  10  22  45  70  96 134 179 229 269 334 404
#     4  10  23  40  72  99 128 176 229 277 321 402
#     4  10  25  44  66  97 138 176 221 276 341 400
#     4  12  26  41  68 101 138 169 224 284 334 389
#     4  10  23  44  69  98 134 183 220 274 341 395
#
# _framework density 23.604071999999999
#
# number of rings (size 3 to 8) (size 9 to 14) (size 15 to 20)
#    0.000    1.714    1.429    0.429   10.000    6.286 
#    0.000    1.429    0.000    0.000    0.000    0.000 
#    0.000    0.000    0.000    0.000    0.000    0.000 
#
# Total GULP energy -77997.609177 kJ/mol
# GULP energy per Si atom -5571.257798 kJ/mol
# Density = 2.355035 g / cm^3
# Si number density = 23.604072 Si / 1000 Ang^3
#
#
#
# Elastic Constant Matrix: (Units=GPa)
#
#
# Indices 1 2 3 4 5 6 
#
# 1 30.4727 29.4651 62.8990 16.5087 2.6422 22.2893
# 2 29.4651 61.9658 68.0645 0.2702 -7.7803 26.3744
# 3 62.8990 68.0645 163.1156 -1.2244 1.0179 38.0198
# 4 16.5087 0.2702 -1.2244 52.1087 5.2045 -3.1587
# 5 2.6422 -7.7803 1.0179 5.2045 44.3049 -11.3846
# 6 22.2893 26.3744 38.0198 -3.1587 -11.3846 45.9841
#
#
#
# Elastic Compliance Matrix: (Units=1/GPa)
#
#
# Indices 1 2 3 4 5 6 
#
# 1 -0.633063 0.019408 0.200622 0.209478 0.052340 0.157198
# 2 0.019408 0.032841 -0.018214 -0.007798 0.002583 -0.013081
# 3 0.200622 -0.018214 -0.051478 -0.065930 -0.020041 -0.053727
# 4 0.209478 -0.007798 -0.065930 -0.049811 -0.019554 -0.050817
# 5 0.052340 0.002583 -0.020041 -0.019554 0.021010 -0.006423
# 6 0.157198 -0.013081 -0.053727 -0.050817 -0.006423 -0.007606
#
#
# Mechanical properties :
#
#
# Convention : Reuss Voigt Hill
#
# Bulk Modulus (GPa) = -4.03118 64.04570 30.00726
# Shear Modulus (GPa) = -4.25739 34.82124 15.28192
#
# Velocity S-wave (km/s) = -1.34446 3.84503 2.54722
# Velocity P-wave (km/s) = 2.03018 6.84869 4.62509
#
# Compressibility (1/GPa) = -0.24806645
#
# Stress axis : x y z
#
# Youngs Moduli (GPa) = -1.57962 30.44936 -19.42581
#
# Poissons Ratio (x) = -0.59097 3.89725
# Poissons Ratio (y) = 0.03066 -0.35382
# Poissons Ratio (z) = 0.31691 0.55459
#
# Static dielectric constant tensor:
#      x y z
#    x 1.934910 -0.015220 0.021520 
#    y -0.015220 2.015650 -0.005290 
#    z 0.021520 -0.005290 1.809910 
# 
# From -- ./inp_files/158881.got.cif
#   From: 2010.05.17/outbox.cif.g08.bks.cpg/sg2_80_cif.got.tgz:158881.got - 2010.06.03 11:33:40.
