data_PCOD9035812
_publ_section_title
;
Structure prediction by ZEFSAII (Michael W. Deem and Ramdas Pophale) SiO2 
 PCOD9035812
Probable space group: P -1
;
_chemical_formula_sum "Si O2"
_cell_formula_units_Z 14
_cell_length_a 8.317543
_cell_length_b 12.282108
_cell_length_c 20.476036
_cell_angle_alpha 151.040001
_cell_angle_beta 136.567005
_cell_angle_gamma 62.132372
_cell_volume 601.214525
_symmetry_space_group_name_H-M "P -1"
_symmetry_group_IT_number 2
_symmetry_cell_setting 'triclinic'
loop_
_space_group_symop_operation_xyz
x,y,z
-x,-y,-z
loop_
_atom_site_type_symbol
_atom_site_label
_atom_site_fract_x
_atom_site_fract_y
_atom_site_fract_z
Si Si1 0.194075 0.806027 0.700325
Si Si2 0.990490 0.176761 0.890859
Si Si3 0.241750 0.048793 0.020007
Si Si4 0.742985 0.595524 0.672551
Si Si5 0.398173 0.155648 0.822147
Si Si6 0.058537 0.408004 0.845011
Si Si7 0.354978 0.910870 0.549150
O O1 0.000000 0.500000 0.500000
O O2 0.072031 0.991158 0.778278
O O3 0.454582 0.886692 0.864365
O O4 0.306507 0.909629 0.713940
O O5 0.678171 0.060330 0.717855
O O6 0.072360 0.479767 0.083704
O O7 0.095415 0.139460 0.973006
O O8 0.263040 0.198089 0.171908
O O9 0.035834 0.742019 0.802798
O O10 0.500000 0.500000 0.500000
O O11 0.711792 0.361303 0.582530
O O12 0.255027 0.316815 0.886968
O O13 0.296944 0.059300 0.667806
O O14 0.722877 0.353584 0.012939
O O15 0.823678 0.168422 0.609883
#
# Coordination Sequence:
#
# PCOD9035812 Si02
#       7
#     2   2   2   2   2   2   2
#     4  12  27  44  63  97 142 178 216 265 331 402
#     4  11  24  41  64  95 133 176 215 264 328 398
#     4  11  23  39  60  95 133 175 215 266 329 389
#     4  11  20  34  65  97 127 165 218 274 328 382
#     4  10  24  44  69  99 128 170 223 278 327 385
#     4  10  22  46  72  96 125 169 229 278 326 381
#     4  11  20  39  68  98 126 165 224 277 326 380
#
# _framework density 23.286197000000001
#
# number of rings (size 3 to 8) (size 9 to 14) (size 15 to 20)
#    0.000    1.143    2.857    3.429    6.000    0.571 
#    2.571    0.714    0.000    0.000    0.000    0.000 
#    0.000    0.000    0.000    0.000    0.000    0.000 
#
# Total GULP energy -78020.769829 kJ/mol
# GULP energy per Si atom -5572.912131 kJ/mol
# Density = 2.323320 g / cm^3
# Si number density = 23.286197 Si / 1000 Ang^3
#
#
#
# Elastic Constant Matrix: (Units=GPa)
#
#
# Indices 1 2 3 4 5 6 
#
# 1 72.0390 30.8506 37.3898 2.0200 -10.6741 -14.1947
# 2 30.8506 69.1187 23.3416 3.7766 9.8185 2.4716
# 3 37.3898 23.3416 131.1522 -12.0723 6.4714 8.5036
# 4 2.0200 3.7766 -12.0723 36.1729 -4.4638 -3.2742
# 5 -10.6741 9.8185 6.4714 -4.4638 36.9891 4.3401
# 6 -14.1947 2.4716 8.5036 -3.2742 4.3401 38.4292
#
#
#
# Elastic Compliance Matrix: (Units=1/GPa)
#
#
# Indices 1 2 3 4 5 6 
#
# 1 0.025551 -0.011005 -0.006527 -0.000257 0.010183 0.010418
# 2 -0.011005 0.020984 -0.000158 -0.003107 -0.008544 -0.004679
# 3 -0.006527 -0.000158 0.010198 0.003072 -0.002776 -0.004082
# 4 -0.000257 -0.003107 0.003072 0.029593 0.003604 0.001540
# 5 0.010183 -0.008544 -0.002776 0.003604 0.032985 0.001507
# 6 0.010418 -0.004679 -0.004082 0.001540 0.001507 0.031035
#
#
# Mechanical properties :
#
#
# Convention : Reuss Voigt Hill
#
# Bulk Modulus (GPa) = 46.83380 50.60821 48.72101
# Shear Modulus (GPa) = 25.92747 34.36677 30.14712
#
# Velocity S-wave (km/s) = 3.34042 3.84584 3.60201
# Velocity P-wave (km/s) = 5.91894 6.44212 6.18606
#
# Compressibility (1/GPa) = 0.02135210
#
# Stress axis : x y z
#
# Youngs Moduli (GPa) = 39.13748 47.65489 98.05694
#
# Poissons Ratio (x) = 0.52445 0.64003
# Poissons Ratio (y) = 0.43072 0.01551
# Poissons Ratio (z) = 0.25546 0.00754
#
# Static dielectric constant tensor:
#      x y z
#    x 2.045800 0.067680 0.048600 
#    y 0.067680 1.820780 -0.041070 
#    z 0.048600 -0.041070 1.799700 
# 
# From -- ./inp_files/589762.got.cif
#   From: 2010.05.17/outbox.cif.g08.bks.cpg/sg2_295_cif.got.tgz:589762.got - 2010.06.03 11:33:40.
