data_PCOD9035418
_publ_section_title
;
Structure prediction by ZEFSAII (Michael W. Deem and Ramdas Pophale) SiO2 
 PCOD9035418
Probable space group: P -1
;
_chemical_formula_sum "Si O2"
_cell_formula_units_Z 14
_cell_length_a 13.432153
_cell_length_b 15.016406
_cell_length_c 5.051362
_cell_angle_alpha 109.319684
_cell_angle_beta 60.230128
_cell_angle_gamma 143.391381
_cell_volume 522.879401
_symmetry_space_group_name_H-M "P -1"
_symmetry_group_IT_number 2
_symmetry_cell_setting 'triclinic'
loop_
_space_group_symop_operation_xyz
x,y,z
-x,-y,-z
loop_
_atom_site_type_symbol
_atom_site_label
_atom_site_fract_x
_atom_site_fract_y
_atom_site_fract_z
Si Si1 0.163229 0.882967 0.887311
Si Si2 0.582010 0.386243 0.588912
Si Si3 0.979524 0.554298 0.327282
Si Si4 0.787742 0.679127 0.346799
Si Si5 0.927309 0.855278 0.844802
Si Si6 0.556433 0.803331 0.934647
Si Si7 0.356295 0.867039 0.271690
O O1 0.966136 0.725690 0.105678
O O2 0.254201 0.021588 0.085808
O O3 0.311173 0.900640 0.623787
O O4 0.096110 0.893093 0.719843
O O5 0.469825 0.297360 0.918140
O O6 0.785175 0.480905 0.498201
O O7 0.627062 0.515071 0.520507
O O8 0.489696 0.262646 0.361291
O O9 0.155682 0.734307 0.275730
O O10 0.000000 0.500000 0.500000
O O11 0.000000 0.500000 0.000000
O O12 0.857112 0.799585 0.587323
O O13 0.772094 0.718825 0.122319
O O14 0.000000 0.000000 0.000000
O O15 0.414524 0.797031 0.182289
O O16 0.500000 0.000000 0.000000
#
# Coordination Sequence:
#
# PCOD9035418 Si02
#       7
#     2   2   2   2   2   2   2
#     4  10  27  41  68  98 135 172 231 280 328 388
#     4  12  24  43  63  93 137 179 226 268 324 395
#     4  12  25  42  60  87 124 179 234 270 314 379
#     4  10  24  42  72 102 127 170 221 282 328 396
#     4  10  22  45  77 104 127 162 222 288 348 397
#     4  12  26  41  61  94 140 188 218 264 330 389
#     4  12  26  43  63  95 139 182 231 273 321 382
#
# _framework density 26.774815
#
# number of rings (size 3 to 8) (size 9 to 14) (size 15 to 20)
#    0.857    0.000    2.857    3.429   10.000    0.000 
#    0.000    0.000    0.000    5.143    0.000    0.000 
#    0.000    0.000    0.000    0.000    0.000    0.000 
#
# Total GULP energy -78438.395861 kJ/mol
# GULP energy per Si atom -5602.742561 kJ/mol
# Density = 2.671387 g / cm^3
# Si number density = 26.774815 Si / 1000 Ang^3
#
#
#
# Elastic Constant Matrix: (Units=GPa)
#
#
# Indices 1 2 3 4 5 6 
#
# 1 88.5335 9.5728 38.2139 -16.5735 -10.9451 -0.9628
# 2 9.5728 121.0829 32.9633 -14.1895 -8.3138 16.5634
# 3 38.2139 32.9633 136.1772 -9.5392 15.1125 10.1495
# 4 -16.5735 -14.1895 -9.5392 57.2329 1.3882 1.9042
# 5 -10.9451 -8.3138 15.1125 1.3882 49.2808 -0.9092
# 6 -0.9628 16.5634 10.1495 1.9042 -0.9092 46.7671
#
#
#
# Elastic Compliance Matrix: (Units=1/GPa)
#
#
# Indices 1 2 3 4 5 6 
#
# 1 0.014417 0.000687 -0.004560 0.003440 0.004638 0.000993
# 2 0.000687 0.009696 -0.002433 0.002237 0.002417 -0.002936
# 3 -0.004560 -0.002433 0.009804 -0.000134 -0.004452 -0.001441
# 4 0.003440 0.002237 -0.000134 0.019034 0.000619 -0.001455
# 5 0.004638 0.002417 -0.004452 0.000619 0.023089 0.000629
# 6 0.000993 -0.002936 -0.001441 -0.001455 0.000629 0.022827
#
#
# Mechanical properties :
#
#
# Convention : Reuss Voigt Hill
#
# Bulk Modulus (GPa) = 46.93319 56.36594 51.64957
# Shear Modulus (GPa) = 42.16525 48.32573 45.24549
#
# Velocity S-wave (km/s) = 3.97269 4.25301 4.11524
# Velocity P-wave (km/s) = 6.21369 6.72421 6.47399
#
# Compressibility (1/GPa) = 0.02130688
#
# Stress axis : x y z
#
# Youngs Moduli (GPa) = 69.36226 103.13013 101.99937
#
# Poissons Ratio (x) = -0.07087 0.46510
# Poissons Ratio (y) = -0.04767 0.24814
# Poissons Ratio (z) = 0.31628 0.25089
#
# Static dielectric constant tensor:
#      x y z
#    x 1.568440 -0.422600 -0.560770 
#    y -0.422600 1.792800 -0.416460 
#    z -0.560770 -0.416460 1.515870 
# 
# From -- ./inp_files/96461.got.cif
#   From: 2010.05.17/outbox.cif.g08.bks.cpg/sg2_49_cif.got.tgz:96461.got - 2010.06.03 11:33:40.
