data_PCOD9035278
_publ_section_title
;
Structure prediction by ZEFSAII (Michael W. Deem and Ramdas Pophale) SiO2 
 PCOD9035278
Probable space group: P -1
;
_chemical_formula_sum "Si O2"
_cell_formula_units_Z 12
_cell_length_a 25.638376
_cell_length_b 10.361936
_cell_length_c 11.791468
_cell_angle_alpha 34.314128
_cell_angle_beta 153.312393
_cell_angle_gamma 152.631130
_cell_volume 638.718952
_symmetry_space_group_name_H-M "P -1"
_symmetry_group_IT_number 2
_symmetry_cell_setting 'triclinic'
loop_
_space_group_symop_operation_xyz
x,y,z
-x,-y,-z
loop_
_atom_site_type_symbol
_atom_site_label
_atom_site_fract_x
_atom_site_fract_y
_atom_site_fract_z
Si Si1 0.179701 0.259440 0.246473
Si Si2 0.480885 0.868130 0.908624
Si Si3 0.462803 0.886706 0.383745
Si Si4 0.100426 0.234639 0.860047
Si Si5 0.402220 0.371877 0.287359
Si Si6 0.742720 0.176728 0.342122
O O1 0.310077 0.574373 0.308623
O O2 0.228257 0.055399 0.456304
O O3 0.115963 0.292796 0.983113
O O4 0.051941 0.070753 0.225513
O O5 0.345647 0.870407 0.680846
O O6 0.516998 0.885496 0.834266
O O7 0.453811 0.613506 0.116543
O O8 0.629693 0.137643 0.055590
O O9 0.571480 0.832264 0.578357
O O10 0.500000 0.000000 0.500000
O O11 0.120315 0.497487 0.642098
O O12 0.236772 0.237761 0.089162
O O13 0.500000 0.500000 0.500000
#
# Coordination Sequence:
#
# PCOD9035278 Si02
#       6
#     2   2   2   2   2   2
#     4  11  20  34  51  86 117 142 179 233 290 323
#     4  10  19  32  58  85 110 140 191 231 276 331
#     4  12  24  37  55  83 118 152 187 227 276 339
#     4  10  20  32  58  84 112 138 182 241 284 327
#     4  11  19  39  62  83 109 146 192 237 278 324
#     4  10  17  32  58  85 109 135 187 242 277 323
#
# _framework density 18.787604999999999
#
# number of rings (size 3 to 8) (size 9 to 14) (size 15 to 20)
#    0.000    1.333    5.000    3.500    0.000    0.667 
#    0.000    0.833    0.000    4.000    0.000    0.000 
#    0.000    0.000    0.000    0.000    0.000    0.000 
#
# Total GULP energy -66850.001339 kJ/mol
# GULP energy per Si atom -5570.833445 kJ/mol
# Density = 1.874484 g / cm^3
# Si number density = 18.787605 Si / 1000 Ang^3
#
#
#
# Elastic Constant Matrix: (Units=GPa)
#
#
# Indices 1 2 3 4 5 6 
#
# 1 138.3595 63.5038 38.0765 6.8359 -22.2502 15.6976
# 2 63.5038 90.4035 29.1473 2.7977 -8.8079 27.1146
# 3 38.0765 29.1473 56.5289 -3.2514 1.2307 7.7603
# 4 6.8359 2.7977 -3.2514 20.8602 5.6992 2.7489
# 5 -22.2502 -8.8079 1.2307 5.6992 32.3627 4.3440
# 6 15.6976 27.1146 7.7603 2.7489 4.3440 41.8593
#
#
#
# Elastic Compliance Matrix: (Units=1/GPa)
#
#
# Indices 1 2 3 4 5 6 
#
# 1 0.013887 -0.006369 -0.006644 -0.007252 0.009391 -0.000349
# 2 -0.006369 0.020531 -0.005008 -0.000900 0.002930 -0.010227
# 3 -0.006644 -0.005008 0.025265 0.008972 -0.008654 0.001360
# 4 -0.007252 -0.000900 0.008972 0.056098 -0.015391 -0.000448
# 5 0.009391 0.002930 -0.008654 -0.015391 0.042157 -0.007180
# 6 -0.000349 -0.010227 0.001360 -0.000448 -0.007180 0.031167
#
#
# Mechanical properties :
#
#
# Convention : Reuss Voigt Hill
#
# Bulk Modulus (GPa) = 42.29747 60.74968 51.52358
# Shear Modulus (GPa) = 21.45680 29.32072 25.38876
#
# Velocity S-wave (km/s) = 3.38312 3.95478 3.68007
# Velocity P-wave (km/s) = 6.15005 7.29787 6.74841
#
# Compressibility (1/GPa) = 0.02364208
#
# Stress axis : x y z
#
# Youngs Moduli (GPa) = 72.00860 48.70759 39.58062
#
# Poissons Ratio (x) = 0.31022 0.26297
# Poissons Ratio (y) = 0.45862 0.19820
# Poissons Ratio (z) = 0.47841 0.24391
#
# Static dielectric constant tensor:
#      x y z
#    x 1.668570 0.084780 0.005100 
#    y 0.084780 1.729830 -0.064170 
#    z 0.005100 -0.064170 1.771810 
# 
# From -- ./inp_files/395155.got.cif
#   From: 2010.05.17/outbox.cif.g08.bks.cpg/sg2_198_cif.got.tgz:395155.got - 2010.06.03 11:33:40.
