data_PCOD9035588
_publ_section_title
;
Structure prediction by ZEFSAII (Michael W. Deem and Ramdas Pophale) SiO2 
 PCOD9035588
Probable space group: P -1
;
_chemical_formula_sum "Si O2"
_cell_formula_units_Z 13
_cell_length_a 8.593819
_cell_length_b 12.420326
_cell_length_c 12.178421
_cell_angle_alpha 42.423179
_cell_angle_beta 92.683592
_cell_angle_gamma 123.084198
_cell_volume 570.554535
_symmetry_space_group_name_H-M "P -1"
_symmetry_group_IT_number 2
_symmetry_cell_setting 'triclinic'
loop_
_space_group_symop_operation_xyz
x,y,z
-x,-y,-z
loop_
_atom_site_type_symbol
_atom_site_label
_atom_site_fract_x
_atom_site_fract_y
_atom_site_fract_z
Si Si1 0.115997 0.616264 0.533761
Si Si2 0.396848 0.131518 0.116943
Si Si3 0.500000 0.500000 0.000000
Si Si4 0.982847 0.206154 0.236575
Si Si5 0.278723 0.180192 0.851998
Si Si6 0.564828 0.732686 0.455140
Si Si7 0.927977 0.435115 0.893723
O O1 0.354049 0.696085 0.488699
O O2 0.000000 0.500000 0.500000
O O3 0.950627 0.438129 0.762880
O O4 0.189898 0.857851 0.361901
O O5 0.396136 0.298621 0.052384
O O6 0.360663 0.122709 0.992234
O O7 0.653052 0.248011 0.058774
O O8 0.228335 0.306988 0.188369
O O9 0.935124 0.298950 0.260600
O O10 0.763899 0.924374 0.408439
O O11 0.028299 0.359874 0.017279
O O12 0.442120 0.464644 0.659482
O O13 0.320701 0.160206 0.743106
O O14 0.000000 0.000000 0.000000
#
# Coordination Sequence:
#
# PCOD9035588 Si02
#       7
#     2   2   1   2   2   2   2
#     4  12  26  41  69 103 137 183 231 281 342 413
#     4  11  24  44  66 100 135 182 229 281 344 413
#     4  10  24  42  72  96 136 178 228 282 352 404
#     4  10  22  46  69 100 136 182 229 286 347 404
#     4  11  25  43  67  99 144 183 225 288 346 407
#     4  11  25  42  68 104 133 183 237 278 343 416
#     4  10  24  44  68  98 140 177 227 288 342 405
#
# _framework density 22.784852000000001
#
# number of rings (size 3 to 8) (size 9 to 14) (size 15 to 20)
#    0.000    1.231    1.538    2.769    6.462    6.769 
#    0.000    3.077    0.000    0.000    0.000    0.000 
#    0.000    0.000    0.000    0.000    0.000    0.000 
#
# Total GULP energy -72507.679151 kJ/mol
# GULP energy per Si atom -5577.513781 kJ/mol
# Density = 2.273299 g / cm^3
# Si number density = 22.784852 Si / 1000 Ang^3
#
#
#
# Elastic Constant Matrix: (Units=GPa)
#
#
# Indices 1 2 3 4 5 6 
#
# 1 20.3812 0.1581 0.4967 -5.3303 -6.4048 0.7946
# 2 0.1581 100.1472 20.8517 -13.6103 3.4440 -4.5065
# 3 0.4967 20.8517 62.0183 6.1171 0.3447 -2.7302
# 4 -5.3303 -13.6103 6.1171 47.5114 8.7049 -6.0897
# 5 -6.4048 3.4440 0.3447 8.7049 23.8159 4.0389
# 6 0.7946 -4.5065 -2.7302 -6.0897 4.0389 27.7180
#
#
#
# Elastic Compliance Matrix: (Units=1/GPa)
#
#
# Indices 1 2 3 4 5 6 
#
# 1 0.054452 -0.000059 -0.000948 0.003271 0.013976 -0.002982
# 2 -0.000059 0.011867 -0.004329 0.005112 -0.004084 0.003223
# 3 -0.000948 -0.004329 0.017968 -0.003944 0.001553 0.000000
# 4 0.003271 0.005112 -0.003944 0.026341 -0.010736 0.007700
# 5 0.013976 -0.004084 0.001553 -0.010736 0.052081 -0.010859
# 6 -0.002982 0.003223 0.000000 0.007700 -0.010859 0.039961
#
#
# Mechanical properties :
#
#
# Convention : Reuss Voigt Hill
#
# Bulk Modulus (GPa) = 13.58411 25.06218 19.32314
# Shear Modulus (GPa) = 21.01902 30.54507 25.78204
#
# Velocity S-wave (km/s) = 3.04056 3.66537 3.36749
# Velocity P-wave (km/s) = 4.27803 5.37928 4.85995
#
# Compressibility (1/GPa) = 0.07361543
#
# Stress axis : x y z
#
# Youngs Moduli (GPa) = 18.36473 84.26809 55.65517
#
# Poissons Ratio (x) = 0.00496 0.05275
# Poissons Ratio (y) = 0.00108 0.24093
# Poissons Ratio (z) = 0.01741 0.36480
#
# Static dielectric constant tensor:
#      x y z
#    x 1.836960 -0.018850 0.042950 
#    y -0.018850 1.788590 -0.040520 
#    z 0.042950 -0.040520 1.845350 
# 
# From -- ./inp_files/18613.got.cif
#   From: 2010.05.17/outbox.cif.g08.bks.cpg/sg2_10_cif.got.tgz:18613.got - 2010.06.03 11:33:40.
