data_PCOD9035373
_publ_section_title
;
Structure prediction by ZEFSAII (Michael W. Deem and Ramdas Pophale) SiO2 
 PCOD9035373
Probable space group: P -1
;
_chemical_formula_sum "Si O2"
_cell_formula_units_Z 16
_cell_length_a 16.451573
_cell_length_b 15.950450
_cell_length_c 7.877637
_cell_angle_alpha 86.368281
_cell_angle_beta 81.360902
_cell_angle_gamma 156.347649
_cell_volume 706.911813
_symmetry_space_group_name_H-M "P -1"
_symmetry_group_IT_number 2
_symmetry_cell_setting 'triclinic'
loop_
_space_group_symop_operation_xyz
x,y,z
-x,-y,-z
loop_
_atom_site_type_symbol
_atom_site_label
_atom_site_fract_x
_atom_site_fract_y
_atom_site_fract_z
Si Si1 0.305071 0.384479 0.077967
Si Si2 0.501234 0.407977 0.681280
Si Si3 0.635832 0.901378 0.272973
Si Si4 0.095093 0.293741 0.885028
Si Si5 0.105111 0.136206 0.730582
Si Si6 0.535601 0.161395 0.977407
Si Si7 0.919831 0.398895 0.847605
Si Si8 0.358249 0.710554 0.667696
O O1 0.383088 0.514180 0.194613
O O2 0.500000 0.500000 0.000000
O O3 0.286083 0.425945 0.918296
O O4 0.071176 0.106814 0.228955
O O5 0.427598 0.253925 0.625903
O O6 0.272586 0.248304 0.800051
O O7 0.704358 0.656650 0.496934
O O8 0.500034 0.801547 0.158067
O O9 0.574478 0.906424 0.443437
O O10 0.904940 0.149053 0.093706
O O11 0.996034 0.121164 0.824626
O O12 0.207751 0.479825 0.731472
O O13 0.777420 0.343045 0.830409
O O14 0.563975 0.206696 0.167248
O O15 0.293209 0.874106 0.063539
O O16 0.170470 0.601646 0.678608
O O17 0.000000 0.500000 0.000000
#
# Coordination Sequence:
#
# PCOD9035373 Si02
#       8
#     2   2   2   2   2   2   2   2
#     4  12  23  39  64  88 121 179 233 279 342 395
#     4  11  23  42  62  92 127 174 230 279 339 399
#     4  12  24  44  69  99 138 179 224 277 340 396
#     4  12  23  44  63  92 137 173 224 289 329 389
#     4  11  23  42  63  88 130 173 228 287 334 394
#     4  10  22  45  75 101 134 180 215 264 339 403
#     4   9  20  45  75 102 140 170 214 274 323 399
#     4  11  24  45  68 103 139 172 220 280 326 399
#
# _framework density 22.633658
#
# number of rings (size 3 to 8) (size 9 to 14) (size 15 to 20)
#    0.000    1.000    5.000    2.250    0.000    0.500 
#    9.000    5.625    0.000    0.000    0.000    0.000 
#    0.000    0.000    0.000    0.000    0.000    0.000 
#
# Total GULP energy -89137.917988 kJ/mol
# GULP energy per Si atom -5571.119874 kJ/mol
# Density = 2.258214 g / cm^3
# Si number density = 22.633658 Si / 1000 Ang^3
#
#
#
# Elastic Constant Matrix: (Units=GPa)
#
#
# Indices 1 2 3 4 5 6 
#
# 1 63.2856 26.2262 23.7738 11.5113 -16.0546 18.4775
# 2 26.2262 72.5507 10.8922 4.7883 -8.5145 8.3576
# 3 23.7738 10.8922 62.8588 -4.8608 -31.8088 3.4774
# 4 11.5113 4.7883 -4.8608 25.7061 2.0474 0.0928
# 5 -16.0546 -8.5145 -31.8088 2.0474 36.5503 -1.9745
# 6 18.4775 8.3576 3.4774 0.0928 -1.9745 33.8871
#
#
#
# Elastic Compliance Matrix: (Units=1/GPa)
#
#
# Indices 1 2 3 4 5 6 
#
# 1 0.028734 -0.006303 -0.007912 -0.013486 0.004320 -0.013013
# 2 -0.006303 0.016250 0.000151 -0.000264 0.001135 -0.000519
# 3 -0.007912 0.000151 0.031156 0.007535 0.023383 0.002422
# 4 -0.013486 -0.000264 0.007535 0.046526 -0.001687 0.006420
# 5 0.004320 0.001135 0.023383 -0.001687 0.049850 -0.002125
# 6 -0.013013 -0.000519 0.002422 0.006420 -0.002125 0.036343
#
#
# Mechanical properties :
#
#
# Convention : Reuss Voigt Hill
#
# Bulk Modulus (GPa) = 20.82889 35.60884 28.21886
# Shear Modulus (GPa) = 19.76341 28.41557 24.08949
#
# Velocity S-wave (km/s) = 2.95818 3.54709 3.26593
# Velocity P-wave (km/s) = 4.57060 5.70461 5.16880
#
# Compressibility (1/GPa) = 0.04801024
#
# Stress axis : x y z
#
# Youngs Moduli (GPa) = 34.80205 61.53932 32.09614
#
# Poissons Ratio (x) = 0.38788 0.25396
# Poissons Ratio (y) = 0.21936 -0.00483
# Poissons Ratio (z) = 0.27537 -0.00926
#
# Static dielectric constant tensor:
#      x y z
#    x 1.844120 -0.028650 -0.046490 
#    y -0.028650 2.090080 0.050090 
#    z -0.046490 0.050090 1.913700 
# 
# From -- ./inp_files/336528.got.cif
#   From: 2010.05.17/outbox.cif.g08.bks.cpg/sg2_169_cif.got.tgz:336528.got - 2010.06.03 11:33:40.
