data_PCOD9035932
_publ_section_title
;
Structure prediction by ZEFSAII (Michael W. Deem and Ramdas Pophale) SiO2 
 PCOD9035932
Probable space group: P -1
;
_chemical_formula_sum "Si O2"
_cell_formula_units_Z 13
_cell_length_a 8.371574
_cell_length_b 11.919451
_cell_length_c 15.163166
_cell_angle_alpha 30.234989
_cell_angle_beta 84.954174
_cell_angle_gamma 106.517617
_cell_volume 528.017497
_symmetry_space_group_name_H-M "P -1"
_symmetry_group_IT_number 2
_symmetry_cell_setting 'triclinic'
loop_
_space_group_symop_operation_xyz
x,y,z
-x,-y,-z
loop_
_atom_site_type_symbol
_atom_site_label
_atom_site_fract_x
_atom_site_fract_y
_atom_site_fract_z
Si Si1 0.797552 0.671470 0.514180
Si Si2 0.780651 0.637383 0.223871
Si Si3 0.500000 0.500000 0.000000
Si Si4 0.460044 0.802265 0.295404
Si Si5 0.726492 0.900554 0.895145
Si Si6 0.995819 0.738590 0.794804
Si Si7 0.945381 0.487392 0.786554
O O1 0.578479 0.389300 0.657925
O O2 0.856969 0.542755 0.670877
O O3 0.007675 0.874336 0.295640
O O4 0.818895 0.922680 0.395090
O O5 0.643553 0.410182 0.468441
O O6 0.866305 0.500312 0.262325
O O7 0.662600 0.675806 0.130786
O O8 0.000000 0.000000 0.000000
O O9 0.578698 0.696471 0.955045
O O10 0.751296 0.615030 0.905772
O O11 0.321858 0.892047 0.220899
O O12 0.725005 0.130247 0.073420
O O13 0.036317 0.739867 0.687703
O O14 0.000000 0.500000 0.000000
#
# Coordination Sequence:
#
# PCOD9035932 Si02
#       7
#     2   2   1   2   2   2   2
#     4  11  23  45  79 100 155 203 242 324 394 448
#     4  12  26  47  76 110 156 202 253 321 392 463
#     4  10  22  46  76 110 154 200 260 318 380 470
#     4  12  25  49  74 113 152 197 256 319 388 465
#     4  11  22  48  73 105 153 201 250 316 388 448
#     4  11  25  48  75 110 154 207 262 323 391 469
#     4  12  25  47  75 112 147 199 260 313 388 471
#
# _framework density 24.620397000000001
#
# number of rings (size 3 to 8) (size 9 to 14) (size 15 to 20)
#    0.000    0.615    4.615    4.154    0.000    0.615 
#    5.538    0.769    0.000    0.000    0.000    0.000 
#    0.000    0.000    0.000    0.000    0.000    0.000 
#
# Total GULP energy -72717.338903 kJ/mol
# GULP energy per Si atom -5593.641454 kJ/mol
# Density = 2.456436 g / cm^3
# Si number density = 24.620397 Si / 1000 Ang^3
#
#
#
# Elastic Constant Matrix: (Units=GPa)
#
#
# Indices 1 2 3 4 5 6 
#
# 1 102.6754 46.3639 41.9643 -0.8144 32.3732 -24.2895
# 2 46.3639 154.5132 55.8320 -19.6374 8.4057 -34.3623
# 3 41.9643 55.8320 133.7545 16.9490 23.3367 -5.2490
# 4 -0.8144 -19.6374 16.9490 48.5342 2.9407 -0.6643
# 5 32.3732 8.4057 23.3367 2.9407 28.9359 -4.5081
# 6 -24.2895 -34.3623 -5.2490 -0.6643 -4.5081 41.3375
#
#
#
# Elastic Compliance Matrix: (Units=1/GPa)
#
#
# Indices 1 2 3 4 5 6 
#
# 1 0.018840 -0.002411 -0.001612 0.001096 -0.018113 0.006904
# 2 -0.002411 0.011425 -0.005226 0.006262 0.004199 0.007975
# 3 -0.001612 -0.005226 0.011845 -0.005956 -0.006338 -0.004574
# 4 0.001096 0.006262 -0.005956 0.025309 0.000044 0.005504
# 5 -0.018113 0.004199 -0.006338 0.000044 0.058465 -0.001581
# 6 0.006904 0.007975 -0.004574 0.005504 -0.001581 0.034213
#
#
# Mechanical properties :
#
#
# Convention : Reuss Voigt Hill
#
# Bulk Modulus (GPa) = 42.35137 75.47373 58.91255
# Shear Modulus (GPa) = 26.81505 40.21371 33.51438
#
# Velocity S-wave (km/s) = 3.30379 4.04586 3.69351
# Velocity P-wave (km/s) = 5.63848 7.24892 6.49381
#
# Compressibility (1/GPa) = 0.02361199
#
# Stress axis : x y z
#
# Youngs Moduli (GPa) = 53.07929 87.53111 84.42671
#
# Poissons Ratio (x) = 0.21100 0.13612
# Poissons Ratio (y) = 0.12795 0.44118
# Poissons Ratio (z) = 0.08558 0.45740
#
# Static dielectric constant tensor:
#      x y z
#    x 1.944260 -0.009470 -0.006150 
#    y -0.009470 1.928090 0.017600 
#    z -0.006150 0.017600 1.968680 
# 
# From -- ./inp_files/498708.got.cif
#   From: 2010.05.17/outbox.cif.g08.bks.cpg/sg2_250_cif.got.tgz:498708.got - 2010.06.03 11:33:40.
