data_PCOD9035392
_publ_section_title
;
Structure prediction by ZEFSAII (Michael W. Deem and Ramdas Pophale) SiO2 
 PCOD9035392
Probable space group: P -1
;
_chemical_formula_sum "Si O2"
_cell_formula_units_Z 15
_cell_length_a 12.104522
_cell_length_b 10.669146
_cell_length_c 5.260861
_cell_angle_alpha 99.854644
_cell_angle_beta 98.176367
_cell_angle_gamma 115.341952
_cell_volume 586.992575
_symmetry_space_group_name_H-M "P -1"
_symmetry_group_IT_number 2
_symmetry_cell_setting 'triclinic'
loop_
_space_group_symop_operation_xyz
x,y,z
-x,-y,-z
loop_
_atom_site_type_symbol
_atom_site_label
_atom_site_fract_x
_atom_site_fract_y
_atom_site_fract_z
Si Si1 0.235042 0.412991 0.172574
Si Si2 0.377194 0.298929 0.847639
Si Si3 0.998712 0.286928 0.345806
Si Si4 0.500000 0.500000 0.500000
Si Si5 0.161875 0.567070 0.821934
Si Si6 0.382811 0.951589 0.213625
Si Si7 0.757723 0.035778 0.343291
Si Si8 0.563865 0.242789 0.177560
O O1 0.107480 0.289269 0.204678
O O2 0.347690 0.454801 0.419161
O O3 0.285344 0.360300 0.930876
O O4 0.204050 0.536792 0.098840
O O5 0.471482 0.386475 0.690208
O O6 0.291458 0.133221 0.698398
O O7 0.471957 0.315977 0.128074
O O8 0.071156 0.413789 0.616304
O O9 0.913001 0.340698 0.175034
O O10 0.905463 0.138339 0.394604
O O11 0.288713 0.651611 0.725765
O O12 0.295996 0.915352 0.417242
O O13 0.495329 0.115299 0.312546
O O14 0.303927 0.951883 0.938627
O O15 0.439548 0.846120 0.111689
#
# Coordination Sequence:
#
# PCOD9035392 Si02
#       8
#     2   2   2   1   2   2   2   2
#     4  12  27  47  73 109 151 200 256 314 379 459
#     4  11  27  46  75 109 152 197 251 319 382 457
#     4  11  27  47  78 107 151 204 253 314 385 458
#     4  12  26  48  72 110 148 198 250 312 382 450
#     4  11  24  49  73 112 150 199 251 323 379 456
#     4  10  24  45  74 116 154 196 251 323 394 445
#     4  11  26  49  76 111 157 201 257 315 384 462
#     4  10  22  45  75 112 152 193 251 326 385 451
#
# _framework density 25.553982999999999
#
# number of rings (size 3 to 8) (size 9 to 14) (size 15 to 20)
#    0.000    1.067    2.667    1.600    7.467    7.467 
#    2.400    2.667    0.000    0.000    0.000    0.000 
#    0.000    0.000    0.000    0.000    0.000    0.000 
#
# Total GULP energy -83888.561955 kJ/mol
# GULP energy per Si atom -5592.570797 kJ/mol
# Density = 2.549582 g / cm^3
# Si number density = 25.553983 Si / 1000 Ang^3
#
#
#
# Elastic Constant Matrix: (Units=GPa)
#
#
# Indices 1 2 3 4 5 6 
#
# 1 152.8668 57.7002 27.8026 -8.3826 -2.8230 39.4279
# 2 57.7002 149.8804 8.0324 9.7968 -8.9977 46.3386
# 3 27.8026 8.0324 93.7507 -6.9586 -9.1674 8.9729
# 4 -8.3826 9.7968 -6.9586 26.5807 9.4484 -0.1640
# 5 -2.8230 -8.9977 -9.1674 9.4484 44.6973 -13.6117
# 6 39.4279 46.3386 8.9729 -0.1640 -13.6117 58.5348
#
#
#
# Elastic Compliance Matrix: (Units=1/GPa)
#
#
# Indices 1 2 3 4 5 6 
#
# 1 0.009184 -0.002457 -0.002024 0.004163 -0.002586 -0.004520
# 2 -0.002457 0.009807 0.000205 -0.004751 0.001067 -0.005906
# 3 -0.002024 0.000205 0.011569 0.001638 0.001902 -0.000126
# 4 0.004163 -0.004751 0.001638 0.044764 -0.010296 -0.001563
# 5 -0.002586 0.001067 0.001902 -0.010296 0.027084 0.006875
# 6 -0.004520 -0.005906 -0.000126 -0.001563 0.006875 0.026418
#
#
# Mechanical properties :
#
#
# Convention : Reuss Voigt Hill
#
# Bulk Modulus (GPa) = 45.43771 64.84094 55.13932
# Shear Modulus (GPa) = 34.55097 46.16007 40.35552
#
# Velocity S-wave (km/s) = 3.68105 4.25476 3.97826
# Velocity P-wave (km/s) = 5.99053 7.04035 6.53655
#
# Compressibility (1/GPa) = 0.02200815
#
# Stress axis : x y z
#
# Youngs Moduli (GPa) = 108.88995 101.96523 86.43901
#
# Poissons Ratio (x) = 0.25050 0.17497
# Poissons Ratio (y) = 0.26752 -0.01774
# Poissons Ratio (z) = 0.22042 -0.02092
#
# Static dielectric constant tensor:
#      x y z
#    x 1.928340 0.000700 0.089680 
#    y 0.000700 1.978810 -0.017460 
#    z 0.089680 -0.017460 1.972050 
# 
# From -- ./inp_files/70714.got.cif
#   From: 2010.05.17/outbox.cif.g08.bks.cpg/sg2_36_cif.got.tgz:70714.got - 2010.06.03 11:33:40.
