data_PCOD9035589
_publ_section_title
;
Structure prediction by ZEFSAII (Michael W. Deem and Ramdas Pophale) SiO2 
 PCOD9035589
Probable space group: P -1
;
_chemical_formula_sum "Si O2"
_cell_formula_units_Z 16
_cell_length_a 6.103946
_cell_length_b 8.641794
_cell_length_c 14.781423
_cell_angle_alpha 98.149642
_cell_angle_beta 117.712266
_cell_angle_gamma 96.970468
_cell_volume 667.512956
_symmetry_space_group_name_H-M "P -1"
_symmetry_group_IT_number 2
_symmetry_cell_setting 'triclinic'
loop_
_space_group_symop_operation_xyz
x,y,z
-x,-y,-z
loop_
_atom_site_type_symbol
_atom_site_label
_atom_site_fract_x
_atom_site_fract_y
_atom_site_fract_z
Si Si1 0.831378 0.983337 0.732904
Si Si2 0.597545 0.626811 0.718617
Si Si3 0.051809 0.139930 0.950337
Si Si4 0.076752 0.140523 0.456999
Si Si5 0.244362 0.629818 0.026889
Si Si6 0.629721 0.287897 0.649536
Si Si7 0.559228 0.395006 0.120600
Si Si8 0.784399 0.362054 0.486943
O O1 0.677706 0.125770 0.693338
O O2 0.062862 0.077343 0.845892
O O3 0.737897 0.814824 0.756905
O O4 0.884016 0.921231 0.639490
O O5 0.696423 0.458305 0.730580
O O6 0.406120 0.612181 0.766282
O O7 0.480094 0.605626 0.593796
O O8 0.803323 0.214903 0.920453
O O9 0.302788 0.265296 0.037548
O O10 0.000000 0.000000 0.000000
O O11 0.336366 0.248437 0.556434
O O12 0.833651 0.218135 0.422915
O O13 0.000000 0.000000 0.500000
O O14 0.492058 0.565824 0.097162
O O15 0.243656 0.640627 0.918345
O O16 0.000000 0.500000 0.000000
O O17 0.790457 0.319514 0.589349
O O18 0.000000 0.500000 0.500000
#
# Coordination Sequence:
#
# PCOD9035589 Si02
#       8
#     2   2   2   2   2   2   2   2
#     4  12  25  45  72 101 141 190 231 286 357 409
#     4  12  24  44  74 102 138 187 230 285 360 411
#     4  11  23  44  66 100 142 176 227 287 344 413
#     4  12  24  46  70 100 139 183 232 288 346 419
#     4   9  21  45  71  92 135 179 226 288 342 399
#     4  12  25  48  70 100 146 180 235 293 341 421
#     4  10  22  46  69 100 137 178 233 284 343 414
#     4  12  24  45  69 101 139 183 230 287 350 413
#
# _framework density 23.969574000000001
#
# number of rings (size 3 to 8) (size 9 to 14) (size 15 to 20)
#    0.000    0.750    5.000    3.000    0.000    1.500 
#   22.500    0.000    0.000    0.000    0.000    0.000 
#    0.000    0.000    0.000    0.000    0.000    0.000 
#
# Total GULP energy -89197.868630 kJ/mol
# GULP energy per Si atom -5574.866789 kJ/mol
# Density = 2.391502 g / cm^3
# Si number density = 23.969574 Si / 1000 Ang^3
#
#
#
# Elastic Constant Matrix: (Units=GPa)
#
#
# Indices 1 2 3 4 5 6 
#
# 1 51.8083 28.0561 16.7404 1.0798 -25.3511 12.5966
# 2 28.0561 153.6893 30.2923 5.3181 -17.4116 1.1889
# 3 16.7404 30.2923 111.1440 -6.9310 -23.1995 8.2211
# 4 1.0798 5.3181 -6.9310 29.2698 10.5265 -8.8786
# 5 -25.3511 -17.4116 -23.1995 10.5265 41.3897 -4.4228
# 6 12.5966 1.1889 8.2211 -8.8786 -4.4228 35.5371
#
#
#
# Elastic Compliance Matrix: (Units=1/GPa)
#
#
# Indices 1 2 3 4 5 6 
#
# 1 0.035281 -0.003485 0.000440 -0.012436 0.022181 -0.012837
# 2 -0.003485 0.007575 -0.001572 -0.001547 0.000676 0.001043
# 3 0.000440 -0.001572 0.010617 0.000333 0.005280 -0.001819
# 4 -0.012436 -0.001547 0.000333 0.045645 -0.018245 0.013516
# 5 0.022181 0.000676 0.005280 -0.018245 0.044766 -0.008094
# 6 -0.012837 0.001043 -0.001819 0.013516 -0.008094 0.035445
#
#
# Mechanical properties :
#
#
# Convention : Reuss Voigt Hill
#
# Bulk Modulus (GPa) = 22.60476 51.86881 37.23678
# Shear Modulus (GPa) = 24.59304 37.34284 30.96794
#
# Velocity S-wave (km/s) = 3.20662 3.95134 3.59830
# Velocity P-wave (km/s) = 4.81258 6.51950 5.72996
#
# Compressibility (1/GPa) = 0.04423847
#
# Stress axis : x y z
#
# Youngs Moduli (GPa) = 28.34373 132.01951 94.18858
#
# Poissons Ratio (x) = 0.46005 -0.04142
# Poissons Ratio (y) = 0.09877 0.14808
# Poissons Ratio (z) = -0.01246 0.20756
#
# Static dielectric constant tensor:
#      x y z
#    x 1.964050 -0.015130 0.049710 
#    y -0.015130 1.873300 -0.010620 
#    z 0.049710 -0.010620 1.912680 
# 
# From -- ./inp_files/480777.got.cif
#   From: 2010.05.17/outbox.cif.g08.bks.cpg/sg2_241_cif.got.tgz:480777.got - 2010.06.03 11:33:40.
