data_PCOD9035219
_publ_section_title
;
Structure prediction by ZEFSAII (Michael W. Deem and Ramdas Pophale) SiO2 
 PCOD9035219
Probable space group: P -1
;
_chemical_formula_sum "Si O2"
_cell_formula_units_Z 12
_cell_length_a 6.333139
_cell_length_b 9.203253
_cell_length_c 17.242509
_cell_angle_alpha 38.160067
_cell_angle_beta 91.934109
_cell_angle_gamma 69.643749
_cell_volume 493.515814
_symmetry_space_group_name_H-M "P -1"
_symmetry_group_IT_number 2
_symmetry_cell_setting 'triclinic'
loop_
_space_group_symop_operation_xyz
x,y,z
-x,-y,-z
loop_
_atom_site_type_symbol
_atom_site_label
_atom_site_fract_x
_atom_site_fract_y
_atom_site_fract_z
Si Si1 0.324788 0.256596 0.101350
Si Si2 0.266346 0.764820 0.334159
Si Si3 0.185375 0.098766 0.469025
Si Si4 0.495831 0.261833 0.930217
Si Si5 0.736148 0.466792 0.731449
Si Si6 0.252511 0.873374 0.720266
O O1 0.474090 0.282319 0.163505
O O2 0.369550 0.952537 0.238034
O O3 0.482868 0.217564 0.041012
O O4 0.000000 0.500000 0.000000
O O5 0.500000 0.500000 0.500000
O O6 0.194579 0.697847 0.279230
O O7 0.997125 0.957124 0.298640
O O8 0.096012 0.409568 0.301726
O O9 0.461365 0.793639 0.573701
O O10 0.219979 0.101266 0.561562
O O11 0.000000 0.000000 0.500000
O O12 0.702895 0.290430 0.871646
O O13 0.264162 0.617096 0.783181
O O14 0.500000 0.000000 0.000000
#
# Coordination Sequence:
#
# PCOD9035219 Si02
#       6
#     2   2   2   2   2   2
#     4  12  26  50  77 107 157 205 258 318 386 456
#     4  12  25  44  77 112 152 202 256 316 384 458
#     4  10  22  45  72 104 152 198 247 316 386 447
#     4  11  23  48  75 109 149 203 255 315 383 461
#     4  10  23  43  67 108 147 191 254 309 375 455
#     4  11  26  46  76 112 150 199 263 316 379 462
#
# _framework density 24.315331
#
# number of rings (size 3 to 8) (size 9 to 14) (size 15 to 20)
#    0.000    1.000    3.333    2.500    0.000    6.667 
#    0.000    1.667    0.000    0.000    0.000    0.000 
#    0.000    0.000    0.000    0.000    0.000    0.000 
#
# Total GULP energy -66856.565439 kJ/mol
# GULP energy per Si atom -5571.380453 kJ/mol
# Density = 2.425999 g / cm^3
# Si number density = 24.315331 Si / 1000 Ang^3
#
#
#
# Elastic Constant Matrix: (Units=GPa)
#
#
# Indices 1 2 3 4 5 6 
#
# 1 155.5980 78.4530 83.7076 8.6499 -28.9899 18.4087
# 2 78.4530 142.9317 35.5608 2.4454 -13.2507 -8.5064
# 3 83.7076 35.5608 134.9418 7.2545 -42.7896 -0.1767
# 4 8.6499 2.4454 7.2545 41.3449 -2.7934 -10.3999
# 5 -28.9899 -13.2507 -42.7896 -2.7934 66.2974 0.6490
# 6 18.4087 -8.5064 -0.1767 -10.3999 0.6490 46.6086
#
#
#
# Elastic Compliance Matrix: (Units=1/GPa)
#
#
# Indices 1 2 3 4 5 6 
#
# 1 0.014889 -0.006767 -0.007122 -0.003422 0.000494 -0.007913
# 2 -0.006767 0.010656 0.001312 0.001823 0.000046 0.005029
# 3 -0.007122 0.001312 0.013281 0.000241 0.005700 0.003077
# 4 -0.003422 0.001823 0.000241 0.026679 0.000073 0.007637
# 5 0.000494 0.000046 0.005700 0.000073 0.018995 -0.000414
# 6 -0.007913 0.005029 0.003077 0.007637 -0.000414 0.027220
#
#
# Mechanical properties :
#
#
# Convention : Reuss Voigt Hill
#
# Bulk Modulus (GPa) = 73.13580 92.10159 82.61869
# Shear Modulus (GPa) = 35.35302 46.56686 40.95994
#
# Velocity S-wave (km/s) = 3.81719 4.38096 4.10876
# Velocity P-wave (km/s) = 7.04069 7.97187 7.52070
#
# Compressibility (1/GPa) = 0.01367319
#
# Stress axis : x y z
#
# Youngs Moduli (GPa) = 67.16481 93.84108 75.29342
#
# Poissons Ratio (x) = 0.63500 0.53626
# Poissons Ratio (y) = 0.45449 -0.09881
# Poissons Ratio (z) = 0.47836 -0.12316
#
# Static dielectric constant tensor:
#      x y z
#    x 2.239500 0.055630 0.213190 
#    y 0.055630 1.988220 0.064610 
#    z 0.213190 0.064610 2.056350 
# 
# From -- ./inp_files/546388.got.cif
#   From: 2010.05.17/outbox.cif.g08.bks.cpg/sg2_274_cif.got.tgz:546388.got - 2010.06.03 11:33:40.
