data_PCOD9035551
_publ_section_title
;
Structure prediction by ZEFSAII (Michael W. Deem and Ramdas Pophale) SiO2 
 PCOD9035551
Probable space group: P -1
;
_chemical_formula_sum "Si O2"
_cell_formula_units_Z 16
_cell_length_a 9.600946
_cell_length_b 9.853203
_cell_length_c 10.078620
_cell_angle_alpha 104.004675
_cell_angle_beta 96.079619
_cell_angle_gamma 130.245876
_cell_volume 660.351590
_symmetry_space_group_name_H-M "P -1"
_symmetry_group_IT_number 2
_symmetry_cell_setting 'triclinic'
loop_
_space_group_symop_operation_xyz
x,y,z
-x,-y,-z
loop_
_atom_site_type_symbol
_atom_site_label
_atom_site_fract_x
_atom_site_fract_y
_atom_site_fract_z
Si Si1 0.801302 0.424311 0.513941
Si Si2 0.294629 0.307054 0.748121
Si Si3 0.584242 0.036664 0.272520
Si Si4 0.901633 0.062490 0.187985
Si Si5 0.124115 0.459707 0.891117
Si Si6 0.659549 0.398774 0.776897
Si Si7 0.793238 0.171913 0.966947
Si Si8 0.730765 0.674546 0.532240
O O1 0.782554 0.460329 0.672168
O O2 0.776452 0.549388 0.463038
O O3 0.000000 0.500000 0.500000
O O4 0.632792 0.197042 0.411576
O O5 0.229159 0.417068 0.804531
O O6 0.525467 0.442824 0.785772
O O7 0.226731 0.209782 0.570617
O O8 0.217156 0.155403 0.824003
O O9 0.480795 0.832734 0.281409
O O10 0.435562 0.986909 0.131640
O O11 0.786748 0.111123 0.258685
O O12 0.118730 0.188904 0.300368
O O13 0.128273 0.907343 0.960388
O O14 0.901401 0.262976 0.855568
O O15 0.212022 0.509423 0.058765
O O16 0.161386 0.649079 0.909233
O O17 0.500000 0.500000 0.500000
#
# Coordination Sequence:
#
# PCOD9035551 Si02
#       8
#     2   2   2   2   2   2   2   2
#     4  12  24  43  75 105 137 189 239 296 354 414
#     4  11  25  44  70 101 141 192 233 282 362 426
#     4  10  23  42  70 106 137 182 235 294 356 415
#     4  11  24  47  70 102 143 187 235 292 350 428
#     4  10  23  43  73 105 142 184 234 293 353 418
#     4  10  22  46  68 104 146 180 234 292 351 425
#     4  10  23  44  71 104 145 180 238 297 346 417
#     4  12  26  45  69 101 145 187 233 298 351 418
#
# _framework density 24.229519
#
# number of rings (size 3 to 8) (size 9 to 14) (size 15 to 20)
#    0.000    1.250    2.500    2.250    1.750    3.500 
#    6.750    0.000    0.000    0.000    0.000    0.000 
#    0.000    0.000    0.000    0.000    0.000    0.000 
#
# Total GULP energy -89306.089194 kJ/mol
# GULP energy per Si atom -5581.630575 kJ/mol
# Density = 2.417437 g / cm^3
# Si number density = 24.229519 Si / 1000 Ang^3
#
#
#
# Elastic Constant Matrix: (Units=GPa)
#
#
# Indices 1 2 3 4 5 6 
#
# 1 137.0911 24.3848 38.9922 -8.8457 10.6607 24.2368
# 2 24.3848 84.4594 33.7331 -23.8848 4.9424 10.8495
# 3 38.9922 33.7331 93.9815 -16.1186 6.5735 8.7912
# 4 -8.8457 -23.8848 -16.1186 34.4278 -1.2844 6.7584
# 5 10.6607 4.9424 6.5735 -1.2844 35.6775 0.1889
# 6 24.2368 10.8495 8.7912 6.7584 0.1889 39.8275
#
#
#
# Elastic Compliance Matrix: (Units=1/GPa)
#
#
# Indices 1 2 3 4 5 6 
#
# 1 0.009372 -0.000231 -0.002833 0.001886 -0.002150 -0.005325
# 2 -0.000231 0.017359 -0.003558 0.011397 -0.001240 -0.005731
# 3 -0.002833 -0.003558 0.013845 0.003430 -0.001083 -0.000939
# 4 0.001886 0.011397 0.003430 0.041358 -0.001222 -0.012022
# 5 -0.002150 -0.001240 -0.001083 -0.001222 0.028988 0.001955
# 6 -0.005325 -0.005731 -0.000939 -0.012022 0.001955 0.032148
#
#
# Mechanical properties :
#
#
# Convention : Reuss Voigt Hill
#
# Bulk Modulus (GPa) = 36.58683 56.63913 46.61298
# Shear Modulus (GPa) = 30.22526 36.54802 33.38664
#
# Velocity S-wave (km/s) = 3.53577 3.88804 3.71608
# Velocity P-wave (km/s) = 5.63930 6.60171 6.13940
#
# Compressibility (1/GPa) = 0.02733224
#
# Stress axis : x y z
#
# Youngs Moduli (GPa) = 106.70484 57.60555 72.22962
#
# Poissons Ratio (x) = 0.01330 0.20465
# Poissons Ratio (y) = 0.02463 0.25696
# Poissons Ratio (z) = 0.30234 0.20493
#
# Static dielectric constant tensor:
#      x y z
#    x 1.947680 0.021340 0.057670 
#    y 0.021340 2.042690 -0.035530 
#    z 0.057670 -0.035530 1.935920 
# 
# From -- ./inp_files/392828.got.cif
#   From: 2010.05.17/outbox.cif.g08.bks.cpg/sg2_197_cif.got.tgz:392828.got - 2010.06.03 11:33:40.
