data_PCOD9035226
_publ_section_title
;
Structure prediction by ZEFSAII (Michael W. Deem and Ramdas Pophale) SiO2 
 PCOD9035226
Probable space group: P -1
;
_chemical_formula_sum "Si O2"
_cell_formula_units_Z 15
_cell_length_a 5.584501
_cell_length_b 5.711882
_cell_length_c 19.474881
_cell_angle_alpha 91.071076
_cell_angle_beta 86.680325
_cell_angle_gamma 104.348219
_cell_volume 600.816946
_symmetry_space_group_name_H-M "P -1"
_symmetry_group_IT_number 2
_symmetry_cell_setting 'triclinic'
loop_
_space_group_symop_operation_xyz
x,y,z
-x,-y,-z
loop_
_atom_site_type_symbol
_atom_site_label
_atom_site_fract_x
_atom_site_fract_y
_atom_site_fract_z
Si Si1 0.293695 0.576504 0.402183
Si Si2 0.943434 0.738411 0.036226
Si Si3 0.822787 0.981894 0.841259
Si Si4 0.152514 0.705922 0.774789
Si Si5 0.278390 0.706477 0.617126
Si Si6 0.500000 0.000000 0.500000
Si Si7 0.655953 0.294022 0.751268
Si Si8 0.444322 0.535158 0.872077
O O1 0.486033 0.404720 0.408509
O O2 0.372598 0.706505 0.328665
O O3 0.003348 0.439639 0.396474
O O4 0.319949 0.760373 0.465312
O O5 0.660335 0.649895 0.067485
O O6 0.099740 0.806454 0.104400
O O7 0.000000 0.500000 0.000000
O O8 0.000000 0.000000 0.000000
O O9 0.693158 0.737487 0.882467
O O10 0.037109 0.934259 0.789524
O O11 0.637816 0.044632 0.788923
O O12 0.291542 0.734701 0.699556
O O13 0.247547 0.677675 0.850509
O O14 0.925592 0.470285 0.763703
O O15 0.331487 0.950218 0.573355
O O16 0.474822 0.413509 0.798150
#
# Coordination Sequence:
#
# PCOD9035226 Si02
#       8
#     2   2   2   2   2   1   2   2
#     4  11  26  47  71 111 151 201 257 326 387 473
#     4  12  29  50  72 109 158 203 249 313 397 487
#     4  11  26  44  76 111 141 189 262 313 388 463
#     4  10  22  45  72 106 144 187 248 328 378 454
#     4  11  26  47  71 107 154 197 264 317 397 464
#     4  12  28  44  76 102 158 210 256 310 406 464
#     4  10  23  43  74 107 137 189 255 320 388 450
#     4  11  24  45  76 102 145 190 246 320 381 455
#
# _framework density 24.966007000000001
#
# number of rings (size 3 to 8) (size 9 to 14) (size 15 to 20)
#    0.000    1.067    2.667    1.600    7.467    5.333 
#    0.000    0.000    0.000    0.000    0.000    0.000 
#    0.000    0.000    0.000    0.000    0.000    0.000 
#
# Total GULP energy -83526.646464 kJ/mol
# GULP energy per Si atom -5568.443098 kJ/mol
# Density = 2.490918 g / cm^3
# Si number density = 24.966007 Si / 1000 Ang^3
#
#
#
# Elastic Constant Matrix: (Units=GPa)
#
#
# Indices 1 2 3 4 5 6 
#
# 1 73.5101 21.4213 12.9690 14.0366 4.7049 17.2885
# 2 21.4213 90.5605 47.5327 7.6276 -6.0933 28.3732
# 3 12.9690 47.5327 127.1116 7.8999 -8.5990 17.8508
# 4 14.0366 7.6276 7.8999 56.8097 15.5430 -2.2588
# 5 4.7049 -6.0933 -8.5990 15.5430 35.2945 -6.6166
# 6 17.2885 28.3732 17.8508 -2.2588 -6.6166 34.2829
#
#
#
# Elastic Compliance Matrix: (Units=1/GPa)
#
#
# Indices 1 2 3 4 5 6 
#
# 1 0.016719 -0.001263 -0.000036 -0.003629 -0.002369 -0.008063
# 2 -0.001263 0.017621 -0.004659 -0.002093 0.000842 -0.011496
# 3 -0.000036 -0.004659 0.009977 -0.001350 0.002035 -0.001017
# 4 -0.003629 -0.002093 -0.001350 0.021579 -0.008968 0.003957
# 5 -0.002369 0.000842 0.002035 -0.008968 0.034263 0.005460
# 6 -0.008063 -0.011496 -0.001017 0.003957 0.005460 0.044594
#
#
# Mechanical properties :
#
#
# Convention : Reuss Voigt Hill
#
# Bulk Modulus (GPa) = 30.86289 50.55869 40.71079
# Shear Modulus (GPa) = 29.85605 39.22805 34.54205
#
# Velocity S-wave (km/s) = 3.46188 3.96821 3.72366
# Velocity P-wave (km/s) = 5.32619 6.42577 5.90165
#
# Compressibility (1/GPa) = 0.03240137
#
# Stress axis : x y z
#
# Youngs Moduli (GPa) = 59.81243 56.74930 100.22619
#
# Poissons Ratio (x) = 0.07170 0.00358
# Poissons Ratio (y) = 0.07557 0.46695
# Poissons Ratio (z) = 0.00214 0.26439
#
# Static dielectric constant tensor:
#      x y z
#    x 2.039640 -0.023690 0.005110 
#    y -0.023690 2.053460 -0.073330 
#    z 0.005110 -0.073330 1.936150 
# 
# From -- ./inp_files/12237.got.cif
#   From: 2010.05.17/outbox.cif.g08.bks.cpg/sg2_7_cif.got.tgz:12237.got - 2010.06.03 11:33:40.
