data_PCOD9035352
_publ_section_title
;
Structure prediction by ZEFSAII (Michael W. Deem and Ramdas Pophale) SiO2 
 PCOD9035352
Probable space group: P -1
;
_chemical_formula_sum "Si O2"
_cell_formula_units_Z 14
_cell_length_a 8.845496
_cell_length_b 18.139458
_cell_length_c 5.304199
_cell_angle_alpha 74.999889
_cell_angle_beta 67.847606
_cell_angle_gamma 121.955826
_cell_volume 543.222000
_symmetry_space_group_name_H-M "P -1"
_symmetry_group_IT_number 2
_symmetry_cell_setting 'triclinic'
loop_
_space_group_symop_operation_xyz
x,y,z
-x,-y,-z
loop_
_atom_site_type_symbol
_atom_site_label
_atom_site_fract_x
_atom_site_fract_y
_atom_site_fract_z
Si Si1 0.290695 0.284527 0.757204
Si Si2 0.627190 0.155613 0.382655
Si Si3 0.689300 0.027651 0.661972
Si Si4 0.270034 0.374331 0.202021
Si Si5 0.204662 0.549712 0.640387
Si Si6 0.795559 0.919873 0.002537
Si Si7 0.934993 0.358759 0.661683
O O1 0.199215 0.296541 0.553300
O O2 0.558713 0.367387 0.442664
O O3 0.200483 0.169638 0.973327
O O4 0.294762 0.335442 0.964772
O O5 0.788338 0.140913 0.404351
O O6 0.468324 0.151064 0.677670
O O7 0.436585 0.051322 0.424888
O O8 0.768069 0.253043 0.020156
O O9 0.500000 0.000000 0.000000
O O10 0.824066 0.001062 0.721353
O O11 0.051432 0.358821 0.346579
O O12 0.500000 0.500000 0.000000
O O13 0.199758 0.611072 0.369186
O O14 0.145605 0.451996 0.625151
O O15 0.000000 0.500000 0.000000
O O16 0.000000 0.000000 0.000000
#
# Coordination Sequence:
#
# PCOD9035352 Si02
#       7
#     2   2   2   2   2   2   2
#     4  12  28  49  78 110 155 203 252 313 383 450
#     4  10  22  45  74 106 143 190 255 315 381 444
#     4   9  21  44  73 100 142 191 249 316 374 447
#     4  12  27  51  75 111 157 201 251 308 384 459
#     4  11  24  43  76 109 147 198 250 309 379 453
#     4  11  26  48  73 108 150 201 253 316 379 457
#     4  11  25  43  74 110 145 195 250 313 375 459
#
# _framework density 25.772152999999999
#
# number of rings (size 3 to 8) (size 9 to 14) (size 15 to 20)
#    0.000    1.143    1.429    3.000    8.000    5.143 
#    5.143    0.000    0.000    0.000    0.000    0.000 
#    0.000    0.000    0.000    0.000    0.000    0.000 
#
# Total GULP energy -78372.060501 kJ/mol
# GULP energy per Si atom -5598.004322 kJ/mol
# Density = 2.571349 g / cm^3
# Si number density = 25.772153 Si / 1000 Ang^3
#
#
#
# Elastic Constant Matrix: (Units=GPa)
#
#
# Indices 1 2 3 4 5 6 
#
# 1 125.3607 21.7961 24.2476 -6.9543 27.1286 -17.9023
# 2 21.7961 123.5865 26.7930 2.3378 8.3507 -28.4272
# 3 24.2476 26.7930 130.2175 -5.7535 17.6526 -27.5635
# 4 -6.9543 2.3378 -5.7535 41.6363 -1.6827 -0.9299
# 5 27.1286 8.3507 17.6526 -1.6827 53.4639 -5.1436
# 6 -17.9023 -28.4272 -27.5635 -0.9299 -5.1436 40.4110
#
#
#
# Elastic Compliance Matrix: (Units=1/GPa)
#
#
# Indices 1 2 3 4 5 6 
#
# 1 0.009611 -0.000655 -0.000362 0.001485 -0.004316 0.003035
# 2 -0.000655 0.009782 -0.000559 -0.000616 -0.000440 0.006140
# 3 -0.000362 -0.000559 0.009413 0.001306 -0.002256 0.005610
# 4 0.001485 -0.000616 0.001306 0.024511 -0.000157 0.001659
# 5 -0.004316 -0.000440 -0.002256 -0.000157 0.021606 -0.001014
# 6 0.003035 0.006140 0.005610 0.001659 -0.001014 0.034145
#
#
# Mechanical properties :
#
#
# Convention : Reuss Voigt Hill
#
# Bulk Modulus (GPa) = 38.97942 58.31535 48.64739
# Shear Modulus (GPa) = 41.40143 47.52410 44.46276
#
# Velocity S-wave (km/s) = 4.01239 4.29885 4.15809
# Velocity P-wave (km/s) = 6.05171 6.87870 6.47842
#
# Compressibility (1/GPa) = 0.02565456
#
# Stress axis : x y z
#
# Youngs Moduli (GPa) = 104.05103 102.23140 106.23851
#
# Poissons Ratio (x) = 0.06695 0.03842
# Poissons Ratio (y) = 0.06814 0.05936
# Poissons Ratio (z) = 0.03763 0.05712
#
# Static dielectric constant tensor:
#      x y z
#    x 2.133390 -0.011950 -0.017790 
#    y -0.011950 2.036270 0.023090 
#    z -0.017790 0.023090 2.101040 
# 
# From -- ./inp_files/47037.got.cif
#   From: 2010.05.17/outbox.cif.g08.bks.cpg/sg2_24_cif.got.tgz:47037.got - 2010.06.03 11:33:40.
