data_PCOD9035911
_publ_section_title
;
Structure prediction by ZEFSAII (Michael W. Deem and Ramdas Pophale) SiO2 
 PCOD9035911
Probable space group: P -1
;
_chemical_formula_sum "Si O2"
_cell_formula_units_Z 16
_cell_length_a 7.996833
_cell_length_b 17.082804
_cell_length_c 5.949618
_cell_angle_alpha 104.076476
_cell_angle_beta 74.699502
_cell_angle_gamma 64.364629
_cell_volume 644.344846
_symmetry_space_group_name_H-M "P -1"
_symmetry_group_IT_number 2
_symmetry_cell_setting 'triclinic'
loop_
_space_group_symop_operation_xyz
x,y,z
-x,-y,-z
loop_
_atom_site_type_symbol
_atom_site_label
_atom_site_fract_x
_atom_site_fract_y
_atom_site_fract_z
Si Si1 0.832978 0.211107 0.395559
Si Si2 0.415873 0.931750 0.927594
Si Si3 0.080742 0.392393 0.972022
Si Si4 0.813329 0.787292 0.428668
Si Si5 0.335009 0.561103 0.788398
Si Si6 0.519616 0.622508 0.110823
Si Si7 0.140887 0.098742 0.859547
Si Si8 0.237334 0.933722 0.428330
O O1 0.639953 0.314679 0.592101
O O2 0.756258 0.144401 0.470448
O O3 0.023656 0.201054 0.470181
O O4 0.916014 0.175672 0.090181
O O5 0.590011 0.848872 0.658633
O O6 0.199587 0.016054 0.967567
O O7 0.373524 0.890070 0.131639
O O8 0.500000 0.000000 0.000000
O O9 0.114623 0.322091 0.704602
O O10 0.303360 0.354986 0.973096
O O11 0.000000 0.500000 0.000000
O O12 0.898162 0.394603 0.178548
O O13 0.800238 0.828379 0.210044
O O14 0.500000 0.500000 0.500000
O O15 0.365422 0.485937 0.918762
O O16 0.390223 0.630731 0.942205
O O17 0.265205 0.016819 0.568259
O O18 0.000000 0.000000 0.500000
#
# Coordination Sequence:
#
# PCOD9035911 Si02
#       8
#     2   2   2   2   2   2   2   2
#     4  12  25  43  67 102 139 188 239 287 351 425
#     4  12  24  43  64 100 139 188 235 293 346 418
#     4  10  24  48  70 103 143 179 234 300 353 429
#     4  12  25  45  69  99 143 187 239 295 356 422
#     4  10  22  46  75  99 137 178 225 297 360 420
#     4  10  24  44  69 102 138 179 232 288 355 427
#     4  12  24  40  71  94 142 189 233 288 360 411
#     4  12  24  43  62  95 141 184 233 290 345 415
#
# _framework density 24.831424999999999
#
# number of rings (size 3 to 8) (size 9 to 14) (size 15 to 20)
#    0.000    0.750    6.250    0.750    3.500    0.500 
#    4.500    0.000    0.000    0.000    0.000    0.000 
#    0.000    0.000    0.000    0.000    0.000    0.000 
#
# Total GULP energy -89130.042603 kJ/mol
# GULP energy per Si atom -5570.627663 kJ/mol
# Density = 2.477491 g / cm^3
# Si number density = 24.831425 Si / 1000 Ang^3
#
#
#
# Elastic Constant Matrix: (Units=GPa)
#
#
# Indices 1 2 3 4 5 6 
#
# 1 155.4169 19.0012 48.6327 7.2965 -23.8556 11.5737
# 2 19.0012 94.6575 39.6777 25.5254 -1.8035 7.8249
# 3 48.6327 39.6777 164.1337 13.6440 -50.3288 19.4942
# 4 7.2965 25.5254 13.6440 47.7095 6.3868 -3.5557
# 5 -23.8556 -1.8035 -50.3288 6.3868 40.9558 5.5637
# 6 11.5737 7.8249 19.4942 -3.5557 5.5637 26.6150
#
#
#
# Elastic Compliance Matrix: (Units=1/GPa)
#
#
# Indices 1 2 3 4 5 6 
#
# 1 0.007792 -0.000652 0.000589 -0.002245 0.006296 -0.005244
# 2 -0.000652 0.013788 -0.003183 -0.006164 -0.002486 -0.001743
# 3 0.000589 -0.003183 0.017215 -0.008029 0.025089 -0.018247
# 4 -0.002245 -0.006164 -0.008029 0.030610 -0.018477 0.016621
# 5 0.006296 -0.002486 0.025089 -0.018477 0.066684 -0.036791
# 6 -0.005244 -0.001743 -0.018247 0.016621 -0.036791 0.063642
#
#
# Mechanical properties :
#
#
# Convention : Reuss Voigt Hill
#
# Bulk Modulus (GPa) = 30.95647 69.87016 50.41332
# Shear Modulus (GPa) = 23.04240 43.51582 33.27911
#
# Velocity S-wave (km/s) = 3.04954 4.19077 3.66485
# Velocity P-wave (km/s) = 4.98932 7.18440 6.18502
#
# Compressibility (1/GPa) = 0.03230342
#
# Stress axis : x y z
#
# Youngs Moduli (GPa) = 128.33514 72.52467 58.08861
#
# Poissons Ratio (x) = 0.04730 -0.03421
# Poissons Ratio (y) = 0.08370 0.18489
# Poissons Ratio (z) = -0.07558 0.23083
#
# Static dielectric constant tensor:
#      x y z
#    x 2.133540 -0.047560 0.117130 
#    y -0.047560 1.950690 -0.041340 
#    z 0.117130 -0.041340 1.975020 
# 
# From -- ./inp_files/48575.got.cif
#   From: 2010.05.17/outbox.cif.g08.bks.cpg/sg2_25_cif.got.tgz:48575.got - 2010.06.03 11:33:40.
