data_PCOD9035966
_publ_section_title
;
Structure prediction by ZEFSAII (Michael W. Deem and Ramdas Pophale) SiO2 
 PCOD9035966
Probable space group: P -1
;
_chemical_formula_sum "Si O2"
_cell_formula_units_Z 14
_cell_length_a 11.042319
_cell_length_b 7.139877
_cell_length_c 12.990272
_cell_angle_alpha 78.227445
_cell_angle_beta 139.557243
_cell_angle_gamma 75.624212
_cell_volume 502.176400
_symmetry_space_group_name_H-M "P -1"
_symmetry_group_IT_number 2
_symmetry_cell_setting 'triclinic'
loop_
_space_group_symop_operation_xyz
x,y,z
-x,-y,-z
loop_
_atom_site_type_symbol
_atom_site_label
_atom_site_fract_x
_atom_site_fract_y
_atom_site_fract_z
Si Si1 0.734415 0.637671 0.444452
Si Si2 0.227528 0.186911 0.763667
Si Si3 0.303635 0.733783 0.777267
Si Si4 0.759348 0.022606 0.844988
Si Si5 0.560904 0.283869 0.487198
Si Si6 0.706718 0.616910 0.897091
Si Si7 0.929485 0.835541 0.664332
O O1 0.753694 0.677929 0.333265
O O2 0.726597 0.818177 0.498986
O O3 0.998759 0.377508 0.666536
O O4 0.465978 0.724639 0.270317
O O5 0.196011 0.995905 0.724456
O O6 0.500000 0.000000 0.000000
O O7 0.458762 0.708167 0.783951
O O8 0.076668 0.749554 0.660440
O O9 0.500000 0.500000 0.000000
O O10 0.659186 0.068662 0.658962
O O11 0.775989 0.798429 0.930147
O O12 0.000000 0.000000 0.000000
O O13 0.500000 0.500000 0.500000
O O14 0.340095 0.389215 0.254267
O O15 0.800012 0.113058 0.588710
O O16 0.904427 0.363324 0.115943
#
# Coordination Sequence:
#
# PCOD9035966 Si02
#       7
#     2   2   2   2   2   2   2
#     4  11  26  48  78 124 166 223 287 348 429 506
#     4  11  23  45  80 119 172 213 275 357 429 507
#     4  10  22  46  82 124 161 215 263 337 448 512
#     4  12  29  55  81 115 169 233 294 347 415 500
#     4  12  30  52  80 122 163 224 297 349 425 521
#     4  11  25  55  86 118 176 219 280 361 431 510
#     4  11  26  50  85 119 168 222 273 355 447 513
#
# _framework density 27.878651000000001
#
# number of rings (size 3 to 8) (size 9 to 14) (size 15 to 20)
#    0.000    0.857    2.857    2.143    4.000    5.143 
#    5.143    0.000    0.000    0.000    0.000    0.000 
#    0.000    0.000    0.000    0.000    0.000    0.000 
#
# Total GULP energy -78091.709407 kJ/mol
# GULP energy per Si atom -5577.979243 kJ/mol
# Density = 2.781520 g / cm^3
# Si number density = 27.878651 Si / 1000 Ang^3
#
#
#
# Elastic Constant Matrix: (Units=GPa)
#
#
# Indices 1 2 3 4 5 6 
#
# 1 179.3563 59.6472 92.9262 2.3989 27.0040 2.6167
# 2 59.6472 132.4545 60.9875 -19.9003 8.7139 -17.6807
# 3 92.9262 60.9875 205.2064 -9.7365 16.8320 -7.8714
# 4 2.3989 -19.9003 -9.7365 46.8819 -14.4944 7.5743
# 5 27.0040 8.7139 16.8320 -14.4944 68.5349 -6.4724
# 6 2.6167 -17.6807 -7.8714 7.5743 -6.4724 37.7171
#
#
#
# Elastic Compliance Matrix: (Units=1/GPa)
#
#
# Indices 1 2 3 4 5 6 
#
# 1 0.008732 -0.003139 -0.003003 -0.002957 -0.003180 -0.002656
# 2 -0.003139 0.010786 -0.001544 0.004189 0.001544 0.004376
# 3 -0.003003 -0.001544 0.006760 0.000769 -0.000049 0.000733
# 4 -0.002957 0.004189 0.000769 0.025461 0.005657 -0.001813
# 5 -0.003180 0.001544 -0.000049 0.005657 0.017115 0.002735
# 6 -0.002656 0.004376 0.000733 -0.001813 0.002735 0.029735
#
#
# Mechanical properties :
#
#
# Convention : Reuss Voigt Hill
#
# Bulk Modulus (GPa) = 91.68661 104.90435 98.29548
# Shear Modulus (GPa) = 42.51766 50.85719 46.68742
#
# Velocity S-wave (km/s) = 3.90949 4.27574 4.09671
# Velocity P-wave (km/s) = 7.30328 7.87950 7.59686
#
# Compressibility (1/GPa) = 0.01090672
#
# Stress axis : x y z
#
# Youngs Moduli (GPa) = 114.51566 92.70973 147.92034
#
# Poissons Ratio (x) = 0.29106 0.44416
# Poissons Ratio (y) = 0.35952 0.22840
# Poissons Ratio (z) = 0.34386 0.14315
#
# Static dielectric constant tensor:
#      x y z
#    x 2.298810 0.064730 -0.027870 
#    y 0.064730 2.200350 -0.051220 
#    z -0.027870 -0.051220 2.158700 
# 
# From -- ./inp_files/513149.got.cif
#   From: 2010.05.17/outbox.cif.g08.bks.cpg/sg2_257_cif.got.tgz:513149.got - 2010.06.03 11:33:40.
