data_PCOD9035737
_publ_section_title
;
Structure prediction by ZEFSAII (Michael W. Deem and Ramdas Pophale) SiO2 
 PCOD9035737
Probable space group: P -1
;
_chemical_formula_sum "Si O2"
_cell_formula_units_Z 14
_cell_length_a 8.532724
_cell_length_b 14.528542
_cell_length_c 11.856463
_cell_angle_alpha 129.374569
_cell_angle_beta 59.730047
_cell_angle_gamma 150.340757
_cell_volume 557.939345
_symmetry_space_group_name_H-M "P -1"
_symmetry_group_IT_number 2
_symmetry_cell_setting 'triclinic'
loop_
_space_group_symop_operation_xyz
x,y,z
-x,-y,-z
loop_
_atom_site_type_symbol
_atom_site_label
_atom_site_fract_x
_atom_site_fract_y
_atom_site_fract_z
Si Si1 0.736538 0.772888 0.969244
Si Si2 0.947300 0.109994 0.839797
Si Si3 0.159545 0.741237 0.552901
Si Si4 0.156034 0.964826 0.570661
Si Si5 0.155029 0.588143 0.135635
Si Si6 0.211390 0.680185 0.728770
Si Si7 0.166633 0.352794 0.730488
O O1 0.502636 0.731979 0.093588
O O2 0.904365 0.781607 0.008292
O O3 0.519897 0.592834 0.812459
O O4 0.000000 0.000000 0.000000
O O5 0.037042 0.253552 0.824275
O O6 0.569233 0.887417 0.805111
O O7 0.096423 0.066390 0.708913
O O8 0.129007 0.854264 0.595813
O O9 0.167032 0.744491 0.688845
O O10 0.878624 0.498491 0.429482
O O11 0.496635 0.866400 0.483062
O O12 0.880546 0.784610 0.439391
O O13 0.008315 0.433114 0.169086
O O14 0.070346 0.678778 0.265689
O O15 0.000000 0.500000 0.000000
#
# Coordination Sequence:
#
# PCOD9035737 Si02
#       7
#     2   2   2   2   2   2   2
#     4  11  26  49  72 101 136 186 240 299 358 423
#     4  12  25  41  71 106 146 185 236 289 352 418
#     4  10  23  41  69  98 148 180 241 281 359 410
#     4  11  23  45  71 106 144 190 232 298 347 413
#     4  10  22  46  71  92 138 189 233 289 347 423
#     4  11  22  42  66 107 141 185 235 291 350 431
#     4  11  23  46  70 102 146 188 231 289 355 419
#
# _framework density 25.092334999999999
#
# number of rings (size 3 to 8) (size 9 to 14) (size 15 to 20)
#    0.000    1.143    2.857    3.429    2.000    0.571 
#    0.000   12.143    0.000    0.000    0.000    0.000 
#    0.000    0.000    0.000    0.000    0.000    0.000 
#
# Total GULP energy -78423.715172 kJ/mol
# GULP energy per Si atom -5601.693941 kJ/mol
# Density = 2.503522 g / cm^3
# Si number density = 25.092335 Si / 1000 Ang^3
#
#
#
# Elastic Constant Matrix: (Units=GPa)
#
#
# Indices 1 2 3 4 5 6 
#
# 1 117.6334 63.3744 36.2858 -9.4025 22.0137 -23.6250
# 2 63.3744 174.0711 29.3094 -9.8191 18.2486 0.8859
# 3 36.2858 29.3094 97.2174 6.9880 21.8014 8.9601
# 4 -9.4025 -9.8191 6.9880 57.5561 -1.9500 18.9052
# 5 22.0137 18.2486 21.8014 -1.9500 43.6630 3.4245
# 6 -23.6250 0.8859 8.9601 18.9052 3.4245 44.8075
#
#
#
# Elastic Compliance Matrix: (Units=1/GPa)
#
#
# Indices 1 2 3 4 5 6 
#
# 1 0.014688 -0.004326 -0.003981 -0.001100 -0.004398 0.009426
# 2 -0.004326 0.007540 -0.000393 0.001593 -0.000469 -0.002988
# 3 -0.003981 -0.000393 0.013280 -0.001182 -0.004204 -0.003927
# 4 -0.001100 0.001593 -0.001182 0.020732 0.002134 -0.009286
# 5 -0.004398 -0.000469 -0.004204 0.002134 0.027863 -0.004498
# 6 0.009426 -0.002988 -0.003927 -0.009286 -0.004498 0.032394
#
#
# Mechanical properties :
#
#
# Convention : Reuss Voigt Hill
#
# Bulk Modulus (GPa) = 55.22322 71.87346 63.54834
# Shear Modulus (GPa) = 35.73116 46.53546 41.13331
#
# Velocity S-wave (km/s) = 3.77767 4.31114 4.05319
# Velocity P-wave (km/s) = 6.40964 7.31348 6.87643
#
# Compressibility (1/GPa) = 0.01810832
#
# Stress axis : x y z
#
# Youngs Moduli (GPa) = 68.08296 132.62463 75.29898
#
# Poissons Ratio (x) = 0.57375 0.29980
# Poissons Ratio (y) = 0.29453 0.02956
# Poissons Ratio (z) = 0.27107 0.05206
#
# Static dielectric constant tensor:
#      x y z
#    x 2.099240 0.012920 -0.063850 
#    y 0.012920 1.935030 0.013230 
#    z -0.063850 0.013230 2.076110 
# 
# From -- ./inp_files/396213.got.cif
#   From: 2010.05.17/outbox.cif.g08.bks.cpg/sg2_199_cif.got.tgz:396213.got - 2010.06.03 11:33:40.
