data_PCOD9035884
_publ_section_title
;
Structure prediction by ZEFSAII (Michael W. Deem and Ramdas Pophale) SiO2 
 PCOD9035884
Probable space group: P -1
;
_chemical_formula_sum "Si O2"
_cell_formula_units_Z 15
_cell_length_a 9.368631
_cell_length_b 4.895944
_cell_length_c 15.270006
_cell_angle_alpha 104.497986
_cell_angle_beta 125.221332
_cell_angle_gamma 83.825375
_cell_volume 553.364189
_symmetry_space_group_name_H-M "P -1"
_symmetry_group_IT_number 2
_symmetry_cell_setting 'triclinic'
loop_
_space_group_symop_operation_xyz
x,y,z
-x,-y,-z
loop_
_atom_site_type_symbol
_atom_site_label
_atom_site_fract_x
_atom_site_fract_y
_atom_site_fract_z
Si Si1 0.914256 0.220739 0.551786
Si Si2 0.278337 0.485588 0.190071
Si Si3 0.270917 0.004466 0.359429
Si Si4 0.433145 0.818959 0.634672
Si Si5 0.000000 0.500000 0.000000
Si Si6 0.287762 0.277128 0.739670
Si Si7 0.983974 0.120361 0.134688
Si Si8 0.349637 0.842554 0.880013
O O1 0.810619 0.062042 0.581168
O O2 0.751015 0.359824 0.456673
O O3 0.090860 0.379138 0.660250
O O4 0.000000 0.000000 0.500000
O O5 0.288522 0.715281 0.288465
O O6 0.429161 0.283721 0.253522
O O7 0.223608 0.613095 0.089568
O O8 0.080476 0.315939 0.110049
O O9 0.123730 0.158177 0.265524
O O10 0.456247 0.164624 0.415548
O O11 0.372970 0.119612 0.674678
O O12 0.960922 0.798506 0.072360
O O13 0.399058 0.550319 0.830963
O O14 0.280389 0.046116 0.795633
O O15 0.805825 0.231008 0.113818
O O16 0.500000 0.000000 0.000000
#
# Coordination Sequence:
#
# PCOD9035884 Si02
#       8
#     2   2   2   2   1   2   2   2
#     4  10  22  46  74 108 156 205 258 316 393 458
#     4   9  21  41  68 105 151 193 256 317 379 457
#     4  11  20  41  73 104 151 195 258 320 383 459
#     4  10  24  44  69 112 150 205 255 322 373 462
#     4   8  20  42  66 102 148 198 246 314 392 442
#     4  11  26  50  73 111 159 201 262 316 392 470
#     4   9  21  42  69 104 147 199 251 316 384 460
#     4  12  26  49  79 111 153 205 259 322 395 470
#
# _framework density 27.106922999999998
#
# number of rings (size 3 to 8) (size 9 to 14) (size 15 to 20)
#    0.800    1.067    1.333    1.600    1.867    2.133 
#    7.200    2.000    0.000    2.400    0.000    0.000 
#    0.000    0.000    0.000    0.000    0.000    0.000 
#
# Total GULP energy -83808.140197 kJ/mol
# GULP energy per Si atom -5587.209346 kJ/mol
# Density = 2.704523 g / cm^3
# Si number density = 27.106923 Si / 1000 Ang^3
#
#
#
# Elastic Constant Matrix: (Units=GPa)
#
#
# Indices 1 2 3 4 5 6 
#
# 1 163.5016 14.6468 51.1027 -22.8662 11.6784 -3.8719
# 2 14.6468 92.9544 30.8167 -4.5613 1.1297 -8.2174
# 3 51.1027 30.8167 135.5706 -21.9977 21.1580 -14.9377
# 4 -22.8662 -4.5613 -21.9977 47.9021 -9.0139 -1.5361
# 5 11.6784 1.1297 21.1580 -9.0139 39.7120 -19.6563
# 6 -3.8719 -8.2174 -14.9377 -1.5361 -19.6563 35.8195
#
#
#
# Elastic Compliance Matrix: (Units=1/GPa)
#
#
# Indices 1 2 3 4 5 6 
#
# 1 0.007189 -0.000320 -0.002225 0.002241 -0.000651 -0.000485
# 2 -0.000320 0.011943 -0.002616 0.000415 0.002815 0.003177
# 3 -0.002225 -0.002616 0.009922 0.002719 -0.003090 0.001718
# 4 0.002241 0.000415 0.002719 0.024650 0.006490 0.006090
# 5 -0.000651 0.002815 -0.003090 0.006490 0.038712 0.020808
# 6 -0.000485 0.003177 0.001718 0.006090 0.020808 0.040990
#
#
# Mechanical properties :
#
#
# Convention : Reuss Voigt Hill
#
# Bulk Modulus (GPa) = 53.38708 65.01765 59.20236
# Shear Modulus (GPa) = 33.33942 44.38408 38.86175
#
# Velocity S-wave (km/s) = 3.51083 4.05083 3.79046
# Velocity P-wave (km/s) = 6.01434 6.77619 6.40660
#
# Compressibility (1/GPa) = 0.01873112
#
# Stress axis : x y z
#
# Youngs Moduli (GPa) = 139.10609 83.73374 100.78175
#
# Poissons Ratio (x) = 0.02680 0.22427
# Poissons Ratio (y) = 0.04452 0.26365
# Poissons Ratio (z) = 0.30955 0.21905
#
# Static dielectric constant tensor:
#      x y z
#    x 2.216080 0.042550 0.041450 
#    y 0.042550 2.171730 -0.010490 
#    z 0.041450 -0.010490 2.215210 
# 
# From -- ./inp_files/110457.got.cif
#   From: 2010.05.17/outbox.cif.g08.bks.cpg/sg2_56_cif.got.tgz:110457.got - 2010.06.03 11:33:40.
