data_PCOD9035775
_publ_section_title
;
Structure prediction by ZEFSAII (Michael W. Deem and Ramdas Pophale) SiO2 
 PCOD9035775
Probable space group: P -1
;
_chemical_formula_sum "Si O2"
_cell_formula_units_Z 15
_cell_length_a 9.243712
_cell_length_b 17.017545
_cell_length_c 8.750745
_cell_angle_alpha 128.726965
_cell_angle_beta 84.696310
_cell_angle_gamma 58.286794
_cell_volume 705.863392
_symmetry_space_group_name_H-M "P -1"
_symmetry_group_IT_number 2
_symmetry_cell_setting 'triclinic'
loop_
_space_group_symop_operation_xyz
x,y,z
-x,-y,-z
loop_
_atom_site_type_symbol
_atom_site_label
_atom_site_fract_x
_atom_site_fract_y
_atom_site_fract_z
Si Si1 0.574517 0.074416 0.128038
Si Si2 0.476821 0.578435 0.249720
Si Si3 0.454309 0.811984 0.413704
Si Si4 0.871642 0.270055 0.992859
Si Si5 0.000000 0.000000 0.500000
Si Si6 0.965844 0.225318 0.289254
Si Si7 0.172363 0.323216 0.305677
Si Si8 0.706310 0.823682 0.213591
O O1 0.581963 0.089815 0.325791
O O2 0.388318 0.242873 0.280788
O O3 0.500000 0.000000 0.000000
O O4 0.825165 0.952246 0.899505
O O5 0.507095 0.677874 0.320726
O O6 0.235872 0.691706 0.482075
O O7 0.500000 0.500000 0.000000
O O8 0.652001 0.446662 0.194208
O O9 0.230133 0.919476 0.469118
O O10 0.659122 0.746537 0.217127
O O11 0.070341 0.230987 0.849756
O O12 0.908588 0.238790 0.132778
O O13 0.865743 0.165390 0.786001
O O14 0.044957 0.300406 0.379512
O O15 0.000000 0.500000 0.500000
O O16 0.272613 0.220997 0.018530
O O17 0.500000 0.000000 0.500000
#
# Coordination Sequence:
#
# PCOD9035775 Si02
#       8
#     2   2   2   2   1   2   2   2
#     4  10  22  46  72 102 143 183 246 294 356 438
#     4  12  28  43  65 105 150 187 237 304 366 426
#     4  12  26  45  71 110 140 192 239 295 367 432
#     4  11  24  47  71 102 141 189 241 301 357 435
#     4  12  22  46  74 102 146 184 246 284 374 434
#     4  10  23  47  67  94 144 190 233 291 360 429
#     4  10  24  41  72 108 134 184 239 300 360 424
#     4  11  23  46  75 101 141 188 245 293 361 429
#
# _framework density 21.250568999999999
#
# number of rings (size 3 to 8) (size 9 to 14) (size 15 to 20)
#    0.000    1.067    4.000    2.000    5.600    5.333 
#    2.400    0.000    0.000    0.000    0.000    0.000 
#    0.000    0.000    0.000    0.000    0.000    0.000 
#
# Total GULP energy -83559.458102 kJ/mol
# GULP energy per Si atom -5570.630540 kJ/mol
# Density = 2.120220 g / cm^3
# Si number density = 21.250569 Si / 1000 Ang^3
#
#
#
# Elastic Constant Matrix: (Units=GPa)
#
#
# Indices 1 2 3 4 5 6 
#
# 1 93.5422 44.2585 58.6918 -14.5563 4.5816 -10.1299
# 2 44.2585 88.9734 47.5575 22.9123 -4.9047 -8.1394
# 3 58.6918 47.5575 108.1011 -2.3359 -18.7854 -0.2013
# 4 -14.5563 22.9123 -2.3359 32.8084 -1.0950 -4.7432
# 5 4.5816 -4.9047 -18.7854 -1.0950 36.7959 -0.7938
# 6 -10.1299 -8.1394 -0.2013 -4.7432 -0.7938 45.4314
#
#
#
# Elastic Compliance Matrix: (Units=1/GPa)
#
#
# Indices 1 2 3 4 5 6 
#
# 1 0.028916 -0.014667 -0.010498 0.022852 -0.010106 0.005982
# 2 -0.014667 0.027633 -0.004327 -0.026179 0.002499 -0.001028
# 3 -0.010498 -0.004327 0.018605 -0.000391 0.010154 -0.002897
# 4 0.022852 -0.026179 -0.000391 0.059667 -0.004618 0.006552
# 5 -0.010106 0.002499 0.010154 -0.004618 0.033779 -0.001652
# 6 0.005982 -0.001028 -0.002897 0.006552 -0.001652 0.023803
#
#
# Mechanical properties :
#
#
# Convention : Reuss Voigt Hill
#
# Bulk Modulus (GPa) = 61.84390 65.73690 63.79040
# Shear Modulus (GPa) = 19.47221 32.34775 25.90998
#
# Velocity S-wave (km/s) = 3.03035 3.90578 3.49558
# Velocity P-wave (km/s) = 6.43502 7.16530 6.80995
#
# Compressibility (1/GPa) = 0.01616974
#
# Stress axis : x y z
#
# Youngs Moduli (GPa) = 34.58343 36.18831 53.75037
#
# Poissons Ratio (x) = 0.53078 0.56426
# Poissons Ratio (y) = 0.50724 0.23257
# Poissons Ratio (z) = 0.36305 0.15658
#
# Static dielectric constant tensor:
#      x y z
#    x 1.790800 0.012100 0.004090 
#    y 0.012100 1.868490 0.013960 
#    z 0.004090 0.013960 1.747670 
# 
# From -- ./inp_files/218588.got.cif
#   From: 2010.05.17/outbox.cif.g08.bks.cpg/sg2_110_cif.got.tgz:218588.got - 2010.06.03 11:33:40.
