data_PCOD9035648
_publ_section_title
;
Structure prediction by ZEFSAII (Michael W. Deem and Ramdas Pophale) SiO2 
 PCOD9035648
Probable space group: P -1
;
_chemical_formula_sum "Si O2"
_cell_formula_units_Z 14
_cell_length_a 9.315697
_cell_length_b 24.730688
_cell_length_c 9.390142
_cell_angle_alpha 150.862585
_cell_angle_beta 44.331378
_cell_angle_gamma 143.918031
_cell_volume 620.022620
_symmetry_space_group_name_H-M "P -1"
_symmetry_group_IT_number 2
_symmetry_cell_setting 'triclinic'
loop_
_space_group_symop_operation_xyz
x,y,z
-x,-y,-z
loop_
_atom_site_type_symbol
_atom_site_label
_atom_site_fract_x
_atom_site_fract_y
_atom_site_fract_z
Si Si1 0.535850 0.021849 0.192683
Si Si2 0.201349 0.511519 0.772118
Si Si3 0.780768 0.876388 0.789054
Si Si4 0.133215 0.859153 0.294975
Si Si5 0.211343 0.751322 0.259464
Si Si6 0.887859 0.576779 0.685629
Si Si7 0.657381 0.607564 0.363805
O O1 0.294821 0.982944 0.363177
O O2 0.741075 0.166095 0.438981
O O3 0.597381 0.917259 0.965708
O O4 0.500000 0.000000 0.000000
O O5 0.101647 0.435883 0.521046
O O6 0.331885 0.451549 0.628089
O O7 0.332138 0.665838 0.990851
O O8 0.000000 0.500000 0.000000
O O9 0.668918 0.744226 0.657227
O O10 0.906701 0.858587 0.521124
O O11 0.000000 0.000000 0.000000
O O12 0.280056 0.849447 0.303718
O O13 0.033682 0.727043 0.972826
O O14 0.918820 0.649857 0.207423
O O15 0.604420 0.503967 0.766914
O O16 0.000000 0.500000 0.500000
#
# Coordination Sequence:
#
# PCOD9035648 Si02
#       7
#     2   2   2   2   2   2   2
#     4  12  27  46  74 105 142 184 242 305 348 421
#     4  10  23  43  70 101 140 188 231 290 347 428
#     4  11  24  45  73 103 140 193 237 284 357 429
#     4  11  25  44  72 106 144 185 237 292 358 424
#     4  10  22  46  70 102 139 190 232 283 367 416
#     4  12  24  42  69 107 142 182 239 289 357 419
#     4  10  23  43  70 100 141 184 231 287 348 422
#
# _framework density 22.579822
#
# number of rings (size 3 to 8) (size 9 to 14) (size 15 to 20)
#    0.000    1.143    4.286    1.714    4.000    4.000 
#    2.571    0.000    0.000    0.000    0.000    0.000 
#    0.000    0.000    0.000    0.000    0.000    0.000 
#
# Total GULP energy -78181.489257 kJ/mol
# GULP energy per Si atom -5584.392090 kJ/mol
# Density = 2.252843 g / cm^3
# Si number density = 22.579822 Si / 1000 Ang^3
#
#
#
# Elastic Constant Matrix: (Units=GPa)
#
#
# Indices 1 2 3 4 5 6 
#
# 1 114.6317 22.0238 26.7645 0.7440 2.8732 -8.5765
# 2 22.0238 96.4630 -0.1065 -11.0062 6.2992 1.3197
# 3 26.7645 -0.1065 99.1087 -3.8342 9.4621 0.9353
# 4 0.7440 -11.0062 -3.8342 37.2521 -6.5035 8.9302
# 5 2.8732 6.2992 9.4621 -6.5035 43.0597 3.1168
# 6 -8.5765 1.3197 0.9353 8.9302 3.1168 30.2002
#
#
#
# Elastic Compliance Matrix: (Units=1/GPa)
#
#
# Indices 1 2 3 4 5 6 
#
# 1 0.010197 -0.002619 -0.002852 -0.002228 -0.000281 0.003786
# 2 -0.002619 0.011511 0.000986 0.003950 -0.000960 -0.002346
# 3 -0.002852 0.000986 0.011129 0.001472 -0.002075 -0.001419
# 4 -0.002228 0.003950 0.001472 0.031607 0.004795 -0.010692
# 5 -0.000281 -0.000960 -0.002075 0.004795 0.024849 -0.003956
# 6 0.003786 -0.002346 -0.001419 -0.010692 -0.003956 0.037904
#
#
# Mechanical properties :
#
#
# Convention : Reuss Voigt Hill
#
# Bulk Modulus (GPa) = 41.89534 45.28522 43.59028
# Shear Modulus (GPa) = 34.69239 39.53720 37.11479
#
# Velocity S-wave (km/s) = 3.92399 4.18903 4.05867
# Velocity P-wave (km/s) = 6.25499 6.59518 6.42734
#
# Compressibility (1/GPa) = 0.02386900
#
# Stress axis : x y z
#
# Youngs Moduli (GPa) = 98.06432 86.87258 89.85131
#
# Poissons Ratio (x) = 0.22752 0.25623
# Poissons Ratio (y) = 0.25683 -0.08861
# Poissons Ratio (z) = 0.27965 -0.08567
#
# Static dielectric constant tensor:
#      x y z
#    x 1.839080 0.008940 -0.040240 
#    y 0.008940 1.929130 -0.035740 
#    z -0.040240 -0.035740 1.870170 
# 
# From -- ./inp_files/226755.got.cif
#   From: 2010.05.17/outbox.cif.g08.bks.cpg/sg2_114_cif.got.tgz:226755.got - 2010.06.03 11:33:40.
