data_PCOD9035154
_publ_section_title
;
Structure prediction by ZEFSAII (Michael W. Deem and Ramdas Pophale) SiO2 
 PCOD9035154
Probable space group: P -1
;
_chemical_formula_sum "Si O2"
_cell_formula_units_Z 16
_cell_length_a 8.480792
_cell_length_b 20.961174
_cell_length_c 8.828211
_cell_angle_alpha 43.543196
_cell_angle_beta 41.735645
_cell_angle_gamma 41.540158
_cell_volume 641.754076
_symmetry_space_group_name_H-M "P -1"
_symmetry_group_IT_number 2
_symmetry_cell_setting 'triclinic'
loop_
_space_group_symop_operation_xyz
x,y,z
-x,-y,-z
loop_
_atom_site_type_symbol
_atom_site_label
_atom_site_fract_x
_atom_site_fract_y
_atom_site_fract_z
Si Si1 0.423382 0.920470 0.284901
Si Si2 0.717232 0.572373 0.888909
Si Si3 0.897171 0.120355 0.847256
Si Si4 0.731907 0.750846 0.984814
Si Si5 0.768987 0.299577 0.813543
Si Si6 0.888013 0.918964 0.555764
Si Si7 0.781091 0.676161 0.393753
Si Si8 0.854123 0.397428 0.296750
O O1 0.604232 0.797175 0.359596
O O2 0.149499 0.929217 0.395558
O O3 0.355456 0.971388 0.413883
O O4 0.500000 0.000000 0.000000
O O5 0.703309 0.598782 0.677261
O O6 0.003798 0.554533 0.775350
O O7 0.497064 0.675072 0.950561
O O8 0.675602 0.480888 0.156483
O O9 0.936811 0.178284 0.864100
O O10 0.065807 0.120964 0.579902
O O11 0.579077 0.178290 0.947413
O O12 0.000000 0.000000 0.000000
O O13 0.849481 0.828437 0.825325
O O14 0.911796 0.687822 0.824755
O O15 0.759688 0.672975 0.235216
O O16 0.720519 0.351022 0.591278
O O17 0.930065 0.342497 0.726676
#
# Coordination Sequence:
#
# PCOD9035154 Si02
#       8
#     2   2   2   2   2   2   2   2
#     4  11  23  41  65  92 132 182 216 266 331 400
#     4  10  23  44  68  98 133 174 228 281 336 401
#     4  12  27  40  65 100 136 179 223 275 332 400
#     4  12  24  46  67 101 138 175 225 279 337 401
#     4  11  24  42  67  99 132 179 223 278 334 405
#     4  11  24  40  66  92 130 181 223 270 325 394
#     4  11  26  39  67 101 135 171 227 277 337 399
#     4  10  22  45  71  94 130 182 225 277 341 399
#
# _framework density 24.931668999999999
#
# number of rings (size 3 to 8) (size 9 to 14) (size 15 to 20)
#    0.000    1.000    5.000    0.375    7.000    1.000 
#    0.000    0.625    0.000    0.000    0.000    0.000 
#    0.000    0.000    0.000    0.000    0.000    0.000 
#
# Total GULP energy -89407.664392 kJ/mol
# GULP energy per Si atom -5587.979025 kJ/mol
# Density = 2.487492 g / cm^3
# Si number density = 24.931669 Si / 1000 Ang^3
#
#
#
# Elastic Constant Matrix: (Units=GPa)
#
#
# Indices 1 2 3 4 5 6 
#
# 1 61.2336 4.6754 18.2432 1.1796 2.2970 -2.5453
# 2 4.6754 51.6003 5.2484 1.1846 5.2202 -3.0542
# 3 18.2432 5.2484 101.4867 -11.2966 19.9336 -15.0864
# 4 1.1796 1.1846 -11.2966 37.6323 0.8801 7.5427
# 5 2.2970 5.2202 19.9336 0.8801 29.1842 -4.2604
# 6 -2.5453 -3.0542 -15.0864 7.5427 -4.2604 23.6939
#
#
#
# Elastic Compliance Matrix: (Units=1/GPa)
#
#
# Indices 1 2 3 4 5 6 
#
# 1 0.017458 -0.001310 -0.003474 -0.001630 0.001319 0.000251
# 2 -0.001310 0.019964 0.000043 -0.000940 -0.003149 0.002193
# 3 -0.003474 0.000043 0.013243 0.003146 -0.008054 0.005614
# 4 -0.001630 -0.000940 0.003146 0.029365 -0.003957 -0.008353
# 5 0.001319 -0.003149 -0.008054 -0.003957 0.040813 0.003206
# 6 0.000251 0.002193 0.005614 -0.008353 0.003206 0.049325
#
#
# Mechanical properties :
#
#
# Convention : Reuss Voigt Hill
#
# Bulk Modulus (GPa) = 24.28158 30.07274 27.17716
# Shear Modulus (GPa) = 25.85633 30.51234 28.18433
#
# Velocity S-wave (km/s) = 3.22388 3.50214 3.36588
# Velocity P-wave (km/s) = 4.85986 5.33306 5.10195
#
# Compressibility (1/GPa) = 0.04118348
#
# Stress axis : x y z
#
# Youngs Moduli (GPa) = 57.27985 50.09025 75.51440
#
# Poissons Ratio (x) = 0.06560 0.26231
# Poissons Ratio (y) = 0.07502 -0.00323
# Poissons Ratio (z) = 0.19897 -0.00214
#
# Static dielectric constant tensor:
#      x y z
#    x 1.976620 0.006580 0.020030 
#    y 0.006580 2.030240 -0.056400 
#    z 0.020030 -0.056400 2.063830 
# 
# From -- ./inp_files/97739.got.cif
#   From: 2010.05.17/outbox.cif.g08.bks.cpg/sg2_49_cif.got.tgz:97739.got - 2010.06.03 11:33:40.
