data_PCOD9035231
_publ_section_title
;
Structure prediction by ZEFSAII (Michael W. Deem and Ramdas Pophale) SiO2 
 PCOD9035231
Probable space group: P -1
;
_chemical_formula_sum "Si O2"
_cell_formula_units_Z 14
_cell_length_a 20.327986
_cell_length_b 5.620340
_cell_length_c 5.872237
_cell_angle_alpha 105.225536
_cell_angle_beta 117.677002
_cell_angle_gamma 84.003491
_cell_volume 573.164429
_symmetry_space_group_name_H-M "P -1"
_symmetry_group_IT_number 2
_symmetry_cell_setting 'triclinic'
loop_
_space_group_symop_operation_xyz
x,y,z
-x,-y,-z
loop_
_atom_site_type_symbol
_atom_site_label
_atom_site_fract_x
_atom_site_fract_y
_atom_site_fract_z
Si Si1 0.039629 0.736073 0.503610
Si Si2 0.175580 0.036148 0.949656
Si Si3 0.734346 0.270458 0.707054
Si Si4 0.130676 0.486508 0.256677
Si Si5 0.623073 0.479616 0.248215
Si Si6 0.494839 0.863394 0.211587
Si Si7 0.760648 0.670940 0.246197
O O1 0.061913 0.645794 0.263387
O O2 0.000000 0.500000 0.500000
O O3 0.116934 0.812441 0.774930
O O4 0.000000 0.000000 0.500000
O O5 0.240966 0.989948 0.222810
O O6 0.128200 0.271931 0.010705
O O7 0.221887 0.085628 0.808493
O O8 0.801485 0.339469 0.664566
O O9 0.658645 0.321230 0.469425
O O10 0.744034 0.459687 0.978894
O O11 0.162691 0.361956 0.503888
O O12 0.560227 0.665213 0.271733
O O13 0.688877 0.640039 0.279802
O O14 0.583388 0.287312 0.964716
O O15 0.500000 0.000000 0.500000
O O16 0.500000 0.000000 0.000000
#
# Coordination Sequence:
#
# PCOD9035231 Si02
#       7
#     2   2   2   2   2   2   2
#     4  12  28  48  74 106 152 209 258 318 401 494
#     4  11  25  45  75 107 150 188 262 323 403 469
#     4  10  23  43  74 108 142 192 250 331 395 461
#     4  10  24  46  69 103 147 190 247 324 388 466
#     4  10  26  48  74 112 154 196 262 323 393 476
#     4  11  28  50  78 111 163 214 266 319 397 490
#     4  10  22  45  72 108 147 190 250 328 393 461
#
# _framework density 24.425802000000001
#
# number of rings (size 3 to 8) (size 9 to 14) (size 15 to 20)
#    0.000    1.429    1.429    0.857   10.000    6.857 
#    0.000    0.000    0.000    0.000    0.000    0.000 
#    0.000    0.000    0.000    0.000    0.000    0.000 
#
# Total GULP energy -78217.970877 kJ/mol
# GULP energy per Si atom -5586.997920 kJ/mol
# Density = 2.437021 g / cm^3
# Si number density = 24.425802 Si / 1000 Ang^3
#
#
#
# Elastic Constant Matrix: (Units=GPa)
#
#
# Indices 1 2 3 4 5 6 
#
# 1 77.6370 43.4551 41.7209 3.7503 15.7832 8.5684
# 2 43.4551 113.8983 57.9786 -4.2707 7.0991 2.1841
# 3 41.7209 57.9786 146.6483 21.5855 11.9408 -4.1147
# 4 3.7503 -4.2707 21.5855 62.2568 -2.8239 1.5845
# 5 15.7832 7.0991 11.9408 -2.8239 33.5960 0.6871
# 6 8.5684 2.1841 -4.1147 1.5845 0.6871 39.5186
#
#
#
# Elastic Compliance Matrix: (Units=1/GPa)
#
#
# Indices 1 2 3 4 5 6 
#
# 1 0.019326 -0.005490 -0.002760 -0.000796 -0.006923 -0.004022
# 2 -0.005490 0.012964 -0.004089 0.002709 0.001522 -0.000087
# 3 -0.002760 -0.004089 0.009964 -0.003699 -0.001733 0.002040
# 4 -0.000796 0.002709 -0.003699 0.017727 0.002629 -0.001119
# 5 -0.006923 0.001522 -0.001733 0.002629 0.033522 0.000548
# 6 -0.004022 -0.000087 0.002040 -0.001119 0.000548 0.026429
#
#
# Mechanical properties :
#
#
# Convention : Reuss Voigt Hill
#
# Bulk Modulus (GPa) = 56.89256 69.38807 63.14031
# Shear Modulus (GPa) = 33.22998 40.07620 36.65309
#
# Velocity S-wave (km/s) = 3.69242 4.05499 3.87795
# Velocity P-wave (km/s) = 6.44370 7.09882 6.77918
#
# Compressibility (1/GPa) = 0.01757699
#
# Stress axis : x y z
#
# Youngs Moduli (GPa) = 51.74398 77.13738 100.36535
#
# Poissons Ratio (x) = 0.42346 0.27699
# Poissons Ratio (y) = 0.28406 0.41036
# Poissons Ratio (z) = 0.14280 0.31539
#
# Static dielectric constant tensor:
#      x y z
#    x 1.920060 -0.003790 -0.023040 
#    y -0.003790 2.019580 -0.024280 
#    z -0.023040 -0.024280 2.009220 
# 
# From -- ./inp_files/7454.got.cif
#   From: 2010.05.17/outbox.cif.g08.bks.cpg/sg2_4_cif.got.tgz:7454.got - 2010.06.03 11:33:40.
