data_PCOD9035494
_publ_section_title
;
Structure prediction by ZEFSAII (Michael W. Deem and Ramdas Pophale) SiO2 
 PCOD9035494
Probable space group: P -1
;
_chemical_formula_sum "Si O2"
_cell_formula_units_Z 16
_cell_length_a 13.157108
_cell_length_b 14.397133
_cell_length_c 7.344685
_cell_angle_alpha 103.182577
_cell_angle_beta 86.920958
_cell_angle_gamma 30.840485
_cell_volume 601.439097
_symmetry_space_group_name_H-M "P -1"
_symmetry_group_IT_number 2
_symmetry_cell_setting 'triclinic'
loop_
_space_group_symop_operation_xyz
x,y,z
-x,-y,-z
loop_
_atom_site_type_symbol
_atom_site_label
_atom_site_fract_x
_atom_site_fract_y
_atom_site_fract_z
Si Si1 0.548969 0.766813 0.140564
Si Si2 0.693740 0.842117 0.074199
Si Si3 0.401481 0.478986 0.474876
Si Si4 0.161998 0.860376 0.244783
Si Si5 0.935479 0.852495 0.628820
Si Si6 0.448990 0.837567 0.745916
Si Si7 0.943954 0.453781 0.369909
Si Si8 0.702306 0.442371 0.078665
O O1 0.627137 0.808744 0.189889
O O2 0.721240 0.534506 0.048849
O O3 0.313738 0.942342 0.352316
O O4 0.493129 0.807049 0.946267
O O5 0.697637 0.946988 0.191892
O O6 0.939866 0.619214 0.863660
O O7 0.500000 0.000000 0.000000
O O8 0.500000 0.500000 0.500000
O O9 0.594114 0.238169 0.318225
O O10 0.264992 0.576838 0.718101
O O11 0.192424 0.644387 0.425129
O O12 0.432755 0.642147 0.167339
O O13 0.095038 0.015592 0.219059
O O14 0.149042 0.769920 0.104606
O O15 0.000000 0.000000 0.500000
O O16 0.935591 0.745662 0.665587
O O17 0.678826 0.660299 0.526960
O O18 0.000000 0.500000 0.500000
#
# Coordination Sequence:
#
# PCOD9035494 Si02
#       8
#     2   2   2   2   2   2   2   2
#     4  10  19  38  64  89 116 152 195 254 295 338
#     4  10  17  32  58  92 113 147 198 246 289 347
#     4  11  25  40  59  85 124 164 197 240 301 352
#     4  10  22  39  61  82 112 157 202 246 294 344
#     4  10  21  35  59  86 115 151 202 238 287 350
#     4  10  21  35  59  87 120 153 198 243 289 352
#     4  11  17  29  55  92 116 139 194 247 290 336
#     4  10  24  40  57  86 122 149 199 250 296 349
#
# _framework density 26.602857
#
# number of rings (size 3 to 8) (size 9 to 14) (size 15 to 20)
#    0.000    1.750    5.000    0.750    8.750    0.500 
#    2.250    0.625    0.000    3.000    0.000    0.000 
#    0.000    0.000    0.000    0.000    0.000    0.000 
#
# Total GULP energy -89278.282052 kJ/mol
# GULP energy per Si atom -5579.892628 kJ/mol
# Density = 2.654231 g / cm^3
# Si number density = 26.602857 Si / 1000 Ang^3
#
#
#
# Elastic Constant Matrix: (Units=GPa)
#
#
# Indices 1 2 3 4 5 6 
#
# 1 169.9270 58.9043 48.2906 27.6558 29.0717 48.0626
# 2 58.9043 106.0478 37.9741 29.1211 17.1445 29.5328
# 3 48.2906 37.9741 128.1711 36.0832 19.4985 16.1870
# 4 27.6558 29.1211 36.0832 42.1324 7.2353 3.4101
# 5 29.0717 17.1445 19.4985 7.2353 52.1079 25.8832
# 6 48.0626 29.5328 16.1870 3.4101 25.8832 59.9757
#
#
#
# Elastic Compliance Matrix: (Units=1/GPa)
#
#
# Indices 1 2 3 4 5 6 
#
# 1 0.009118 -0.002229 -0.001159 -0.002870 -0.000857 -0.005363
# 2 -0.002229 0.014238 -0.000731 -0.007405 0.000189 -0.004688
# 3 -0.001159 -0.000731 0.010992 -0.007782 -0.001950 -0.000394
# 4 -0.002870 -0.007405 -0.007782 0.037122 -0.001468 0.006570
# 5 -0.000857 0.000189 -0.001950 -0.001468 0.025384 -0.009751
# 6 -0.005363 -0.004688 -0.000394 0.006570 -0.009751 0.027221
#
#
# Mechanical properties :
#
#
# Convention : Reuss Voigt Hill
#
# Bulk Modulus (GPa) = 38.29866 77.16488 57.73177
# Shear Modulus (GPa) = 35.45714 48.10834 41.78274
#
# Velocity S-wave (km/s) = 3.65476 4.25713 3.96739
# Velocity P-wave (km/s) = 5.67780 7.29612 6.53723
#
# Compressibility (1/GPa) = 0.02611057
#
# Stress axis : x y z
#
# Youngs Moduli (GPa) = 109.67756 70.23513 90.97259
#
# Poissons Ratio (x) = 0.15656 0.10544
# Poissons Ratio (y) = 0.24448 0.06646
# Poissons Ratio (z) = 0.12712 0.05131
#
# Static dielectric constant tensor:
#      x y z
#    x 2.164720 -0.095950 0.028570 
#    y -0.095950 2.297230 -0.111900 
#    z 0.028570 -0.111900 2.093360 
# 
# From -- ./inp_files/313706.got.cif
#   From: 2010.05.17/outbox.cif.g08.bks.cpg/sg2_157_cif.got.tgz:313706.got - 2010.06.03 11:33:40.
