data_PCOD9035975
_publ_section_title
;
Structure prediction by ZEFSAII (Michael W. Deem and Ramdas Pophale) SiO2 
 PCOD9035975
Probable space group: P -1
;
_chemical_formula_sum "Si O2"
_cell_formula_units_Z 16
_cell_length_a 27.168170
_cell_length_b 6.170486
_cell_length_c 5.933541
_cell_angle_alpha 101.607377
_cell_angle_beta 138.262918
_cell_angle_gamma 86.187524
_cell_volume 643.286621
_symmetry_space_group_name_H-M "P -1"
_symmetry_group_IT_number 2
_symmetry_cell_setting 'triclinic'
loop_
_space_group_symop_operation_xyz
x,y,z
-x,-y,-z
loop_
_atom_site_type_symbol
_atom_site_label
_atom_site_fract_x
_atom_site_fract_y
_atom_site_fract_z
Si Si1 0.018913 0.272142 0.648933
Si Si2 0.821344 0.584544 0.659837
Si Si3 0.753132 0.376274 0.771795
Si Si4 0.778477 0.855564 0.201157
Si Si5 0.579689 0.650326 0.294286
Si Si6 0.589152 0.506278 0.799568
Si Si7 0.357641 0.886845 0.341389
Si Si8 0.117501 0.758481 0.535268
O O1 0.967918 0.285773 0.698945
O O2 0.000000 0.500000 0.500000
O O3 0.000000 0.000000 0.500000
O O4 0.108028 0.303853 0.939580
O O5 0.762295 0.410522 0.547138
O O6 0.780163 0.771087 0.443181
O O7 0.861079 0.440936 0.586502
O O8 0.677642 0.255980 0.595577
O O9 0.766316 0.629383 0.966222
O O10 0.824389 0.253299 0.061605
O O11 0.856552 0.007164 0.448131
O O12 0.714037 0.003093 0.961199
O O13 0.611615 0.624171 0.656139
O O14 0.580005 0.914809 0.333973
O O15 0.500000 0.500000 0.000000
O O16 0.614579 0.593522 0.155993
O O17 0.500000 0.500000 0.500000
O O18 0.611370 0.263383 0.772847
#
# Coordination Sequence:
#
# PCOD9035975 Si02
#       8
#     2   2   2   2   2   2   2   2
#     4  12  26  44  77 105 148 202 262 328 405 479
#     4  11  24  44  74 100 145 194 256 320 394 469
#     4  10  22  47  65 100 147 190 248 315 384 478
#     4  10  24  45  67 102 145 193 256 318 386 479
#     4  10  24  48  78 112 156 196 255 322 396 478
#     4  10  24  48  77 115 154 196 256 323 394 481
#     4  11  24  48  73 112 153 203 257 319 409 481
#     4  10  23  43  69 103 138 189 253 317 395 455
#
# _framework density 24.872271999999999
#
# number of rings (size 3 to 8) (size 9 to 14) (size 15 to 20)
#    0.000    1.500    1.250    1.875    3.500    7.500 
#   29.250    0.000    0.000    0.000    0.000    0.000 
#    0.000    0.000    0.000    0.000    0.000    0.000 
#
# Total GULP energy -89245.137982 kJ/mol
# GULP energy per Si atom -5577.821124 kJ/mol
# Density = 2.481566 g / cm^3
# Si number density = 24.872272 Si / 1000 Ang^3
#
#
#
# Elastic Constant Matrix: (Units=GPa)
#
#
# Indices 1 2 3 4 5 6 
#
# 1 148.0380 46.3811 30.9818 1.3369 -6.2436 8.4196
# 2 46.3811 149.1633 46.8556 11.1597 -12.6249 16.6216
# 3 30.9818 46.8556 72.0911 -0.6764 -1.0669 7.4178
# 4 1.3369 11.1597 -0.6764 45.9305 7.6924 1.1229
# 5 -6.2436 -12.6249 -1.0669 7.6924 38.6524 4.3212
# 6 8.4196 16.6216 7.4178 1.1229 4.3212 51.6070
#
#
#
# Elastic Compliance Matrix: (Units=1/GPa)
#
#
# Indices 1 2 3 4 5 6 
#
# 1 0.007785 -0.001601 -0.002243 0.000020 0.000724 -0.000493
# 2 -0.001601 0.009655 -0.005323 -0.002922 0.003589 -0.002320
# 3 -0.002243 -0.005323 0.018329 0.001963 -0.001937 -0.000435
# 4 0.000020 -0.002922 0.001963 0.023438 -0.005630 0.000617
# 5 0.000724 0.003589 -0.001937 -0.005630 0.028593 -0.003267
# 6 -0.000493 -0.002320 -0.000435 0.000617 -0.003267 0.020528
#
#
# Mechanical properties :
#
#
# Convention : Reuss Voigt Hill
#
# Bulk Modulus (GPa) = 57.35683 68.63658 62.99671
# Shear Modulus (GPa) = 37.74358 43.57622 40.65990
#
# Velocity S-wave (km/s) = 3.89973 4.19023 4.04759
# Velocity P-wave (km/s) = 6.58694 7.14606 6.87219
#
# Compressibility (1/GPa) = 0.01743471
#
# Stress axis : x y z
#
# Youngs Moduli (GPa) = 128.46005 103.57531 54.55768
#
# Poissons Ratio (x) = 0.16585 0.12238
# Poissons Ratio (y) = 0.20570 0.29039
# Poissons Ratio (z) = 0.28815 0.55128
#
# Static dielectric constant tensor:
#      x y z
#    x 1.958430 0.023830 -0.053730 
#    y 0.023830 2.014840 -0.036180 
#    z -0.053730 -0.036180 2.139560 
# 
# From -- ./inp_files/10827.got.cif
#   From: 2010.05.17/outbox.cif.g08.bks.cpg/sg2_6_cif.got.tgz:10827.got - 2010.06.03 11:33:40.
