data_PCOD9035433
_publ_section_title
;
Structure prediction by ZEFSAII (Michael W. Deem and Ramdas Pophale) SiO2 
 PCOD9035433
Probable space group: P -1
;
_chemical_formula_sum "Si O2"
_cell_formula_units_Z 13
_cell_length_a 9.078320
_cell_length_b 11.405136
_cell_length_c 9.416076
_cell_angle_alpha 137.046940
_cell_angle_beta 68.478789
_cell_angle_gamma 125.553335
_cell_volume 537.432176
_symmetry_space_group_name_H-M "P -1"
_symmetry_group_IT_number 2
_symmetry_cell_setting 'triclinic'
loop_
_space_group_symop_operation_xyz
x,y,z
-x,-y,-z
loop_
_atom_site_type_symbol
_atom_site_label
_atom_site_fract_x
_atom_site_fract_y
_atom_site_fract_z
Si Si1 0.500000 0.000000 0.000000
Si Si2 0.488395 0.338946 0.750792
Si Si3 0.769510 0.697235 0.813138
Si Si4 0.999363 0.322236 0.516698
Si Si5 0.095784 0.231740 0.697419
Si Si6 0.616101 0.957055 0.224098
Si Si7 0.933571 0.260380 0.072878
O O1 0.719773 0.119975 0.019862
O O2 0.512962 0.014385 0.192621
O O3 0.658705 0.469882 0.705790
O O4 0.305118 0.286430 0.685064
O O5 0.476271 0.165910 0.705285
O O6 0.500000 0.500000 0.000000
O O7 0.838224 0.696965 0.632251
O O8 0.952719 0.816475 0.945800
O O9 0.652068 0.802178 0.980243
O O10 0.035039 0.315084 0.663107
O O11 0.027663 0.540337 0.683666
O O12 0.805814 0.145973 0.374767
O O13 0.000000 0.000000 0.500000
O O14 0.027918 0.291910 0.915291
#
# Coordination Sequence:
#
# PCOD9035433 Si02
#       7
#     1   2   2   2   2   2   2
#     4  12  30  44  78 114 152 190 254 312 384 432
#     4  10  22  45  79 110 143 196 259 299 363 448
#     4  11  24  48  85 101 153 202 252 304 370 449
#     4  12  26  45  77 113 154 198 245 316 377 436
#     4  12  25  47  76 112 147 202 255 302 377 449
#     4  11  24  50  76 112 150 199 253 305 374 451
#     4  12  27  49  70 110 159 193 249 314 377 443
#
# _framework density 24.189097
#
# number of rings (size 3 to 8) (size 9 to 14) (size 15 to 20)
#    0.000    0.615    6.154    1.385    6.462    3.077 
#    0.000    1.538    0.000    0.000    0.000    0.000 
#    0.000    0.000    0.000    0.000    0.000    0.000 
#
# Total GULP energy -72417.051283 kJ/mol
# GULP energy per Si atom -5570.542406 kJ/mol
# Density = 2.413404 g / cm^3
# Si number density = 24.189097 Si / 1000 Ang^3
#
#
#
# Elastic Constant Matrix: (Units=GPa)
#
#
# Indices 1 2 3 4 5 6 
#
# 1 78.5283 42.1885 26.1147 19.6173 32.7816 24.0733
# 2 42.1885 106.5762 24.1289 3.1789 12.6403 3.7441
# 3 26.1147 24.1289 91.8655 2.3548 -0.7906 -9.0120
# 4 19.6173 3.1789 2.3548 32.7358 -5.2941 9.9020
# 5 32.7816 12.6403 -0.7906 -5.2941 55.1019 -0.4326
# 6 24.0733 3.7441 -9.0120 9.9020 -0.4326 37.6392
#
#
#
# Elastic Compliance Matrix: (Units=1/GPa)
#
#
# Indices 1 2 3 4 5 6 
#
# 1 0.052173 -0.011965 -0.014182 -0.025263 -0.031155 -0.029286
# 2 -0.011965 0.013156 0.000361 0.005057 0.004631 0.005153
# 3 -0.014182 0.000361 0.015898 0.005312 0.009184 0.011549
# 4 -0.025263 0.005057 0.005312 0.046295 0.018433 0.004960
# 5 -0.031155 0.004631 0.009184 0.018433 0.037659 0.017248
# 6 -0.029286 0.005153 0.011549 0.004960 0.017248 0.046445
#
#
# Mechanical properties :
#
#
# Convention : Reuss Voigt Hill
#
# Bulk Modulus (GPa) = 33.71946 51.31493 42.51719
# Shear Modulus (GPa) = 18.30949 37.39790 27.85370
#
# Velocity S-wave (km/s) = 2.75422 3.93627 3.39705
# Velocity P-wave (km/s) = 4.90760 6.47449 5.74472
#
# Compressibility (1/GPa) = 0.02965646
#
# Stress axis : x y z
#
# Youngs Moduli (GPa) = 19.16696 76.00995 62.90088
#
# Poissons Ratio (x) = 0.90942 0.89208
# Poissons Ratio (y) = 0.22932 -0.02273
# Poissons Ratio (z) = 0.27183 -0.02747
#
# Static dielectric constant tensor:
#      x y z
#    x 2.136530 -0.046310 0.018240 
#    y -0.046310 1.952880 -0.061210 
#    z 0.018240 -0.061210 1.910010 
# 
# From -- ./inp_files/155061.got.cif
#   From: 2010.05.17/outbox.cif.g08.bks.cpg/sg2_78_cif.got.tgz:155061.got - 2010.06.03 11:33:40.
