data_PCOD9035025
_publ_section_title
;
Structure prediction by ZEFSAII (Michael W. Deem and Ramdas Pophale) SiO2 
 PCOD9035025
Probable space group: P -1
;
_chemical_formula_sum "Si O2"
_cell_formula_units_Z 11
_cell_length_a 9.737226
_cell_length_b 8.267362
_cell_length_c 13.071375
_cell_angle_alpha 111.803202
_cell_angle_beta 31.482023
_cell_angle_gamma 122.123932
_cell_volume 457.310388
_symmetry_space_group_name_H-M "P -1"
_symmetry_group_IT_number 2
_symmetry_cell_setting 'triclinic'
loop_
_space_group_symop_operation_xyz
x,y,z
-x,-y,-z
loop_
_atom_site_type_symbol
_atom_site_label
_atom_site_fract_x
_atom_site_fract_y
_atom_site_fract_z
Si Si1 0.365385 0.945854 0.303971
Si Si2 0.811557 0.683030 0.841557
Si Si3 0.890301 0.037151 0.740047
Si Si4 0.226522 0.418387 0.730773
Si Si5 0.977372 0.246964 0.046372
Si Si6 0.000000 0.500000 0.500000
O O1 0.327159 0.996465 0.223440
O O2 0.194696 0.714641 0.372258
O O3 0.702634 0.043470 0.147149
O O4 0.188424 0.040603 0.503605
O O5 0.008253 0.615016 0.630109
O O6 0.922721 0.743571 0.899242
O O7 0.783727 0.857515 0.842056
O O8 0.500000 0.500000 0.000000
O O9 0.972930 0.239968 0.790496
O O10 0.500000 0.500000 0.500000
O O11 0.152405 0.596103 0.839934
O O12 0.234126 0.323561 0.814776
#
# Coordination Sequence:
#
# PCOD9035025 Si02
#       6
#     2   2   2   2   2   1
#     4  10  22  45  70 104 133 185 237 283 348 419
#     4  11  27  46  66 104 141 185 231 293 346 415
#     4  10  23  43  70  97 141 186 225 291 352 406
#     4  11  24  45  71 103 135 185 232 298 345 413
#     4  11  26  43  72 103 136 183 242 283 346 424
#     4  10  24  46  72  98 142 184 224 292 354 406
#
# _framework density 24.053682999999999
#
# number of rings (size 3 to 8) (size 9 to 14) (size 15 to 20)
#    0.000    1.455    1.818    1.091    7.636    7.273 
#    3.273    0.000    0.000    0.000    0.000    0.000 
#    0.000    0.000    0.000    0.000    0.000    0.000 
#
# Total GULP energy -61340.016302 kJ/mol
# GULP energy per Si atom -5576.365118 kJ/mol
# Density = 2.399894 g / cm^3
# Si number density = 24.053683 Si / 1000 Ang^3
#
#
#
# Elastic Constant Matrix: (Units=GPa)
#
#
# Indices 1 2 3 4 5 6 
#
# 1 167.1158 35.6379 68.5190 -35.8848 51.5131 20.1975
# 2 35.6379 129.0597 22.0581 -21.9921 7.8711 3.8967
# 3 68.5190 22.0581 132.8661 -9.6745 31.2234 3.5704
# 4 -35.8848 -21.9921 -9.6745 53.8520 -4.8362 8.7322
# 5 51.5131 7.8711 31.2234 -4.8362 40.6568 1.2463
# 6 20.1975 3.8967 3.5704 8.7322 1.2463 29.2494
#
#
#
# Elastic Compliance Matrix: (Units=1/GPa)
#
#
# Indices 1 2 3 4 5 6 
#
# 1 0.016604 -0.000738 -0.003390 0.010851 -0.016588 -0.013486
# 2 -0.000738 0.008664 -0.000869 0.003165 0.000347 -0.001498
# 3 -0.003390 -0.000869 0.010093 -0.001406 -0.003510 0.001794
# 4 0.010851 0.003165 -0.001406 0.028570 -0.009396 -0.015872
# 5 -0.016588 0.000347 -0.003510 -0.009396 0.046736 0.012650
# 6 -0.013486 -0.001498 0.001794 -0.015872 0.012650 0.047681
#
#
# Mechanical properties :
#
#
# Convention : Reuss Voigt Hill
#
# Bulk Modulus (GPa) = 39.41855 75.71908 57.56882
# Shear Modulus (GPa) = 28.28101 44.94007 36.61054
#
# Velocity S-wave (km/s) = 3.43263 4.32710 3.90556
# Velocity P-wave (km/s) = 5.66868 7.51749 6.65757
#
# Compressibility (1/GPa) = 0.02536877
#
# Stress axis : x y z
#
# Youngs Moduli (GPa) = 60.22594 115.42172 99.07857
#
# Poissons Ratio (x) = 0.08515 0.33584
# Poissons Ratio (y) = 0.04443 0.08607
# Poissons Ratio (z) = 0.20415 0.10027
#
# Static dielectric constant tensor:
#      x y z
#    x 1.892540 -0.023850 -0.007480 
#    y -0.023850 1.888070 0.052510 
#    z -0.007480 0.052510 2.021090 
# 
# From -- ./inp_files/149077.got.cif
#   From: 2010.05.17/outbox.cif.g08.bks.cpg/sg2_75_cif.got.tgz:149077.got - 2010.06.03 11:33:40.
