data_PCOD9035120
_publ_section_title
;
Structure prediction by ZEFSAII (Michael W. Deem and Ramdas Pophale) SiO2 
 PCOD9035120
Probable space group: P -1
;
_chemical_formula_sum "Si O2"
_cell_formula_units_Z 16
_cell_length_a 13.800330
_cell_length_b 12.487722
_cell_length_c 8.900287
_cell_angle_alpha 98.022839
_cell_angle_beta 105.580910
_cell_angle_gamma 143.620684
_cell_volume 685.628414
_symmetry_space_group_name_H-M "P -1"
_symmetry_group_IT_number 2
_symmetry_cell_setting 'triclinic'
loop_
_space_group_symop_operation_xyz
x,y,z
-x,-y,-z
loop_
_atom_site_type_symbol
_atom_site_label
_atom_site_fract_x
_atom_site_fract_y
_atom_site_fract_z
Si Si1 0.999701 0.458215 0.666933
Si Si2 0.100427 0.768020 0.941690
Si Si3 0.236568 0.950572 0.369917
Si Si4 0.090604 0.169965 0.691430
Si Si5 0.673007 0.492594 0.682358
Si Si6 0.544220 0.166634 0.088569
Si Si7 0.229856 0.212348 0.059749
Si Si8 0.402123 0.584523 0.684974
O O1 0.815188 0.195141 0.563974
O O2 0.000000 0.500000 0.500000
O O3 0.996582 0.557875 0.795803
O O4 0.218394 0.602530 0.840286
O O5 0.902886 0.661632 0.845978
O O6 0.193357 0.858568 0.168080
O O7 0.296691 0.974630 0.943548
O O8 0.083138 0.909334 0.330254
O O9 0.477259 0.223090 0.546095
O O10 0.275430 0.417234 0.739932
O O11 0.191523 0.191468 0.865914
O O12 0.000000 0.000000 0.500000
O O13 0.629930 0.552076 0.782899
O O14 0.692973 0.553094 0.532484
O O15 0.610901 0.297870 0.291931
O O16 0.500000 0.000000 0.000000
O O17 0.355770 0.227089 0.167363
O O18 0.000000 0.000000 0.000000
#
# Coordination Sequence:
#
# PCOD9035120 Si02
#       8
#     2   2   2   2   2   2   2   2
#     4  11  25  48  74 108 145 196 247 304 371 433
#     4  11  24  47  75 101 150 192 246 296 365 431
#     4  12  25  48  72 106 152 187 249 306 360 446
#     4  12  26  47  70 105 146 192 248 301 365 438
#     4  12  25  46  74 112 143 193 242 300 378 436
#     4  10  22  45  71 104 143 188 242 294 357 434
#     4  12  25  47  74 107 145 193 244 302 375 438
#     4  12  23  44  74 102 150 187 240 303 361 438
#
# _framework density 23.336255000000001
#
# number of rings (size 3 to 8) (size 9 to 14) (size 15 to 20)
#    0.000    0.500    3.750    4.875    0.000    0.500 
#   13.500    0.000    0.000    0.000    0.000    0.000 
#    0.000    0.000    0.000    0.000    0.000    0.000 
#
# Total GULP energy -89175.722006 kJ/mol
# GULP energy per Si atom -5573.482625 kJ/mol
# Density = 2.328314 g / cm^3
# Si number density = 23.336255 Si / 1000 Ang^3
#
#
#
# Elastic Constant Matrix: (Units=GPa)
#
#
# Indices 1 2 3 4 5 6 
#
# 1 107.8635 -0.0433 29.3144 3.1717 -28.5966 2.5739
# 2 -0.0433 88.9821 20.7507 7.2611 9.0369 -0.2688
# 3 29.3144 20.7507 111.9296 -8.7601 -29.2217 -12.9157
# 4 3.1717 7.2611 -8.7601 42.4324 8.2704 5.8935
# 5 -28.5966 9.0369 -29.2217 8.2704 45.5300 5.0615
# 6 2.5739 -0.2688 -12.9157 5.8935 5.0615 29.0580
#
#
#
# Elastic Compliance Matrix: (Units=1/GPa)
#
#
# Indices 1 2 3 4 5 6 
#
# 1 0.011706 -0.000138 -0.001684 -0.002205 0.006983 -0.002556
# 2 -0.000138 0.012735 -0.003719 -0.001995 -0.004604 -0.000316
# 3 -0.001684 -0.003719 0.012474 0.001401 0.006969 0.004161
# 4 -0.002205 -0.001995 0.001401 0.025719 -0.004355 -0.003658
# 5 0.006983 -0.004604 0.006969 -0.004355 0.032793 -0.002392
# 6 -0.002556 -0.000316 0.004161 -0.003658 -0.002392 0.037646
#
#
# Mechanical properties :
#
#
# Convention : Reuss Voigt Hill
#
# Bulk Modulus (GPa) = 38.71396 45.42431 42.06914
# Shear Modulus (GPa) = 32.72930 40.65432 36.69181
#
# Velocity S-wave (km/s) = 3.74907 4.17839 3.96954
# Velocity P-wave (km/s) = 5.94696 6.54110 6.25109
#
# Compressibility (1/GPa) = 0.02583047
#
# Stress axis : x y z
#
# Youngs Moduli (GPa) = 85.42637 78.52399 80.16553
#
# Poissons Ratio (x) = 0.01087 0.13504
# Poissons Ratio (y) = 0.01183 0.29817
# Poissons Ratio (z) = 0.14390 0.29206
#
# Static dielectric constant tensor:
#      x y z
#    x 1.907610 0.064340 -0.041950 
#    y 0.064340 2.219090 -0.133450 
#    z -0.041950 -0.133450 1.957200 
# 
# From -- ./inp_files/315639.got.cif
#   From: 2010.05.17/outbox.cif.g08.bks.cpg/sg2_158_cif.got.tgz:315639.got - 2010.06.03 11:33:40.
