data_PCOD9035076
_publ_section_title
;
Structure prediction by ZEFSAII (Michael W. Deem and Ramdas Pophale) SiO2 
 PCOD9035076
Probable space group: P -1
;
_chemical_formula_sum "Si O2"
_cell_formula_units_Z 16
_cell_length_a 9.955248
_cell_length_b 8.052345
_cell_length_c 7.722562
_cell_angle_alpha 93.391665
_cell_angle_beta 83.825965
_cell_angle_gamma 92.359851
_cell_volume 614.017614
_symmetry_space_group_name_H-M "P -1"
_symmetry_group_IT_number 2
_symmetry_cell_setting 'triclinic'
loop_
_space_group_symop_operation_xyz
x,y,z
-x,-y,-z
loop_
_atom_site_type_symbol
_atom_site_label
_atom_site_fract_x
_atom_site_fract_y
_atom_site_fract_z
Si Si1 0.177110 0.443900 0.170046
Si Si2 0.834960 0.707390 0.182754
Si Si3 0.891989 0.265328 0.282657
Si Si4 0.398150 0.679502 0.632222
Si Si5 0.193838 0.982534 0.023845
Si Si6 0.470201 0.321370 0.723864
Si Si7 0.568698 0.791045 0.904702
Si Si8 0.902040 0.214337 0.657592
O O1 0.306926 0.330211 0.174309
O O2 0.186954 0.627069 0.263252
O O3 0.036233 0.358906 0.250324
O O4 0.165663 0.447685 0.961218
O O5 0.686425 0.738479 0.275549
O O6 0.947610 0.715984 0.311806
O O7 0.866299 0.858038 0.052454
O O8 0.759596 0.371060 0.345055
O O9 0.843909 0.162098 0.115375
O O10 0.894812 0.163217 0.456196
O O11 0.468321 0.514278 0.681496
O O12 0.437800 0.749260 0.442760
O O13 0.461341 0.808912 0.769411
O O14 0.134447 0.933176 0.214655
O O15 0.348641 0.040975 0.043173
O O16 0.499656 0.290564 0.918790
#
# Coordination Sequence:
#
# PCOD9035076 Si02
#       8
#     2   2   2   2   2   2   2   2
#     4  10  23  43  70 105 131 164 229 279 329 389
#     4  10  22  45  70  98 135 175 219 277 329 396
#     4  12  27  40  66 105 138 168 223 276 333 391
#     4  11  24  42  68  99 136 176 220 274 325 403
#     4  10  25  45  64 101 134 175 226 268 330 405
#     4   9  22  41  68  98 130 171 226 267 327 394
#     4  10  25  46  72  94 132 184 219 273 331 392
#     4  12  24  39  70 102 136 173 210 284 343 378
#
# _framework density 26.057886
#
# number of rings (size 3 to 8) (size 9 to 14) (size 15 to 20)
#    0.000    1.750    1.250    2.250   10.500    4.000 
#    0.000    4.375    0.000    0.000    0.000    0.000 
#    0.000    0.000    0.000    0.000    0.000    0.000 
#
# Total GULP energy -89515.339036 kJ/mol
# GULP energy per Si atom -5594.708690 kJ/mol
# Density = 2.599858 g / cm^3
# Si number density = 26.057886 Si / 1000 Ang^3
#
#
#
# Elastic Constant Matrix: (Units=GPa)
#
#
# Indices 1 2 3 4 5 6 
#
# 1 126.4179 13.4191 67.8000 -2.0453 -7.6615 21.0199
# 2 13.4191 65.0088 14.0757 -6.5291 -9.7665 8.6297
# 3 67.8000 14.0757 159.6373 -27.6324 -15.3167 23.6765
# 4 -2.0453 -6.5291 -27.6324 18.9682 5.7973 -7.0798
# 5 -7.6615 -9.7665 -15.3167 5.7973 44.0576 2.0441
# 6 21.0199 8.6297 23.6765 -7.0798 2.0441 33.0337
#
#
#
# Elastic Compliance Matrix: (Units=1/GPa)
#
#
# Indices 1 2 3 4 5 6 
#
# 1 0.011949 -0.001307 -0.005762 -0.009963 0.001344 -0.005351
# 2 -0.001307 0.016889 0.000625 0.004336 0.003317 -0.003304
# 3 -0.005762 0.000625 0.011732 0.015708 0.001223 -0.001615
# 4 -0.009963 0.004336 0.015708 0.082583 -0.006737 0.012065
# 5 0.001344 0.003317 0.001223 -0.006737 0.025238 -0.005604
# 6 -0.005351 -0.003304 -0.001615 0.012065 -0.005604 0.038630
#
#
# Mechanical properties :
#
#
# Convention : Reuss Voigt Hill
#
# Bulk Modulus (GPa) = 36.12427 60.18375 48.15401
# Shear Modulus (GPa) = 23.90771 36.26319 30.08545
#
# Velocity S-wave (km/s) = 3.03229 3.73452 3.40157
# Velocity P-wave (km/s) = 5.11399 6.46079 5.82643
#
# Compressibility (1/GPa) = 0.02768222
#
# Stress axis : x y z
#
# Youngs Moduli (GPa) = 83.68855 59.20857 85.23699
#
# Poissons Ratio (x) = 0.07741 0.49110
# Poissons Ratio (y) = 0.10941 -0.05326
# Poissons Ratio (z) = 0.48218 -0.03700
#
# Static dielectric constant tensor:
#      x y z
#    x 2.065570 -0.058190 -0.019570 
#    y -0.058190 2.154480 0.068970 
#    z -0.019570 0.068970 2.058150 
# 
# From -- ./inp_files/239023.got.cif
#   From: 2010.05.17/outbox.cif.g08.bks.cpg/sg2_120_cif.got.tgz:239023.got - 2010.06.03 11:33:40.
