data_PCOD9035296
_publ_section_title
;
Structure prediction by ZEFSAII (Michael W. Deem and Ramdas Pophale) SiO2 
 PCOD9035296
Probable space group: P -1
;
_chemical_formula_sum "Si O2"
_cell_formula_units_Z 16
_cell_length_a 17.199428
_cell_length_b 5.696442
_cell_length_c 9.640019
_cell_angle_alpha 48.738941
_cell_angle_beta 63.431537
_cell_angle_gamma 65.830930
_cell_volume 625.738174
_symmetry_space_group_name_H-M "P -1"
_symmetry_group_IT_number 2
_symmetry_cell_setting 'triclinic'
loop_
_space_group_symop_operation_xyz
x,y,z
-x,-y,-z
loop_
_atom_site_type_symbol
_atom_site_label
_atom_site_fract_x
_atom_site_fract_y
_atom_site_fract_z
Si Si1 0.073245 0.900236 0.864881
Si Si2 0.339490 0.790484 0.960962
Si Si3 0.807996 0.559493 0.468460
Si Si4 0.334099 0.152476 0.302315
Si Si5 0.440210 0.734059 0.181913
Si Si6 0.032417 0.830214 0.397562
Si Si7 0.409298 0.771593 0.621372
Si Si8 0.238270 0.452101 0.808761
O O1 0.152550 0.601102 0.908739
O O2 0.128171 0.186838 0.707491
O O3 0.011037 0.909230 0.777633
O O4 0.000000 0.000000 0.000000
O O5 0.313705 0.446976 0.096201
O O6 0.406999 0.678765 0.076081
O O7 0.380957 0.907965 0.743201
O O8 0.264276 0.075524 0.951213
O O9 0.736515 0.740496 0.561835
O O10 0.863808 0.271519 0.621063
O O11 0.782319 0.473212 0.367248
O O12 0.353529 0.866880 0.287877
O O13 0.415350 0.018764 0.396790
O O14 0.501572 0.468684 0.325060
O O15 0.500000 0.000000 0.000000
O O16 0.000000 0.500000 0.500000
O O17 0.000000 0.000000 0.500000
O O18 0.327446 0.592860 0.716625
#
# Coordination Sequence:
#
# PCOD9035296 Si02
#       8
#     2   2   2   2   2   2   2   2
#     4  11  25  47  78 110 147 195 250 312 389 461
#     4  12  26  46  74 108 148 199 247 318 377 450
#     4  11  25  47  74 108 150 195 251 313 382 458
#     4  12  27  46  75 109 148 200 254 303 386 445
#     4  12  26  48  74 108 152 196 255 313 377 447
#     4  10  22  45  73 107 148 196 250 315 380 470
#     4  12  26  49  74 106 152 199 250 314 374 460
#     4  12  23  47  77 102 154 191 250 313 382 455
#
# _framework density 25.569800999999998
#
# number of rings (size 3 to 8) (size 9 to 14) (size 15 to 20)
#    0.000    0.500    6.250    0.750    1.750    4.000 
#    4.500    0.000    0.000    0.000    0.000    0.000 
#    0.000    0.000    0.000    0.000    0.000    0.000 
#
# Total GULP energy -89303.021239 kJ/mol
# GULP energy per Si atom -5581.438827 kJ/mol
# Density = 2.551160 g / cm^3
# Si number density = 25.569801 Si / 1000 Ang^3
#
#
#
# Elastic Constant Matrix: (Units=GPa)
#
#
# Indices 1 2 3 4 5 6 
#
# 1 95.5861 43.7419 18.2789 5.7683 30.9534 -15.3797
# 2 43.7419 157.5942 25.9441 14.4895 6.1032 -36.1462
# 3 18.2789 25.9441 90.4223 3.9333 20.1813 6.5286
# 4 5.7683 14.4895 3.9333 59.6226 -2.6538 12.8057
# 5 30.9534 6.1032 20.1813 -2.6538 46.8467 3.9873
# 6 -15.3797 -36.1462 6.5286 12.8057 3.9873 31.2887
#
#
#
# Elastic Compliance Matrix: (Units=1/GPa)
#
#
# Indices 1 2 3 4 5 6 
#
# 1 0.016899 -0.001467 -0.000945 -0.003853 -0.011625 0.009867
# 2 -0.001467 0.011601 -0.003795 -0.005880 -0.000598 0.015955
# 3 -0.000945 -0.003795 0.013738 0.001616 -0.004039 -0.007861
# 4 -0.003853 -0.005880 0.001616 0.022808 0.005530 -0.019064
# 5 -0.011625 -0.000598 -0.004039 0.005530 0.032173 -0.011926
# 6 0.009867 0.015955 -0.007861 -0.019064 -0.011926 0.066205
#
#
# Mechanical properties :
#
#
# Convention : Reuss Voigt Hill
#
# Bulk Modulus (GPa) = 33.53140 57.72583 45.62861
# Shear Modulus (GPa) = 26.91384 44.59410 35.75397
#
# Velocity S-wave (km/s) = 3.24784 4.18067 3.74343
# Velocity P-wave (km/s) = 5.21601 6.77708 6.04713
#
# Compressibility (1/GPa) = 0.02982280
#
# Stress axis : x y z
#
# Youngs Moduli (GPa) = 59.17664 86.20193 72.79236
#
# Poissons Ratio (x) = 0.12648 0.06881
# Poissons Ratio (y) = 0.08683 0.27621
# Poissons Ratio (z) = 0.05594 0.32709
#
# Static dielectric constant tensor:
#      x y z
#    x 5.431970 6.550280 -0.210660 
#    y 6.550280 15.394700 0.178880 
#    z -0.210660 0.178880 2.487710 
# 
# From -- ./inp_files/120126.got.cif
#   From: 2010.05.17/outbox.cif.g08.bks.cpg/sg2_61_cif.got.tgz:120126.got - 2010.06.03 11:33:40.
