data_PCOD9035939
_publ_section_title
;
Structure prediction by ZEFSAII (Michael W. Deem and Ramdas Pophale) SiO2 
 PCOD9035939
Probable space group: P -1
;
_chemical_formula_sum "Si O2"
_cell_formula_units_Z 16
_cell_length_a 16.749533
_cell_length_b 7.058531
_cell_length_c 7.599925
_cell_angle_alpha 64.039031
_cell_angle_beta 114.095965
_cell_angle_gamma 121.741581
_cell_volume 668.151120
_symmetry_space_group_name_H-M "P -1"
_symmetry_group_IT_number 2
_symmetry_cell_setting 'triclinic'
loop_
_space_group_symop_operation_xyz
x,y,z
-x,-y,-z
loop_
_atom_site_type_symbol
_atom_site_label
_atom_site_fract_x
_atom_site_fract_y
_atom_site_fract_z
Si Si1 0.682792 0.496901 0.543987
Si Si2 0.720456 0.907378 0.689210
Si Si3 0.499752 0.180101 0.031002
Si Si4 0.340652 0.356922 0.911219
Si Si5 0.091806 0.889327 0.424307
Si Si6 0.120566 0.411245 0.235377
Si Si7 0.951995 0.511867 0.217878
Si Si8 0.523042 0.894795 0.392044
O O1 0.702523 0.697029 0.622714
O O2 0.703870 0.585556 0.326351
O O3 0.767942 0.418440 0.693887
O O4 0.571299 0.329791 0.551711
O O5 0.628695 0.957578 0.531636
O O6 0.826413 0.080590 0.656811
O O7 0.718981 0.829161 0.920491
O O8 0.602635 0.404554 0.025952
O O9 0.495790 0.112187 0.272826
O O10 0.522366 0.916474 0.162271
O O11 0.416449 0.272060 0.929548
O O12 0.990342 0.710098 0.321727
O O13 0.110092 0.744561 0.657248
O O14 0.097234 0.142321 0.371966
O O15 0.044081 0.485779 0.227804
O O16 0.102963 0.416562 0.009643
#
# Coordination Sequence:
#
# PCOD9035939 Si02
#       8
#     2   2   2   2   2   2   2   2
#     4  11  24  44  65  99 137 181 230 280 337 414
#     4  11  24  44  65  99 137 181 230 280 337 414
#     4  11  22  38  64  93 122 184 234 279 334 388
#     4  11  22  42  62  90 136 176 226 280 338 393
#     4  10  23  45  70 105 136 177 226 283 352 413
#     4  10  23  45  70 105 136 177 226 283 352 413
#     4  10  22  46  76  98 138 172 226 290 348 420
#     4  12  21  39  63  90 139 175 224 279 326 396
#
# _framework density 23.946680000000001
#
# number of rings (size 3 to 8) (size 9 to 14) (size 15 to 20)
#    0.000    1.250    2.500    3.375    1.750    0.000 
#   31.500    0.000    0.000    0.000    0.000    0.000 
#    0.000    0.000    0.000    0.000    0.000    0.000 
#
# Total GULP energy -89212.268651 kJ/mol
# GULP energy per Si atom -5575.766791 kJ/mol
# Density = 2.389218 g / cm^3
# Si number density = 23.946680 Si / 1000 Ang^3
#
#
#
# Elastic Constant Matrix: (Units=GPa)
#
#
# Indices 1 2 3 4 5 6 
#
# 1 48.7623 15.2237 14.4146 9.0761 5.5866 -2.6109
# 2 15.2237 69.0027 23.9653 -4.8690 -3.6921 -4.7308
# 3 14.4146 23.9653 95.2672 -0.7091 -8.1748 24.8529
# 4 9.0761 -4.8690 -0.7091 29.2575 2.2133 -10.4291
# 5 5.5866 -3.6921 -8.1748 2.2133 33.2282 3.9233
# 6 -2.6109 -4.7308 24.8529 -10.4291 3.9233 33.1321
#
#
#
# Elastic Compliance Matrix: (Units=1/GPa)
#
#
# Indices 1 2 3 4 5 6 
#
# 1 0.025311 -0.004948 -0.003734 -0.007501 -0.005505 0.002380
# 2 -0.004948 0.019111 -0.006614 0.008112 -0.000381 0.009898
# 3 -0.003734 -0.006614 0.017774 -0.006193 0.006723 -0.017316
# 4 -0.007501 0.008112 -0.006193 0.045193 -0.004732 0.019998
# 5 -0.005505 -0.000381 0.006723 -0.004732 0.034255 -0.011077
# 6 0.002380 0.009898 -0.017316 0.019998 -0.011077 0.052379
#
#
# Mechanical properties :
#
#
# Convention : Reuss Voigt Hill
#
# Bulk Modulus (GPa) = 31.64105 35.58215 33.61160
# Shear Modulus (GPa) = 21.26320 29.75214 25.50767
#
# Velocity S-wave (km/s) = 2.98306 3.52864 3.26726
# Velocity P-wave (km/s) = 5.01066 5.61185 5.31976
#
# Compressibility (1/GPa) = 0.03160452
#
# Stress axis : x y z
#
# Youngs Moduli (GPa) = 39.50927 52.32460 56.26323
#
# Poissons Ratio (x) = 0.25890 0.21009
# Poissons Ratio (y) = 0.19549 0.37210
# Poissons Ratio (z) = 0.14753 0.34605
#
# Static dielectric constant tensor:
#      x y z
#    x 2.036150 -0.001700 -0.047710 
#    y -0.001700 2.028190 0.012630 
#    z -0.047710 0.012630 1.974130 
# 
# From -- ./inp_files/216586.got.cif
#   From: 2010.05.17/outbox.cif.g08.bks.cpg/sg2_109_cif.got.tgz:216586.got - 2010.06.03 11:33:40.
