data_PCOD9035246
_publ_section_title
;
Structure prediction by ZEFSAII (Michael W. Deem and Ramdas Pophale) SiO2 
 PCOD9035246
Probable space group: P -1
;
_chemical_formula_sum "Si O2"
_cell_formula_units_Z 16
_cell_length_a 13.825657
_cell_length_b 7.633286
_cell_length_c 13.104657
_cell_angle_alpha 106.667596
_cell_angle_beta 31.844849
_cell_angle_gamma 88.987837
_cell_volume 598.376606
_symmetry_space_group_name_H-M "P -1"
_symmetry_group_IT_number 2
_symmetry_cell_setting 'triclinic'
loop_
_space_group_symop_operation_xyz
x,y,z
-x,-y,-z
loop_
_atom_site_type_symbol
_atom_site_label
_atom_site_fract_x
_atom_site_fract_y
_atom_site_fract_z
Si Si1 0.403469 0.312871 0.951807
Si Si2 0.793976 0.295908 0.679782
Si Si3 0.081074 0.081167 0.038455
Si Si4 0.458723 0.182052 0.488399
Si Si5 0.050071 0.423234 0.762629
Si Si6 0.409842 0.446206 0.760261
Si Si7 0.185860 0.056575 0.161842
Si Si8 0.353008 0.361989 0.313753
O O1 0.276864 0.568565 0.130255
O O2 0.248509 0.232808 0.109956
O O3 0.626679 0.220762 0.794114
O O4 0.459122 0.272216 0.775842
O O5 0.733171 0.487583 0.682721
O O6 0.033437 0.121049 0.407051
O O7 0.336669 0.920144 0.783228
O O8 0.044670 0.064226 0.190241
O O9 0.019050 0.326790 0.117164
O O10 0.000000 0.000000 0.000000
O O11 0.236319 0.275481 0.648026
O O12 0.449165 0.363833 0.598021
O O13 0.500000 0.000000 0.500000
O O14 0.163672 0.350828 0.537939
O O15 0.844337 0.406155 0.969501
O O16 0.570397 0.524436 0.655156
O O17 0.421883 0.855771 0.939348
#
# Coordination Sequence:
#
# PCOD9035246 Si02
#       8
#     2   2   2   2   2   2   2   2
#     4  10  22  45  72  97 133 175 224 277 331 404
#     4  10  23  45  72  98 133 174 219 282 340 385
#     4  12  26  41  67  99 135 178 225 271 331 399
#     4  12  25  42  65  96 131 175 231 269 331 403
#     4  12  24  45  65  95 138 177 223 278 329 393
#     4  11  24  44  66  94 136 177 221 276 335 392
#     4  12  23  44  68  99 136 176 219 274 339 398
#     4  11  25  41  66 101 132 171 224 274 331 405
#
# _framework density 26.739013
#
# number of rings (size 3 to 8) (size 9 to 14) (size 15 to 20)
#    0.000    0.750    5.000    1.500    3.500    2.500 
#    0.000    5.625    0.000    0.000    0.000    0.000 
#    0.000    0.000    0.000    0.000    0.000    0.000 
#
# Total GULP energy -89604.695859 kJ/mol
# GULP energy per Si atom -5600.293491 kJ/mol
# Density = 2.667815 g / cm^3
# Si number density = 26.739013 Si / 1000 Ang^3
#
#
#
# Elastic Constant Matrix: (Units=GPa)
#
#
# Indices 1 2 3 4 5 6 
#
# 1 99.6127 26.4886 23.3459 14.9584 -5.7958 -9.3849
# 2 26.4886 58.0506 12.4146 -9.7895 -7.4465 -5.4143
# 3 23.3459 12.4146 169.9460 3.6854 -8.4834 0.1301
# 4 14.9584 -9.7895 3.6854 31.1474 -12.5421 -9.2168
# 5 -5.7958 -7.4465 -8.4834 -12.5421 42.7330 -4.3800
# 6 -9.3849 -5.4143 0.1301 -9.2168 -4.3800 35.5576
#
#
#
# Elastic Compliance Matrix: (Units=1/GPa)
#
#
# Indices 1 2 3 4 5 6 
#
# 1 0.013870 -0.008286 -0.001219 -0.010517 -0.002962 -0.000687
# 2 -0.008286 0.026207 -0.000707 0.018420 0.009503 0.007751
# 3 -0.001219 -0.000707 0.006149 -0.000133 0.000854 -0.000381
# 4 -0.010517 0.018420 -0.000133 0.056025 0.019943 0.017008
# 5 -0.002962 0.009503 0.000854 0.019943 0.031676 0.009734
# 6 -0.000687 0.007751 -0.000381 0.017008 0.009734 0.034731
#
#
# Mechanical properties :
#
#
# Convention : Reuss Voigt Hill
#
# Bulk Modulus (GPa) = 38.75767 50.23418 44.49592
# Shear Modulus (GPa) = 25.29297 39.57830 32.43563
#
# Velocity S-wave (km/s) = 3.07892 3.85147 3.48666
# Velocity P-wave (km/s) = 5.21209 6.21338 5.73463
#
# Compressibility (1/GPa) = 0.02580134
#
# Stress axis : x y z
#
# Youngs Moduli (GPa) = 72.09685 38.15814 162.62296
#
# Poissons Ratio (x) = 0.31617 0.19830
# Poissons Ratio (y) = 0.59739 0.11500
# Poissons Ratio (z) = 0.08791 0.02698
#
# Static dielectric constant tensor:
#      x y z
#    x 2.103940 0.004690 0.054950 
#    y 0.004690 2.131080 0.045830 
#    z 0.054950 0.045830 2.071000 
# 
# From -- ./inp_files/315291.got.cif
#   From: 2010.05.17/outbox.cif.g08.bks.cpg/sg2_158_cif.got.tgz:315291.got - 2010.06.03 11:33:40.
