data_PCOD9035600
_publ_section_title
;
Structure prediction by ZEFSAII (Michael W. Deem and Ramdas Pophale) SiO2 
 PCOD9035600
Probable space group: P -1
;
_chemical_formula_sum "Si O2"
_cell_formula_units_Z 16
_cell_length_a 4.979159
_cell_length_b 11.811562
_cell_length_c 12.036191
_cell_angle_alpha 80.154140
_cell_angle_beta 86.419254
_cell_angle_gamma 117.263640
_cell_volume 611.899615
_symmetry_space_group_name_H-M "P -1"
_symmetry_group_IT_number 2
_symmetry_cell_setting 'triclinic'
loop_
_space_group_symop_operation_xyz
x,y,z
-x,-y,-z
loop_
_atom_site_type_symbol
_atom_site_label
_atom_site_fract_x
_atom_site_fract_y
_atom_site_fract_z
Si Si1 0.175219 0.645288 0.741713
Si Si2 0.718241 0.523582 0.387304
Si Si3 0.552296 0.374271 0.800707
Si Si4 0.259008 0.997249 0.247859
Si Si5 0.445734 0.349346 0.049537
Si Si6 0.470990 0.865893 0.568488
Si Si7 0.882909 0.063375 0.095484
Si Si8 0.675582 0.238436 0.633428
O O1 0.348281 0.609225 0.647858
O O2 0.349959 0.654460 0.852051
O O3 0.158557 0.764229 0.658477
O O4 0.844453 0.518715 0.772284
O O5 0.500000 0.500000 0.500000
O O6 0.696261 0.600403 0.263981
O O7 0.048108 0.616206 0.414943
O O8 0.546377 0.262270 0.744345
O O9 0.548432 0.324656 0.932269
O O10 0.203631 0.862737 0.325179
O O11 0.329292 0.096276 0.332315
O O12 0.968995 0.996124 0.202841
O O13 0.535411 0.036285 0.140956
O O14 0.103215 0.222599 0.080664
O O15 0.500000 0.500000 0.000000
O O16 0.526800 0.809215 0.462805
O O17 0.500000 0.000000 0.500000
O O18 0.000000 0.000000 0.000000
#
# Coordination Sequence:
#
# PCOD9035600 Si02
#       8
#     2   2   2   2   2   2   2   2
#     4  11  23  44  69 102 145 186 244 300 383 444
#     4  11  23  40  69 104 141 188 238 308 376 444
#     4  11  24  42  69 104 144 188 240 306 376 452
#     4  11  26  48  75 107 148 200 251 314 370 452
#     4  12  26  44  73 110 145 196 247 314 377 457
#     4  10  22  46  69 103 139 193 247 309 368 447
#     4  12  28  49  77 109 155 200 254 307 382 447
#     4  10  24  44  70 103 144 188 252 301 378 448
#
# _framework density 26.148077000000001
#
# number of rings (size 3 to 8) (size 9 to 14) (size 15 to 20)
#    0.000    1.000    2.500    3.000    5.250    4.000 
#    2.250    1.875    0.000    0.000    0.000    0.000 
#    0.000    0.000    0.000    0.000    0.000    0.000 
#
# Total GULP energy -89084.181039 kJ/mol
# GULP energy per Si atom -5567.761315 kJ/mol
# Density = 2.608856 g / cm^3
# Si number density = 26.148077 Si / 1000 Ang^3
#
#
#
# Elastic Constant Matrix: (Units=GPa)
#
#
# Indices 1 2 3 4 5 6 
#
# 1 62.3215 33.4174 14.9394 1.6173 0.7866 2.9894
# 2 33.4174 133.6422 64.7371 -1.9382 -0.3022 11.8458
# 3 14.9394 64.7371 160.3788 16.4885 -10.7217 -1.5391
# 4 1.6173 -1.9382 16.4885 65.5410 -6.2889 -2.1110
# 5 0.7866 -0.3022 -10.7217 -6.2889 23.4419 -5.1732
# 6 2.9894 11.8458 -1.5391 -2.1110 -5.1732 36.6915
#
#
#
# Elastic Compliance Matrix: (Units=1/GPa)
#
#
# Indices 1 2 3 4 5 6 
#
# 1 0.018577 -0.004745 0.000204 -0.000733 -0.000816 -0.000130
# 2 -0.004745 0.011107 -0.004345 0.001215 -0.002157 -0.003616
# 3 0.000204 -0.004345 0.008431 -0.001822 0.003783 0.002168
# 4 -0.000733 0.001215 -0.001822 0.016166 0.003777 0.001053
# 5 -0.000816 -0.002157 0.003783 0.003777 0.047119 0.007782
# 6 -0.000130 -0.003616 0.002168 0.001053 0.007782 0.029681
#
#
# Mechanical properties :
#
#
# Convention : Reuss Voigt Hill
#
# Bulk Modulus (GPa) = 49.15622 64.72562 56.94092
# Shear Modulus (GPa) = 32.12649 41.35146 36.73898
#
# Velocity S-wave (km/s) = 3.50899 3.98104 3.75245
# Velocity P-wave (km/s) = 5.93779 6.77782 6.37166
#
# Compressibility (1/GPa) = 0.02034331
#
# Stress axis : x y z
#
# Youngs Moduli (GPa) = 53.83075 90.03055 118.60686
#
# Poissons Ratio (x) = 0.42720 -0.02425
# Poissons Ratio (y) = 0.25543 0.51539
# Poissons Ratio (z) = -0.01100 0.39121
#
# Static dielectric constant tensor:
#      x y z
#    x 2.144100 -0.016110 -0.118410 
#    y -0.016110 2.107720 0.149070 
#    z -0.118410 0.149070 1.870880 
# 
# From -- ./inp_files/364311.got.cif
#   From: 2010.05.17/outbox.cif.g08.bks.cpg/sg2_183_cif.got.tgz:364311.got - 2010.06.03 11:33:40.
