data_PCOD9035889
_publ_section_title
;
Structure prediction by ZEFSAII (Michael W. Deem and Ramdas Pophale) SiO2 
 PCOD9035889
Probable space group: P -1
;
_chemical_formula_sum "Si O2"
_cell_formula_units_Z 14
_cell_length_a 14.406912
_cell_length_b 21.583197
_cell_length_c 9.569653
_cell_angle_alpha 33.932077
_cell_angle_beta 38.202203
_cell_angle_gamma 22.302651
_cell_volume 628.032143
_symmetry_space_group_name_H-M "P -1"
_symmetry_group_IT_number 2
_symmetry_cell_setting 'triclinic'
loop_
_space_group_symop_operation_xyz
x,y,z
-x,-y,-z
loop_
_atom_site_type_symbol
_atom_site_label
_atom_site_fract_x
_atom_site_fract_y
_atom_site_fract_z
Si Si1 0.256413 0.794858 0.254653
Si Si2 0.801125 0.977742 0.315665
Si Si3 0.519241 0.142855 0.599688
Si Si4 0.891978 0.773009 0.005155
Si Si5 0.732504 0.769211 0.779907
Si Si6 0.209459 0.483156 0.948795
Si Si7 0.313557 0.906337 0.217454
O O1 0.539590 0.610125 0.229701
O O2 0.225214 0.847771 0.353601
O O3 0.182389 0.950566 0.967939
O O4 0.065738 0.818389 0.377290
O O5 0.705843 0.913451 0.506093
O O6 0.620252 0.134081 0.354900
O O7 0.252944 0.244091 0.720818
O O8 0.559007 0.191583 0.600581
O O9 0.705173 0.930098 0.811847
O O10 0.125602 0.589291 0.992733
O O11 0.891822 0.879255 0.909085
O O12 0.747367 0.675623 0.807682
O O13 0.520022 0.843581 0.992590
O O14 0.986100 0.619859 0.847172
#
# Coordination Sequence:
#
# PCOD9035889 Si02
#       7
#     2   2   2   2   2   2   2
#     4  10  25  33  54  75 115 138 187 202 265 304
#     4  11  20  40  50  75 109 157 165 215 252 333
#     4   9  15  30  60  75 102 140 171 210 264 312
#     4   9  14  31  57  81 104 123 171 229 264 295
#     4  10  17  32  60  76 110 130 183 211 273 297
#     4  10  18  32  54  88 101 133 168 237 256 312
#     4   9  16  34  56  85  94 142 175 225 244 331
#
# _framework density 22.291853
#
# number of rings (size 3 to 8) (size 9 to 14) (size 15 to 20)
#    0.857    1.429    4.286    0.000    0.000    3.429 
#    0.000    0.714    3.143    1.714    0.000    0.000 
#    0.000    0.000    0.000    0.000    0.000    0.000 
#
# Total GULP energy -78080.307237 kJ/mol
# GULP energy per Si atom -5577.164803 kJ/mol
# Density = 2.224112 g / cm^3
# Si number density = 22.291853 Si / 1000 Ang^3
#
#
#
# Elastic Constant Matrix: (Units=GPa)
#
#
# Indices 1 2 3 4 5 6 
#
# 1 95.4602 53.8361 11.9383 14.5004 -15.6650 2.5256
# 2 53.8361 112.8752 6.5387 11.7779 -10.3141 21.7672
# 3 11.9383 6.5387 50.7121 4.7097 -9.7789 0.7703
# 4 14.5004 11.7779 4.7097 22.9692 1.7701 0.3566
# 5 -15.6650 -10.3141 -9.7789 1.7701 21.9313 3.9627
# 6 2.5256 21.7672 0.7703 0.3566 3.9627 35.1685
#
#
#
# Elastic Compliance Matrix: (Units=1/GPa)
#
#
# Indices 1 2 3 4 5 6 
#
# 1 0.017015 -0.006861 -0.000723 -0.007790 0.008849 0.002123
# 2 -0.006861 0.014573 0.001037 -0.003548 0.004328 -0.009002
# 3 -0.000723 0.001037 0.022378 -0.005461 0.010795 -0.002241
# 4 -0.007790 -0.003548 -0.005461 0.052458 -0.014622 0.003991
# 5 0.008849 0.004328 0.010795 -0.014622 0.061820 -0.010368
# 6 0.002123 -0.009002 -0.002241 0.003991 -0.010368 0.035030
#
#
# Mechanical properties :
#
#
# Convention : Reuss Voigt Hill
#
# Bulk Modulus (GPa) = 24.46687 44.85265 34.65976
# Shear Modulus (GPa) = 21.73972 28.46278 25.10125
#
# Velocity S-wave (km/s) = 3.12626 3.57714 3.35927
# Velocity P-wave (km/s) = 4.90213 6.10128 5.53428
#
# Compressibility (1/GPa) = 0.04087159
#
# Stress axis : x y z
#
# Youngs Moduli (GPa) = 58.77252 68.61849 44.68575
#
# Poissons Ratio (x) = 0.47081 0.03232
# Poissons Ratio (y) = 0.40325 -0.04634
# Poissons Ratio (z) = 0.04251 -0.07115
#
# Static dielectric constant tensor:
#      x y z
#    x 1.849550 -0.003170 0.009630 
#    y -0.003170 1.872290 -0.028180 
#    z 0.009630 -0.028180 1.842220 
# 
# From -- ./inp_files/467565.got.cif
#   From: 2010.05.17/outbox.cif.g08.bks.cpg/sg2_234_cif.got.tgz:467565.got - 2010.06.03 11:33:40.
