data_PCOD9035755
_publ_section_title
;
Structure prediction by ZEFSAII (Michael W. Deem and Ramdas Pophale) SiO2 
 PCOD9035755
Probable space group: P -1
;
_chemical_formula_sum "Si O2"
_cell_formula_units_Z 16
_cell_length_a 8.553945
_cell_length_b 14.148587
_cell_length_c 12.154615
_cell_angle_alpha 86.344825
_cell_angle_beta 96.772686
_cell_angle_gamma 31.267556
_cell_volume 718.507810
_symmetry_space_group_name_H-M "P -1"
_symmetry_group_IT_number 2
_symmetry_cell_setting 'triclinic'
loop_
_space_group_symop_operation_xyz
x,y,z
-x,-y,-z
loop_
_atom_site_type_symbol
_atom_site_label
_atom_site_fract_x
_atom_site_fract_y
_atom_site_fract_z
Si Si1 0.937760 0.759662 0.689733
Si Si2 0.129194 0.677275 0.952171
Si Si3 0.752319 0.807134 0.103034
Si Si4 0.793739 0.530458 0.583065
Si Si5 0.316884 0.392335 0.671410
Si Si6 0.754528 0.070962 0.899418
Si Si7 0.796254 0.860131 0.352566
Si Si8 0.885351 0.167264 0.455781
O O1 0.029650 0.684691 0.828146
O O2 0.203844 0.558775 0.663261
O O3 0.972379 0.847090 0.634062
O O4 0.558025 0.938007 0.643831
O O5 0.500000 0.500000 0.000000
O O6 0.943776 0.874514 0.909911
O O7 0.049632 0.660956 0.057408
O O8 0.585807 0.791619 0.095180
O O9 0.788901 0.840734 0.221703
O O10 0.500000 0.000000 0.000000
O O11 0.647377 0.649823 0.450977
O O12 0.496201 0.638213 0.609480
O O13 0.997821 0.499471 0.669530
O O14 0.051929 0.317874 0.582848
O O15 0.630653 0.198193 0.777751
O O16 0.000000 0.000000 0.000000
O O17 0.018952 0.824459 0.426058
O O18 0.000000 0.000000 0.500000
#
# Coordination Sequence:
#
# PCOD9035755 Si02
#       8
#     2   2   2   2   2   2   2   2
#     4  12  25  45  69 100 143 186 229 295 360 416
#     4  11  25  45  71 101 140 190 240 294 349 421
#     4  10  22  46  71  98 137 189 240 281 358 421
#     4  11  25  44  69 104 140 184 232 289 354 435
#     4  11  24  43  73 100 144 184 235 287 363 427
#     4  11  23  45  72 102 138 187 243 297 346 423
#     4  12  23  48  75  95 146 188 231 293 360 426
#     4  12  29  43  68 110 140 180 240 295 356 426
#
# _framework density 22.268374000000001
#
# number of rings (size 3 to 8) (size 9 to 14) (size 15 to 20)
#    0.000    0.750    5.000    2.250    7.000    2.000 
#    0.000    2.500    0.000    0.000    0.000    0.000 
#    0.000    0.000    0.000    0.000    0.000    0.000 
#
# Total GULP energy -89159.204435 kJ/mol
# GULP energy per Si atom -5572.450277 kJ/mol
# Density = 2.221769 g / cm^3
# Si number density = 22.268374 Si / 1000 Ang^3
#
#
#
# Elastic Constant Matrix: (Units=GPa)
#
#
# Indices 1 2 3 4 5 6 
#
# 1 74.8672 14.1872 21.2179 1.3786 -4.0229 -0.7562
# 2 14.1872 69.7038 10.4379 -20.3531 -11.4765 -9.2239
# 3 21.2179 10.4379 150.3370 -9.8286 -5.0903 -2.0702
# 4 1.3786 -20.3531 -9.8286 37.0781 1.5132 -1.5847
# 5 -4.0229 -11.4765 -5.0903 1.5132 24.2886 -3.8932
# 6 -0.7562 -9.2239 -2.0702 -1.5847 -3.8932 46.0104
#
#
#
# Elastic Compliance Matrix: (Units=1/GPa)
#
#
# Indices 1 2 3 4 5 6 
#
# 1 0.014687 -0.003617 -0.002021 -0.003111 0.000390 -0.000649
# 2 -0.003617 0.020590 0.000210 0.011337 0.009310 0.005256
# 3 -0.002021 0.000210 0.007104 0.002045 0.001206 0.000501
# 4 -0.003111 0.011337 0.002045 0.033860 0.003770 0.003799
# 5 0.000390 0.009310 0.001206 0.003770 0.046615 0.006001
# 6 -0.000649 0.005256 0.000501 0.003799 0.006001 0.023438
#
#
# Mechanical properties :
#
#
# Convention : Reuss Voigt Hill
#
# Bulk Modulus (GPa) = 31.72092 42.95488 37.33790
# Shear Modulus (GPa) = 29.82274 38.07974 33.95124
#
# Velocity S-wave (km/s) = 3.66354 4.13975 3.90890
# Velocity P-wave (km/s) = 5.67196 6.49473 6.09724
#
# Compressibility (1/GPa) = 0.03152493
#
# Stress axis : x y z
#
# Youngs Moduli (GPa) = 68.08874 48.56765 140.76898
#
# Poissons Ratio (x) = 0.17565 0.28447
# Poissons Ratio (y) = 0.24625 -0.02951
# Poissons Ratio (z) = 0.13759 -0.01018
#
# Static dielectric constant tensor:
#      x y z
#    x 1.933590 -0.002100 0.048020 
#    y -0.002100 1.921000 0.142560 
#    z 0.048020 0.142560 2.001410 
# 
# From -- ./inp_files/399122.got.cif
#   From: 2010.05.17/outbox.cif.g08.bks.cpg/sg2_200_cif.got.tgz:399122.got - 2010.06.03 11:33:40.
