data_PCOD9035341
_publ_section_title
;
Structure prediction by ZEFSAII (Michael W. Deem and Ramdas Pophale) SiO2 
 PCOD9035341
Probable space group: P -1
;
_chemical_formula_sum "Si O2"
_cell_formula_units_Z 16
_cell_length_a 17.085963
_cell_length_b 23.729867
_cell_length_c 5.247741
_cell_angle_alpha 105.269207
_cell_angle_beta 107.528293
_cell_angle_gamma 18.268702
_cell_volume 634.177388
_symmetry_space_group_name_H-M "P -1"
_symmetry_group_IT_number 2
_symmetry_cell_setting 'triclinic'
loop_
_space_group_symop_operation_xyz
x,y,z
-x,-y,-z
loop_
_atom_site_type_symbol
_atom_site_label
_atom_site_fract_x
_atom_site_fract_y
_atom_site_fract_z
Si Si1 0.369232 0.793981 0.107811
Si Si2 0.562499 0.178477 0.295705
Si Si3 0.803137 0.785946 0.838821
Si Si4 0.484316 0.916010 0.999013
Si Si5 0.672893 0.388122 0.783934
Si Si6 0.009213 0.437227 0.617856
Si Si7 0.740794 0.471829 0.811789
Si Si8 0.219567 0.812611 0.367857
O O1 0.343161 0.854638 0.392783
O O2 0.744478 0.611512 0.718387
O O3 0.349819 0.845514 0.896704
O O4 0.634407 0.583996 0.065381
O O5 0.770527 0.170853 0.891719
O O6 0.638316 0.060218 0.198626
O O7 0.939257 0.655166 0.606541
O O8 0.686276 0.926726 0.807468
O O9 0.580927 0.893000 0.842945
O O10 0.986090 0.681527 0.133457
O O11 0.741753 0.722984 0.158926
O O12 0.500000 0.500000 0.500000
O O13 0.786523 0.376003 0.849647
O O14 0.832803 0.220977 0.726139
O O15 0.500000 0.500000 0.000000
O O16 0.000000 0.500000 0.500000
O O17 0.501789 0.631146 0.564359
O O18 0.000000 0.000000 0.500000
#
# Coordination Sequence:
#
# PCOD9035341 Si02
#       8
#     2   2   2   2   2   2   2   2
#     4  12  24  44  75 109 146 189 248 305 368 443
#     4  12  25  43  75 109 149 196 252 302 368 432
#     4  11  25  46  71 102 150 196 252 302 371 430
#     4  11  26  44  67 107 151 199 249 308 361 432
#     4  10  22  45  74 104 141 183 234 294 378 453
#     4  12  23  42  73 104 144 207 252 306 359 443
#     4  11  23  46  74 105 145 191 242 302 371 447
#     4  11  26  48  79 111 144 187 244 310 382 453
#
# _framework density 25.229531999999999
#
# number of rings (size 3 to 8) (size 9 to 14) (size 15 to 20)
#    0.000    0.750    5.000    2.250    0.000    1.500 
#    0.000    0.000    0.000    0.000    0.000    0.000 
#    0.000    0.000    0.000    0.000    0.000    0.000 
#
# Total GULP energy -89332.195682 kJ/mol
# GULP energy per Si atom -5583.262230 kJ/mol
# Density = 2.517211 g / cm^3
# Si number density = 25.229532 Si / 1000 Ang^3
#
#
#
# Elastic Constant Matrix: (Units=GPa)
#
#
# Indices 1 2 3 4 5 6 
#
# 1 159.9100 45.7296 61.5050 13.3683 1.8732 32.2305
# 2 45.7296 126.9612 34.6693 16.4260 -2.2247 23.1435
# 3 61.5050 34.6693 123.1814 17.6093 -0.7699 18.5041
# 4 13.3683 16.4260 17.6093 42.7823 7.0536 20.3813
# 5 1.8732 -2.2247 -0.7699 7.0536 49.0423 12.0184
# 6 32.2305 23.1435 18.5041 20.3813 12.0184 36.5269
#
#
#
# Elastic Compliance Matrix: (Units=1/GPa)
#
#
# Indices 1 2 3 4 5 6 
#
# 1 0.009203 -0.001354 -0.003470 0.002298 0.000941 -0.007096
# 2 -0.001354 0.009641 -0.001242 -0.001008 0.001661 -0.004269
# 3 -0.003470 -0.001242 0.010639 -0.002846 0.000697 -0.000182
# 4 0.002298 -0.001008 -0.002846 0.032953 -0.000462 -0.018183
# 5 0.000941 0.001661 0.000697 -0.000462 0.022833 -0.009491
# 6 -0.007096 -0.004269 -0.000182 -0.018183 -0.009491 0.049704
#
#
# Mechanical properties :
#
#
# Convention : Reuss Voigt Hill
#
# Bulk Modulus (GPa) = 57.63768 77.09560 67.36664
# Shear Modulus (GPa) = 32.70373 43.54689 38.12531
#
# Velocity S-wave (km/s) = 3.60425 4.15906 3.89155
# Velocity P-wave (km/s) = 6.34159 7.32719 6.85213
#
# Compressibility (1/GPa) = 0.01734976
#
# Stress axis : x y z
#
# Youngs Moduli (GPa) = 108.66342 103.72555 93.99442
#
# Poissons Ratio (x) = 0.14048 0.32621
# Poissons Ratio (y) = 0.14717 0.11670
# Poissons Ratio (z) = 0.37712 0.12878
#
# Static dielectric constant tensor:
#      x y z
#    x 2.029010 -0.050660 0.027600 
#    y -0.050660 2.129120 -0.031880 
#    z 0.027600 -0.031880 2.022970 
# 
# From -- ./inp_files/112985.got.cif
#   From: 2010.05.17/outbox.cif.g08.bks.cpg/sg2_57_cif.got.tgz:112985.got - 2010.06.03 11:33:40.
