data_PCOD9035535
_publ_section_title
;
Structure prediction by ZEFSAII (Michael W. Deem and Ramdas Pophale) SiO2 
 PCOD9035535
Probable space group: P -1
;
_chemical_formula_sum "Si O2"
_cell_formula_units_Z 12
_cell_length_a 14.209589
_cell_length_b 10.546994
_cell_length_c 5.416409
_cell_angle_alpha 123.395861
_cell_angle_beta 125.941605
_cell_angle_gamma 44.788636
_cell_volume 450.067171
_symmetry_space_group_name_H-M "P -1"
_symmetry_group_IT_number 2
_symmetry_cell_setting 'triclinic'
loop_
_space_group_symop_operation_xyz
x,y,z
-x,-y,-z
loop_
_atom_site_type_symbol
_atom_site_label
_atom_site_fract_x
_atom_site_fract_y
_atom_site_fract_z
Si Si1 0.079746 0.825810 0.620865
Si Si2 0.330957 0.147851 0.674219
Si Si3 0.462383 0.784383 0.815842
Si Si4 0.377978 0.560575 0.673963
Si Si5 0.905174 0.874211 0.831697
Si Si6 0.926931 0.497069 0.130194
O O1 0.224300 0.622943 0.594626
O O2 0.960489 0.820821 0.577945
O O3 0.000000 0.000000 0.500000
O O4 0.135088 0.920501 0.991501
O O5 0.225809 0.138124 0.318385
O O6 0.230475 0.323381 0.886490
O O7 0.397613 0.960055 0.728759
O O8 0.448106 0.183256 0.811955
O O9 0.352421 0.748045 0.721475
O O10 0.560955 0.599371 0.606462
O O11 0.500000 0.500000 0.000000
O O12 0.037634 0.709822 0.018675
O O13 0.000000 0.500000 0.500000
O O14 0.000000 0.500000 0.000000
#
# Coordination Sequence:
#
# PCOD9035535 Si02
#       6
#     2   2   2   2   2   2
#     4  11  25  42  73 101 136 187 235 301 362 432
#     4  10  22  46  67  97 139 179 237 294 362 420
#     4  10  24  44  68  97 134 186 233 292 349 441
#     4  11  25  44  70  96 139 181 236 288 360 435
#     4  10  24  43  68 103 139 176 239 302 364 428
#     4  10  24  41  70 102 143 186 231 301 369 428
#
# _framework density 26.662686999999998
#
# number of rings (size 3 to 8) (size 9 to 14) (size 15 to 20)
#    0.000    1.667    0.000    2.000   11.667    2.667 
#    3.000    2.500    0.000    0.000    0.000    0.000 
#    0.000    0.000    0.000    0.000    0.000    0.000 
#
# Total GULP energy -67037.394525 kJ/mol
# GULP energy per Si atom -5586.449544 kJ/mol
# Density = 2.660200 g / cm^3
# Si number density = 26.662687 Si / 1000 Ang^3
#
#
#
# Elastic Constant Matrix: (Units=GPa)
#
#
# Indices 1 2 3 4 5 6 
#
# 1 62.8391 14.3015 -0.1071 -8.6939 -1.5078 1.3212
# 2 14.3015 137.0144 3.1951 17.4892 3.0457 12.1058
# 3 -0.1071 3.1951 64.9646 -6.5238 24.2842 0.7513
# 4 -8.6939 17.4892 -6.5238 43.5294 4.1504 1.3093
# 5 -1.5078 3.0457 24.2842 4.1504 41.9034 -1.1878
# 6 1.3212 12.1058 0.7513 1.3093 -1.1878 46.7375
#
#
#
# Elastic Compliance Matrix: (Units=1/GPa)
#
#
# Indices 1 2 3 4 5 6 
#
# 1 0.017068 -0.002362 0.000589 0.004446 0.000004 -0.000004
# 2 -0.002362 0.008225 -0.000816 -0.003851 0.000117 -0.001940
# 3 0.000589 -0.000816 0.020506 0.004708 -0.012286 -0.000579
# 4 0.004446 -0.003851 0.004708 0.026586 -0.004924 -0.000074
# 5 0.000004 0.000117 -0.012286 -0.004924 0.031495 0.001105
# 6 -0.000004 -0.001940 -0.000579 -0.000074 0.001105 0.021938
#
#
# Mechanical properties :
#
#
# Convention : Reuss Voigt Hill
#
# Bulk Modulus (GPa) = 24.61871 33.28859 28.95365
# Shear Modulus (GPa) = 34.59349 42.92932 38.76140
#
# Velocity S-wave (km/s) = 3.60592 4.01695 3.81697
# Velocity P-wave (km/s) = 5.15658 5.83324 5.50531
#
# Compressibility (1/GPa) = 0.04061952
#
# Stress axis : x y z
#
# Youngs Moduli (GPa) = 58.59039 121.58760 48.76580
#
# Poissons Ratio (x) = 0.28725 -0.02875
# Poissons Ratio (y) = 0.13842 0.03981
# Poissons Ratio (z) = -0.03454 0.09926
#
# Static dielectric constant tensor:
#      x y z
#    x 2.055270 -0.044190 -0.030890 
#    y -0.044190 2.115660 0.109890 
#    z -0.030890 0.109890 2.486630 
# 
# From -- ./inp_files/63990.got.cif
#   From: 2010.05.17/outbox.cif.g08.bks.cpg/sg2_32_cif.got.tgz:63990.got - 2010.06.03 11:33:40.
