data_PCOD9035256
_publ_section_title
;
Structure prediction by ZEFSAII (Michael W. Deem and Ramdas Pophale) SiO2 
 PCOD9035256
Probable space group: P -1
;
_chemical_formula_sum "Si O2"
_cell_formula_units_Z 13
_cell_length_a 13.881849
_cell_length_b 10.376769
_cell_length_c 8.269242
_cell_angle_alpha 68.059080
_cell_angle_beta 141.613490
_cell_angle_gamma 130.572702
_cell_volume 537.921009
_symmetry_space_group_name_H-M "P -1"
_symmetry_group_IT_number 2
_symmetry_cell_setting 'triclinic'
loop_
_space_group_symop_operation_xyz
x,y,z
-x,-y,-z
loop_
_atom_site_type_symbol
_atom_site_label
_atom_site_fract_x
_atom_site_fract_y
_atom_site_fract_z
Si Si1 0.204086 0.060660 0.656594
Si Si2 0.500000 0.000000 0.000000
Si Si3 0.791759 0.521887 0.020219
Si Si4 0.543198 0.152976 0.662071
Si Si5 0.412417 0.602373 0.849028
Si Si6 0.156457 0.637748 0.274977
Si Si7 0.785378 0.828700 0.746380
O O1 0.229270 0.156522 0.473675
O O2 0.390948 0.201964 0.947561
O O3 0.000000 0.000000 0.500000
O O4 0.265433 0.935360 0.755368
O O5 0.530792 0.996228 0.234416
O O6 0.671494 0.333878 0.857339
O O7 0.743855 0.647560 0.828161
O O8 0.727225 0.470010 0.143608
O O9 0.023609 0.630352 0.241803
O O10 0.687561 0.180214 0.700046
O O11 0.367167 0.153792 0.374079
O O12 0.284687 0.583510 0.540109
O O13 0.500000 0.500000 0.000000
O O14 0.000000 0.500000 0.000000
O O15 0.000000 0.000000 0.000000
#
# Coordination Sequence:
#
# PCOD9035256 Si02
#       7
#     2   1   2   2   2   2   2
#     4  11  28  46  74 107 151 197 246 306 379 444
#     4  10  22  48  72 100 150 184 248 304 372 432
#     4  11  23  46  72 100 142 187 253 297 372 439
#     4  10  22  45  72  99 140 188 241 308 367 439
#     4  12  26  46  74 106 148 197 248 307 367 452
#     4  10  25  42  71 107 137 188 248 307 371 435
#     4  11  25  44  68 104 140 189 235 309 367 439
#
# _framework density 24.167117000000001
#
# number of rings (size 3 to 8) (size 9 to 14) (size 15 to 20)
#    0.000    1.231    3.077    1.846   10.769    3.692 
#    5.538    1.538    0.000    0.000    0.000    0.000 
#    0.000    0.000    0.000    0.000    0.000    0.000 
#
# Total GULP energy -72415.446207 kJ/mol
# GULP energy per Si atom -5570.418939 kJ/mol
# Density = 2.411211 g / cm^3
# Si number density = 24.167117 Si / 1000 Ang^3
#
#
#
# Elastic Constant Matrix: (Units=GPa)
#
#
# Indices 1 2 3 4 5 6 
#
# 1 156.9711 24.1986 56.3418 11.7940 46.9740 38.1652
# 2 24.1986 39.8795 31.4712 8.4283 12.0797 -9.6625
# 3 56.3418 31.4712 163.6199 -4.9034 12.1434 7.9022
# 4 11.7940 8.4283 -4.9034 33.9025 -0.6993 9.6091
# 5 46.9740 12.0797 12.1434 -0.6993 49.5154 10.1896
# 6 38.1652 -9.6625 7.9022 9.6091 10.1896 39.5111
#
#
#
# Elastic Compliance Matrix: (Units=1/GPa)
#
#
# Indices 1 2 3 4 5 6 
#
# 1 0.013727 -0.007242 -0.002121 0.000101 -0.008156 -0.012528
# 2 -0.007242 0.049510 -0.008260 -0.019037 -0.009161 0.027748
# 3 -0.002121 -0.008260 0.008556 0.005116 0.002749 -0.003636
# 4 0.000101 -0.019037 0.005116 0.040028 0.007446 -0.017431
# 5 -0.008156 -0.009161 0.002749 0.007446 0.030546 -0.004600
# 6 -0.012528 0.027748 -0.003636 -0.017431 -0.004600 0.050349
#
#
# Mechanical properties :
#
#
# Convention : Reuss Voigt Hill
#
# Bulk Modulus (GPa) = 27.36168 64.94374 46.15271
# Shear Modulus (GPa) = 20.82090 41.14972 30.98531
#
# Velocity S-wave (km/s) = 2.93838 4.13087 3.58456
# Velocity P-wave (km/s) = 4.78106 7.04864 6.02253
#
# Compressibility (1/GPa) = 0.03654746
#
# Stress axis : x y z
#
# Youngs Moduli (GPa) = 72.84678 20.19807 116.88370
#
# Poissons Ratio (x) = 0.14628 0.24786
# Poissons Ratio (y) = 0.52758 0.96542
# Poissons Ratio (z) = 0.15448 0.16683
#
# Static dielectric constant tensor:
#      x y z
#    x 1.992500 -0.028800 0.015490 
#    y -0.028800 1.965830 0.122060 
#    z 0.015490 0.122060 2.002290 
# 
# From -- ./inp_files/174265.got.cif
#   From: 2010.05.17/outbox.cif.g08.bks.cpg/sg2_88_cif.got.tgz:174265.got - 2010.06.03 11:33:40.
