data_PCOD9035027
_publ_section_title
;
Structure prediction by ZEFSAII (Michael W. Deem and Ramdas Pophale) SiO2 
 PCOD9035027
Probable space group: P -1
;
_chemical_formula_sum "Si O2"
_cell_formula_units_Z 14
_cell_length_a 11.710224
_cell_length_b 8.122535
_cell_length_c 9.189950
_cell_angle_alpha 79.192276
_cell_angle_beta 139.460184
_cell_angle_gamma 107.620370
_cell_volume 540.222003
_symmetry_space_group_name_H-M "P -1"
_symmetry_group_IT_number 2
_symmetry_cell_setting 'triclinic'
loop_
_space_group_symop_operation_xyz
x,y,z
-x,-y,-z
loop_
_atom_site_type_symbol
_atom_site_label
_atom_site_fract_x
_atom_site_fract_y
_atom_site_fract_z
Si Si1 0.435039 0.726877 0.559960
Si Si2 0.887578 0.172024 0.630222
Si Si3 0.540048 0.432732 0.893795
Si Si4 0.633442 0.788356 0.469576
Si Si5 0.216530 0.020071 0.017181
Si Si6 0.042843 0.333163 0.137512
Si Si7 0.853062 0.246821 0.248317
O O1 0.234513 0.715853 0.428305
O O2 0.505633 0.570287 0.721395
O O3 0.453197 0.747503 0.400136
O O4 0.588397 0.892202 0.742942
O O5 0.893843 0.217954 0.458109
O O6 0.759502 0.980096 0.563058
O O7 0.090061 0.156322 0.868290
O O8 0.409074 0.258951 0.730712
O O9 0.500000 0.500000 0.000000
O O10 0.730069 0.382462 0.093657
O O11 0.754013 0.677569 0.686381
O O12 0.233790 0.936080 0.888737
O O13 0.096096 0.849691 0.011878
O O14 0.021330 0.325006 0.293261
O O15 0.000000 0.500000 0.000000
#
# Coordination Sequence:
#
# PCOD9035027 Si02
#       7
#     2   2   2   2   2   2   2
#     4  12  25  47  69 111 147 186 240 298 353 435
#     4  11  23  45  74 109 143 185 242 296 357 428
#     4  12  26  45  69 103 142 191 240 291 361 419
#     4  11  26  45  69 101 146 191 235 293 364 422
#     4   9  24  43  77 104 139 191 241 285 366 421
#     4   9  21  44  71 101 140 188 231 295 357 420
#     4  10  22  45  70 104 140 188 236 296 358 418
#
# _framework density 25.915272000000002
#
# number of rings (size 3 to 8) (size 9 to 14) (size 15 to 20)
#    0.857    0.571    1.429    3.000    2.000    3.429 
#   10.286    1.429    0.000    0.000    0.000    0.000 
#    0.000    0.000    0.000    0.000    0.000    0.000 
#
# Total GULP energy -78363.363442 kJ/mol
# GULP energy per Si atom -5597.383103 kJ/mol
# Density = 2.585629 g / cm^3
# Si number density = 25.915272 Si / 1000 Ang^3
#
#
#
# Elastic Constant Matrix: (Units=GPa)
#
#
# Indices 1 2 3 4 5 6 
#
# 1 134.3771 18.2564 46.4863 -4.2215 -12.3154 -23.3362
# 2 18.2564 81.3073 39.1459 -13.0070 6.0754 1.7983
# 3 46.4863 39.1459 107.6208 -11.9188 -4.1122 -12.5433
# 4 -4.2215 -13.0070 -11.9188 61.2476 -7.5423 0.7103
# 5 -12.3154 6.0754 -4.1122 -7.5423 47.3012 -13.2630
# 6 -23.3362 1.7983 -12.5433 0.7103 -13.2630 35.2880
#
#
#
# Elastic Compliance Matrix: (Units=1/GPa)
#
#
# Indices 1 2 3 4 5 6 
#
# 1 0.010439 -0.001456 -0.002842 0.000371 0.004905 0.007804
# 2 -0.001456 0.016162 -0.005860 0.001735 -0.004228 -0.005493
# 3 -0.002842 -0.005860 0.013386 0.001432 0.002557 0.004110
# 4 0.000371 0.001735 0.001432 0.017376 0.003194 0.001517
# 5 0.004905 -0.004228 0.002557 0.003194 0.027833 0.014765
# 6 0.007804 -0.005493 0.004110 0.001517 0.014765 0.040758
#
#
# Mechanical properties :
#
#
# Convention : Reuss Voigt Hill
#
# Bulk Modulus (GPa) = 50.83056 59.00915 54.91985
# Shear Modulus (GPa) = 32.71719 43.39512 38.05615
#
# Velocity S-wave (km/s) = 3.55698 4.09650 3.83624
# Velocity P-wave (km/s) = 6.04369 6.72269 6.39221
#
# Compressibility (1/GPa) = 0.01967321
#
# Stress axis : x y z
#
# Youngs Moduli (GPa) = 95.79594 61.87380 74.70505
#
# Poissons Ratio (x) = 0.09006 0.21228
# Poissons Ratio (y) = 0.13944 0.43775
# Poissons Ratio (z) = 0.27221 0.36256
#
# Static dielectric constant tensor:
#      x y z
#    x 2.097660 -0.122090 0.026350 
#    y -0.122090 2.141280 0.030640 
#    z 0.026350 0.030640 2.020740 
# 
# From -- ./inp_files/243762.got.cif
#   From: 2010.05.17/outbox.cif.g08.bks.cpg/sg2_122_cif.got.tgz:243762.got - 2010.06.03 11:33:40.
