data_PCOD9035010
_publ_section_title
;
Structure prediction by ZEFSAII (Michael W. Deem and Ramdas Pophale) SiO2 
 PCOD9035010
Probable space group: P -1
;
_chemical_formula_sum "Si O2"
_cell_formula_units_Z 16
_cell_length_a 9.399133
_cell_length_b 11.782921
_cell_length_c 21.296174
_cell_angle_alpha 33.959482
_cell_angle_beta 140.595934
_cell_angle_gamma 124.980190
_cell_volume 820.987078
_symmetry_space_group_name_H-M "P -1"
_symmetry_group_IT_number 2
_symmetry_cell_setting 'triclinic'
loop_
_space_group_symop_operation_xyz
x,y,z
-x,-y,-z
loop_
_atom_site_type_symbol
_atom_site_label
_atom_site_fract_x
_atom_site_fract_y
_atom_site_fract_z
Si Si1 0.679847 0.139701 0.600305
Si Si2 0.052259 0.301984 0.063680
Si Si3 0.259630 0.432630 0.945601
Si Si4 0.384028 0.704566 0.158633
Si Si5 0.223751 0.387850 0.347916
Si Si6 0.877947 0.417132 0.644730
Si Si7 0.150888 0.583754 0.565907
Si Si8 0.194903 0.091432 0.986386
O O1 0.404748 0.178166 0.493517
O O2 0.748929 0.296637 0.605326
O O3 0.764990 0.220745 0.525987
O O4 0.800695 0.905502 0.761577
O O5 0.181027 0.367104 0.016726
O O6 0.000000 0.500000 0.000000
O O7 0.811864 0.253302 0.979714
O O8 0.291393 0.233503 0.003098
O O9 0.043956 0.594284 0.768094
O O10 0.500000 0.500000 0.000000
O O11 0.305155 0.548343 0.253682
O O12 0.624790 0.591939 0.266472
O O13 0.379505 0.912507 0.100665
O O14 0.247961 0.473561 0.387061
O O15 0.994340 0.589231 0.570965
O O16 0.068450 0.236362 0.822145
O O17 0.000000 0.500000 0.500000
O O18 0.000000 0.000000 0.000000
#
# Coordination Sequence:
#
# PCOD9035010 Si02
#       8
#     2   2   2   2   2   2   2   2
#     4  10  19  38  57  86 119 155 206 240 291 371
#     4  11  23  40  63  84 116 165 203 240 295 368
#     4  10  22  41  58  89 127 150 198 257 302 345
#     4  10  19  38  61  86 114 155 207 242 291 358
#     4   9  19  34  64  85 115 155 196 247 299 351
#     4  10  17  32  57  94 122 148 190 255 307 341
#     4   9  21  36  51  86 133 146 184 254 305 351
#     4  11  17  35  67  91 111 157 210 248 287 353
#
# _framework density 19.488735999999999
#
# number of rings (size 3 to 8) (size 9 to 14) (size 15 to 20)
#    0.000    2.000    5.000    0.375    0.000    2.500 
#    4.500    6.250    0.000    0.000    0.000    0.000 
#    0.000    0.000    0.000    0.000    0.000    0.000 
#
# Total GULP energy -89220.073933 kJ/mol
# GULP energy per Si atom -5576.254621 kJ/mol
# Density = 1.944438 g / cm^3
# Si number density = 19.488736 Si / 1000 Ang^3
#
#
#
# Elastic Constant Matrix: (Units=GPa)
#
#
# Indices 1 2 3 4 5 6 
#
# 1 42.7149 24.6364 37.8460 -2.6609 3.6956 -3.3989
# 2 24.6364 91.8271 34.4122 4.7568 16.4504 4.3315
# 3 37.8460 34.4122 124.5728 -11.0123 16.3395 -3.9967
# 4 -2.6609 4.7568 -11.0123 13.4361 -2.7776 5.6627
# 5 3.6956 16.4504 16.3395 -2.7776 30.6622 1.8180
# 6 -3.3989 4.3315 -3.9967 5.6627 1.8180 23.2971
#
#
#
# Elastic Compliance Matrix: (Units=1/GPa)
#
#
# Indices 1 2 3 4 5 6 
#
# 1 0.035748 -0.007175 -0.009201 0.001126 0.004287 0.004363
# 2 -0.007175 0.015395 -0.002019 -0.009393 -0.007085 -0.001420
# 3 -0.009201 -0.002019 0.012618 0.008738 -0.003702 -0.000637
# 4 0.001126 -0.009393 0.008738 0.095966 0.010169 -0.020710
# 5 0.004287 -0.007085 -0.003702 0.010169 0.039042 -0.004211
# 6 0.004363 -0.001420 -0.000637 -0.020710 -0.004211 0.049077
#
#
# Mechanical properties :
#
#
# Convention : Reuss Voigt Hill
#
# Bulk Modulus (GPa) = 37.07858 50.32265 43.70061
# Shear Modulus (GPa) = 17.02837 24.29378 20.66108
#
# Velocity S-wave (km/s) = 2.95914 3.53449 3.25953
# Velocity P-wave (km/s) = 5.54457 6.52183 6.05296
#
# Compressibility (1/GPa) = 0.02696975
#
# Stress axis : x y z
#
# Youngs Moduli (GPa) = 27.97348 64.95818 79.25000
#
# Poissons Ratio (x) = 0.46607 0.72921
# Poissons Ratio (y) = 0.20071 0.16004
# Poissons Ratio (z) = 0.25739 0.13118
#
# Static dielectric constant tensor:
#      x y z
#    x 1.698540 0.009620 0.005950 
#    y 0.009620 1.678840 0.019650 
#    z 0.005950 0.019650 1.707200 
# 
# From -- ./inp_files/203099.got.cif
#   From: 2010.05.17/outbox.cif.g08.bks.cpg/sg2_102_cif.got.tgz:203099.got - 2010.06.03 11:33:40.
