data_PCOD9035375
_publ_section_title
;
Structure prediction by ZEFSAII (Michael W. Deem and Ramdas Pophale) SiO2 
 PCOD9035375
Probable space group: P -1
;
_chemical_formula_sum "Si O2"
_cell_formula_units_Z 12
_cell_length_a 12.172674
_cell_length_b 8.215335
_cell_length_c 9.353525
_cell_angle_alpha 129.940455
_cell_angle_beta 132.298226
_cell_angle_gamma 49.055850
_cell_volume 487.611396
_symmetry_space_group_name_H-M "P -1"
_symmetry_group_IT_number 2
_symmetry_cell_setting 'triclinic'
loop_
_space_group_symop_operation_xyz
x,y,z
-x,-y,-z
loop_
_atom_site_type_symbol
_atom_site_label
_atom_site_fract_x
_atom_site_fract_y
_atom_site_fract_z
Si Si1 0.515287 0.271748 0.793630
Si Si2 0.021770 0.693192 0.224418
Si Si3 0.493719 0.785989 0.783804
Si Si4 0.699607 0.271037 0.669517
Si Si5 0.147949 0.523914 0.558527
Si Si6 0.730236 0.115181 0.128574
O O1 0.639869 0.233579 0.751227
O O2 0.328878 0.317082 0.617606
O O3 0.500000 0.500000 0.000000
O O4 0.618159 0.072345 0.885298
O O5 0.123712 0.809511 0.288687
O O6 0.095986 0.588485 0.383687
O O7 0.844888 0.895892 0.193394
O O8 0.000000 0.500000 0.000000
O O9 0.647602 0.549897 0.768273
O O10 0.399744 0.825301 0.576853
O O11 0.382128 0.711836 0.753189
O O12 0.500000 0.000000 0.000000
O O13 0.169641 0.747006 0.770071
O O14 0.000000 0.500000 0.500000
#
# Coordination Sequence:
#
# PCOD9035375 Si02
#       6
#     2   2   2   2   2   2
#     4  10  22  45  75 101 144 199 242 306 376 434
#     4  12  27  45  72 110 148 195 252 309 372 443
#     4  11  22  41  74 104 141 202 251 301 374 452
#     4  11  22  45  71 102 153 190 251 315 362 445
#     4  11  24  46  74 105 147 190 245 305 374 439
#     4  11  24  48  72 104 153 195 247 300 379 452
#
# _framework density 24.609760999999999
#
# number of rings (size 3 to 8) (size 9 to 14) (size 15 to 20)
#    0.000    1.000    5.000    2.500    4.667    2.000 
#    0.000    1.667    0.000    0.000    0.000    0.000 
#    0.000    0.000    0.000    0.000    0.000    0.000 
#
# Total GULP energy -66933.233622 kJ/mol
# GULP energy per Si atom -5577.769469 kJ/mol
# Density = 2.455375 g / cm^3
# Si number density = 24.609761 Si / 1000 Ang^3
#
#
#
# Elastic Constant Matrix: (Units=GPa)
#
#
# Indices 1 2 3 4 5 6 
#
# 1 158.0577 8.5546 58.0500 -34.4146 -7.8209 -5.2900
# 2 8.5546 85.0710 44.9587 -31.1960 1.6122 -16.2919
# 3 58.0500 44.9587 162.1684 -22.4730 -9.4588 8.8096
# 4 -34.4146 -31.1960 -22.4730 57.4213 10.7997 4.3308
# 5 -7.8209 1.6122 -9.4588 10.7997 51.7880 -5.2766
# 6 -5.2900 -16.2919 8.8096 4.3308 -5.2766 29.5072
#
#
#
# Elastic Compliance Matrix: (Units=1/GPa)
#
#
# Indices 1 2 3 4 5 6 
#
# 1 0.008838 0.003928 -0.003688 0.005736 -0.000253 0.003967
# 2 0.003928 0.021224 -0.006601 0.010791 -0.002259 0.012405
# 3 -0.003688 -0.006601 0.009496 -0.001777 0.001072 -0.006688
# 4 0.005736 0.010791 -0.001777 0.026779 -0.005106 0.002674
# 5 -0.000253 -0.002259 0.001072 -0.005106 0.020895 0.002873
# 6 0.003967 0.012405 -0.006688 0.002674 0.002873 0.043569
#
#
# Mechanical properties :
#
#
# Convention : Reuss Voigt Hill
#
# Bulk Modulus (GPa) = 37.26128 69.82487 53.54307
# Shear Modulus (GPa) = 32.79402 47.32555 40.05979
#
# Velocity S-wave (km/s) = 3.65439 4.39001 4.03898
# Velocity P-wave (km/s) = 5.74280 7.35735 6.59964
#
# Compressibility (1/GPa) = 0.02683751
#
# Stress axis : x y z
#
# Youngs Moduli (GPa) = 113.14853 47.11689 105.30610
#
# Poissons Ratio (x) = -0.18510 0.38838
# Poissons Ratio (y) = -0.44450 0.69507
# Poissons Ratio (z) = 0.41731 0.31100
#
# Static dielectric constant tensor:
#      x y z
#    x 2.096720 0.092060 0.085130 
#    y 0.092060 2.086910 -0.045530 
#    z 0.085130 -0.045530 1.951280 
# 
# From -- ./inp_files/151311.got.cif
#   From: 2010.05.17/outbox.cif.g08.bks.cpg/sg2_76_cif.got.tgz:151311.got - 2010.06.03 11:33:40.
