data_PCOD9035377
_publ_section_title
;
Structure prediction by ZEFSAII (Michael W. Deem and Ramdas Pophale) SiO2 
 PCOD9035377
Probable space group: P -1
;
_chemical_formula_sum "Si O2"
_cell_formula_units_Z 16
_cell_length_a 8.220447
_cell_length_b 11.694656
_cell_length_c 12.020177
_cell_angle_alpha 39.579813
_cell_angle_beta 112.919546
_cell_angle_gamma 114.929348
_cell_volume 663.487860
_symmetry_space_group_name_H-M "P -1"
_symmetry_group_IT_number 2
_symmetry_cell_setting 'triclinic'
loop_
_space_group_symop_operation_xyz
x,y,z
-x,-y,-z
loop_
_atom_site_type_symbol
_atom_site_label
_atom_site_fract_x
_atom_site_fract_y
_atom_site_fract_z
Si Si1 0.580074 0.016617 0.301142
Si Si2 0.972019 0.521265 0.119016
Si Si3 0.673434 0.435010 0.962562
Si Si4 0.881193 0.100273 0.471380
Si Si5 0.018830 0.789460 0.110222
Si Si6 0.671343 0.597321 0.242675
Si Si7 0.674499 0.926403 0.148367
Si Si8 0.811155 0.225087 0.595604
O O1 0.682683 0.997970 0.457347
O O2 0.674936 0.956994 0.258878
O O3 0.383739 0.897470 0.342417
O O4 0.583757 0.232347 0.130959
O O5 0.147064 0.583758 0.043242
O O6 0.040662 0.608835 0.187511
O O7 0.923730 0.305405 0.281264
O O8 0.781686 0.565861 0.989985
O O9 0.519081 0.485952 0.805774
O O10 0.895236 0.135912 0.579812
O O11 0.000000 0.000000 0.500000
O O12 0.079668 0.784002 0.256535
O O13 0.801074 0.754653 0.084698
O O14 0.146833 0.950398 0.954319
O O15 0.647766 0.715060 0.258596
O O16 0.773790 0.429857 0.412832
O O17 0.500000 0.000000 0.000000
#
# Coordination Sequence:
#
# PCOD9035377 Si02
#       8
#     2   2   2   2   2   2   2   2
#     4  11  24  47  73 100 144 187 239 299 347 428
#     4  10  22  45  75 102 139 191 241 295 346 426
#     4  10  22  46  71 105 143 190 242 290 351 424
#     4  11  27  48  71 102 143 192 238 291 368 431
#     4  12  24  46  73 105 150 185 236 298 356 429
#     4  12  26  42  71 109 145 191 235 295 355 426
#     4  12  23  47  72 106 141 187 237 289 360 419
#     4  12  27  47  70 106 150 186 238 298 358 429
#
# _framework density 24.114985000000001
#
# number of rings (size 3 to 8) (size 9 to 14) (size 15 to 20)
#    0.000    0.750    5.000    1.125    3.500    1.000 
#    0.000    0.000    0.000    0.000    0.000    0.000 
#    0.000    0.000    0.000    0.000    0.000    0.000 
#
# Total GULP energy -89327.758942 kJ/mol
# GULP energy per Si atom -5582.984934 kJ/mol
# Density = 2.406010 g / cm^3
# Si number density = 24.114985 Si / 1000 Ang^3
#
#
#
# Elastic Constant Matrix: (Units=GPa)
#
#
# Indices 1 2 3 4 5 6 
#
# 1 82.0929 53.4664 30.2494 -3.1408 -7.5586 9.0136
# 2 53.4664 156.7265 46.3103 21.8821 -0.5500 -9.7516
# 3 30.2494 46.3103 52.7593 10.0962 -16.8698 -3.2813
# 4 -3.1408 21.8821 10.0962 40.0200 -2.7860 -12.8017
# 5 -7.5586 -0.5500 -16.8698 -2.7860 32.1158 -3.2206
# 6 9.0136 -9.7516 -3.2813 -12.8017 -3.2206 60.4101
#
#
#
# Elastic Compliance Matrix: (Units=1/GPa)
#
#
# Indices 1 2 3 4 5 6 
#
# 1 0.018795 -0.005210 -0.007150 0.005258 0.000746 -0.002880
# 2 -0.005210 0.011044 -0.007444 -0.004651 -0.005261 0.000890
# 3 -0.007150 -0.007444 0.035816 -0.003739 0.016871 0.001918
# 4 0.005258 -0.004651 -0.003739 0.030608 0.002338 0.004872
# 5 0.000746 -0.005261 0.016871 0.002338 0.040550 0.002613
# 6 -0.002880 0.000890 0.001918 0.004872 0.002613 0.018403
#
#
# Mechanical properties :
#
#
# Convention : Reuss Voigt Hill
#
# Bulk Modulus (GPa) = 38.38976 61.29232 49.84104
# Shear Modulus (GPa) = 24.56943 37.27936 30.92440
#
# Velocity S-wave (km/s) = 3.19540 3.93606 3.58491
# Velocity P-wave (km/s) = 5.43766 6.79181 6.15210
#
# Compressibility (1/GPa) = 0.02604862
#
# Stress axis : x y z
#
# Youngs Moduli (GPa) = 53.20546 90.55025 27.92016
#
# Poissons Ratio (x) = 0.47176 0.19962
# Poissons Ratio (y) = 0.27719 0.20782
# Poissons Ratio (z) = 0.38041 0.67401
#
# Static dielectric constant tensor:
#      x y z
#    x 2.034940 -0.009710 0.065510 
#    y -0.009710 2.023610 0.118790 
#    z 0.065510 0.118790 2.004700 
# 
# From -- ./inp_files/392135.got.cif
#   From: 2010.05.17/outbox.cif.g08.bks.cpg/sg2_197_cif.got.tgz:392135.got - 2010.06.03 11:33:40.
