data_PCOD9035328
_publ_section_title
;
Structure prediction by ZEFSAII (Michael W. Deem and Ramdas Pophale) SiO2 
 PCOD9035328
Probable space group: P -1
;
_chemical_formula_sum "Si O2"
_cell_formula_units_Z 14
_cell_length_a 9.172701
_cell_length_b 8.893166
_cell_length_c 14.836547
_cell_angle_alpha 106.482232
_cell_angle_beta 139.172535
_cell_angle_gamma 55.165099
_cell_volume 624.102884
_symmetry_space_group_name_H-M "P -1"
_symmetry_group_IT_number 2
_symmetry_cell_setting 'triclinic'
loop_
_space_group_symop_operation_xyz
x,y,z
-x,-y,-z
loop_
_atom_site_type_symbol
_atom_site_label
_atom_site_fract_x
_atom_site_fract_y
_atom_site_fract_z
Si Si1 0.963018 0.975170 0.584417
Si Si2 0.897681 0.525720 0.320228
Si Si3 0.369481 0.198690 0.588377
Si Si4 0.016254 0.527010 0.906937
Si Si5 0.356064 0.694937 0.868550
Si Si6 0.041576 0.092679 0.122650
Si Si7 0.810394 0.363159 0.650661
O O1 0.882642 0.153511 0.638989
O O2 0.730204 0.938574 0.471794
O O3 0.000000 0.000000 0.500000
O O4 0.221462 0.798671 0.727304
O O5 0.751263 0.648700 0.361114
O O6 0.708620 0.464921 0.183303
O O7 0.196863 0.331831 0.445943
O O8 0.969901 0.642725 0.312810
O O9 0.689609 0.068934 0.725507
O O10 0.930238 0.736784 0.869323
O O11 0.845857 0.454032 0.770904
O O12 0.330951 0.389629 0.002865
O O13 0.000000 0.500000 0.000000
O O14 0.200740 0.826062 0.904675
O O15 0.000000 0.000000 0.000000
O O16 0.500000 0.500000 0.500000
#
# Coordination Sequence:
#
# PCOD9035328 Si02
#       7
#     2   2   2   2   2   2   2
#     4  11  25  43  72 106 145 185 237 304 358 436
#     4  10  22  45  74 100 140 188 235 298 351 439
#     4  10  23  42  70 104 138 184 238 292 363 417
#     4  12  30  50  73 104 151 194 240 308 369 431
#     4  11  27  48  73 105 143 193 247 292 371 434
#     4  12  27  45  74 102 144 191 249 298 355 443
#     4  12  27  43  73 104 146 186 244 293 367 423
#
# _framework density 22.432199000000001
#
# number of rings (size 3 to 8) (size 9 to 14) (size 15 to 20)
#    0.000    0.857    2.857    2.143   10.000    1.714 
#    0.000    0.000    0.000    0.000    0.000    0.000 
#    0.000    0.000    0.000    0.000    0.000    0.000 
#
# Total GULP energy -78286.966845 kJ/mol
# GULP energy per Si atom -5591.926203 kJ/mol
# Density = 2.238114 g / cm^3
# Si number density = 22.432199 Si / 1000 Ang^3
#
#
#
# Elastic Constant Matrix: (Units=GPa)
#
#
# Indices 1 2 3 4 5 6 
#
# 1 87.7630 39.8358 46.6946 0.3215 -10.4615 -9.8261
# 2 39.8358 115.9115 53.7223 19.0897 11.5087 -5.9983
# 3 46.6946 53.7223 154.6930 14.2104 16.5300 -14.2649
# 4 0.3215 19.0897 14.2104 50.3593 -2.2326 -3.0210
# 5 -10.4615 11.5087 16.5300 -2.2326 36.0051 -2.1057
# 6 -9.8261 -5.9983 -14.2649 -3.0210 -2.1057 23.9678
#
#
#
# Elastic Compliance Matrix: (Units=1/GPa)
#
#
# Indices 1 2 3 4 5 6 
#
# 1 0.017855 -0.005415 -0.004451 0.003893 0.009475 0.004639
# 2 -0.005415 0.012538 -0.001878 -0.004486 -0.005068 -0.001210
# 3 -0.004451 -0.001878 0.009417 -0.001981 -0.004986 0.002622
# 4 0.003893 -0.004486 -0.001981 0.022468 0.005018 0.002567
# 5 0.009475 -0.005068 -0.004986 0.005018 0.034943 0.003351
# 6 0.004639 -0.001210 0.002622 0.002567 0.003351 0.045500
#
#
# Mechanical properties :
#
#
# Convention : Reuss Voigt Hill
#
# Bulk Modulus (GPa) = 61.26950 70.98588 66.12769
# Shear Modulus (GPa) = 29.12903 36.60742 32.86823
#
# Velocity S-wave (km/s) = 3.60743 4.04408 3.83198
# Velocity P-wave (km/s) = 6.68759 7.31570 7.00868
#
# Compressibility (1/GPa) = 0.01632133
#
# Stress axis : x y z
#
# Youngs Moduli (GPa) = 56.00591 79.75841 106.19445
#
# Poissons Ratio (x) = 0.43191 0.47272
# Poissons Ratio (y) = 0.30328 0.19939
# Poissons Ratio (z) = 0.24931 0.14975
#
# Static dielectric constant tensor:
#      x y z
#    x 1.813100 -0.087850 -0.096300 
#    y -0.087850 1.517190 -0.162460 
#    z -0.096300 -0.162460 1.798820 
# 
# From -- ./inp_files/495314.got.cif
#   From: 2010.05.17/outbox.cif.g08.bks.cpg/sg2_248_cif.got.tgz:495314.got - 2010.06.03 11:33:40.
