data_PCOD9035412
_publ_section_title
;
Structure prediction by ZEFSAII (Michael W. Deem and Ramdas Pophale) SiO2 
 PCOD9035412
Probable space group: P -1
;
_chemical_formula_sum "Si O2"
_cell_formula_units_Z 12
_cell_length_a 14.399886
_cell_length_b 6.605707
_cell_length_c 7.134991
_cell_angle_alpha 94.606950
_cell_angle_beta 136.020431
_cell_angle_gamma 102.197076
_cell_volume 432.812688
_symmetry_space_group_name_H-M "P -1"
_symmetry_group_IT_number 2
_symmetry_cell_setting 'triclinic'
loop_
_space_group_symop_operation_xyz
x,y,z
-x,-y,-z
loop_
_atom_site_type_symbol
_atom_site_label
_atom_site_fract_x
_atom_site_fract_y
_atom_site_fract_z
Si Si1 0.917622 0.836071 0.650475
Si Si2 0.421547 0.815642 0.769569
Si Si3 0.619452 0.819922 0.705056
Si Si4 0.831557 0.263104 0.852803
Si Si5 0.114593 0.301989 0.806794
Si Si6 0.417032 0.317866 0.762527
O O1 0.904588 0.678438 0.440825
O O2 0.759804 0.788345 0.496112
O O3 0.988618 0.078951 0.681006
O O4 0.027638 0.797095 0.951719
O O5 0.511501 0.828967 0.708920
O O6 0.250430 0.722529 0.455005
O O7 0.430977 0.580451 0.857976
O O8 0.439290 0.083075 0.849309
O O9 0.543631 0.678856 0.401227
O O10 0.715501 0.065622 0.791172
O O11 0.735467 0.733364 0.952885
O O12 0.872319 0.487736 0.041140
#
# Coordination Sequence:
#
# PCOD9035412 Si02
#       6
#     2   2   2   2   2   2
#     4  10  24  48  71 111 156 190 255 311 370 452
#     4  12  26  49  74 110 152 195 254 317 370 443
#     4  11  25  48  74 109 153 193 252 316 370 447
#     4  11  24  44  78 109 146 204 248 310 377 442
#     4  10  22  45  76 111 149 202 247 312 373 447
#     4  12  27  48  77 110 150 204 246 311 385 447
#
# _framework density 27.725619999999999
#
# number of rings (size 3 to 8) (size 9 to 14) (size 15 to 20)
#    0.000    1.000    3.333    2.000    2.333    4.000 
#    3.000    2.500    0.000    0.000    0.000    0.000 
#    0.000    0.000    0.000    0.000    0.000    0.000 
#
# Total GULP energy -67364.861005 kJ/mol
# GULP energy per Si atom -5613.738417 kJ/mol
# Density = 2.766252 g / cm^3
# Si number density = 27.725620 Si / 1000 Ang^3
#
#
#
# Elastic Constant Matrix: (Units=GPa)
#
#
# Indices 1 2 3 4 5 6 
#
# 1 142.2369 11.8619 94.3884 3.8122 -1.0755 -7.2351
# 2 11.8619 149.8227 106.1969 0.6770 19.5665 -26.5348
# 3 94.3884 106.1969 226.0062 -32.0864 -2.5701 -3.1592
# 4 3.8122 0.6770 -32.0864 83.3799 -16.6805 -2.8159
# 5 -1.0755 19.5665 -2.5701 -16.6805 70.6673 3.7880
# 6 -7.2351 -26.5348 -3.1592 -2.8159 3.7880 40.5674
#
#
#
# Elastic Compliance Matrix: (Units=1/GPa)
#
#
# Indices 1 2 3 4 5 6 
#
# 1 0.013312 0.007533 -0.009754 -0.004954 -0.003758 0.006549
# 2 0.007533 0.018173 -0.012503 -0.006391 -0.007551 0.012518
# 3 -0.009754 -0.012503 0.015368 0.007382 0.006085 -0.008777
# 4 -0.004954 -0.006391 0.007382 0.016179 0.005992 -0.003926
# 5 -0.003758 -0.007551 0.006085 0.005992 0.018164 -0.006416
# 6 0.006549 0.012518 -0.008777 -0.003926 -0.006416 0.033649
#
#
# Mechanical properties :
#
#
# Convention : Reuss Voigt Hill
#
# Bulk Modulus (GPa) = 57.45708 104.77337 81.11522
# Shear Modulus (GPa) = 33.31208 59.29750 46.30479
#
# Velocity S-wave (km/s) = 3.47001 4.62965 4.09113
# Velocity P-wave (km/s) = 6.06820 8.15167 7.18585
#
# Compressibility (1/GPa) = 0.01740430
#
# Stress axis : x y z
#
# Youngs Moduli (GPa) = 75.11803 55.02698 65.07059
#
# Poissons Ratio (x) = -0.41450 0.63468
# Poissons Ratio (y) = -0.56584 0.81360
# Poissons Ratio (z) = 0.73268 0.68802
#
# Static dielectric constant tensor:
#      x y z
#    x 2.093000 -0.038190 -0.004210 
#    y -0.038190 2.205790 0.003710 
#    z -0.004210 0.003710 2.134540 
# 
# From -- ./inp_files/28074.got.cif
#   From: 2010.05.17/outbox.cif.g08.bks.cpg/sg2_15_cif.got.tgz:28074.got - 2010.06.03 11:33:40.
