data_PCOD9035808
_publ_section_title
;
Structure prediction by ZEFSAII (Michael W. Deem and Ramdas Pophale) SiO2 
 PCOD9035808
Probable space group: P -1
;
_chemical_formula_sum "Si O2"
_cell_formula_units_Z 14
_cell_length_a 14.643054
_cell_length_b 11.485187
_cell_length_c 16.411463
_cell_angle_alpha 144.782125
_cell_angle_beta 25.465662
_cell_angle_gamma 151.382000
_cell_volume 564.399482
_symmetry_space_group_name_H-M "P -1"
_symmetry_group_IT_number 2
_symmetry_cell_setting 'triclinic'
loop_
_space_group_symop_operation_xyz
x,y,z
-x,-y,-z
loop_
_atom_site_type_symbol
_atom_site_label
_atom_site_fract_x
_atom_site_fract_y
_atom_site_fract_z
Si Si1 0.249717 0.142996 0.571250
Si Si2 0.784029 0.433587 0.232345
Si Si3 0.521954 0.624894 0.968741
Si Si4 0.242731 0.386043 0.385467
Si Si5 0.368977 0.726364 0.917671
Si Si6 0.990494 0.957501 0.121128
Si Si7 0.960007 0.309271 0.225454
O O1 0.547962 0.252479 0.377675
O O2 0.204317 0.319581 0.654463
O O3 0.204247 0.166895 0.717311
O O4 0.035450 0.865303 0.555678
O O5 0.784701 0.408294 0.437385
O O6 0.695746 0.296802 0.138651
O O7 0.608280 0.522989 0.769010
O O8 0.060406 0.852824 0.772774
O O9 0.245016 0.559197 0.135590
O O10 0.743849 0.903233 0.962589
O O11 0.417429 0.327371 0.263929
O O12 0.077524 0.535939 0.078011
O O13 0.500000 0.000000 0.000000
O O14 0.040797 0.838439 0.936143
O O15 0.500000 0.500000 0.000000
#
# Coordination Sequence:
#
# PCOD9035808 Si02
#       7
#     2   2   2   2   2   2   2
#     4  10  22  47  73 112 145 200 246 304 374 438
#     4  10  24  48  74 105 152 194 251 306 366 444
#     4   9  21  43  67 103 149 189 236 300 362 431
#     4  11  24  45  77 112 146 194 254 300 372 439
#     4  11  24  49  75 104 150 195 247 311 370 436
#     4   9  21  45  76 102 154 194 242 299 378 434
#     4  10  22  46  72 111 146 193 245 307 358 448
#
# _framework density 24.805126000000001
#
# number of rings (size 3 to 8) (size 9 to 14) (size 15 to 20)
#    0.000    2.000    1.429    0.000    2.000    6.857 
#   10.286    6.429    0.000    2.571    0.000    0.000 
#    0.000    0.000    0.000    0.000    0.000    0.000 
#
# Total GULP energy -78296.191716 kJ/mol
# GULP energy per Si atom -5592.585123 kJ/mol
# Density = 2.474867 g / cm^3
# Si number density = 24.805126 Si / 1000 Ang^3
#
#
#
# Elastic Constant Matrix: (Units=GPa)
#
#
# Indices 1 2 3 4 5 6 
#
# 1 131.9653 49.9946 93.7501 2.6381 -7.9415 4.9029
# 2 49.9946 87.2396 70.3156 -14.1125 -3.1972 -0.1102
# 3 93.7501 70.3156 160.2831 -13.7258 -21.6663 -2.9680
# 4 2.6381 -14.1125 -13.7258 56.9774 -8.9379 1.7076
# 5 -7.9415 -3.1972 -21.6663 -8.9379 44.4419 1.8421
# 6 4.9029 -0.1102 -2.9680 1.7076 1.8421 38.7045
#
#
#
# Elastic Compliance Matrix: (Units=1/GPa)
#
#
# Indices 1 2 3 4 5 6 
#
# 1 0.014016 -0.002415 -0.007741 -0.003367 -0.002032 -0.002131
# 2 -0.002415 0.018727 -0.006812 0.002829 -0.001828 -0.000201
# 3 -0.007741 -0.006812 0.014856 0.003130 0.005929 0.001680
# 4 -0.003367 0.002829 0.003130 0.019985 0.005166 -0.000453
# 5 -0.002032 -0.001828 0.005929 0.005166 0.025967 -0.000757
# 6 -0.002131 -0.000201 0.001680 -0.000453 -0.000757 0.026291
#
#
# Mechanical properties :
#
#
# Convention : Reuss Voigt Hill
#
# Bulk Modulus (GPa) = 73.18664 89.73431 81.46048
# Shear Modulus (GPa) = 31.57913 39.05328 35.31620
#
# Velocity S-wave (km/s) = 3.57191 3.97218 3.77735
# Velocity P-wave (km/s) = 6.82496 7.56914 7.20666
#
# Compressibility (1/GPa) = 0.01366370
#
# Stress axis : x y z
#
# Youngs Moduli (GPa) = 71.34588 53.39867 67.31410
#
# Poissons Ratio (x) = 0.12893 0.52110
# Poissons Ratio (y) = 0.17227 0.45853
# Poissons Ratio (z) = 0.55231 0.36374
#
# Static dielectric constant tensor:
#      x y z
#    x 2.011060 -0.000410 -0.005110 
#    y -0.000410 2.113160 -0.068740 
#    z -0.005110 -0.068740 2.046870 
# 
# From -- ./inp_files/532021.got.cif
#   From: 2010.05.17/outbox.cif.g08.bks.cpg/sg2_267_cif.got.tgz:532021.got - 2010.06.03 11:33:40.
