data_PCOD9035370
_publ_section_title
;
Structure prediction by ZEFSAII (Michael W. Deem and Ramdas Pophale) SiO2 
 PCOD9035370
Probable space group: P -1
;
_chemical_formula_sum "Si O2"
_cell_formula_units_Z 16
_cell_length_a 9.388974
_cell_length_b 15.629407
_cell_length_c 5.674832
_cell_angle_alpha 95.531692
_cell_angle_beta 51.065801
_cell_angle_gamma 90.503077
_cell_volume 643.307120
_symmetry_space_group_name_H-M "P -1"
_symmetry_group_IT_number 2
_symmetry_cell_setting 'triclinic'
loop_
_space_group_symop_operation_xyz
x,y,z
-x,-y,-z
loop_
_atom_site_type_symbol
_atom_site_label
_atom_site_fract_x
_atom_site_fract_y
_atom_site_fract_z
Si Si1 0.755559 0.721946 0.489516
Si Si2 0.462019 0.048617 0.799392
Si Si3 0.099200 0.990143 0.142798
Si Si4 0.541349 0.342979 0.544067
Si Si5 0.011043 0.602854 0.494327
Si Si6 0.858935 0.425071 0.149571
Si Si7 0.577679 0.221489 0.867314
Si Si8 0.850071 0.209894 0.948407
O O1 0.650472 0.666183 0.391092
O O2 0.833824 0.657904 0.596825
O O3 0.936823 0.769598 0.233804
O O4 0.587909 0.785373 0.773334
O O5 0.563944 0.135450 0.711365
O O6 0.500000 0.000000 0.500000
O O7 0.500000 0.000000 0.000000
O O8 0.243846 0.062801 0.023372
O O9 0.178685 0.890989 0.019416
O O10 0.000000 0.000000 0.500000
O O11 0.000000 0.000000 0.000000
O O12 0.642883 0.431181 0.437696
O O13 0.526813 0.310680 0.814534
O O14 0.697588 0.270419 0.263402
O O15 0.000000 0.500000 0.500000
O O16 0.064302 0.626632 0.710705
O O17 0.138332 0.610015 0.131340
O O18 0.000000 0.500000 0.000000
O O19 0.781626 0.223381 0.754322
#
# Coordination Sequence:
#
# PCOD9035370 Si02
#       8
#     2   2   2   2   2   2   2   2
#     4  11  25  43  71 108 141 183 250 293 353 436
#     4  12  25  47  71  98 146 191 239 296 362 423
#     4  12  27  44  69 102 137 185 244 292 354 423
#     4  11  25  42  73 105 140 187 244 291 360 426
#     4  10  22  45  75 100 141 188 225 288 363 422
#     4  10  22  45  74  99 140 188 227 284 362 423
#     4  11  26  43  71 104 141 195 238 302 361 423
#     4  11  24  46  70  95 145 191 233 301 359 420
#
# _framework density 24.871479000000001
#
# number of rings (size 3 to 8) (size 9 to 14) (size 15 to 20)
#    0.000    1.000    2.500    3.000    8.750    1.000 
#    0.000    5.000    0.000    0.000    0.000    0.000 
#    0.000    0.000    0.000    0.000    0.000    0.000 
#
# Total GULP energy -89141.284664 kJ/mol
# GULP energy per Si atom -5571.330291 kJ/mol
# Density = 2.481487 g / cm^3
# Si number density = 24.871479 Si / 1000 Ang^3
#
#
#
# Elastic Constant Matrix: (Units=GPa)
#
#
# Indices 1 2 3 4 5 6 
#
# 1 197.3405 23.9881 30.2670 -28.1225 1.3752 8.3075
# 2 23.9881 69.0915 -0.7439 -12.5210 0.4960 7.8231
# 3 30.2670 -0.7439 107.6699 -17.2176 1.1341 2.8440
# 4 -28.1225 -12.5210 -17.2176 36.4990 -0.6143 -0.5557
# 5 1.3752 0.4960 1.1341 -0.6143 51.6009 -16.9893
# 6 8.3075 7.8231 2.8440 -0.5557 -16.9893 52.5288
#
#
#
# Elastic Compliance Matrix: (Units=1/GPa)
#
#
# Indices 1 2 3 4 5 6 
#
# 1 0.005941 -0.001336 -0.001082 0.003592 -0.000326 -0.000749
# 2 -0.001336 0.016171 0.001382 0.005116 -0.000917 -0.002514
# 3 -0.001082 0.001382 0.010343 0.004503 -0.000379 -0.000669
# 4 0.003592 0.005116 0.004503 0.034021 -0.000267 -0.001300
# 5 -0.000326 -0.000917 -0.000379 -0.000267 0.021790 0.007253
# 6 -0.000749 -0.002514 -0.000669 -0.001300 0.007253 0.021899
#
#
# Mechanical properties :
#
#
# Convention : Reuss Voigt Hill
#
# Bulk Modulus (GPa) = 32.91402 53.45825 43.18613
# Shear Modulus (GPa) = 40.86127 49.49848 45.17987
#
# Velocity S-wave (km/s) = 4.05766 4.46597 4.26670
# Velocity P-wave (km/s) = 5.93424 6.93784 6.45557
#
# Compressibility (1/GPa) = 0.03038219
#
# Stress axis : x y z
#
# Youngs Moduli (GPa) = 168.30819 61.84006 96.68350
#
# Poissons Ratio (x) = 0.08264 0.10459
# Poissons Ratio (y) = 0.22491 -0.13357
# Poissons Ratio (z) = 0.18207 -0.08543
#
# Static dielectric constant tensor:
#      x y z
#    x 2.008070 0.061650 0.027610 
#    y 0.061650 2.186270 -0.040510 
#    z 0.027610 -0.040510 2.142350 
# 
# From -- ./inp_files/47288.got.cif
#   From: 2010.05.17/outbox.cif.g08.bks.cpg/sg2_24_cif.got.tgz:47288.got - 2010.06.03 11:33:40.
