data_PCOD9035645
_publ_section_title
;
Structure prediction by ZEFSAII (Michael W. Deem and Ramdas Pophale) SiO2 
 PCOD9035645
Probable space group: P -1
;
_chemical_formula_sum "Si O2"
_cell_formula_units_Z 14
_cell_length_a 10.345903
_cell_length_b 18.583356
_cell_length_c 5.149530
_cell_angle_alpha 60.713022
_cell_angle_beta 120.983285
_cell_angle_gamma 141.559252
_cell_volume 520.788395
_symmetry_space_group_name_H-M "P -1"
_symmetry_group_IT_number 2
_symmetry_cell_setting 'triclinic'
loop_
_space_group_symop_operation_xyz
x,y,z
-x,-y,-z
loop_
_atom_site_type_symbol
_atom_site_label
_atom_site_fract_x
_atom_site_fract_y
_atom_site_fract_z
Si Si1 0.846002 0.873162 0.704825
Si Si2 0.936263 0.548773 0.041321
Si Si3 0.631862 0.906800 0.778079
Si Si4 0.479566 0.625753 0.777195
Si Si5 0.249386 0.399989 0.617568
Si Si6 0.211046 0.753310 0.319331
Si Si7 0.246144 0.946759 0.855780
O O1 0.778394 0.884863 0.893364
O O2 0.616085 0.754007 0.573478
O O3 0.000000 0.000000 0.500000
O O4 0.998448 0.855213 0.850530
O O5 0.821619 0.588935 0.749566
O O6 0.747949 0.440071 0.218638
O O7 0.000000 0.500000 0.000000
O O8 0.149795 0.664254 0.194945
O O9 0.388968 0.796362 0.635794
O O10 0.651175 0.951896 0.002303
O O11 0.721397 0.009484 0.480937
O O12 0.416340 0.532731 0.665626
O O13 0.635215 0.641518 0.124792
O O14 0.019768 0.319368 0.663202
O O15 0.302771 0.874014 0.082501
#
# Coordination Sequence:
#
# PCOD9035645 Si02
#       7
#     2   2   2   2   2   2   2
#     4  10  23  45  71 105 145 189 246 305 373 437
#     4  11  27  43  69 110 140 187 244 307 380 441
#     4  11  26  42  71 104 150 189 248 302 378 428
#     4  10  22  46  70 101 141 189 239 302 364 447
#     4  10  23  44  71 101 139 185 247 292 371 443
#     4  11  25  42  70 100 141 190 238 301 371 439
#     4  11  24  47  67 106 142 198 249 301 359 458
#
# _framework density 26.882321999999998
#
# number of rings (size 3 to 8) (size 9 to 14) (size 15 to 20)
#    0.000    1.429    1.429    1.714    8.000    1.143 
#    7.714    0.000    0.000    0.000    0.000    0.000 
#    0.000    0.000    0.000    0.000    0.000    0.000 
#
# Total GULP energy -78275.334454 kJ/mol
# GULP energy per Si atom -5591.095318 kJ/mol
# Density = 2.682114 g / cm^3
# Si number density = 26.882322 Si / 1000 Ang^3
#
#
#
# Elastic Constant Matrix: (Units=GPa)
#
#
# Indices 1 2 3 4 5 6 
#
# 1 103.3950 19.6963 9.2362 -7.4716 -2.8695 20.1780
# 2 19.6963 173.2704 27.9252 -1.9387 -4.1188 5.0835
# 3 9.2362 27.9252 90.1338 2.6695 8.1677 0.4176
# 4 -7.4716 -1.9387 2.6695 39.7382 8.1284 14.2623
# 5 -2.8695 -4.1188 8.1677 8.1284 29.5317 1.7537
# 6 20.1780 5.0835 0.4176 14.2623 1.7537 23.7425
#
#
#
# Elastic Compliance Matrix: (Units=1/GPa)
#
#
# Indices 1 2 3 4 5 6 
#
# 1 0.013846 -0.000756 -0.001385 0.008634 0.000243 -0.016785
# 2 -0.000756 0.006240 -0.001980 0.000384 0.001298 -0.000985
# 3 -0.001385 -0.001980 0.012201 -0.001325 -0.003566 0.002445
# 4 0.008634 0.000384 -0.001325 0.039440 -0.007785 -0.030513
# 5 0.000243 0.001298 -0.003566 -0.007785 0.037105 0.001514
# 6 -0.016785 -0.000985 0.002445 -0.030513 0.001514 0.074770
#
#
# Mechanical properties :
#
#
# Convention : Reuss Voigt Hill
#
# Bulk Modulus (GPa) = 41.58762 53.39053 47.48907
# Shear Modulus (GPa) = 25.01764 39.26524 32.14144
#
# Velocity S-wave (km/s) = 3.05394 3.82597 3.46155
# Velocity P-wave (km/s) = 5.28576 6.27864 5.80347
#
# Compressibility (1/GPa) = 0.02404562
#
# Stress axis : x y z
#
# Youngs Moduli (GPa) = 72.22443 160.24484 81.95998
#
# Poissons Ratio (x) = 0.12113 0.11348
# Poissons Ratio (y) = 0.05459 0.16231
# Poissons Ratio (z) = 0.10000 0.31734
#
# Static dielectric constant tensor:
#      x y z
#    x 2.134800 0.008710 0.060370 
#    y 0.008710 2.062520 -0.028030 
#    z 0.060370 -0.028030 2.191620 
# 
# From -- ./inp_files/65515.got.cif
#   From: 2010.05.17/outbox.cif.g08.bks.cpg/sg2_33_cif.got.tgz:65515.got - 2010.06.03 11:33:40.
