data_PCOD9035204
_publ_section_title
;
Structure prediction by ZEFSAII (Michael W. Deem and Ramdas Pophale) SiO2 
 PCOD9035204
Probable space group: P -1
;
_chemical_formula_sum "Si O2"
_cell_formula_units_Z 15
_cell_length_a 8.546674
_cell_length_b 12.599947
_cell_length_c 8.507367
_cell_angle_alpha 83.320274
_cell_angle_beta 49.454951
_cell_angle_gamma 68.962128
_cell_volume 640.856854
_symmetry_space_group_name_H-M "P -1"
_symmetry_group_IT_number 2
_symmetry_cell_setting 'triclinic'
loop_
_space_group_symop_operation_xyz
x,y,z
-x,-y,-z
loop_
_atom_site_type_symbol
_atom_site_label
_atom_site_fract_x
_atom_site_fract_y
_atom_site_fract_z
Si Si1 0.238288 0.492347 0.906418
Si Si2 0.626598 0.301530 0.234940
Si Si3 0.604705 0.252067 0.608597
Si Si4 0.054736 0.115402 0.949153
Si Si5 0.744482 0.012697 0.644827
Si Si6 0.500000 0.000000 0.500000
Si Si7 0.100882 0.210416 0.245368
Si Si8 0.796734 0.578178 0.727913
O O1 0.297845 0.595558 0.778543
O O2 0.420887 0.372037 0.754729
O O3 0.241307 0.498643 0.093130
O O4 0.000000 0.500000 0.000000
O O5 0.583649 0.239949 0.432628
O O6 0.408988 0.359186 0.263282
O O7 0.827783 0.212960 0.016465
O O8 0.597633 0.147489 0.738820
O O9 0.853269 0.247027 0.473620
O O10 0.299366 0.083152 0.729658
O O11 0.067513 0.171058 0.100068
O O12 0.000000 0.000000 0.000000
O O13 0.690924 0.991047 0.507113
O O14 0.726888 0.907251 0.770990
O O15 0.000000 0.000000 0.500000
O O16 0.161834 0.319865 0.221501
O O17 0.000000 0.500000 0.500000
#
# Coordination Sequence:
#
# PCOD9035204 Si02
#       8
#     2   2   2   2   2   1   2   2
#     4  12  25  43  72 103 137 193 249 300 367 445
#     4  11  25  46  71 102 148 187 243 314 368 443
#     4  10  22  45  72 101 141 185 244 312 365 442
#     4  11  26  49  73 110 149 192 258 312 386 454
#     4  10  24  43  72 110 145 191 249 305 376 455
#     4  12  26  42  76 100 154 194 250 304 390 446
#     4  10  24  47  73 105 147 194 238 305 380 451
#     4  12  27  46  71 109 149 193 246 303 372 451
#
# _framework density 23.406164
#
# number of rings (size 3 to 8) (size 9 to 14) (size 15 to 20)
#    0.000    1.067    0.000    6.400    7.467    4.800 
#    0.000    0.000    0.000    0.000    0.000    0.000 
#    0.000    0.000    0.000    0.000    0.000    0.000 
#
# Total GULP energy -83589.894929 kJ/mol
# GULP energy per Si atom -5572.659662 kJ/mol
# Density = 2.335289 g / cm^3
# Si number density = 23.406164 Si / 1000 Ang^3
#
#
#
# Elastic Constant Matrix: (Units=GPa)
#
#
# Indices 1 2 3 4 5 6 
#
# 1 141.2750 34.7312 21.3742 7.2144 -10.9509 -6.5302
# 2 34.7312 147.9952 44.6581 18.2602 -14.6993 -16.9524
# 3 21.3742 44.6581 124.8440 30.0354 -12.8540 -10.3974
# 4 7.2144 18.2602 30.0354 47.6152 -10.1239 0.8126
# 5 -10.9509 -14.6993 -12.8540 -10.1239 33.5251 3.3525
# 6 -6.5302 -16.9524 -10.3974 0.8126 3.3525 37.4024
#
#
#
# Elastic Compliance Matrix: (Units=1/GPa)
#
#
# Indices 1 2 3 4 5 6 
#
# 1 0.007660 -0.001416 -0.000636 0.000126 0.001639 0.000369
# 2 -0.001416 0.008365 -0.001992 -0.001419 0.001726 0.002867
# 3 -0.000636 -0.001992 0.010429 -0.005526 0.001058 0.001910
# 4 0.000126 -0.001419 -0.005526 0.026247 0.005549 -0.003225
# 5 0.001639 0.001726 0.001058 0.005549 0.033377 -0.001750
# 6 0.000369 0.002867 0.001910 -0.003225 -0.001750 0.028858
#
#
# Mechanical properties :
#
#
# Convention : Reuss Voigt Hill
#
# Bulk Modulus (GPa) = 54.44696 68.40457 61.42577
# Shear Modulus (GPa) = 38.71560 44.59860 41.65710
#
# Velocity S-wave (km/s) = 4.07145 4.36985 4.22328
# Velocity P-wave (km/s) = 6.73903 7.39927 7.07686
#
# Compressibility (1/GPa) = 0.01836650
#
# Stress axis : x y z
#
# Youngs Moduli (GPa) = 130.54097 119.54061 95.88769
#
# Poissons Ratio (x) = 0.16932 0.06095
# Poissons Ratio (y) = 0.18490 0.19102
# Poissons Ratio (z) = 0.08297 0.23813
#
# Static dielectric constant tensor:
#      x y z
#    x 1.881980 0.006880 -0.011930 
#    y 0.006880 1.910920 -0.056410 
#    z -0.011930 -0.056410 1.903030 
# 
# From -- ./inp_files/186326.got.cif
#   From: 2010.05.17/outbox.cif.g08.bks.cpg/sg2_94_cif.got.tgz:186326.got - 2010.06.03 11:33:40.
