data_PCOD9035883
_publ_section_title
;
Structure prediction by ZEFSAII (Michael W. Deem and Ramdas Pophale) SiO2 
 PCOD9035883
Probable space group: P -1
;
_chemical_formula_sum "Si O2"
_cell_formula_units_Z 10
_cell_length_a 16.915427
_cell_length_b 4.827416
_cell_length_c 5.749667
_cell_angle_alpha 95.058616
_cell_angle_beta 131.777546
_cell_angle_gamma 97.547526
_cell_volume 337.150602
_symmetry_space_group_name_H-M "P -1"
_symmetry_group_IT_number 2
_symmetry_cell_setting 'triclinic'
loop_
_space_group_symop_operation_xyz
x,y,z
-x,-y,-z
loop_
_atom_site_type_symbol
_atom_site_label
_atom_site_fract_x
_atom_site_fract_y
_atom_site_fract_z
Si Si1 0.424062 0.121012 0.184292
Si Si2 0.643987 0.480763 0.547281
Si Si3 0.853838 0.373096 0.120143
Si Si4 0.955815 0.147153 0.700823
Si Si5 0.765866 0.402560 0.402792
O O1 0.520261 0.314463 0.228725
O O2 0.368286 0.321536 0.246325
O O3 0.500000 0.000000 0.500000
O O4 0.339103 0.853779 0.888084
O O5 0.714494 0.614113 0.470689
O O6 0.729326 0.289709 0.772602
O O7 0.902106 0.128269 0.320540
O O8 0.833519 0.557280 0.324266
O O9 0.941153 0.589441 0.150420
O O10 0.854153 0.230833 0.634699
O O11 0.000000 0.000000 0.000000
#
# Coordination Sequence:
#
# PCOD9035883 Si02
#       5
#     2   2   2   2   2
#     4  11  23  46  72 109 151 196 252 311 375 449
#     4  11  24  44  74 108 153 194 248 317 368 447
#     4   9  21  46  71 111 156 188 252 313 363 450
#     4   9  20  45  76 110 150 201 248 306 378 443
#     4  10  22  46  74 108 149 201 248 304 380 445
#
# _framework density 29.660332
#
# number of rings (size 3 to 8) (size 9 to 14) (size 15 to 20)
#    1.200    0.800    2.000    0.600    0.000    3.200 
#    7.200    2.000    0.000    0.000    0.000    0.000 
#    0.000    0.000    0.000    0.000    0.000    0.000 
#
# Total GULP energy -55705.041024 kJ/mol
# GULP energy per Si atom -5570.504102 kJ/mol
# Density = 2.959282 g / cm^3
# Si number density = 29.660332 Si / 1000 Ang^3
#
#
#
# Elastic Constant Matrix: (Units=GPa)
#
#
# Indices 1 2 3 4 5 6 
#
# 1 252.2077 80.9887 64.7861 -14.8823 22.9510 19.8936
# 2 80.9887 143.2549 76.2303 -49.1671 6.8736 24.0740
# 3 64.7861 76.2303 159.9815 -32.0418 38.8266 -5.0717
# 4 -14.8823 -49.1671 -32.0418 40.8609 -12.9571 -4.7048
# 5 22.9510 6.8736 38.8266 -12.9571 55.1797 -13.8748
# 6 19.8936 24.0740 -5.0717 -4.7048 -13.8748 33.2987
#
#
#
# Elastic Compliance Matrix: (Units=1/GPa)
#
#
# Indices 1 2 3 4 5 6 
#
# 1 0.005532 -0.003548 -0.000729 -0.004075 -0.002973 -0.002666
# 2 -0.003548 0.019389 -0.005678 0.018379 0.005378 -0.007925
# 3 -0.000729 -0.005678 0.010723 -0.000011 -0.005569 0.003852
# 4 -0.004075 0.018379 -0.000011 0.048648 0.010987 0.000597
# 5 -0.002973 0.005378 -0.005569 0.010987 0.027740 0.010151
# 6 -0.002666 -0.007925 0.003852 0.000597 0.010151 0.042254
#
#
# Mechanical properties :
#
#
# Convention : Reuss Voigt Hill
#
# Bulk Modulus (GPa) = 63.55106 111.05046 87.30076
# Shear Modulus (GPa) = 27.86453 48.09712 37.98082
#
# Velocity S-wave (km/s) = 3.06838 4.03128 3.58233
# Velocity P-wave (km/s) = 5.83318 7.69352 6.82702
#
# Compressibility (1/GPa) = 0.01573538
#
# Stress axis : x y z
#
# Youngs Moduli (GPa) = 180.77381 51.57480 93.26119
#
# Poissons Ratio (x) = 0.18296 0.06798
# Poissons Ratio (y) = 0.64131 0.52951
# Poissons Ratio (z) = 0.13176 0.29283
#
# Static dielectric constant tensor:
#      x y z
#    x 2.430840 0.095620 -0.316160 
#    y 0.095620 2.514720 -0.083730 
#    z -0.316160 -0.083730 2.754620 
# 
# From -- ./inp_files/102043.got.cif
#   From: 2010.05.17/outbox.cif.g08.bks.cpg/sg2_52_cif.got.tgz:102043.got - 2010.06.03 11:33:40.
