data_PCOD9035989
_publ_section_title
;
Structure prediction by ZEFSAII (Michael W. Deem and Ramdas Pophale) SiO2 
 PCOD9035989
Probable space group: P -1
;
_chemical_formula_sum "Si O2"
_cell_formula_units_Z 16
_cell_length_a 18.306064
_cell_length_b 5.299264
_cell_length_c 17.152725
_cell_angle_alpha 125.762883
_cell_angle_beta 152.002516
_cell_angle_gamma 56.362443
_cell_volume 630.687508
_symmetry_space_group_name_H-M "P -1"
_symmetry_group_IT_number 2
_symmetry_cell_setting 'triclinic'
loop_
_space_group_symop_operation_xyz
x,y,z
-x,-y,-z
loop_
_atom_site_type_symbol
_atom_site_label
_atom_site_fract_x
_atom_site_fract_y
_atom_site_fract_z
Si Si1 0.399018 0.950945 0.971787
Si Si2 0.932809 0.566160 0.592308
Si Si3 0.065771 0.432622 0.231331
Si Si4 0.048933 0.020629 0.686190
Si Si5 0.368255 0.982674 0.437329
Si Si6 0.230648 0.497034 0.125136
Si Si7 0.403884 0.340083 0.776529
Si Si8 0.385898 0.828239 0.186289
O O1 0.225325 0.102643 0.854338
O O2 0.363344 0.594851 0.851717
O O3 0.516926 0.959131 0.156758
O O4 0.500000 0.000000 0.000000
O O5 0.979092 0.676212 0.742722
O O6 0.948966 0.190457 0.553030
O O7 0.755564 0.673788 0.422142
O O8 0.039927 0.670947 0.642847
O O9 0.237895 0.271786 0.353535
O O10 0.037530 0.800774 0.288685
O O11 0.948664 0.386230 0.042707
O O12 0.500000 0.000000 0.500000
O O13 0.287089 0.669623 0.286401
O O14 0.461904 0.011754 0.610240
O O15 0.268459 0.125092 0.102599
O O16 0.319609 0.632201 0.158618
O O17 0.545194 0.391312 0.858931
#
# Coordination Sequence:
#
# PCOD9035989 Si02
#       8
#     2   2   2   2   2   2   2   2
#     4  11  28  45  72 106 141 177 235 293 352 411
#     4  10  25  44  70 100 134 188 232 279 338 423
#     4  10  23  43  68 103 137 186 230 278 350 405
#     4  10  25  46  70 100 141 181 234 281 345 415
#     4  10  22  47  67 106 139 181 233 289 339 408
#     4  11  25  40  71  99 144 178 234 284 341 406
#     4  11  26  44  70 103 140 183 232 288 350 414
#     4  11  24  45  69 102 135 191 225 283 348 413
#
# _framework density 25.369136999999998
#
# number of rings (size 3 to 8) (size 9 to 14) (size 15 to 20)
#    0.750    0.750    1.250    1.500   12.250    3.000 
#    4.500    3.125    0.000    0.000    0.000    0.000 
#    0.000    0.000    0.000    0.000    0.000    0.000 
#
# Total GULP energy -89257.852861 kJ/mol
# GULP energy per Si atom -5578.615804 kJ/mol
# Density = 2.531140 g / cm^3
# Si number density = 25.369137 Si / 1000 Ang^3
#
#
#
# Elastic Constant Matrix: (Units=GPa)
#
#
# Indices 1 2 3 4 5 6 
#
# 1 60.6385 25.8636 3.3766 -14.2814 -5.9020 14.9063
# 2 25.8636 84.3317 24.0856 -27.2206 -7.3111 -5.8984
# 3 3.3766 24.0856 89.9717 -41.6398 -8.9872 -0.0943
# 4 -14.2814 -27.2206 -41.6398 43.5298 -3.6526 -4.2978
# 5 -5.9020 -7.3111 -8.9872 -3.6526 21.7097 -1.4763
# 6 14.9063 -5.8984 -0.0943 -4.2978 -1.4763 57.4143
#
#
#
# Elastic Compliance Matrix: (Units=1/GPa)
#
#
# Indices 1 2 3 4 5 6 
#
# 1 0.022932 -0.005085 0.006149 0.010395 0.008444 -0.005471
# 2 -0.005085 0.017856 0.001962 0.012455 0.007831 0.004292
# 3 0.006149 0.001962 0.025910 0.029684 0.018144 0.001336
# 4 0.010395 0.012455 0.029684 0.065565 0.030634 0.004325
# 5 0.008444 0.007831 0.018144 0.030634 0.063835 0.002576
# 6 -0.005471 0.004292 0.001336 0.004325 0.002576 0.019671
#
#
# Mechanical properties :
#
#
# Convention : Reuss Voigt Hill
#
# Bulk Modulus (GPa) = 13.74543 37.95482 25.85013
# Shear Modulus (GPa) = 21.37041 36.63849 29.00445
#
# Velocity S-wave (km/s) = 2.90552 3.80441 3.38494
# Velocity P-wave (km/s) = 4.08485 5.85590 5.04864
#
# Compressibility (1/GPa) = 0.07275148
#
# Stress axis : x y z
#
# Youngs Moduli (GPa) = 43.60648 56.00215 38.59444
#
# Poissons Ratio (x) = 0.28476 -0.23732
# Poissons Ratio (y) = 0.22173 -0.07572
# Poissons Ratio (z) = -0.26814 -0.10987
#
# Static dielectric constant tensor:
#      x y z
#    x 2.080470 0.044780 0.021990 
#    y 0.044780 2.144580 0.091790 
#    z 0.021990 0.091790 2.066550 
# 
# From -- ./inp_files/574948.got.cif
#   From: 2010.05.17/outbox.cif.g08.bks.cpg/sg2_288_cif.got.tgz:574948.got - 2010.06.03 11:33:40.
