data_PCOD9035931
_publ_section_title
;
Structure prediction by ZEFSAII (Michael W. Deem and Ramdas Pophale) SiO2 
 PCOD9035931
Probable space group: P -1
;
_chemical_formula_sum "Si O2"
_cell_formula_units_Z 13
_cell_length_a 6.776089
_cell_length_b 9.255540
_cell_length_c 10.788679
_cell_angle_alpha 80.318022
_cell_angle_beta 117.791189
_cell_angle_gamma 126.251175
_cell_volume 477.199634
_symmetry_space_group_name_H-M "P -1"
_symmetry_group_IT_number 2
_symmetry_cell_setting 'triclinic'
loop_
_space_group_symop_operation_xyz
x,y,z
-x,-y,-z
loop_
_atom_site_type_symbol
_atom_site_label
_atom_site_fract_x
_atom_site_fract_y
_atom_site_fract_z
Si Si1 0.995284 0.638001 0.594345
Si Si2 0.423862 0.696970 0.339466
Si Si3 0.500000 0.000000 0.000000
Si Si4 0.802081 0.144117 0.624300
Si Si5 0.114479 0.986820 0.692664
Si Si6 0.742638 0.513622 0.924961
Si Si7 0.532240 0.732454 0.878958
O O1 0.031603 0.705246 0.455283
O O2 0.274142 0.662405 0.718911
O O3 0.711424 0.443963 0.566759
O O4 0.987505 0.781125 0.655197
O O5 0.227126 0.764857 0.277635
O O6 0.729552 0.881634 0.400080
O O7 0.405840 0.587060 0.231610
O O8 0.363027 0.048062 0.848925
O O9 0.601302 0.917368 0.929496
O O10 0.929298 0.035582 0.697166
O O11 0.500000 0.000000 0.500000
O O12 0.754365 0.696397 0.901737
O O13 0.594498 0.400526 0.020479
O O14 0.000000 0.500000 0.000000
#
# Coordination Sequence:
#
# PCOD9035931 Si02
#       7
#     2   2   1   2   2   2   2
#     4  11  25  49  71 110 148 201 255 309 381 454
#     4  12  26  46  76 109 146 203 252 309 391 434
#     4  10  22  46  76 110 148 200 240 318 394 434
#     4  12  28  51  75 107 157 202 257 317 370 453
#     4  11  26  50  74 110 154 192 256 319 375 456
#     4  11  23  43  69 108 151 196 249 314 378 452
#     4  10  23  43  70 105 155 186 254 313 372 460
#
# _framework density 27.242270000000001
#
# number of rings (size 3 to 8) (size 9 to 14) (size 15 to 20)
#    0.000    0.923    4.615    0.923    4.308    1.846 
#    0.000    1.538    0.000    0.000    0.000    0.000 
#    0.000    0.000    0.000    0.000    0.000    0.000 
#
# Total GULP energy -72472.756939 kJ/mol
# GULP energy per Si atom -5574.827457 kJ/mol
# Density = 2.718027 g / cm^3
# Si number density = 27.242270 Si / 1000 Ang^3
#
#
#
# Elastic Constant Matrix: (Units=GPa)
#
#
# Indices 1 2 3 4 5 6 
#
# 1 156.3937 79.2042 38.5745 -7.8421 31.0896 -56.4602
# 2 79.2042 140.4314 23.1345 -2.6724 17.0312 -21.7086
# 3 38.5745 23.1345 74.0796 -18.2586 6.7574 -18.6464
# 4 -7.8421 -2.6724 -18.2586 33.4402 -16.8541 -3.0445
# 5 31.0896 17.0312 6.7574 -16.8541 34.8969 -8.3934
# 6 -56.4602 -21.7086 -18.6464 -3.0445 -8.3934 74.7731
#
#
#
# Elastic Compliance Matrix: (Units=1/GPa)
#
#
# Indices 1 2 3 4 5 6 
#
# 1 0.014254 -0.005232 -0.003964 -0.003254 -0.009246 0.007085
# 2 -0.005232 0.010156 -0.001167 -0.001864 -0.001335 -0.001519
# 3 -0.003964 -0.001167 0.019324 0.013647 0.007648 0.002901
# 4 -0.003254 -0.001864 0.013647 0.050482 0.026864 0.005476
# 5 -0.009246 -0.001335 0.007648 0.026864 0.049319 0.001168
# 6 0.007085 -0.001519 0.002901 0.005476 0.001168 0.019360
#
#
# Mechanical properties :
#
#
# Convention : Reuss Voigt Hill
#
# Bulk Modulus (GPa) = 43.46326 72.52567 57.99447
# Shear Modulus (GPa) = 26.13850 43.95480 35.04665
#
# Velocity S-wave (km/s) = 3.10091 4.02117 3.59065
# Velocity P-wave (km/s) = 5.36748 6.94550 6.20685
#
# Compressibility (1/GPa) = 0.02300794
#
# Stress axis : x y z
#
# Youngs Moduli (GPa) = 70.15577 98.46845 51.75010
#
# Poissons Ratio (x) = 0.51516 0.20513
# Poissons Ratio (y) = 0.36703 0.06040
# Poissons Ratio (z) = 0.27808 0.11492
#
# Static dielectric constant tensor:
#      x y z
#    x 2.249240 0.095000 -0.105530 
#    y 0.095000 2.110380 0.086730 
#    z -0.105530 0.086730 2.153400 
# 
# From -- ./inp_files/297070.got.cif
#   From: 2010.05.17/outbox.cif.g08.bks.cpg/sg2_149_cif.got.tgz:297070.got - 2010.06.03 11:33:40.
