data_PCOD9035577
_publ_section_title
;
Structure prediction by ZEFSAII (Michael W. Deem and Ramdas Pophale) SiO2 
 PCOD9035577
Probable space group: P -1
;
_chemical_formula_sum "Si O2"
_cell_formula_units_Z 12
_cell_length_a 15.501280
_cell_length_b 12.084263
_cell_length_c 10.359164
_cell_angle_alpha 67.893652
_cell_angle_beta 65.685155
_cell_angle_gamma 16.637848
_cell_volume 505.089788
_symmetry_space_group_name_H-M "P -1"
_symmetry_group_IT_number 2
_symmetry_cell_setting 'triclinic'
loop_
_space_group_symop_operation_xyz
x,y,z
-x,-y,-z
loop_
_atom_site_type_symbol
_atom_site_label
_atom_site_fract_x
_atom_site_fract_y
_atom_site_fract_z
Si Si1 0.843567 0.125033 0.421594
Si Si2 0.101025 0.397159 0.836247
Si Si3 0.613233 0.959911 0.659134
Si Si4 0.298186 0.912425 0.861187
Si Si5 0.064687 0.981435 0.107268
Si Si6 0.955422 0.747972 0.411875
O O1 0.500000 0.500000 0.500000
O O2 0.024812 0.784835 0.428378
O O3 0.000000 0.000000 0.500000
O O4 0.841030 0.210990 0.257856
O O5 0.819097 0.717810 0.769567
O O6 0.280025 0.305976 0.741425
O O7 0.332740 0.008760 0.834484
O O8 0.000000 0.500000 0.000000
O O9 0.671853 0.017490 0.533209
O O10 0.773893 0.672621 0.587569
O O11 0.609654 0.464746 0.855795
O O12 0.135797 0.102827 0.740431
O O13 0.097329 0.082822 0.016388
O O14 0.000000 0.000000 0.000000
#
# Coordination Sequence:
#
# PCOD9035577 Si02
#       6
#     2   2   2   2   2   2
#     4  12  27  43  66 102 142 172 220 289 347 393
#     4  11  24  43  64 102 137 173 220 282 346 400
#     4  10  24  42  72  96 129 181 230 275 332 410
#     4  10  23  41  72  95 133 180 235 280 325 417
#     4  11  23  44  70  97 129 187 238 267 336 416
#     4  10  22  46  68  98 133 179 230 280 338 408
#
# _framework density 23.758151999999999
#
# number of rings (size 3 to 8) (size 9 to 14) (size 15 to 20)
#    0.000    1.333    1.667    2.500    4.667   12.667 
#    0.000    0.000    0.000    0.000    0.000    0.000 
#    0.000    0.000    0.000    0.000    0.000    0.000 
#
# Total GULP energy -67213.242510 kJ/mol
# GULP energy per Si atom -5601.103542 kJ/mol
# Density = 2.370408 g / cm^3
# Si number density = 23.758152 Si / 1000 Ang^3
#
#
#
# Elastic Constant Matrix: (Units=GPa)
#
#
# Indices 1 2 3 4 5 6 
#
# 1 141.5067 16.2850 65.7039 3.6046 -1.2841 -13.0478
# 2 16.2850 36.2266 26.2771 -2.7733 10.5318 -18.4792
# 3 65.7039 26.2771 163.5553 19.8070 -17.9570 -15.0312
# 4 3.6046 -2.7733 19.8070 37.0648 -5.3318 -10.6909
# 5 -1.2841 10.5318 -17.9570 -5.3318 52.1789 3.4225
# 6 -13.0478 -18.4792 -15.0312 -10.6909 3.4225 35.1216
#
#
#
# Elastic Compliance Matrix: (Units=1/GPa)
#
#
# Indices 1 2 3 4 5 6 
#
# 1 0.008950 0.000568 -0.003790 0.001795 -0.001190 0.002664
# 2 0.000568 0.057030 -0.010127 0.016781 -0.015399 0.032492
# 3 -0.003790 -0.010127 0.010163 -0.006488 0.005104 -0.004859
# 4 0.001795 0.016781 -0.006488 0.036300 -0.003051 0.018066
# 5 -0.001190 -0.015399 0.005104 -0.003051 0.024322 -0.009659
# 6 0.002664 0.032492 -0.004859 0.018066 -0.009659 0.050919
#
#
# Mechanical properties :
#
#
# Convention : Reuss Voigt Hill
#
# Bulk Modulus (GPa) = 20.22462 61.98006 41.10234
# Shear Modulus (GPa) = 21.65772 40.40789 31.03281
#
# Velocity S-wave (km/s) = 3.02253 4.12855 3.61805
# Velocity P-wave (km/s) = 4.55106 6.99079 5.89844
#
# Compressibility (1/GPa) = 0.04944468
#
# Stress axis : x y z
#
# Youngs Moduli (GPa) = 111.72804 17.53459 98.39374
#
# Poissons Ratio (x) = -0.00996 0.37291
# Poissons Ratio (y) = -0.06345 0.99648
# Poissons Ratio (z) = 0.42344 0.17758
#
# Static dielectric constant tensor:
#      x y z
#    x 1.898310 0.006540 -0.022070 
#    y 0.006540 1.937660 0.016130 
#    z -0.022070 0.016130 1.974470 
# 
# From -- ./inp_files/25757.got.cif
#   From: 2010.05.17/outbox.cif.g08.bks.cpg/sg2_13_cif.got.tgz:25757.got - 2010.06.03 11:33:40.
