data_PCOD9035312
_publ_section_title
;
Structure prediction by ZEFSAII (Michael W. Deem and Ramdas Pophale) SiO2 
 PCOD9035312
Probable space group: P -1
;
_chemical_formula_sum "Si O2"
_cell_formula_units_Z 14
_cell_length_a 11.758341
_cell_length_b 9.718242
_cell_length_c 5.608905
_cell_angle_alpha 102.499559
_cell_angle_beta 80.637948
_cell_angle_gamma 85.287400
_cell_volume 612.805845
_symmetry_space_group_name_H-M "P -1"
_symmetry_group_IT_number 2
_symmetry_cell_setting 'triclinic'
loop_
_space_group_symop_operation_xyz
x,y,z
-x,-y,-z
loop_
_atom_site_type_symbol
_atom_site_label
_atom_site_fract_x
_atom_site_fract_y
_atom_site_fract_z
Si Si1 0.398345 0.012570 0.853987
Si Si2 0.306204 0.458235 0.587684
Si Si3 0.486982 0.776576 0.421924
Si Si4 0.937465 0.645209 0.468254
Si Si5 0.369848 0.581607 0.101936
Si Si6 0.852049 0.913863 0.927711
Si Si7 0.988565 0.126952 0.739974
O O1 0.402636 0.860134 0.672924
O O2 0.426471 0.121506 0.680598
O O3 0.500000 0.000000 0.000000
O O4 0.283194 0.070907 0.050352
O O5 0.425913 0.350378 0.538265
O O6 0.186539 0.386859 0.606022
O O7 0.313855 0.525367 0.344012
O O8 0.307921 0.557048 0.862583
O O9 0.402768 0.734417 0.224875
O O10 0.909789 0.776947 0.711596
O O11 0.000000 0.500000 0.500000
O O12 0.027463 0.713744 0.288805
O O13 0.500000 0.500000 0.000000
O O14 0.895526 0.067343 0.920309
O O15 0.888156 0.883420 0.174963
O O16 0.000000 0.000000 0.500000
#
# Coordination Sequence:
#
# PCOD9035312 Si02
#       7
#     2   2   2   2   2   2   2
#     4  11  24  39  68 103 131 180 229 283 348 418
#     4  11  24  44  72  96 139 193 221 289 357 415
#     4  10  23  41  63 101 141 173 231 280 339 429
#     4  11  25  44  67 102 137 176 240 296 356 415
#     4  10  23  42  69  98 139 184 226 278 351 424
#     4  10  22  45  73  93 136 184 228 293 354 424
#     4   9  21  45  70  95 130 179 233 290 357 410
#
# _framework density 22.845735000000001
#
# number of rings (size 3 to 8) (size 9 to 14) (size 15 to 20)
#    0.000    1.714    0.000    3.429   12.000    4.000 
#   10.286    0.000    0.000    0.000    0.000    0.000 
#    0.000    0.000    0.000    0.000    0.000    0.000 
#
# Total GULP energy -78071.695472 kJ/mol
# GULP energy per Si atom -5576.549677 kJ/mol
# Density = 2.279374 g / cm^3
# Si number density = 22.845735 Si / 1000 Ang^3
#
#
#
# Elastic Constant Matrix: (Units=GPa)
#
#
# Indices 1 2 3 4 5 6 
#
# 1 68.3301 45.6644 28.7890 -2.7440 10.8941 12.7302
# 2 45.6644 133.3652 35.2589 -8.5751 -6.1449 10.3265
# 3 28.7890 35.2589 96.4736 8.2414 20.7030 5.7113
# 4 -2.7440 -8.5751 8.2414 34.9903 10.8132 2.2606
# 5 10.8941 -6.1449 20.7030 10.8132 39.9532 6.0660
# 6 12.7302 10.3265 5.7113 2.2606 6.0660 28.4682
#
#
#
# Elastic Compliance Matrix: (Units=1/GPa)
#
#
# Indices 1 2 3 4 5 6 
#
# 1 0.022328 -0.006420 -0.003056 0.002950 -0.005359 -0.006135
# 2 -0.006420 0.010994 -0.003194 0.001525 0.004934 -0.001649
# 3 -0.003056 -0.003194 0.013954 -0.002404 -0.006434 0.001287
# 4 0.002950 0.001525 -0.002404 0.032283 -0.007711 -0.002311
# 5 -0.005359 0.004934 -0.006434 -0.007711 0.033369 -0.004600
# 6 -0.006135 -0.001649 0.001287 -0.002311 -0.004600 0.039374
#
#
# Mechanical properties :
#
#
# Convention : Reuss Voigt Hill
#
# Bulk Modulus (GPa) = 45.58157 57.51038 51.54598
# Shear Modulus (GPa) = 27.03399 33.24612 30.14006
#
# Velocity S-wave (km/s) = 3.44369 3.81890 3.63614
# Velocity P-wave (km/s) = 5.98391 6.68382 6.34352
#
# Compressibility (1/GPa) = 0.02193869
#
# Stress axis : x y z
#
# Youngs Moduli (GPa) = 44.78617 90.96148 71.66205
#
# Poissons Ratio (x) = 0.58394 0.21897
# Poissons Ratio (y) = 0.28751 0.22887
# Poissons Ratio (z) = 0.13685 0.29050
#
# Static dielectric constant tensor:
#      x y z
#    x 1.871860 0.039880 0.019260 
#    y 0.039880 1.954800 -0.030410 
#    z 0.019260 -0.030410 1.989040 
# 
# From -- ./inp_files/60900.got.cif
#   From: 2010.05.17/outbox.cif.g08.bks.cpg/sg2_31_cif.got.tgz:60900.got - 2010.06.03 11:33:40.
