data_PCOD9035725
_publ_section_title
;
Structure prediction by ZEFSAII (Michael W. Deem and Ramdas Pophale) SiO2 
 PCOD9035725
Probable space group: P -1
;
_chemical_formula_sum "Si O2"
_cell_formula_units_Z 16
_cell_length_a 17.895667
_cell_length_b 14.900353
_cell_length_c 11.400355
_cell_angle_alpha 149.938629
_cell_angle_beta 136.664790
_cell_angle_gamma 25.032388
_cell_volume 620.733443
_symmetry_space_group_name_H-M "P -1"
_symmetry_group_IT_number 2
_symmetry_cell_setting 'triclinic'
loop_
_space_group_symop_operation_xyz
x,y,z
-x,-y,-z
loop_
_atom_site_type_symbol
_atom_site_label
_atom_site_fract_x
_atom_site_fract_y
_atom_site_fract_z
Si Si1 0.703024 0.814016 0.032585
Si Si2 0.353905 0.794242 0.753656
Si Si3 0.882732 0.502899 0.288844
Si Si4 0.708491 0.924139 0.758747
Si Si5 0.896180 0.202549 0.492153
Si Si6 0.823873 0.200534 0.841300
Si Si7 0.662253 0.042898 0.486575
Si Si8 0.398815 0.441616 0.814940
O O1 0.715279 0.853394 0.224632
O O2 0.739608 0.944265 0.147599
O O3 0.828942 0.487334 0.767947
O O4 0.500000 0.000000 0.000000
O O5 0.500000 0.500000 0.500000
O O6 0.252325 0.756398 0.646043
O O7 0.366827 0.914360 0.016836
O O8 0.801004 0.620853 0.462655
O O9 0.803631 0.787534 0.459032
O O10 0.103722 0.206400 0.194716
O O11 0.804302 0.436449 0.054260
O O12 0.525559 0.177863 0.758578
O O13 0.000000 0.000000 0.500000
O O14 0.002395 0.080128 0.353031
O O15 0.686249 0.219145 0.677227
O O16 0.799275 0.251398 0.011328
O O17 0.458499 0.284208 0.579931
O O18 0.500000 0.500000 0.000000
#
# Coordination Sequence:
#
# PCOD9035725 Si02
#       8
#     2   2   2   2   2   2   2   2
#     4  12  28  47  74 110 144 196 248 301 366 435
#     4  12  27  47  73 105 150 193 238 304 359 434
#     4  10  22  46  71 104 141 186 237 305 363 422
#     4  10  23  43  71 102 146 184 239 300 363 426
#     4  12  27  45  71 106 145 193 246 294 361 435
#     4  11  23  42  72 102 137 189 235 287 368 422
#     4  10  24  45  72 102 145 182 249 297 358 433
#     4   9  22  42  70 102 136 184 236 297 352 427
#
# _framework density 25.775956999999998
#
# number of rings (size 3 to 8) (size 9 to 14) (size 15 to 20)
#    0.000    1.250    2.500    1.500    7.000    5.000 
#    0.000   12.500    0.000    0.000    0.000    0.000 
#    0.000    0.000    0.000    0.000    0.000    0.000 
#
# Total GULP energy -89087.530385 kJ/mol
# GULP energy per Si atom -5567.970649 kJ/mol
# Density = 2.571729 g / cm^3
# Si number density = 25.775957 Si / 1000 Ang^3
#
#
#
# Elastic Constant Matrix: (Units=GPa)
#
#
# Indices 1 2 3 4 5 6 
#
# 1 131.8473 34.4620 73.7760 10.1299 -43.6199 -10.2955
# 2 34.4620 61.8062 31.9448 2.8844 -10.8687 -7.9674
# 3 73.7760 31.9448 250.5724 2.1935 -41.2325 8.7247
# 4 10.1299 2.8844 2.1935 35.9436 2.5911 -6.4926
# 5 -43.6199 -10.8687 -41.2325 2.5911 61.4272 8.0003
# 6 -10.2955 -7.9674 8.7247 -6.4926 8.0003 30.4872
#
#
#
# Elastic Compliance Matrix: (Units=1/GPa)
#
#
# Indices 1 2 3 4 5 6 
#
# 1 0.012410 -0.004406 -0.002005 -0.003293 0.006675 0.001161
# 2 -0.004406 0.019803 -0.001616 0.000688 -0.001345 0.004649
# 3 -0.002005 -0.001616 0.005280 -0.000386 0.002279 -0.003291
# 4 -0.003293 0.000688 -0.000386 0.030290 -0.004645 0.006848
# 5 0.006675 -0.001345 0.002279 -0.004645 0.023268 -0.005845
# 6 0.001161 0.004649 -0.003291 0.006848 -0.005845 0.038342
#
#
# Mechanical properties :
#
#
# Convention : Reuss Voigt Hill
#
# Bulk Modulus (GPa) = 46.64802 80.51017 63.57910
# Shear Modulus (GPa) = 32.76655 45.84113 39.30384
#
# Velocity S-wave (km/s) = 3.56927 4.22174 3.90914
# Velocity P-wave (km/s) = 5.92646 7.42068 6.71526
#
# Compressibility (1/GPa) = 0.02143714
#
# Stress axis : x y z
#
# Youngs Moduli (GPa) = 80.57887 50.49840 189.37798
#
# Poissons Ratio (x) = 0.22250 0.37979
# Poissons Ratio (y) = 0.35504 0.30612
# Poissons Ratio (z) = 0.16160 0.08163
#
# Static dielectric constant tensor:
#      x y z
#    x 2.057030 -0.124120 -0.060990 
#    y -0.124120 2.136610 -0.032320 
#    z -0.060990 -0.032320 2.023140 
# 
# From -- ./inp_files/466160.got.cif
#   From: 2010.05.17/outbox.cif.g08.bks.cpg/sg2_234_cif.got.tgz:466160.got - 2010.06.03 11:33:40.
