data_PCOD9035530
_publ_section_title
;
Structure prediction by ZEFSAII (Michael W. Deem and Ramdas Pophale) SiO2 
 PCOD9035530
Probable space group: P -1
;
_chemical_formula_sum "Si O2"
_cell_formula_units_Z 16
_cell_length_a 12.116074
_cell_length_b 20.167809
_cell_length_c 8.485651
_cell_angle_alpha 128.048314
_cell_angle_beta 145.207633
_cell_angle_gamma 38.757928
_cell_volume 739.008054
_symmetry_space_group_name_H-M "P -1"
_symmetry_group_IT_number 2
_symmetry_cell_setting 'triclinic'
loop_
_space_group_symop_operation_xyz
x,y,z
-x,-y,-z
loop_
_atom_site_type_symbol
_atom_site_label
_atom_site_fract_x
_atom_site_fract_y
_atom_site_fract_z
Si Si1 0.949747 0.126774 0.297046
Si Si2 0.923000 0.938127 0.991055
Si Si3 0.630937 0.409148 0.685599
Si Si4 0.239734 0.087712 0.897129
Si Si5 0.767005 0.600199 0.960525
Si Si6 0.164297 0.299011 0.052930
Si Si7 0.479688 0.629124 0.920931
Si Si8 0.410246 0.716786 0.303824
O O1 0.059859 0.104044 0.569499
O O2 0.745725 0.253750 0.233670
O O3 0.111606 0.091736 0.271652
O O4 0.861115 0.053352 0.074396
O O5 0.801058 0.935702 0.006906
O O6 0.212504 0.842179 0.221430
O O7 0.461476 0.396732 0.358224
O O8 0.477680 0.529280 0.744341
O O9 0.709878 0.320361 0.777445
O O10 0.874361 0.382084 0.855117
O O11 0.223444 0.192084 0.027414
O O12 0.500000 0.000000 0.000000
O O13 0.761824 0.697041 0.033621
O O14 0.731226 0.601070 0.104224
O O15 0.000000 0.500000 0.000000
O O16 0.339392 0.315707 0.376870
O O17 0.475045 0.648620 0.126456
#
# Coordination Sequence:
#
# PCOD9035530 Si02
#       8
#     2   2   2   2   2   2   2   2
#     4  10  24  42  69  97 129 176 223 272 337 394
#     4  10  22  46  67  95 135 173 216 286 332 382
#     4  11  22  43  66  93 133 172 223 268 328 399
#     4  12  25  41  68 100 130 178 222 270 337 402
#     4  11  24  40  61  92 131 171 210 277 322 386
#     4  11  24  42  63  95 131 170 218 270 332 390
#     4  11  23  41  66  96 127 175 222 269 330 399
#     4  10  23  44  66  93 131 174 218 275 333 388
#
# _framework density 21.650642999999999
#
# number of rings (size 3 to 8) (size 9 to 14) (size 15 to 20)
#    0.000    1.250    2.500    2.625    5.250    1.000 
#    4.500    0.000    0.000    0.000    0.000    0.000 
#    0.000    0.000    0.000    0.000    0.000    0.000 
#
# Total GULP energy -89156.913207 kJ/mol
# GULP energy per Si atom -5572.307075 kJ/mol
# Density = 2.160137 g / cm^3
# Si number density = 21.650643 Si / 1000 Ang^3
#
#
#
# Elastic Constant Matrix: (Units=GPa)
#
#
# Indices 1 2 3 4 5 6 
#
# 1 121.2227 16.3828 30.8951 10.5003 4.7554 -0.2261
# 2 16.3828 108.3230 15.9166 13.0570 10.7302 5.9297
# 3 30.8951 15.9166 41.8765 6.4289 13.9054 -6.6069
# 4 10.5003 13.0570 6.4289 26.0343 1.0448 3.1800
# 5 4.7554 10.7302 13.9054 1.0448 26.3370 -3.7610
# 6 -0.2261 5.9297 -6.6069 3.1800 -3.7610 34.4829
#
#
#
# Elastic Compliance Matrix: (Units=1/GPa)
#
#
# Indices 1 2 3 4 5 6 
#
# 1 0.010482 -0.000322 -0.008315 -0.001993 0.002564 -0.001006
# 2 -0.000322 0.010575 -0.002466 -0.004166 -0.003104 -0.002248
# 3 -0.008315 -0.002466 0.038215 -0.004956 -0.016568 0.006341
# 4 -0.001993 -0.004166 -0.004956 0.042913 0.002409 -0.003941
# 5 0.002564 -0.003104 -0.016568 0.002409 0.047761 0.002363
# 6 -0.001006 -0.002248 0.006341 -0.003941 0.002363 0.031216
#
#
# Mechanical properties :
#
#
# Convention : Reuss Voigt Hill
#
# Bulk Modulus (GPa) = 26.97943 44.20124 35.59034
# Shear Modulus (GPa) = 23.17781 31.25268 27.21525
#
# Velocity S-wave (km/s) = 3.27546 3.80346 3.54929
# Velocity P-wave (km/s) = 5.17621 6.30464 5.76808
#
# Compressibility (1/GPa) = 0.03706528
#
# Stress axis : x y z
#
# Youngs Moduli (GPa) = 95.39983 94.55905 26.16798
#
# Poissons Ratio (x) = 0.03048 0.21759
# Poissons Ratio (y) = 0.03075 0.06453
# Poissons Ratio (z) = 0.79326 0.23319
#
# Static dielectric constant tensor:
#      x y z
#    x 1.892100 -0.002030 -0.074850 
#    y -0.002030 1.843200 -0.047820 
#    z -0.074850 -0.047820 1.854430 
# 
# From -- ./inp_files/283305.got.cif
#   From: 2010.05.17/outbox.cif.g08.bks.cpg/sg2_142_cif.got.tgz:283305.got - 2010.06.03 11:33:40.
