data_PCOD9035724
_publ_section_title
;
Structure prediction by ZEFSAII (Michael W. Deem and Ramdas Pophale) SiO2 
 PCOD9035724
Probable space group: P -1
;
_chemical_formula_sum "Si O2"
_cell_formula_units_Z 11
_cell_length_a 9.805795
_cell_length_b 16.594283
_cell_length_c 5.433325
_cell_angle_alpha 80.919228
_cell_angle_beta 89.916072
_cell_angle_gamma 30.662246
_cell_volume 429.101137
_symmetry_space_group_name_H-M "P -1"
_symmetry_group_IT_number 2
_symmetry_cell_setting 'triclinic'
loop_
_space_group_symop_operation_xyz
x,y,z
-x,-y,-z
loop_
_atom_site_type_symbol
_atom_site_label
_atom_site_fract_x
_atom_site_fract_y
_atom_site_fract_z
Si Si1 0.696597 0.344022 0.318498
Si Si2 0.792558 0.882298 0.271334
Si Si3 0.874914 0.379685 0.941901
Si Si4 0.000000 0.500000 0.000000
Si Si5 0.960776 0.968795 0.765648
Si Si6 0.412620 0.179721 0.457916
O O1 0.380015 0.491757 0.312602
O O2 0.924739 0.222465 0.587201
O O3 0.735021 0.412619 0.164257
O O4 0.801942 0.223393 0.174276
O O5 0.728586 0.828395 0.427846
O O6 0.865892 0.813361 0.033214
O O7 0.567504 0.064747 0.268116
O O8 0.960760 0.426503 0.950845
O O9 0.205194 0.358941 0.295444
O O10 0.654210 0.088412 0.681365
O O11 0.000000 0.000000 0.500000
O O12 0.000000 0.000000 0.000000
#
# Coordination Sequence:
#
# PCOD9035724 Si02
#       6
#     2   2   2   1   2   2
#     4  10  23  46  68 108 142 197 255 305 378 457
#     4  10  22  46  71 104 139 206 252 309 383 460
#     4  11  24  42  74  99 152 195 248 314 379 454
#     4  12  24  46  66 116 150 188 248 318 376 446
#     4  11  26  48  77 114 154 202 258 322 387 459
#     4  10  24  45  73 109 151 193 259 314 380 463
#
# _framework density 25.634979999999999
#
# number of rings (size 3 to 8) (size 9 to 14) (size 15 to 20)
#    0.000    1.455    1.818    1.636    5.091    4.364 
#    6.545    0.000    0.000    0.000    0.000    0.000 
#    0.000    0.000    0.000    0.000    0.000    0.000 
#
# Total GULP energy -61283.563879 kJ/mol
# GULP energy per Si atom -5571.233080 kJ/mol
# Density = 2.557663 g / cm^3
# Si number density = 25.634980 Si / 1000 Ang^3
#
#
#
# Elastic Constant Matrix: (Units=GPa)
#
#
# Indices 1 2 3 4 5 6 
#
# 1 105.7885 44.6256 53.1356 14.5890 21.0437 22.7927
# 2 44.6256 104.1920 46.3103 1.0880 0.1032 27.5611
# 3 53.1356 46.3103 97.5803 8.4170 23.3517 4.5597
# 4 14.5890 1.0880 8.4170 44.9145 6.3309 3.0178
# 5 21.0437 0.1032 23.3517 6.3309 56.6508 -13.0586
# 6 22.7927 27.5611 4.5597 3.0178 -13.0586 48.7576
#
#
#
# Elastic Compliance Matrix: (Units=1/GPa)
#
#
# Indices 1 2 3 4 5 6 
#
# 1 0.016350 -0.002520 -0.005977 -0.002994 -0.004831 -0.006768
# 2 -0.002520 0.015028 -0.006025 0.001772 0.001718 -0.006403
# 3 -0.005977 -0.006025 0.017209 -0.000823 -0.003944 0.003585
# 4 -0.002994 0.001772 -0.000823 0.023656 -0.001517 -0.001395
# 5 -0.004831 0.001718 -0.003944 -0.001517 0.023066 0.007928
# 6 -0.006768 -0.006403 0.003585 -0.001395 0.007928 0.029167
#
#
# Mechanical properties :
#
#
# Convention : Reuss Voigt Hill
#
# Bulk Modulus (GPa) = 51.16482 66.18933 58.67707
# Shear Modulus (GPa) = 31.24332 40.96386 36.10359
#
# Velocity S-wave (km/s) = 3.49489 4.00180 3.75690
# Velocity P-wave (km/s) = 6.02395 6.87230 6.46206
#
# Compressibility (1/GPa) = 0.01954468
#
# Stress axis : x y z
#
# Youngs Moduli (GPa) = 61.16288 66.54067 58.10880
#
# Poissons Ratio (x) = 0.16767 0.34729
# Poissons Ratio (y) = 0.15412 0.35010
# Poissons Ratio (z) = 0.36554 0.40090
#
# Static dielectric constant tensor:
#      x y z
#    x 1.988590 -0.081780 0.040790 
#    y -0.081780 2.041960 0.004680 
#    z 0.040790 0.004680 2.124060 
# 
# From -- ./inp_files/32582.got.cif
#   From: 2010.05.17/outbox.cif.g08.bks.cpg/sg2_17_cif.got.tgz:32582.got - 2010.06.03 11:33:40.
