data_PCOD9035574
_publ_section_title
;
Structure prediction by ZEFSAII (Michael W. Deem and Ramdas Pophale) SiO2 
 PCOD9035574
Probable space group: P -1
;
_chemical_formula_sum "Si O2"
_cell_formula_units_Z 15
_cell_length_a 13.421227
_cell_length_b 11.375295
_cell_length_c 7.849309
_cell_angle_alpha 139.668536
_cell_angle_beta 113.388909
_cell_angle_gamma 45.670315
_cell_volume 530.425300
_symmetry_space_group_name_H-M "P -1"
_symmetry_group_IT_number 2
_symmetry_cell_setting 'triclinic'
loop_
_space_group_symop_operation_xyz
x,y,z
-x,-y,-z
loop_
_atom_site_type_symbol
_atom_site_label
_atom_site_fract_x
_atom_site_fract_y
_atom_site_fract_z
Si Si1 0.500000 0.000000 0.000000
Si Si2 0.369592 0.325167 0.610155
Si Si3 0.780861 0.635087 0.152295
Si Si4 0.074131 0.423132 0.277973
Si Si5 0.100962 0.870867 0.255306
Si Si6 0.164349 0.728268 0.699245
Si Si7 0.661380 0.119650 0.531727
Si Si8 0.656893 0.158143 0.196344
O O1 0.476620 0.830246 0.904946
O O2 0.583922 0.799074 0.679813
O O3 0.222409 0.604849 0.790060
O O4 0.320102 0.223753 0.592325
O O5 0.512352 0.276370 0.708204
O O6 0.706027 0.859151 0.221100
O O7 0.945879 0.508863 0.158842
O O8 0.791686 0.407977 0.906328
O O9 0.128073 0.565512 0.424480
O O10 0.000000 0.500000 0.500000
O O11 0.203465 0.133668 0.045192
O O12 0.199285 0.939640 0.360121
O O13 0.000000 0.000000 0.500000
O O14 0.976298 0.004943 0.169582
O O15 0.297643 0.713309 0.728279
O O16 0.640456 0.237987 0.468812
#
# Coordination Sequence:
#
# PCOD9035574 Si02
#       8
#     1   2   2   2   2   2   2   2
#     4  10  22  46  68  96 142 174 232 276 344 420
#     4  11  26  47  69 106 134 189 230 285 355 408
#     4  12  25  45  72  97 144 182 235 284 346 416
#     4  12  23  41  68 104 137 179 228 293 349 404
#     4  12  26  44  69 107 135 186 231 283 349 407
#     4  12  24  44  74 101 143 172 240 289 345 415
#     4  11  26  46  68  97 145 183 234 283 343 420
#     4  11  24  43  68 105 133 183 232 283 352 407
#
# _framework density 28.279194
#
# number of rings (size 3 to 8) (size 9 to 14) (size 15 to 20)
#    0.000    0.533    6.667    0.400    1.867    5.867 
#    7.200    0.000    0.000    0.000    0.000    0.000 
#    0.000    0.000    0.000    0.000    0.000    0.000 
#
# Total GULP energy -83545.768140 kJ/mol
# GULP energy per Si atom -5569.717876 kJ/mol
# Density = 2.821483 g / cm^3
# Si number density = 28.279194 Si / 1000 Ang^3
#
#
#
# Elastic Constant Matrix: (Units=GPa)
#
#
# Indices 1 2 3 4 5 6 
#
# 1 173.5038 27.8830 26.5119 9.6698 34.7025 2.0662
# 2 27.8830 89.8665 3.4671 29.9033 -7.3583 5.5503
# 3 26.5119 3.4671 79.8438 38.6374 6.9026 3.3477
# 4 9.6698 29.9033 38.6374 40.0209 11.5939 -3.5729
# 5 34.7025 -7.3583 6.9026 11.5939 54.1854 5.6545
# 6 2.0662 5.5503 3.3477 -3.5729 5.6545 56.6646
#
#
#
# Elastic Compliance Matrix: (Units=1/GPa)
#
#
# Indices 1 2 3 4 5 6 
#
# 1 0.010729 -0.011579 -0.013122 0.022585 -0.012037 0.004143
# 2 -0.011579 0.036681 0.030670 -0.061848 0.022889 -0.011166
# 3 -0.013122 0.030670 0.051588 -0.077637 0.023951 -0.012859
# 4 0.022585 -0.061848 -0.077637 0.157138 -0.049166 0.024636
# 5 -0.012037 0.022889 0.023951 -0.049166 0.037794 -0.010090
# 6 0.004143 -0.011166 -0.012859 0.024636 -0.010090 0.021910
#
#
# Mechanical properties :
#
#
# Convention : Reuss Voigt Hill
#
# Bulk Modulus (GPa) = 9.01423 50.99312 30.00368
# Shear Modulus (GPa) = 14.66786 49.19765 31.93276
#
# Velocity S-wave (km/s) = 2.27993 4.17551 3.36400
# Velocity P-wave (km/s) = 3.18202 6.42788 5.07163
#
# Compressibility (1/GPa) = 0.11093566
#
# Stress axis : x y z
#
# Youngs Moduli (GPa) = 93.20520 27.26211 19.38436
#
# Poissons Ratio (x) = 0.31568 0.25436
# Poissons Ratio (y) = 1.07927 -0.59453
# Poissons Ratio (z) = 1.22305 -0.83614
#
# Static dielectric constant tensor:
#      x y z
#    x 1.993350 -0.240130 -0.212140 
#    y -0.240130 2.146720 -0.120300 
#    z -0.212140 -0.120300 2.271170 
# 
# From -- ./inp_files/304376.got.cif
#   From: 2010.05.17/outbox.cif.g08.bks.cpg/sg2_153_cif.got.tgz:304376.got - 2010.06.03 11:33:40.
