data_PCOD9035155
_publ_section_title
;
Structure prediction by ZEFSAII (Michael W. Deem and Ramdas Pophale) SiO2 
 PCOD9035155
Probable space group: P -1
;
_chemical_formula_sum "Si O2"
_cell_formula_units_Z 16
_cell_length_a 6.767179
_cell_length_b 7.984078
_cell_length_c 14.054877
_cell_angle_alpha 62.068241
_cell_angle_beta 75.468905
_cell_angle_gamma 61.468583
_cell_volume 589.076863
_symmetry_space_group_name_H-M "P -1"
_symmetry_group_IT_number 2
_symmetry_cell_setting 'triclinic'
loop_
_space_group_symop_operation_xyz
x,y,z
-x,-y,-z
loop_
_atom_site_type_symbol
_atom_site_label
_atom_site_fract_x
_atom_site_fract_y
_atom_site_fract_z
Si Si1 0.071408 0.474682 0.888800
Si Si2 0.975696 0.781038 0.351909
Si Si3 0.521079 0.765767 0.169672
Si Si4 0.443619 0.465814 0.409411
Si Si5 0.978637 0.185944 0.882577
Si Si6 0.797450 0.922308 0.726559
Si Si7 0.445208 0.512446 0.115579
Si Si8 0.467409 0.877479 0.651476
O O1 0.219132 0.229270 0.880067
O O2 0.987009 0.701384 0.790859
O O3 0.845965 0.426771 0.880979
O O4 0.000000 0.500000 0.000000
O O5 0.172217 0.551509 0.401969
O O6 0.946731 0.836094 0.229226
O O7 0.093769 0.917994 0.344717
O O8 0.723513 0.887454 0.388671
O O9 0.533937 0.605804 0.296768
O O10 0.306036 0.755778 0.130387
O O11 0.655917 0.569623 0.117167
O O12 0.378203 0.987456 0.186118
O O13 0.500000 0.500000 0.500000
O O14 0.547504 0.240309 0.409491
O O15 0.000000 0.000000 0.000000
O O16 0.691359 0.897498 0.647823
O O17 0.523389 0.287256 0.220671
O O18 0.500000 0.500000 0.000000
#
# Coordination Sequence:
#
# PCOD9035155 Si02
#       8
#     2   2   2   2   2   2   2   2
#     4  12  24  38  60  92 130 174 223 270 320 389
#     4  11  22  42  65  94 132 166 216 276 325 392
#     4  10  23  40  62  90 126 165 216 268 324 386
#     4  10  22  45  71  95 129 171 215 274 337 393
#     4  12  22  39  58  89 131 176 214 263 324 388
#     4  11  21  40  63  92 130 170 215 275 324 382
#     4  11  20  38  56  85 125 168 212 260 316 382
#     4  11  22  40  65  93 123 171 214 265 332 392
#
# _framework density 27.161138999999999
#
# number of rings (size 3 to 8) (size 9 to 14) (size 15 to 20)
#    0.000    1.000    5.000    4.500    0.000    1.000 
#    0.000    2.500    0.000   12.750    0.000    0.000 
#    0.000    0.000    0.000    0.000    0.000    0.000 
#
# Total GULP energy -89366.183478 kJ/mol
# GULP energy per Si atom -5585.386467 kJ/mol
# Density = 2.709932 g / cm^3
# Si number density = 27.161139 Si / 1000 Ang^3
#
#
#
# Elastic Constant Matrix: (Units=GPa)
#
#
# Indices 1 2 3 4 5 6 
#
# 1 153.9686 32.6541 38.8437 1.0680 21.4801 -10.5683
# 2 32.6541 108.3715 49.5978 12.1227 17.6105 -16.5204
# 3 38.8437 49.5978 179.7048 20.9268 14.8017 1.8933
# 4 1.0680 12.1227 20.9268 41.0345 9.0915 11.2910
# 5 21.4801 17.6105 14.8017 9.0915 49.1827 8.3352
# 6 -10.5683 -16.5204 1.8933 11.2910 8.3352 68.0551
#
#
#
# Elastic Compliance Matrix: (Units=1/GPa)
#
#
# Indices 1 2 3 4 5 6 
#
# 1 0.007521 -0.001212 -0.001195 0.001114 -0.002879 0.001075
# 2 -0.001212 0.012122 -0.002564 -0.002537 -0.003187 0.003637
# 3 -0.001195 -0.002564 0.006835 -0.002528 -0.000053 -0.000572
# 4 0.001114 -0.002537 -0.002528 0.028393 -0.003272 -0.004682
# 5 -0.002879 -0.003187 -0.000053 -0.003272 0.023964 -0.003611
# 6 0.001075 0.003637 -0.000572 -0.004682 -0.003611 0.016979
#
#
# Mechanical properties :
#
#
# Convention : Reuss Voigt Hill
#
# Bulk Modulus (GPa) = 60.47340 76.02623 68.24981
# Shear Modulus (GPa) = 44.93606 53.05107 48.99357
#
# Velocity S-wave (km/s) = 4.07187 4.42429 4.25174
# Velocity P-wave (km/s) = 6.66483 7.35872 7.02035
#
# Compressibility (1/GPa) = 0.01653620
#
# Stress axis : x y z
#
# Youngs Moduli (GPa) = 132.95884 82.49219 146.29577
#
# Poissons Ratio (x) = 0.10000 0.17483
# Poissons Ratio (y) = 0.16117 0.37512
# Poissons Ratio (z) = 0.15889 0.21152
#
# Static dielectric constant tensor:
#      x y z
#    x 2.388000 -0.039260 0.049850 
#    y -0.039260 2.166890 -0.002480 
#    z 0.049850 -0.002480 2.012200 
# 
# From -- ./inp_files/490927.got.cif
#   From: 2010.05.17/outbox.cif.g08.bks.cpg/sg2_246_cif.got.tgz:490927.got - 2010.06.03 11:33:40.
