data_PCOD9035171
_publ_section_title
;
Structure prediction by ZEFSAII (Michael W. Deem and Ramdas Pophale) SiO2 
 PCOD9035171
Probable space group: P -1
;
_chemical_formula_sum "Si O2"
_cell_formula_units_Z 16
_cell_length_a 8.212958
_cell_length_b 12.009555
_cell_length_c 13.633356
_cell_angle_alpha 102.245962
_cell_angle_beta 92.473031
_cell_angle_gamma 145.366040
_cell_volume 687.104036
_symmetry_space_group_name_H-M "P -1"
_symmetry_group_IT_number 2
_symmetry_cell_setting 'triclinic'
loop_
_space_group_symop_operation_xyz
x,y,z
-x,-y,-z
loop_
_atom_site_type_symbol
_atom_site_label
_atom_site_fract_x
_atom_site_fract_y
_atom_site_fract_z
Si Si1 0.056125 0.744160 0.865017
Si Si2 0.443107 0.092703 0.605514
Si Si3 0.153540 0.301900 0.360332
Si Si4 0.229009 0.926025 0.354030
Si Si5 0.494462 0.619610 0.071681
Si Si6 0.789417 0.905010 0.772884
Si Si7 0.499983 0.196967 0.056135
Si Si8 0.713378 0.762727 0.397602
O O1 0.255354 0.749630 0.889167
O O2 0.007658 0.743570 0.750216
O O3 0.735118 0.533460 0.872925
O O4 0.226695 0.954661 0.958411
O O5 0.436496 0.080163 0.484546
O O6 0.106728 0.849032 0.590633
O O7 0.710622 0.172324 0.671927
O O8 0.456101 0.232799 0.659097
O O9 0.243265 0.226953 0.318090
O O10 0.467710 0.561696 0.427621
O O11 0.881573 0.763789 0.340301
O O12 0.324967 0.054814 0.285870
O O13 0.500000 0.500000 0.000000
O O14 0.382630 0.648318 0.996381
O O15 0.843833 0.861010 0.154894
O O16 0.624413 0.805152 0.854983
O O17 0.000000 0.000000 0.500000
#
# Coordination Sequence:
#
# PCOD9035171 Si02
#       8
#     2   2   2   2   2   2   2   2
#     4  11  24  42  68  97 138 179 229 282 340 403
#     4  10  23  47  68  99 139 174 225 291 343 410
#     4  12  24  43  72 100 135 184 227 287 344 409
#     4  10  22  45  71  98 135 178 226 284 345 410
#     4  12  23  43  66  93 134 183 221 276 341 395
#     4  12  23  43  68 101 137 179 236 278 335 419
#     4  11  24  44  64 100 138 179 228 283 339 405
#     4  10  23  46  68  98 133 175 227 285 345 407
#
# _framework density 23.286138999999999
#
# number of rings (size 3 to 8) (size 9 to 14) (size 15 to 20)
#    0.000    1.000    3.750    3.000    0.000    2.000 
#    6.750    3.125    0.000    0.000    0.000    0.000 
#    0.000    0.000    0.000    0.000    0.000    0.000 
#
# Total GULP energy -89538.437503 kJ/mol
# GULP energy per Si atom -5596.152344 kJ/mol
# Density = 2.323314 g / cm^3
# Si number density = 23.286139 Si / 1000 Ang^3
#
#
#
# Elastic Constant Matrix: (Units=GPa)
#
#
# Indices 1 2 3 4 5 6 
#
# 1 154.1348 20.1700 11.1382 8.0317 8.9168 -27.8421
# 2 20.1700 81.4920 10.7404 5.9972 -5.8682 -10.2972
# 3 11.1382 10.7404 70.6635 -0.9960 4.3325 -5.5810
# 4 8.0317 5.9972 -0.9960 29.7646 -12.9197 6.1605
# 5 8.9168 -5.8682 4.3325 -12.9197 33.4115 -15.1266
# 6 -27.8421 -10.2972 -5.5810 6.1605 -15.1266 37.5764
#
#
#
# Elastic Compliance Matrix: (Units=1/GPa)
#
#
# Indices 1 2 3 4 5 6 
#
# 1 0.007936 -0.000968 -0.000642 -0.003586 -0.001011 0.005701
# 2 -0.000968 0.013816 -0.001861 -0.001641 0.004497 0.004872
# 3 -0.000642 -0.001861 0.014683 0.000169 -0.001792 0.000446
# 4 -0.003586 -0.001641 0.000169 0.042327 0.015258 -0.003879
# 5 -0.001011 0.004497 -0.001792 0.015258 0.044131 0.015481
# 6 0.005701 0.004872 0.000446 -0.003879 0.015481 0.039105
#
#
# Mechanical properties :
#
#
# Convention : Reuss Voigt Hill
#
# Bulk Modulus (GPa) = 33.90740 43.37640 38.64190
# Shear Modulus (GPa) = 27.96853 37.76662 32.86758
#
# Velocity S-wave (km/s) = 3.46942 4.03159 3.76102
# Velocity P-wave (km/s) = 5.53552 6.35135 5.95742
#
# Compressibility (1/GPa) = 0.02949209
#
# Stress axis : x y z
#
# Youngs Moduli (GPa) = 126.00822 72.37813 68.10512
#
# Poissons Ratio (x) = 0.07007 0.04373
# Poissons Ratio (y) = 0.12199 0.12678
# Poissons Ratio (z) = 0.08091 0.13473
#
# Static dielectric constant tensor:
#      x y z
#    x 1.916870 -0.002930 0.026850 
#    y -0.002930 1.843000 0.000490 
#    z 0.026850 0.000490 1.899840 
# 
# From -- ./inp_files/500469.got.cif
#   From: 2010.05.17/outbox.cif.g08.bks.cpg/sg2_251_cif.got.tgz:500469.got - 2010.06.03 11:33:40.
