data_PCOD9035880
_publ_section_title
;
Structure prediction by ZEFSAII (Michael W. Deem and Ramdas Pophale) SiO2 
 PCOD9035880
Probable space group: P -1
;
_chemical_formula_sum "Si O2"
_cell_formula_units_Z 15
_cell_length_a 5.098436
_cell_length_b 7.288812
_cell_length_c 18.045466
_cell_angle_alpha 113.777030
_cell_angle_beta 102.048011
_cell_angle_gamma 112.339536
_cell_volume 513.097745
_symmetry_space_group_name_H-M "P -1"
_symmetry_group_IT_number 2
_symmetry_cell_setting 'triclinic'
loop_
_space_group_symop_operation_xyz
x,y,z
-x,-y,-z
loop_
_atom_site_type_symbol
_atom_site_label
_atom_site_fract_x
_atom_site_fract_y
_atom_site_fract_z
Si Si1 0.161413 0.174409 0.324076
Si Si2 0.500000 0.000000 0.500000
Si Si3 0.846659 0.231101 0.453020
Si Si4 0.327813 0.894269 0.811232
Si Si5 0.737376 0.628467 0.203882
Si Si6 0.300080 0.360348 0.619949
Si Si7 0.965768 0.044484 0.920947
Si Si8 0.817316 0.358797 0.870227
O O1 0.017081 0.167358 0.393722
O O2 0.516898 0.374361 0.358945
O O3 0.988858 0.279933 0.277561
O O4 0.996657 0.904645 0.245304
O O5 0.552665 0.778158 0.431751
O O6 0.514507 0.924885 0.579236
O O7 0.934066 0.210531 0.542831
O O8 0.000000 0.500000 0.500000
O O9 0.600515 0.852601 0.847596
O O10 0.527973 0.093924 0.793728
O O11 0.221912 0.010887 0.887286
O O12 0.698011 0.627479 0.289669
O O13 0.407883 0.534768 0.126299
O O14 0.923492 0.517083 0.157882
O O15 0.969323 0.284271 0.934954
O O16 0.000000 0.000000 0.000000
#
# Coordination Sequence:
#
# PCOD9035880 Si02
#       8
#     2   1   2   2   2   2   2   2
#     4  11  22  42  61  87 128 170 216 280 328 385
#     4  12  26  44  58  90 124 160 232 272 346 394
#     4  12  27  42  65  89 124 171 228 286 339 390
#     4   9  19  34  56  94 124 169 207 258 329 378
#     4  11  23  39  63  88 132 162 219 278 318 393
#     4  12  28  41  64  95 118 183 228 274 344 388
#     4  10  17  32  60 100 132 159 215 262 313 403
#     4   9  18  36  57  90 126 167 202 260 329 368
#
# _framework density 29.234196000000001
#
# number of rings (size 3 to 8) (size 9 to 14) (size 15 to 20)
#    0.800    0.533    5.333    1.200    1.867    3.200 
#    0.000    0.000    0.000    0.000    0.000    5.600 
#    0.000    0.000    0.000    0.000    0.000    0.000 
#
# Total GULP energy -83601.223640 kJ/mol
# GULP energy per Si atom -5573.414909 kJ/mol
# Density = 2.916766 g / cm^3
# Si number density = 29.234196 Si / 1000 Ang^3
#
#
#
# Elastic Constant Matrix: (Units=GPa)
#
#
# Indices 1 2 3 4 5 6 
#
# 1 218.2486 20.0453 30.6412 -12.6522 -9.4373 28.5601
# 2 20.0453 151.4286 26.9950 -4.7650 -28.2513 21.6802
# 3 30.6412 26.9950 78.1091 -22.3343 21.2925 13.7668
# 4 -12.6522 -4.7650 -22.3343 51.7742 7.8776 -15.9605
# 5 -9.4373 -28.2513 21.2925 7.8776 42.7868 -5.8806
# 6 28.5601 21.6802 13.7668 -15.9605 -5.8806 48.8577
#
#
#
# Elastic Compliance Matrix: (Units=1/GPa)
#
#
# Indices 1 2 3 4 5 6 
#
# 1 0.005352 0.000755 -0.003091 -0.001235 0.003084 -0.002624
# 2 0.000755 0.010290 -0.007804 -0.004897 0.011328 -0.003045
# 3 -0.003091 -0.007804 0.026352 0.013002 -0.021409 -0.000485
# 4 -0.001235 -0.004897 0.013002 0.028441 -0.014277 0.006803
# 5 0.003084 0.011328 -0.021409 -0.014277 0.044805 -0.000068
# 6 -0.002624 -0.003045 -0.000485 0.006803 -0.000068 0.025704
#
#
# Mechanical properties :
#
#
# Convention : Reuss Voigt Hill
#
# Bulk Modulus (GPa) = 46.05652 67.01660 56.53656
# Shear Modulus (GPa) = 29.68038 53.35740 41.51889
#
# Velocity S-wave (km/s) = 3.18978 4.27684 3.77266
# Velocity P-wave (km/s) = 5.41800 6.88202 6.19342
#
# Compressibility (1/GPa) = 0.02171245
#
# Stress axis : x y z
#
# Youngs Moduli (GPa) = 186.85140 97.17925 37.94829
#
# Poissons Ratio (x) = -0.07336 0.11732
# Poissons Ratio (y) = -0.14106 0.29615
# Poissons Ratio (z) = 0.57765 0.75840
#
# Static dielectric constant tensor:
#      x y z
#    x 2.389250 -0.175030 0.079520 
#    y -0.175030 2.542770 0.082560 
#    z 0.079520 0.082560 2.127940 
# 
# From -- ./inp_files/581635.got.cif
#   From: 2010.05.17/outbox.cif.g08.bks.cpg/sg2_291_cif.got.tgz:581635.got - 2010.06.03 11:33:40.
