data_PCOD9035681
_publ_section_title
;
Structure prediction by ZEFSAII (Michael W. Deem and Ramdas Pophale) SiO2 
 PCOD9035681
Probable space group: P -1
;
_chemical_formula_sum "Si O2"
_cell_formula_units_Z 16
_cell_length_a 6.437686
_cell_length_b 20.678487
_cell_length_c 7.471122
_cell_angle_alpha 55.859142
_cell_angle_beta 64.332186
_cell_angle_gamma 45.930909
_cell_volume 589.910779
_symmetry_space_group_name_H-M "P -1"
_symmetry_group_IT_number 2
_symmetry_cell_setting 'triclinic'
loop_
_space_group_symop_operation_xyz
x,y,z
-x,-y,-z
loop_
_atom_site_type_symbol
_atom_site_label
_atom_site_fract_x
_atom_site_fract_y
_atom_site_fract_z
Si Si1 0.460162 0.004743 0.793084
Si Si2 0.202844 0.209287 0.041049
Si Si3 0.560605 0.559631 0.664713
Si Si4 0.365428 0.317873 0.270130
Si Si5 0.118560 0.699108 0.355819
Si Si6 0.184481 0.860335 0.214572
Si Si7 0.712116 0.108379 0.473010
Si Si8 0.957678 0.404258 0.003523
O O1 0.481542 0.086006 0.574672
O O2 0.718486 0.897235 0.789574
O O3 0.139153 0.038227 0.838411
O O4 0.500000 0.000000 0.000000
O O5 0.528956 0.175323 0.945784
O O6 0.999955 0.261747 0.860578
O O7 0.056049 0.294498 0.107546
O O8 0.547281 0.639161 0.675230
O O9 0.438104 0.601581 0.447061
O O10 0.873800 0.459754 0.757707
O O11 0.330706 0.543923 0.851130
O O12 0.614366 0.209668 0.265255
O O13 0.120193 0.311019 0.456739
O O14 0.210638 0.390563 0.046636
O O15 0.127608 0.781806 0.315822
O O16 0.279182 0.864632 0.369446
O O17 0.000000 0.000000 0.500000
#
# Coordination Sequence:
#
# PCOD9035681 Si02
#       8
#     2   2   2   2   2   2   2   2
#     4  12  24  42  64  94 134 176 218 264 326 395
#     4  12  25  41  65 100 131 173 219 274 324 394
#     4  10  22  46  70  91 129 175 209 281 337 390
#     4  11  21  44  66  92 131 172 214 269 327 397
#     4  11  21  42  70  90 130 171 218 260 333 395
#     4  12  22  43  63  89 133 180 212 269 323 388
#     4  12  27  39  65 102 130 176 225 269 327 391
#     4  10  26  41  67 101 126 165 226 272 335 394
#
# _framework density 27.122744000000001
#
# number of rings (size 3 to 8) (size 9 to 14) (size 15 to 20)
#    0.000    0.750    6.250    0.750    3.500    2.000 
#    0.000    2.500    0.000    0.000    0.000    0.000 
#    0.000    0.000    0.000    0.000    0.000    0.000 
#
# Total GULP energy -89479.672166 kJ/mol
# GULP energy per Si atom -5592.479510 kJ/mol
# Density = 2.706101 g / cm^3
# Si number density = 27.122744 Si / 1000 Ang^3
#
#
#
# Elastic Constant Matrix: (Units=GPa)
#
#
# Indices 1 2 3 4 5 6 
#
# 1 155.6002 33.2465 45.9834 -15.1809 7.3995 -3.8234
# 2 33.2465 91.3478 22.1663 -32.7662 -1.4261 14.0075
# 3 45.9834 22.1663 73.4880 -24.0789 22.2340 -4.6938
# 4 -15.1809 -32.7662 -24.0789 44.6918 -4.4977 4.3024
# 5 7.3995 -1.4261 22.2340 -4.4977 59.4766 -12.5686
# 6 -3.8234 14.0075 -4.6938 4.3024 -12.5686 53.8264
#
#
#
# Elastic Compliance Matrix: (Units=1/GPa)
#
#
# Indices 1 2 3 4 5 6 
#
# 1 0.008343 -0.002623 -0.005291 -0.001956 0.000983 0.001200
# 2 -0.002623 0.017158 -0.000024 0.012258 0.000508 -0.005515
# 3 -0.005291 -0.000024 0.022114 0.009470 -0.007073 -0.000850
# 4 -0.001956 0.012258 0.009470 0.036204 -0.001478 -0.005742
# 5 0.000983 0.000508 -0.007073 -0.001478 0.020109 0.004134
# 6 0.001200 -0.005515 -0.000850 -0.005742 0.004134 0.021449
#
#
# Mechanical properties :
#
#
# Convention : Reuss Voigt Hill
#
# Bulk Modulus (GPa) = 31.50639 58.13651 44.82145
# Shear Modulus (GPa) = 32.93145 46.20160 39.56652
#
# Velocity S-wave (km/s) = 3.48827 4.13174 3.82356
# Velocity P-wave (km/s) = 5.27877 6.65153 6.00451
#
# Compressibility (1/GPa) = 0.03173959
#
# Stress axis : x y z
#
# Youngs Moduli (GPa) = 119.86768 58.28219 45.22072
#
# Poissons Ratio (x) = 0.15286 0.23925
# Poissons Ratio (y) = 0.31439 0.00108
# Poissons Ratio (z) = 0.63418 0.00139
#
# Static dielectric constant tensor:
#      x y z
#    x 2.036850 0.025280 -0.091010 
#    y 0.025280 2.057120 0.064980 
#    z -0.091010 0.064980 1.992420 
# 
# From -- ./inp_files/48947.got.cif
#   From: 2010.05.17/outbox.cif.g08.bks.cpg/sg2_25_cif.got.tgz:48947.got - 2010.06.03 11:33:40.
