data_PCOD9035908
_publ_section_title
;
Structure prediction by ZEFSAII (Michael W. Deem and Ramdas Pophale) SiO2 
 PCOD9035908
Probable space group: P -1
;
_chemical_formula_sum "Si O2"
_cell_formula_units_Z 16
_cell_length_a 17.901598
_cell_length_b 22.266392
_cell_length_c 5.199321
_cell_angle_alpha 72.303695
_cell_angle_beta 103.213553
_cell_angle_gamma 161.402178
_cell_volume 617.483747
_symmetry_space_group_name_H-M "P -1"
_symmetry_group_IT_number 2
_symmetry_cell_setting 'triclinic'
loop_
_space_group_symop_operation_xyz
x,y,z
-x,-y,-z
loop_
_atom_site_type_symbol
_atom_site_label
_atom_site_fract_x
_atom_site_fract_y
_atom_site_fract_z
Si Si1 0.273320 0.261415 0.871168
Si Si2 0.814307 0.728662 0.702496
Si Si3 0.116133 0.526246 0.445464
Si Si4 0.283224 0.826673 0.761073
Si Si5 0.724741 0.483328 0.436407
Si Si6 0.104641 0.877514 0.121135
Si Si7 0.437599 0.055607 0.859360
Si Si8 0.594229 0.770630 0.977597
O O1 0.560955 0.496373 0.777897
O O2 0.157392 0.212474 0.617325
O O3 0.245104 0.165650 0.922511
O O4 0.208898 0.238347 0.129288
O O5 0.011513 0.834098 0.831872
O O6 0.118473 0.454540 0.627560
O O7 0.396128 0.760512 0.358281
O O8 0.000000 0.500000 0.500000
O O9 0.959356 0.393211 0.240078
O O10 0.500000 0.000000 0.500000
O O11 0.257056 0.877839 0.767116
O O12 0.376077 0.852511 0.021578
O O13 0.595546 0.369016 0.755230
O O14 0.879450 0.667466 0.342161
O O15 0.530626 0.340802 0.246214
O O16 0.295927 0.972454 0.092863
O O17 0.249854 0.045281 0.153336
#
# Coordination Sequence:
#
# PCOD9035908 Si02
#       8
#     2   2   2   2   2   2   2   2
#     4  10  22  46  75 110 154 194 257 311 379 460
#     4  10  23  43  77 110 150 203 245 316 384 454
#     4  12  26  46  75 107 149 205 253 321 383 452
#     4  11  24  45  73 104 142 193 252 313 379 452
#     4  12  30  50  74 117 157 201 254 327 385 452
#     4  12  28  48  78 113 154 208 255 318 394 459
#     4  11  26  47  69 109 149 193 257 314 381 463
#     4  12  28  51  79 114 156 201 259 319 387 461
#
# _framework density 25.911612999999999
#
# number of rings (size 3 to 8) (size 9 to 14) (size 15 to 20)
#    0.000    0.750    3.750    1.875    8.750    4.000 
#    2.250    0.000    0.000    0.000    0.000    0.000 
#    0.000    0.000    0.000    0.000    0.000    0.000 
#
# Total GULP energy -89571.357177 kJ/mol
# GULP energy per Si atom -5598.209824 kJ/mol
# Density = 2.585264 g / cm^3
# Si number density = 25.911613 Si / 1000 Ang^3
#
#
#
# Elastic Constant Matrix: (Units=GPa)
#
#
# Indices 1 2 3 4 5 6 
#
# 1 117.4889 42.5406 16.0296 -14.6232 1.2829 -29.1288
# 2 42.5406 147.7584 37.0820 -19.0477 -2.8637 -42.8446
# 3 16.0296 37.0820 75.7394 -6.9231 -7.3832 -10.0055
# 4 -14.6232 -19.0477 -6.9231 36.6380 5.8423 11.8776
# 5 1.2829 -2.8637 -7.3832 5.8423 40.2979 2.0217
# 6 -29.1288 -42.8446 -10.0055 11.8776 2.0217 52.3539
#
#
#
# Elastic Compliance Matrix: (Units=1/GPa)
#
#
# Indices 1 2 3 4 5 6 
#
# 1 0.010410 -0.001324 -0.000927 0.002143 -0.001111 0.004087
# 2 -0.001324 0.010215 -0.003731 0.002068 -0.000540 0.006461
# 3 -0.000927 -0.003731 0.015409 0.000462 0.002562 -0.000828
# 4 0.002143 0.002068 0.000462 0.031260 -0.004170 -0.003958
# 5 -0.001111 -0.000540 0.002562 -0.004170 0.025918 -0.000625
# 6 0.004087 0.006461 -0.000828 -0.003958 -0.000625 0.027426
#
#
# Mechanical properties :
#
#
# Convention : Reuss Voigt Hill
#
# Bulk Modulus (GPa) = 41.54804 59.14345 50.34574
# Shear Modulus (GPa) = 35.55538 42.21360 38.88449
#
# Velocity S-wave (km/s) = 3.70831 4.04064 3.87804
# Velocity P-wave (km/s) = 5.86556 6.68159 6.28683
#
# Compressibility (1/GPa) = 0.02406852
#
# Stress axis : x y z
#
# Youngs Moduli (GPa) = 96.06372 97.89302 64.89855
#
# Poissons Ratio (x) = 0.12965 0.06017
# Poissons Ratio (y) = 0.12723 0.24214
# Poissons Ratio (z) = 0.08907 0.36524
#
# Static dielectric constant tensor:
#      x y z
#    x 1.976220 -0.017610 0.006510 
#    y -0.017610 2.025610 -0.047050 
#    z 0.006510 -0.047050 2.022890 
# 
# From -- ./inp_files/112380.got.cif
#   From: 2010.05.17/outbox.cif.g08.bks.cpg/sg2_57_cif.got.tgz:112380.got - 2010.06.03 11:33:40.
