data_PCOD9035860
_publ_section_title
;
Structure prediction by ZEFSAII (Michael W. Deem and Ramdas Pophale) SiO2 
 PCOD9035860
Probable space group: P -1
;
_chemical_formula_sum "Si O2"
_cell_formula_units_Z 16
_cell_length_a 10.485365
_cell_length_b 12.442277
_cell_length_c 5.289099
_cell_angle_alpha 105.823659
_cell_angle_beta 96.821377
_cell_angle_gamma 80.963499
_cell_volume 653.539820
_symmetry_space_group_name_H-M "P -1"
_symmetry_group_IT_number 2
_symmetry_cell_setting 'triclinic'
loop_
_space_group_symop_operation_xyz
x,y,z
-x,-y,-z
loop_
_atom_site_type_symbol
_atom_site_label
_atom_site_fract_x
_atom_site_fract_y
_atom_site_fract_z
Si Si1 0.925191 0.343587 0.412135
Si Si2 0.713718 0.175059 0.179582
Si Si3 0.510030 0.072145 0.794765
Si Si4 0.082415 0.023348 0.782157
Si Si5 0.461802 0.613607 0.812800
Si Si6 0.710846 0.540347 0.513730
Si Si7 0.915060 0.711688 0.073574
Si Si8 0.654447 0.703742 0.214440
O O1 0.830169 0.251071 0.257278
O O2 0.842790 0.462019 0.544494
O O3 0.009358 0.305673 0.653907
O O4 0.006971 0.347766 0.179521
O O5 0.594048 0.272924 0.286959
O O6 0.783318 0.062091 0.255743
O O7 0.645995 0.124741 0.887580
O O8 0.390131 0.169115 0.792184
O O9 0.500000 0.000000 0.500000
O O10 0.500000 0.000000 0.000000
O O11 0.104182 0.153589 0.886751
O O12 0.000000 0.000000 0.500000
O O13 0.000000 0.000000 0.000000
O O14 0.592179 0.548219 0.683807
O O15 0.347751 0.538626 0.766488
O O16 0.519061 0.654994 0.110818
O O17 0.708170 0.663813 0.474006
O O18 0.777749 0.664962 0.041629
#
# Coordination Sequence:
#
# PCOD9035860 Si02
#       8
#     2   2   2   2   2   2   2   2
#     4  11  26  46  71 105 139 192 237 293 350 420
#     4  10  22  46  74 102 141 184 235 297 347 427
#     4  11  27  46  70 106 143 188 234 294 361 421
#     4  12  23  44  70 102 140 188 236 287 348 419
#     4   9  22  46  71 106 137 182 239 295 359 419
#     4  10  23  46  74 101 138 183 245 292 355 422
#     4  12  26  45  68 104 148 185 241 289 353 424
#     4  11  26  43  72 100 147 183 234 297 357 421
#
# _framework density 24.482060000000001
#
# number of rings (size 3 to 8) (size 9 to 14) (size 15 to 20)
#    0.000    1.250    2.500    1.125    7.000    5.000 
#   11.250    0.000    0.000    0.000    0.000    0.000 
#    0.000    0.000    0.000    0.000    0.000    0.000 
#
# Total GULP energy -89248.854890 kJ/mol
# GULP energy per Si atom -5578.053431 kJ/mol
# Density = 2.442634 g / cm^3
# Si number density = 24.482060 Si / 1000 Ang^3
#
#
#
# Elastic Constant Matrix: (Units=GPa)
#
#
# Indices 1 2 3 4 5 6 
#
# 1 90.8148 27.5859 37.7658 -0.8705 22.4012 -8.8215
# 2 27.5859 114.0819 23.3238 -20.5886 12.3381 -27.4970
# 3 37.7658 23.3238 114.2612 -10.7379 9.4341 0.4145
# 4 -0.8705 -20.5886 -10.7379 38.1191 7.1107 6.7471
# 5 22.4012 12.3381 9.4341 7.1107 40.7668 6.8419
# 6 -8.8215 -27.4970 0.4145 6.7471 6.8419 45.3995
#
#
#
# Elastic Compliance Matrix: (Units=1/GPa)
#
#
# Indices 1 2 3 4 5 6 
#
# 1 0.015375 -0.001342 -0.004276 -0.000793 -0.007495 0.003461
# 2 -0.001342 0.012782 -0.001182 0.006204 -0.005173 0.007350
# 3 -0.004276 -0.001182 0.010647 0.002601 0.000134 -0.002051
# 4 -0.000793 0.006204 0.002601 0.031711 -0.007577 0.000009
# 5 -0.007495 -0.005173 0.000134 -0.007577 0.032919 -0.008426
# 6 0.003461 0.007350 -0.002051 0.000009 -0.008426 0.028438
#
#
# Mechanical properties :
#
#
# Convention : Reuss Voigt Hill
#
# Bulk Modulus (GPa) = 39.67505 55.16766 47.42136
# Shear Modulus (GPa) = 32.49423 40.22256 36.35840
#
# Velocity S-wave (km/s) = 3.64712 4.05772 3.85789
# Velocity P-wave (km/s) = 5.82892 6.67355 6.26548
#
# Compressibility (1/GPa) = 0.02520476
#
# Stress axis : x y z
#
# Youngs Moduli (GPa) = 65.04222 78.23215 93.92033
#
# Poissons Ratio (x) = 0.10496 0.40160
# Poissons Ratio (y) = 0.08726 0.11104
# Poissons Ratio (z) = 0.27812 0.09249
#
# Static dielectric constant tensor:
#      x y z
#    x 1.968150 0.044260 0.027080 
#    y 0.044260 2.036870 0.049030 
#    z 0.027080 0.049030 1.994050 
# 
# From -- ./inp_files/71418.got.cif
#   From: 2010.05.17/outbox.cif.g08.bks.cpg/sg2_36_cif.got.tgz:71418.got - 2010.06.03 11:33:40.
