data_PCOD9035077
_publ_section_title
;
Structure prediction by ZEFSAII (Michael W. Deem and Ramdas Pophale) SiO2 
 PCOD9035077
Probable space group: P -1
;
_chemical_formula_sum "Si O2"
_cell_formula_units_Z 14
_cell_length_a 11.306906
_cell_length_b 8.701674
_cell_length_c 9.146583
_cell_angle_alpha 60.631632
_cell_angle_beta 51.209912
_cell_angle_gamma 56.816935
_cell_volume 571.841768
_symmetry_space_group_name_H-M "P -1"
_symmetry_group_IT_number 2
_symmetry_cell_setting 'triclinic'
loop_
_space_group_symop_operation_xyz
x,y,z
-x,-y,-z
loop_
_atom_site_type_symbol
_atom_site_label
_atom_site_fract_x
_atom_site_fract_y
_atom_site_fract_z
Si Si1 0.634927 0.058215 0.454901
Si Si2 0.013192 0.649612 0.707315
Si Si3 0.835921 0.737716 0.080693
Si Si4 0.509153 0.813406 0.171994
Si Si5 0.174071 0.335037 0.414434
Si Si6 0.814033 0.110689 0.050104
Si Si7 0.276624 0.642687 0.278934
O O1 0.787146 0.862886 0.446650
O O2 0.500000 0.000000 0.500000
O O3 0.577860 0.132240 0.627007
O O4 0.701681 0.188604 0.241578
O O5 0.085713 0.425502 0.787160
O O6 0.140440 0.703309 0.484827
O O7 0.846332 0.701517 0.722467
O O8 0.970443 0.739894 0.857239
O O9 0.693483 0.694127 0.128508
O O10 0.758111 0.944614 0.107651
O O11 0.424193 0.697511 0.196204
O O12 0.500000 0.000000 0.000000
O O13 0.304574 0.425079 0.323052
O O14 0.000000 0.500000 0.500000
O O15 0.791769 0.254283 0.868456
O O16 0.000000 0.000000 0.000000
#
# Coordination Sequence:
#
# PCOD9035077 Si02
#       7
#     2   2   2   2   2   2   2
#     4  12  25  46  72 100 142 187 229 282 358 409
#     4  10  23  43  71 102 132 190 227 294 338 419
#     4  11  23  44  68  97 147 176 235 282 357 402
#     4  12  25  46  69 102 144 181 226 293 348 413
#     4  10  22  45  70  98 138 180 231 285 346 407
#     4  12  24  41  68 102 136 181 235 290 335 420
#     4  11  24  43  72 102 137 180 237 285 347 414
#
# _framework density 24.482296000000002
#
# number of rings (size 3 to 8) (size 9 to 14) (size 15 to 20)
#    0.000    0.857    2.857    5.143    2.000    1.143 
#    0.000    5.000    0.000    0.000    0.000    0.000 
#    0.000    0.000    0.000    0.000    0.000    0.000 
#
# Total GULP energy -78309.022589 kJ/mol
# GULP energy per Si atom -5593.501613 kJ/mol
# Density = 2.442657 g / cm^3
# Si number density = 24.482296 Si / 1000 Ang^3
#
#
#
# Elastic Constant Matrix: (Units=GPa)
#
#
# Indices 1 2 3 4 5 6 
#
# 1 121.6702 -10.9753 19.4755 -20.4786 -2.1320 2.0126
# 2 -10.9753 29.3404 11.1229 -9.3932 7.1284 -9.5888
# 3 19.4755 11.1229 179.4497 -3.0120 25.4860 -10.7442
# 4 -20.4786 -9.3932 -3.0120 23.9832 0.7515 -6.4520
# 5 -2.1320 7.1284 25.4860 0.7515 38.8657 -10.5751
# 6 2.0126 -9.5888 -10.7442 -6.4520 -10.5751 32.5999
#
#
#
# Elastic Compliance Matrix: (Units=1/GPa)
#
#
# Indices 1 2 3 4 5 6 
#
# 1 0.012297 0.012270 -0.001567 0.016665 0.000726 0.005867
# 2 0.012270 0.060981 -0.002576 0.040398 -0.003274 0.023264
# 3 -0.001567 -0.002576 0.006415 -0.001440 -0.003811 -0.000068
# 4 0.016665 0.040398 -0.001440 0.078540 -0.000017 0.025918
# 5 0.000726 -0.003274 -0.003811 -0.000017 0.030987 0.007785
# 6 0.005867 0.023264 -0.000068 0.025918 0.007785 0.044788
#
#
# Mechanical properties :
#
#
# Convention : Reuss Voigt Hill
#
# Bulk Modulus (GPa) = 10.42228 41.07852 25.75040
# Shear Modulus (GPa) = 20.02111 39.81224 29.91667
#
# Velocity S-wave (km/s) = 2.86279 4.03695 3.49946
# Velocity P-wave (km/s) = 3.89791 6.20843 5.18354
#
# Compressibility (1/GPa) = 0.09594826
#
# Stress axis : x y z
#
# Youngs Moduli (GPa) = 81.31891 16.39865 155.87586
#
# Poissons Ratio (x) = -0.20122 0.24430
# Poissons Ratio (y) = -0.99782 0.40148
# Poissons Ratio (z) = 0.12745 0.04224
#
# Static dielectric constant tensor:
#      x y z
#    x 2.005590 0.046700 -0.005760 
#    y 0.046700 1.928080 0.060260 
#    z -0.005760 0.060260 2.020610 
# 
# From -- ./inp_files/159374.got.cif
#   From: 2010.05.17/outbox.cif.g08.bks.cpg/sg2_80_cif.got.tgz:159374.got - 2010.06.03 11:33:40.
