data_PCOD9035868
_publ_section_title
;
Structure prediction by ZEFSAII (Michael W. Deem and Ramdas Pophale) SiO2 
 PCOD9035868
Probable space group: P -1
;
_chemical_formula_sum "Si O2"
_cell_formula_units_Z 16
_cell_length_a 9.699343
_cell_length_b 11.734769
_cell_length_c 8.731370
_cell_angle_alpha 65.387808
_cell_angle_beta 114.779760
_cell_angle_gamma 118.866549
_cell_volume 760.989571
_symmetry_space_group_name_H-M "P -1"
_symmetry_group_IT_number 2
_symmetry_cell_setting 'triclinic'
loop_
_space_group_symop_operation_xyz
x,y,z
-x,-y,-z
loop_
_atom_site_type_symbol
_atom_site_label
_atom_site_fract_x
_atom_site_fract_y
_atom_site_fract_z
Si Si1 0.520654 0.078407 0.627297
Si Si2 0.158689 0.592619 0.115909
Si Si3 0.323777 0.420058 0.152400
Si Si4 0.137987 0.676931 0.389136
Si Si5 0.967433 0.158870 0.530725
Si Si6 0.212312 0.148143 0.401461
Si Si7 0.676490 0.185360 0.173397
Si Si8 0.669138 0.425848 0.230779
O O1 0.701306 0.188718 0.648392
O O2 0.391368 0.151701 0.522973
O O3 0.500000 0.000000 0.500000
O O4 0.462211 0.964049 0.796237
O O5 0.280206 0.511616 0.206113
O O6 0.097960 0.605902 0.248154
O O7 0.253478 0.736132 0.995247
O O8 0.000000 0.500000 0.000000
O O9 0.221952 0.264468 0.223869
O O10 0.513699 0.439942 0.231794
O O11 0.281587 0.464268 0.942350
O O12 0.017134 0.735445 0.386425
O O13 0.196609 0.585452 0.583480
O O14 0.832676 0.176451 0.341782
O O15 0.126498 0.174115 0.499480
O O16 0.889282 0.000970 0.627711
O O17 0.615263 0.284848 0.189438
#
# Coordination Sequence:
#
# PCOD9035868 Si02
#       8
#     2   2   2   2   2   2   2   2
#     4  11  17  34  67  93 120 155 196 262 303 362
#     4  11  25  41  59  81 126 173 205 252 299 357
#     4  10  19  35  60  84 123 159 193 246 307 359
#     4  11  21  39  63  92 122 158 216 246 302 363
#     4   9  19  33  62  91 119 157 197 252 297 379
#     4  10  17  32  59  95 123 157 193 236 322 357
#     4   9  18  36  60  88 119 154 207 240 315 356
#     4   9  18  34  60  92 114 155 198 252 297 369
#
# _framework density 21.025255000000001
#
# number of rings (size 3 to 8) (size 9 to 14) (size 15 to 20)
#    0.000    2.000    5.000    0.750    0.000    1.000 
#    0.000   10.000    5.500   10.500    0.000    0.000 
#    0.000    0.000    0.000    0.000    0.000    0.000 
#
# Total GULP energy -89363.498738 kJ/mol
# GULP energy per Si atom -5585.218671 kJ/mol
# Density = 2.097740 g / cm^3
# Si number density = 21.025255 Si / 1000 Ang^3
#
#
#
# Elastic Constant Matrix: (Units=GPa)
#
#
# Indices 1 2 3 4 5 6 
#
# 1 118.3312 39.0911 12.3553 2.8185 -13.3277 -32.3961
# 2 39.0911 89.7808 68.8882 -20.0160 -10.1888 -20.3175
# 3 12.3553 68.8882 94.0142 -23.4831 -17.9074 -16.7402
# 4 2.8185 -20.0160 -23.4831 52.6750 -2.4242 -7.5275
# 5 -13.3277 -10.1888 -17.9074 -2.4242 20.2155 1.3421
# 6 -32.3961 -20.3175 -16.7402 -7.5275 1.3421 34.3456
#
#
#
# Elastic Compliance Matrix: (Units=1/GPa)
#
#
# Indices 1 2 3 4 5 6 
#
# 1 0.016567 -0.010413 0.012089 0.003489 0.015772 0.015508
# 2 -0.010413 0.034086 -0.025983 0.001125 -0.012461 -0.001588
# 3 0.012089 -0.025983 0.039421 0.010784 0.029996 0.016438
# 4 0.003489 0.001125 0.010784 0.026781 0.014668 0.014509
# 5 0.015772 -0.012461 0.029996 0.014668 0.080442 0.022197
# 6 0.015508 -0.001588 0.016438 0.014509 0.022197 0.053128
#
#
# Mechanical properties :
#
#
# Convention : Reuss Voigt Hill
#
# Bulk Modulus (GPa) = 24.11849 60.31060 42.21454
# Shear Modulus (GPa) = 15.98168 33.56667 24.77417
#
# Velocity S-wave (km/s) = 2.76002 3.99995 3.43637
# Velocity P-wave (km/s) = 4.65328 7.07671 5.98886
#
# Compressibility (1/GPa) = 0.04146197
#
# Stress axis : x y z
#
# Youngs Moduli (GPa) = 60.35929 29.33773 25.36730
#
# Poissons Ratio (x) = 0.30548 -0.30668
# Poissons Ratio (y) = 0.62849 0.65912
# Poissons Ratio (z) = -0.72971 0.76228
#
# Static dielectric constant tensor:
#      x y z
#    x 1.779070 0.024610 -0.010850 
#    y 0.024610 1.789430 -0.019690 
#    z -0.010850 -0.019690 1.756560 
# 
# From -- ./inp_files/176496.got.cif
#   From: 2010.05.17/outbox.cif.g08.bks.cpg/sg2_89_cif.got.tgz:176496.got - 2010.06.03 11:33:40.
