data_PCOD9035524
_publ_section_title
;
Structure prediction by ZEFSAII (Michael W. Deem and Ramdas Pophale) SiO2 
 PCOD9035524
Probable space group: P -1
;
_chemical_formula_sum "Si O2"
_cell_formula_units_Z 10
_cell_length_a 6.713862
_cell_length_b 7.081782
_cell_length_c 12.506848
_cell_angle_alpha 59.312656
_cell_angle_beta 95.747617
_cell_angle_gamma 132.478890
_cell_volume 348.004340
_symmetry_space_group_name_H-M "P -1"
_symmetry_group_IT_number 2
_symmetry_cell_setting 'triclinic'
loop_
_space_group_symop_operation_xyz
x,y,z
-x,-y,-z
loop_
_atom_site_type_symbol
_atom_site_label
_atom_site_fract_x
_atom_site_fract_y
_atom_site_fract_z
Si Si1 0.423682 0.690131 0.128748
Si Si2 0.833599 0.539995 0.336281
Si Si3 0.131247 0.924286 0.451903
Si Si4 0.777804 0.577096 0.093013
Si Si5 0.192156 0.866796 0.822684
O O1 0.569697 0.619543 0.082402
O O2 0.080173 0.364237 0.204135
O O3 0.547452 0.768337 0.233504
O O4 0.500000 0.000000 0.000000
O O5 0.915908 0.359276 0.425303
O O6 0.945692 0.704959 0.178734
O O7 0.967250 0.795628 0.364595
O O8 0.482091 0.244290 0.382021
O O9 0.000000 0.000000 0.500000
O O10 0.639043 0.224849 0.171118
O O11 0.002092 0.745692 0.957672
#
# Coordination Sequence:
#
# PCOD9035524 Si02
#       5
#     2   2   2   2   2
#     4  12  23  41  59  88 126 178 211 262 304 356
#     4  10  24  40  67  99 118 167 209 260 314 386
#     4  10  22  46  67  90 132 155 203 273 327 367
#     4  11  24  41  65  94 132 166 224 247 312 383
#     4  11  26  40  64  88 134 176 205 267 304 360
#
# _framework density 28.735274
#
# number of rings (size 3 to 8) (size 9 to 14) (size 15 to 20)
#    0.000    1.200    4.000    1.800    0.000    8.000 
#    0.000    0.000    0.000    0.000    0.000    0.000 
#    0.000    0.000    0.000    0.000    0.000    0.000 
#
# Total GULP energy -55943.165596 kJ/mol
# GULP energy per Si atom -5594.316560 kJ/mol
# Density = 2.866987 g / cm^3
# Si number density = 28.735274 Si / 1000 Ang^3
#
#
#
# Elastic Constant Matrix: (Units=GPa)
#
#
# Indices 1 2 3 4 5 6 
#
# 1 194.6382 107.2889 35.9810 20.5032 -0.1887 -13.3257
# 2 107.2889 267.3186 56.0367 45.0840 8.8583 -10.4248
# 3 35.9810 56.0367 96.1952 25.8308 3.9339 0.6900
# 4 20.5032 45.0840 25.8308 70.8807 -8.3332 17.1643
# 5 -0.1887 8.8583 3.9339 -8.3332 37.3765 8.4928
# 6 -13.3257 -10.4248 0.6900 17.1643 8.4928 84.9202
#
#
#
# Elastic Compliance Matrix: (Units=1/GPa)
#
#
# Indices 1 2 3 4 5 6 
#
# 1 0.006754 -0.002452 -0.001096 -0.000110 0.000539 0.000736
# 2 -0.002452 0.005633 -0.001529 -0.002825 -0.002065 0.001097
# 3 -0.001096 -0.001529 0.012766 -0.003704 -0.001921 0.000477
# 4 -0.000110 -0.002825 -0.003704 0.019223 0.006450 -0.004864
# 5 0.000539 -0.002065 -0.001921 0.006450 0.029898 -0.004447
# 6 0.000736 0.001097 0.000477 -0.004864 -0.004447 0.013450
#
#
# Mechanical properties :
#
#
# Convention : Reuss Voigt Hill
#
# Bulk Modulus (GPa) = 66.66890 106.30724 86.48807
# Shear Modulus (GPa) = 48.60142 62.55850 55.57996
#
# Velocity S-wave (km/s) = 4.11706 4.67096 4.40273
# Velocity P-wave (km/s) = 6.77139 8.13426 7.48391
#
# Compressibility (1/GPa) = 0.01499950
#
# Stress axis : x y z
#
# Youngs Moduli (GPa) = 148.05438 177.52346 78.33269
#
# Poissons Ratio (x) = 0.43524 0.08585
# Poissons Ratio (y) = 0.36299 0.11979
# Poissons Ratio (z) = 0.16227 0.27148
#
# Static dielectric constant tensor:
#      x y z
#    x 2.359680 0.111800 0.119550 
#    y 0.111800 2.289820 -0.006440 
#    z 0.119550 -0.006440 2.408500 
# 
# From -- ./inp_files/478141.got.cif
#   From: 2010.05.17/outbox.cif.g08.bks.cpg/sg2_240_cif.got.tgz:478141.got - 2010.06.03 11:33:40.
