data_PCOD9035653
_publ_section_title
;
Structure prediction by ZEFSAII (Michael W. Deem and Ramdas Pophale) SiO2 
 PCOD9035653
Probable space group: P -1
;
_chemical_formula_sum "Si O2"
_cell_formula_units_Z 16
_cell_length_a 8.813423
_cell_length_b 28.515668
_cell_length_c 21.103296
_cell_angle_alpha 18.072011
_cell_angle_beta 29.374163
_cell_angle_gamma 36.388273
_cell_volume 797.398348
_symmetry_space_group_name_H-M "P -1"
_symmetry_group_IT_number 2
_symmetry_cell_setting 'triclinic'
loop_
_space_group_symop_operation_xyz
x,y,z
-x,-y,-z
loop_
_atom_site_type_symbol
_atom_site_label
_atom_site_fract_x
_atom_site_fract_y
_atom_site_fract_z
Si Si1 0.588681 0.104086 0.031392
Si Si2 0.594127 0.288960 0.035697
Si Si3 0.687900 0.562365 0.554723
Si Si4 0.090963 0.447838 0.858736
Si Si5 0.300511 0.223245 0.612709
Si Si6 0.791336 0.636604 0.208540
Si Si7 0.705918 0.869790 0.765065
Si Si8 0.267693 0.488103 0.971233
O O1 0.552176 0.113407 0.108971
O O2 0.531402 0.925892 0.262549
O O3 0.353410 0.212649 0.951545
O O4 0.936364 0.172608 0.793248
O O5 0.450400 0.147750 0.225260
O O6 0.561301 0.433866 0.817234
O O7 0.389524 0.327254 0.120478
O O8 0.956541 0.313822 0.891897
O O9 0.430433 0.554285 0.604443
O O10 0.714721 0.716189 0.387477
O O11 0.000000 0.500000 0.500000
O O12 0.018644 0.422405 0.844085
O O13 0.153974 0.283506 0.072217
O O14 0.862660 0.505864 0.918005
O O15 0.472857 0.361904 0.329110
O O16 0.500000 0.500000 0.500000
O O17 0.000000 0.000000 0.500000
O O18 0.000000 0.500000 0.000000
#
# Coordination Sequence:
#
# PCOD9035653 Si02
#       8
#     2   2   2   2   2   2   2   2
#     4  10  22  35  57  87 115 155 199 242 304 351
#     4  10  21  33  56  85 112 151 194 238 298 348
#     4  10  17  32  59  84 106 143 199 247 284 339
#     4  10  20  33  55  86 107 150 199 240 293 346
#     4  10  19  34  59  88 115 148 195 257 293 340
#     4  11  22  39  57  83 125 160 194 242 299 364
#     4  10  19  35  59  82 113 152 201 250 285 348
#     4  11  18  35  60  89 112 144 202 256 294 344
#
# _framework density 20.065253999999999
#
# number of rings (size 3 to 8) (size 9 to 14) (size 15 to 20)
#    0.000    1.750    3.750    5.250    0.000    0.500 
#    0.000    2.500    0.000   15.000    0.000    0.000 
#    0.000    0.000    0.000    0.000    0.000    0.000 
#
# Total GULP energy -89133.256242 kJ/mol
# GULP energy per Si atom -5570.828515 kJ/mol
# Density = 2.001958 g / cm^3
# Si number density = 20.065254 Si / 1000 Ang^3
#
#
#
# Elastic Constant Matrix: (Units=GPa)
#
#
# Indices 1 2 3 4 5 6 
#
# 1 87.9718 27.7449 34.0793 -6.8740 -26.8921 8.7690
# 2 27.7449 136.9411 41.0898 -2.9350 -5.6190 21.7907
# 3 34.0793 41.0898 79.9565 2.2021 -23.2341 9.0318
# 4 -6.8740 -2.9350 2.2021 38.2516 3.7281 -1.6338
# 5 -26.8921 -5.6190 -23.2341 3.7281 25.2658 -0.5784
# 6 8.7690 21.7907 9.0318 -1.6338 -0.5784 25.9018
#
#
#
# Elastic Compliance Matrix: (Units=1/GPa)
#
#
# Indices 1 2 3 4 5 6 
#
# 1 0.018350 -0.002002 -0.001309 0.001350 0.017600 -0.003593
# 2 -0.002002 0.009997 -0.005022 0.000906 -0.004798 -0.006032
# 3 -0.001309 -0.005022 0.021070 -0.003632 0.017344 -0.002521
# 4 0.001350 0.000906 -0.003632 0.027289 -0.005690 0.001641
# 5 0.017600 -0.004798 0.017344 -0.005690 0.073881 -0.006679
# 6 -0.003593 -0.006032 -0.002521 0.001641 -0.006679 0.045731
#
#
# Mechanical properties :
#
#
# Convention : Reuss Voigt Hill
#
# Bulk Modulus (GPa) = 30.53367 56.74417 43.63892
# Shear Modulus (GPa) = 22.33119 31.34751 26.83935
#
# Velocity S-wave (km/s) = 3.33968 3.95685 3.66129
# Velocity P-wave (km/s) = 5.48830 7.01547 6.29834
#
# Compressibility (1/GPa) = 0.03275073
#
# Stress axis : x y z
#
# Youngs Moduli (GPa) = 54.49653 100.02741 47.46036
#
# Poissons Ratio (x) = 0.20026 0.06213
# Poissons Ratio (y) = 0.10910 0.23835
# Poissons Ratio (z) = 0.07135 0.50234
#
# Static dielectric constant tensor:
#      x y z
#    x 1.764280 0.056810 -0.044690 
#    y 0.056810 1.813130 0.027030 
#    z -0.044690 0.027030 1.755540 
# 
# From -- ./inp_files/255064.got.cif
#   From: 2010.05.17/outbox.cif.g08.bks.cpg/sg2_128_cif.got.tgz:255064.got - 2010.06.03 11:33:40.
