data_PCOD9035875
_publ_section_title
;
Structure prediction by ZEFSAII (Michael W. Deem and Ramdas Pophale) SiO2 
 PCOD9035875
Probable space group: P -1
;
_chemical_formula_sum "Si O2"
_cell_formula_units_Z 16
_cell_length_a 6.642554
_cell_length_b 25.433802
_cell_length_c 19.275538
_cell_angle_alpha 17.553998
_cell_angle_beta 46.182405
_cell_angle_gamma 42.452056
_cell_volume 661.954891
_symmetry_space_group_name_H-M "P -1"
_symmetry_group_IT_number 2
_symmetry_cell_setting 'triclinic'
loop_
_space_group_symop_operation_xyz
x,y,z
-x,-y,-z
loop_
_atom_site_type_symbol
_atom_site_label
_atom_site_fract_x
_atom_site_fract_y
_atom_site_fract_z
Si Si1 0.163363 0.111911 0.276299
Si Si2 0.410422 0.271056 0.335166
Si Si3 0.738837 0.521203 0.361109
Si Si4 0.874044 0.901732 0.211134
Si Si5 0.646730 0.531222 0.042154
Si Si6 0.832357 0.883514 0.884876
Si Si7 0.896137 0.165711 0.614098
Si Si8 0.680229 0.528236 0.199183
O O1 0.044645 0.135068 0.198084
O O2 0.490806 0.949284 0.400782
O O3 0.162102 0.307877 0.055416
O O4 0.000000 0.000000 0.500000
O O5 0.562191 0.360372 0.243720
O O6 0.047888 0.331620 0.356297
O O7 0.466314 0.323633 0.178011
O O8 0.500000 0.500000 0.500000
O O9 0.625837 0.577323 0.236980
O O10 0.999276 0.320730 0.545772
O O11 0.851830 0.682467 0.158594
O O12 0.017618 0.929746 0.214024
O O13 0.520818 0.994680 0.182498
O O14 0.000000 0.000000 0.000000
O O15 0.544436 0.566974 0.100988
O O16 0.000000 0.500000 0.000000
O O17 0.966195 0.012058 0.733507
O O18 0.586081 0.333296 0.475433
#
# Coordination Sequence:
#
# PCOD9035875 Si02
#       8
#     2   2   2   2   2   2   2   2
#     4  11  24  42  65  99 142 182 227 290 345 407
#     4  11  24  40  67  94 137 182 234 284 343 419
#     4  10  22  46  74 106 141 177 237 298 351 429
#     4  11  23  45  77  99 135 185 228 292 369 409
#     4  11  22  40  67  96 130 179 237 282 342 411
#     4  11  24  47  71 100 147 180 233 296 347 424
#     4  11  24  44  67 102 131 184 238 282 347 432
#     4  10  23  41  65  97 139 177 226 285 349 404
#
# _framework density 24.170832000000001
#
# number of rings (size 3 to 8) (size 9 to 14) (size 15 to 20)
#    0.000    1.250    3.750    1.500    3.500    1.000 
#    2.250    0.625    0.000    0.000    0.000    0.000 
#    0.000    0.000    0.000    0.000    0.000    0.000 
#
# Total GULP energy -89088.575049 kJ/mol
# GULP energy per Si atom -5568.035941 kJ/mol
# Density = 2.411582 g / cm^3
# Si number density = 24.170832 Si / 1000 Ang^3
#
#
#
# Elastic Constant Matrix: (Units=GPa)
#
#
# Indices 1 2 3 4 5 6 
#
# 1 122.2301 49.0993 53.6567 4.7792 -6.0055 38.1684
# 2 49.0993 107.6356 54.5021 16.2512 -6.0474 22.7547
# 3 53.6567 54.5021 166.5264 1.3187 -5.2630 29.0812
# 4 4.7792 16.2512 1.3187 63.6905 9.6454 1.1798
# 5 -6.0055 -6.0474 -5.2630 9.6454 36.0709 -8.3034
# 6 38.1684 22.7547 29.0812 1.1798 -8.3034 50.7442
#
#
#
# Elastic Compliance Matrix: (Units=1/GPa)
#
#
# Indices 1 2 3 4 5 6 
#
# 1 0.012424 -0.003389 -0.001699 0.000154 -0.000381 -0.006917
# 2 -0.003389 0.013190 -0.002910 -0.003299 0.001799 -0.001326
# 3 -0.001699 -0.002910 0.007834 0.000789 -0.000293 -0.001973
# 4 0.000154 -0.003299 0.000789 0.017295 -0.005112 -0.000327
# 5 -0.000381 0.001799 -0.000293 -0.005112 0.030376 0.004737
# 6 -0.006917 -0.001326 -0.001973 -0.000327 0.004737 0.027418
#
#
# Mechanical properties :
#
#
# Convention : Reuss Voigt Hill
#
# Bulk Modulus (GPa) = 57.30439 78.98983 68.14711
# Shear Modulus (GPa) = 38.35801 46.04338 42.20069
#
# Velocity S-wave (km/s) = 3.98798 4.36927 4.18297
# Velocity P-wave (km/s) = 6.70558 7.62920 7.18226
#
# Compressibility (1/GPa) = 0.01745067
#
# Stress axis : x y z
#
# Youngs Moduli (GPa) = 80.48984 75.81621 127.64799
#
# Poissons Ratio (x) = 0.25695 0.21689
# Poissons Ratio (y) = 0.27279 0.37148
# Poissons Ratio (z) = 0.13676 0.22064
#
# Static dielectric constant tensor:
#      x y z
#    x 2.199790 -0.230420 -0.033330 
#    y -0.230420 2.109800 -0.020180 
#    z -0.033330 -0.020180 1.952360 
# 
# From -- ./inp_files/122864.got.cif
#   From: 2010.05.17/outbox.cif.g08.bks.cpg/sg2_62_cif.got.tgz:122864.got - 2010.06.03 11:33:40.
