data_PCOD9035729
_publ_section_title
;
Structure prediction by ZEFSAII (Michael W. Deem and Ramdas Pophale) SiO2 
 PCOD9035729
Probable space group: P -1
;
_chemical_formula_sum "Si O2"
_cell_formula_units_Z 16
_cell_length_a 19.637820
_cell_length_b 9.158787
_cell_length_c 8.165493
_cell_angle_alpha 99.153435
_cell_angle_beta 53.812427
_cell_angle_gamma 56.056416
_cell_volume 672.067341
_symmetry_space_group_name_H-M "P -1"
_symmetry_group_IT_number 2
_symmetry_cell_setting 'triclinic'
loop_
_space_group_symop_operation_xyz
x,y,z
-x,-y,-z
loop_
_atom_site_type_symbol
_atom_site_label
_atom_site_fract_x
_atom_site_fract_y
_atom_site_fract_z
Si Si1 0.397567 0.509056 0.200149
Si Si2 0.898191 0.738716 0.963037
Si Si3 0.626489 0.746718 0.007334
Si Si4 0.158596 0.521306 0.037365
Si Si5 0.125177 0.091871 0.646581
Si Si6 0.615266 0.198379 0.283447
Si Si7 0.787148 0.778331 0.669847
Si Si8 0.401683 0.308906 0.482983
O O1 0.400818 0.376826 0.037209
O O2 0.426967 0.384306 0.308977
O O3 0.233954 0.807020 0.485935
O O4 0.500000 0.500000 0.000000
O O5 0.042078 0.515899 0.604335
O O6 0.836573 0.659621 0.046701
O O7 0.955729 0.730545 0.046225
O O8 0.751085 0.039794 0.179658
O O9 0.696058 0.759087 0.775026
O O10 0.747684 0.588331 0.951099
O O11 0.473967 0.045891 0.312369
O O12 0.234398 0.521927 0.800951
O O13 0.984769 0.798011 0.322501
O O14 0.212895 0.109675 0.461240
O O15 0.500000 0.500000 0.500000
O O16 0.497189 0.237688 0.485544
O O17 0.713107 0.983063 0.956784
#
# Coordination Sequence:
#
# PCOD9035729 Si02
#       8
#     2   2   2   2   2   2   2   2
#     4  12  28  48  69 104 144 184 238 302 371 421
#     4  11  23  43  74 102 149 189 244 291 349 440
#     4  11  25  45  75 101 138 190 242 293 352 435
#     4  11  24  44  71 105 139 183 246 289 353 429
#     4  11  27  44  71 108 147 188 237 299 357 422
#     4  11  23  42  70 108 142 188 238 301 362 416
#     4  10  22  46  71 106 136 193 245 284 355 429
#     4  11  25  45  70 100 140 191 238 290 354 435
#
# _framework density 23.807137999999998
#
# number of rings (size 3 to 8) (size 9 to 14) (size 15 to 20)
#    0.000    1.000    2.500    4.875    7.000    3.000 
#    2.250    0.000    0.000    0.000    0.000    0.000 
#    0.000    0.000    0.000    0.000    0.000    0.000 
#
# Total GULP energy -89256.215445 kJ/mol
# GULP energy per Si atom -5578.513465 kJ/mol
# Density = 2.375295 g / cm^3
# Si number density = 23.807138 Si / 1000 Ang^3
#
#
#
# Elastic Constant Matrix: (Units=GPa)
#
#
# Indices 1 2 3 4 5 6 
#
# 1 103.2520 43.9680 21.0568 9.8481 1.3624 17.4768
# 2 43.9680 115.3487 42.6504 25.3425 -3.0540 -3.2875
# 3 21.0568 42.6504 69.5307 12.8397 -8.4664 17.2203
# 4 9.8481 25.3425 12.8397 49.3118 3.5493 -8.3924
# 5 1.3624 -3.0540 -8.4664 3.5493 34.3641 5.0370
# 6 17.4768 -3.2875 17.2203 -8.3924 5.0370 43.1046
#
#
#
# Elastic Compliance Matrix: (Units=1/GPa)
#
#
# Indices 1 2 3 4 5 6 
#
# 1 0.012871 -0.005227 0.001178 -0.001306 0.000387 -0.006387
# 2 -0.005227 0.014629 -0.008473 -0.003139 -0.001157 0.006144
# 3 0.001178 -0.008473 0.024150 -0.004852 0.007497 -0.012593
# 4 -0.001306 -0.003139 -0.004852 0.025100 -0.005146 0.007717
# 5 0.000387 -0.001157 0.007497 -0.005146 0.032540 -0.008045
# 6 -0.006387 0.006144 -0.012593 0.007717 -0.008045 0.033731
#
#
# Mechanical properties :
#
#
# Convention : Reuss Voigt Hill
#
# Bulk Modulus (GPa) = 37.58389 55.94242 46.76315
# Shear Modulus (GPa) = 28.25918 37.38652 32.82285
#
# Velocity S-wave (km/s) = 3.44903 3.96712 3.71711
# Velocity P-wave (km/s) = 5.62869 6.67332 6.17314
#
# Compressibility (1/GPa) = 0.02660715
#
# Stress axis : x y z
#
# Youngs Moduli (GPa) = 77.69376 68.35817 41.40705
#
# Poissons Ratio (x) = 0.35729 -0.04879
# Poissons Ratio (y) = 0.40608 0.35086
# Poissons Ratio (z) = -0.09155 0.57922
#
# Static dielectric constant tensor:
#      x y z
#    x 1.929630 -0.086680 0.043480 
#    y -0.086680 1.958680 -0.041890 
#    z 0.043480 -0.041890 1.963600 
# 
# From -- ./inp_files/343623.got.cif
#   From: 2010.05.17/outbox.cif.g08.bks.cpg/sg2_172_cif.got.tgz:343623.got - 2010.06.03 11:33:40.
