data_PCOD9035933
_publ_section_title
;
Structure prediction by ZEFSAII (Michael W. Deem and Ramdas Pophale) SiO2 
 PCOD9035933
Probable space group: P -1
;
_chemical_formula_sum "Si O2"
_cell_formula_units_Z 10
_cell_length_a 8.373872
_cell_length_b 9.251118
_cell_length_c 5.212012
_cell_angle_alpha 92.644260
_cell_angle_beta 96.736861
_cell_angle_gamma 77.122745
_cell_volume 390.806684
_symmetry_space_group_name_H-M "P -1"
_symmetry_group_IT_number 2
_symmetry_cell_setting 'triclinic'
loop_
_space_group_symop_operation_xyz
x,y,z
-x,-y,-z
loop_
_atom_site_type_symbol
_atom_site_label
_atom_site_fract_x
_atom_site_fract_y
_atom_site_fract_z
Si Si1 0.000895 0.896678 0.736408
Si Si2 0.604663 0.584305 0.196895
Si Si3 0.131874 0.603947 0.469352
Si Si4 0.560159 0.907276 0.256823
Si Si5 0.863737 0.735983 0.064791
O O1 0.131360 0.745200 0.668227
O O2 0.243259 0.145429 0.750505
O O3 0.000000 0.000000 0.500000
O O4 0.857497 0.813487 0.796552
O O5 0.690156 0.500768 0.458238
O O6 0.505276 0.750921 0.247196
O O7 0.760054 0.609583 0.053610
O O8 0.500000 0.500000 0.000000
O O9 0.048268 0.679125 0.198610
O O10 0.000000 0.500000 0.500000
O O11 0.500000 0.000000 0.500000
O O12 0.500000 0.000000 0.000000
O O13 0.000000 0.000000 0.000000
#
# Coordination Sequence:
#
# PCOD9035933 Si02
#       5
#     2   2   2   2   2
#     4  12  25  46  75 118 153 197 261 322 385 453
#     4   9  22  47  76 113 154 207 252 316 390 468
#     4  10  22  46  76 111 154 198 256 321 388 458
#     4  10  24  45  75 107 156 206 252 309 387 463
#     4   9  23  44  79 108 157 196 263 312 391 441
#
# _framework density 25.588097999999999
#
# number of rings (size 3 to 8) (size 9 to 14) (size 15 to 20)
#    1.200    0.800    2.000    0.000    2.800    4.800 
#    3.600    1.000    0.000    0.000    0.000    0.000 
#    0.000    0.000    0.000    0.000    0.000    0.000 
#
# Total GULP energy -55759.806712 kJ/mol
# GULP energy per Si atom -5575.980671 kJ/mol
# Density = 2.552986 g / cm^3
# Si number density = 25.588098 Si / 1000 Ang^3
#
#
#
# Elastic Constant Matrix: (Units=GPa)
#
#
# Indices 1 2 3 4 5 6 
#
# 1 91.1139 52.9973 64.7868 1.1691 25.3244 -3.2792
# 2 52.9973 201.0488 91.6809 16.1283 22.3012 -31.6172
# 3 64.7868 91.6809 224.6275 -14.7759 9.6743 -18.7220
# 4 1.1691 16.1283 -14.7759 46.2958 -0.0694 -1.3097
# 5 25.3244 22.3012 9.6743 -0.0694 40.6982 4.1858
# 6 -3.2792 -31.6172 -18.7220 -1.3097 4.1858 42.2894
#
#
#
# Elastic Compliance Matrix: (Units=1/GPa)
#
#
# Indices 1 2 3 4 5 6 
#
# 1 0.017297 -0.001820 -0.004026 -0.001128 -0.008710 -0.000975
# 2 -0.001820 0.007940 -0.002387 -0.003347 -0.003165 0.004948
# 3 -0.004026 -0.002387 0.006766 0.003118 0.002130 0.000784
# 4 -0.001128 -0.003347 0.003118 0.023774 0.001903 -0.000661
# 5 -0.008710 -0.003165 0.002130 0.001903 0.031756 -0.005183
# 6 -0.000975 0.004948 0.000784 -0.000661 -0.005183 0.028110
#
#
# Mechanical properties :
#
#
# Convention : Reuss Voigt Hill
#
# Bulk Modulus (GPa) = 64.36577 103.96893 84.16735
# Shear Modulus (GPa) = 36.41942 46.34501 41.38221
#
# Velocity S-wave (km/s) = 3.77675 4.26043 4.02586
# Velocity P-wave (km/s) = 6.65039 8.05740 7.38747
#
# Compressibility (1/GPa) = 0.01553621
#
# Stress axis : x y z
#
# Youngs Moduli (GPa) = 57.81249 125.94420 147.79478
#
# Poissons Ratio (x) = 0.22924 0.59507
# Poissons Ratio (y) = 0.10523 0.35281
# Poissons Ratio (z) = 0.23277 0.30065
#
# Static dielectric constant tensor:
#      x y z
#    x 2.140590 0.027990 0.003920 
#    y 0.027990 2.150330 -0.023170 
#    z 0.003920 -0.023170 2.044390 
# 
# From -- ./inp_files/15854.got.cif
#   From: 2010.05.17/outbox.cif.g08.bks.cpg/sg2_8_cif.got.tgz:15854.got - 2010.06.03 11:33:40.
