data_PCOD9035686
_publ_section_title
;
Structure prediction by ZEFSAII (Michael W. Deem and Ramdas Pophale) SiO2 
 PCOD9035686
Probable space group: P -1
;
_chemical_formula_sum "Si O2"
_cell_formula_units_Z 13
_cell_length_a 7.910516
_cell_length_b 12.749671
_cell_length_c 9.616433
_cell_angle_alpha 36.912829
_cell_angle_beta 75.102272
_cell_angle_gamma 80.242325
_cell_volume 561.840052
_symmetry_space_group_name_H-M "P -1"
_symmetry_group_IT_number 2
_symmetry_cell_setting 'triclinic'
loop_
_space_group_symop_operation_xyz
x,y,z
-x,-y,-z
loop_
_atom_site_type_symbol
_atom_site_label
_atom_site_fract_x
_atom_site_fract_y
_atom_site_fract_z
Si Si1 0.102123 0.489814 0.632140
Si Si2 0.000000 0.000000 0.500000
Si Si3 0.911256 0.625893 0.782640
Si Si4 0.705862 0.165125 0.848279
Si Si5 0.393835 0.204823 0.255933
Si Si6 0.292797 0.139760 0.038490
Si Si7 0.748036 0.109591 0.208629
O O1 0.251216 0.645746 0.425449
O O2 0.192525 0.311241 0.838844
O O3 0.000000 0.500000 0.500000
O O4 0.958945 0.550680 0.705498
O O5 0.093712 0.882126 0.727178
O O6 0.982199 0.826060 0.581738
O O7 0.707432 0.628079 0.862089
O O8 0.000000 0.500000 0.000000
O O9 0.499729 0.156836 0.939469
O O10 0.795196 0.129422 0.016608
O O11 0.763285 0.024041 0.873211
O O12 0.594700 0.238404 0.139018
O O13 0.362471 0.073578 0.532234
O O14 0.286601 0.115503 0.236293
#
# Coordination Sequence:
#
# PCOD9035686 Si02
#       7
#     2   1   2   2   2   2   2
#     4  12  28  41  64 102 138 178 219 275 334 404
#     4  10  24  40  68  96 126 170 220 272 332 388
#     4  11  24  43  64  92 133 175 223 272 325 392
#     4  10  24  44  70  96 134 180 223 273 340 395
#     4   9  19  41  66  95 128 166 226 270 329 389
#     4  10  22  46  70  95 132 178 226 280 328 400
#     4   9  20  39  68  97 126 168 218 278 326 396
#
# _framework density 23.138258
#
# number of rings (size 3 to 8) (size 9 to 14) (size 15 to 20)
#    0.000    1.846    1.538    0.462   10.769    0.615 
#    0.000    2.308    0.000    0.000    0.000    0.000 
#    0.000    0.000    0.000    0.000    0.000    0.000 
#
# Total GULP energy -72410.496478 kJ/mol
# GULP energy per Si atom -5570.038191 kJ/mol
# Density = 2.308559 g / cm^3
# Si number density = 23.138258 Si / 1000 Ang^3
#
#
#
# Elastic Constant Matrix: (Units=GPa)
#
#
# Indices 1 2 3 4 5 6 
#
# 1 81.5670 50.8538 29.7263 4.8273 34.9017 -7.3605
# 2 50.8538 182.2844 74.2322 7.9155 26.2881 -23.0535
# 3 29.7263 74.2322 115.5622 2.7553 19.6232 -10.6152
# 4 4.8273 7.9155 2.7553 45.1491 -0.6237 2.1383
# 5 34.9017 26.2881 19.6232 -0.6237 37.2758 -1.0779
# 6 -7.3605 -23.0535 -10.6152 2.1383 -1.0779 31.3582
#
#
#
# Elastic Compliance Matrix: (Units=1/GPa)
#
#
# Indices 1 2 3 4 5 6 
#
# 1 0.022754 -0.003046 -0.000405 -0.002252 -0.018910 0.002468
# 2 -0.003046 0.008832 -0.004288 -0.001182 -0.001013 0.004373
# 3 -0.000405 -0.004288 0.012079 -0.000018 -0.002934 0.000742
# 4 -0.002252 -0.001182 -0.000018 0.022778 0.003251 -0.002845
# 5 -0.018910 -0.001013 -0.002934 0.003251 0.046707 -0.004793
# 6 0.002468 0.004373 0.000742 -0.002845 -0.004793 0.035964
#
#
# Mechanical properties :
#
#
# Convention : Reuss Voigt Hill
#
# Bulk Modulus (GPa) = 35.47784 76.55978 56.01881
# Shear Modulus (GPa) = 28.73774 37.73006 33.23390
#
# Velocity S-wave (km/s) = 3.52803 4.04249 3.79399
# Velocity P-wave (km/s) = 5.65351 7.41275 6.59208
#
# Compressibility (1/GPa) = 0.02818661
#
# Stress axis : x y z
#
# Youngs Moduli (GPa) = 43.94886 113.21972 82.78908
#
# Poissons Ratio (x) = 0.34486 0.03353
# Poissons Ratio (y) = 0.13386 0.35502
# Poissons Ratio (z) = 0.01780 0.48551
#
# Static dielectric constant tensor:
#      x y z
#    x 1.739250 0.089220 0.079110 
#    y 0.089220 1.843310 -0.053090 
#    z 0.079110 -0.053090 1.786250 
# 
# From -- ./inp_files/183737.got.cif
#   From: 2010.05.17/outbox.cif.g08.bks.cpg/sg2_92_cif.got.tgz:183737.got - 2010.06.03 11:33:40.
