data_PCOD9035259
_publ_section_title
;
Structure prediction by ZEFSAII (Michael W. Deem and Ramdas Pophale) SiO2 
 PCOD9035259
Probable space group: P -1
;
_chemical_formula_sum "Si O2"
_cell_formula_units_Z 14
_cell_length_a 7.425705
_cell_length_b 5.562367
_cell_length_c 18.806689
_cell_angle_alpha 63.667135
_cell_angle_beta 54.758225
_cell_angle_gamma 72.404171
_cell_volume 567.457946
_symmetry_space_group_name_H-M "P -1"
_symmetry_group_IT_number 2
_symmetry_cell_setting 'triclinic'
loop_
_space_group_symop_operation_xyz
x,y,z
-x,-y,-z
loop_
_atom_site_type_symbol
_atom_site_label
_atom_site_fract_x
_atom_site_fract_y
_atom_site_fract_z
Si Si1 0.655661 0.923791 0.541495
Si Si2 0.896402 0.038841 0.708095
Si Si3 0.432206 0.374915 0.107412
Si Si4 0.045686 0.757634 0.190686
Si Si5 0.285738 0.627341 0.679906
Si Si6 0.278756 0.638742 0.428447
Si Si7 0.081567 0.799231 0.942922
O O1 0.767608 0.165474 0.520893
O O2 0.500000 0.000000 0.500000
O O3 0.471114 0.800070 0.653113
O O4 0.807956 0.661141 0.519089
O O5 0.997471 0.235325 0.716426
O O6 0.769096 0.194175 0.654077
O O7 0.732503 0.864615 0.814750
O O8 0.096970 0.834590 0.663403
O O9 0.289866 0.622955 0.142906
O O10 0.655982 0.254128 0.107322
O O11 0.500000 0.500000 0.000000
O O12 0.865358 0.575638 0.218560
O O13 0.006913 0.046108 0.126887
O O14 0.455835 0.445362 0.616570
O O15 0.000000 0.500000 0.000000
O O16 0.000000 0.000000 0.000000
#
# Coordination Sequence:
#
# PCOD9035259 Si02
#       7
#     2   2   2   2   2   2   2
#     4  10  22  45  73 100 138 176 216 272 334 397
#     4  11  24  41  67  98 133 176 228 275 330 401
#     4  11  24  42  65  93 130 177 227 283 334 389
#     4  11  24  42  66  94 134 176 226 282 337 395
#     4   9  23  39  70  94 137 168 225 263 339 385
#     4  10  23  42  70  98 136 173 223 265 333 394
#     4  12  27  44  65  92 129 171 225 277 341 392
#
# _framework density 24.671430999999998
#
# number of rings (size 3 to 8) (size 9 to 14) (size 15 to 20)
#    0.857    0.571    1.429    3.000    8.000    2.286 
#    0.000    1.429    0.000    0.000    0.000    0.000 
#    0.000    0.000    0.000    0.000    0.000    0.000 
#
# Total GULP energy -78136.730965 kJ/mol
# GULP energy per Si atom -5581.195069 kJ/mol
# Density = 2.461528 g / cm^3
# Si number density = 24.671431 Si / 1000 Ang^3
#
#
#
# Elastic Constant Matrix: (Units=GPa)
#
#
# Indices 1 2 3 4 5 6 
#
# 1 104.9883 62.3885 38.1818 2.3299 1.6697 -10.7860
# 2 62.3885 192.8679 47.1136 -9.7098 11.9152 -12.5858
# 3 38.1818 47.1136 85.3444 -4.9324 9.0933 -0.0343
# 4 2.3299 -9.7098 -4.9324 41.7596 -6.8554 -1.0106
# 5 1.6697 11.9152 9.0933 -6.8554 50.6883 1.0288
# 6 -10.7860 -12.5858 -0.0343 -1.0106 1.0288 55.0069
#
#
#
# Elastic Compliance Matrix: (Units=1/GPa)
#
#
# Indices 1 2 3 4 5 6 
#
# 1 0.013242 -0.003253 -0.004321 -0.001827 0.000820 0.001801
# 2 -0.003253 0.006973 -0.002209 0.001408 -0.000966 0.001000
# 3 -0.004321 -0.002209 0.015136 0.001177 -0.001868 -0.001287
# 4 -0.001827 0.001408 0.001177 0.024999 0.002892 0.000370
# 5 0.000820 -0.000966 -0.001868 0.002892 0.020663 -0.000395
# 6 0.001801 0.001000 -0.001287 0.000370 -0.000395 0.018775
#
#
# Mechanical properties :
#
#
# Convention : Reuss Voigt Hill
#
# Bulk Modulus (GPa) = 63.35110 75.39650 69.37380
# Shear Modulus (GPa) = 40.12384 45.19206 42.65795
#
# Velocity S-wave (km/s) = 4.03715 4.28455 4.16269
# Velocity P-wave (km/s) = 6.88949 7.42314 7.16129
#
# Compressibility (1/GPa) = 0.01578504
#
# Stress axis : x y z
#
# Youngs Moduli (GPa) = 75.51826 143.41772 66.06624
#
# Poissons Ratio (x) = 0.46656 0.28544
# Poissons Ratio (y) = 0.24567 0.14595
# Poissons Ratio (z) = 0.32628 0.31683
#
# Static dielectric constant tensor:
#      x y z
#    x 1.822700 0.070940 -0.012440 
#    y 0.070940 2.003820 -0.019990 
#    z -0.012440 -0.019990 2.051830 
# 
# From -- ./inp_files/584792.got.cif
#   From: 2010.05.17/outbox.cif.g08.bks.cpg/sg2_293_cif.got.tgz:584792.got - 2010.06.03 11:33:40.
