data_PCOD9035136
_publ_section_title
;
Structure prediction by ZEFSAII (Michael W. Deem and Ramdas Pophale) SiO2 
 PCOD9035136
Probable space group: P -1
;
_chemical_formula_sum "Si O2"
_cell_formula_units_Z 15
_cell_length_a 19.957868
_cell_length_b 10.002726
_cell_length_c 9.650856
_cell_angle_alpha 150.392076
_cell_angle_beta 138.908641
_cell_angle_gamma 39.555251
_cell_volume 584.530565
_symmetry_space_group_name_H-M "P -1"
_symmetry_group_IT_number 2
_symmetry_cell_setting 'triclinic'
loop_
_space_group_symop_operation_xyz
x,y,z
-x,-y,-z
loop_
_atom_site_type_symbol
_atom_site_label
_atom_site_fract_x
_atom_site_fract_y
_atom_site_fract_z
Si Si1 0.651834 0.375343 0.151395
Si Si2 0.413437 0.978457 0.048896
Si Si3 0.002744 0.845102 0.198480
Si Si4 0.278372 0.927653 0.295487
Si Si5 0.357425 0.299378 0.971008
Si Si6 0.500000 0.000000 0.500000
Si Si7 0.026101 0.259026 0.213005
Si Si8 0.125354 0.564761 0.387316
O O1 0.649149 0.203419 0.132449
O O2 0.756471 0.472934 0.409388
O O3 0.556505 0.672950 0.234967
O O4 0.661007 0.154184 0.834792
O O5 0.351412 0.209713 0.041118
O O6 0.516144 0.762353 0.927395
O O7 0.451508 0.114318 0.365359
O O8 0.953637 0.190469 0.410129
O O9 0.905631 0.233562 0.615184
O O10 0.047781 0.664475 0.968763
O O11 0.908421 0.706177 0.956871
O O12 0.325268 0.089567 0.626534
O O13 0.154003 0.135820 0.262119
O O14 0.287919 0.624556 0.108030
O O15 0.000000 0.500000 0.500000
O O16 0.000000 0.000000 0.000000
#
# Coordination Sequence:
#
# PCOD9035136 Si02
#       8
#     2   2   2   2   2   1   2   2
#     4  12  27  45  79 112 155 203 267 312 379 455
#     4  11  27  47  75 111 157 200 254 323 371 450
#     4  10  22  45  71 107 138 189 241 313 367 448
#     4  12  27  50  78 110 150 208 255 312 383 470
#     4  11  28  49  77 108 159 204 251 309 391 453
#     4  12  26  46  72 118 148 200 256 324 358 450
#     4  12  26  46  76 107 147 193 248 313 382 456
#     4  10  23  43  75 101 144 187 247 304 380 433
#
# _framework density 25.661617
#
# number of rings (size 3 to 8) (size 9 to 14) (size 15 to 20)
#    0.000    0.800    2.667    2.800    7.467    2.133 
#    2.400    0.000    0.000    0.000    0.000    0.000 
#    0.000    0.000    0.000    0.000    0.000    0.000 
#
# Total GULP energy -83668.578392 kJ/mol
# GULP energy per Si atom -5577.905226 kJ/mol
# Density = 2.560321 g / cm^3
# Si number density = 25.661617 Si / 1000 Ang^3
#
#
#
# Elastic Constant Matrix: (Units=GPa)
#
#
# Indices 1 2 3 4 5 6 
#
# 1 62.6101 42.5564 22.2294 -1.6677 -13.5483 25.4199
# 2 42.5564 138.1049 41.8833 -13.1006 -18.0104 27.3148
# 3 22.2294 41.8833 173.8882 4.9056 -12.1307 7.0625
# 4 -1.6677 -13.1006 4.9056 45.8061 1.7833 -5.9447
# 5 -13.5483 -18.0104 -12.1307 1.7833 43.2424 2.2285
# 6 25.4199 27.3148 7.0625 -5.9447 2.2285 48.2414
#
#
#
# Elastic Compliance Matrix: (Units=1/GPa)
#
#
# Indices 1 2 3 4 5 6 
#
# 1 0.025362 -0.004618 -0.001181 -0.001960 0.006345 -0.011111
# 2 -0.004618 0.010310 -0.001673 0.002480 0.002428 -0.002966
# 3 -0.001181 -0.001673 0.006371 -0.001173 0.000745 0.000458
# 4 -0.001960 0.002480 -0.001173 0.022981 -0.000996 0.002678
# 5 0.006345 0.002428 0.000745 -0.000996 0.026694 -0.006183
# 6 -0.011111 -0.002966 0.000458 0.002678 -0.006183 0.028812
#
#
# Mechanical properties :
#
#
# Convention : Reuss Voigt Hill
#
# Bulk Modulus (GPa) = 36.90103 65.32682 51.11392
# Shear Modulus (GPa) = 34.60067 45.32025 39.96046
#
# Velocity S-wave (km/s) = 3.67596 4.20702 3.95043
# Velocity P-wave (km/s) = 5.69456 7.00793 6.38510
#
# Compressibility (1/GPa) = 0.02709952
#
# Stress axis : x y z
#
# Youngs Moduli (GPa) = 39.42938 96.99507 156.95534
#
# Poissons Ratio (x) = 0.44792 0.18531
# Poissons Ratio (y) = 0.18208 0.26259
# Poissons Ratio (z) = 0.04655 0.16227
#
# Static dielectric constant tensor:
#      x y z
#    x 2.335860 -0.020120 -0.057460 
#    y -0.020120 2.029750 0.051630 
#    z -0.057460 0.051630 1.909780 
# 
# From -- ./inp_files/351938.got.cif
#   From: 2010.05.17/outbox.cif.g08.bks.cpg/sg2_176_cif.got.tgz:351938.got - 2010.06.03 11:33:40.
