data_PCOD9035438
_publ_section_title
;
Structure prediction by ZEFSAII (Michael W. Deem and Ramdas Pophale) SiO2 
 PCOD9035438
Probable space group: P -1
;
_chemical_formula_sum "Si O2"
_cell_formula_units_Z 13
_cell_length_a 10.070174
_cell_length_b 8.245408
_cell_length_c 6.869945
_cell_angle_alpha 79.890947
_cell_angle_beta 70.522791
_cell_angle_gamma 64.913048
_cell_volume 486.665106
_symmetry_space_group_name_H-M "P -1"
_symmetry_group_IT_number 2
_symmetry_cell_setting 'triclinic'
loop_
_space_group_symop_operation_xyz
x,y,z
-x,-y,-z
loop_
_atom_site_type_symbol
_atom_site_label
_atom_site_fract_x
_atom_site_fract_y
_atom_site_fract_z
Si Si1 0.595369 0.210316 0.112352
Si Si2 0.899093 0.903755 0.394597
Si Si3 0.000000 0.500000 0.000000
Si Si4 0.123181 0.534854 0.252747
Si Si5 0.631375 0.562089 0.161389
Si Si6 0.902995 0.913869 0.852364
Si Si7 0.345890 0.247819 0.495280
O O1 0.610833 0.375615 0.189562
O O2 0.496122 0.139930 0.316072
O O3 0.491603 0.301976 0.954080
O O4 0.753755 0.066460 0.987224
O O5 0.869967 0.925286 0.634373
O O6 0.758365 0.862704 0.396752
O O7 0.059424 0.732871 0.319550
O O8 0.938209 0.055103 0.235746
O O9 0.021142 0.503670 0.737553
O O10 0.932478 0.727080 0.979755
O O11 0.249652 0.402486 0.354174
O O12 0.195211 0.492888 0.002381
O O13 0.620493 0.657445 0.351487
#
# Coordination Sequence:
#
# PCOD9035438 Si02
#       7
#     2   2   1   2   2   2   2
#     4  10  23  49  75 120 164 216 268 336 396 507
#     4  11  24  48  77 121 162 211 268 348 394 491
#     4  12  26  48  80 114 160 228 256 348 402 480
#     4  11  23  44  75 117 157 207 268 325 408 473
#     4  10  22  45  80 116 166 214 264 332 416 480
#     4  11  26  50  80 117 168 209 279 331 412 481
#     4  11  23  43  83 119 163 213 269 334 413 484
#
# _framework density 26.712415
#
# number of rings (size 3 to 8) (size 9 to 14) (size 15 to 20)
#    0.000    1.231    3.077    1.846    2.154    1.231 
#    2.769    0.769    0.000    0.923    0.000    0.000 
#    0.000    0.000    0.000    0.000    0.000    0.000 
#
# Total GULP energy -72662.854418 kJ/mol
# GULP energy per Si atom -5589.450340 kJ/mol
# Density = 2.665162 g / cm^3
# Si number density = 26.712415 Si / 1000 Ang^3
#
#
#
# Elastic Constant Matrix: (Units=GPa)
#
#
# Indices 1 2 3 4 5 6 
#
# 1 163.0598 77.6875 86.3520 1.5612 -1.9698 7.3929
# 2 77.6875 148.0057 72.4812 4.3256 -2.2375 -20.4479
# 3 86.3520 72.4812 183.4805 27.9852 3.8568 -11.7813
# 4 1.5612 4.3256 27.9852 44.5981 3.1784 -0.2544
# 5 -1.9698 -2.2375 3.8568 3.1784 62.8085 -10.0402
# 6 7.3929 -20.4479 -11.7813 -0.2544 -10.0402 40.8392
#
#
#
# Elastic Compliance Matrix: (Units=1/GPa)
#
#
# Indices 1 2 3 4 5 6 
#
# 1 0.010540 -0.004435 -0.003929 0.002537 -0.000576 -0.005388
# 2 -0.004435 0.010846 -0.001872 0.000219 0.001313 0.006018
# 3 -0.003929 -0.001872 0.008999 -0.005307 -0.000104 0.002311
# 4 0.002537 0.000219 -0.005307 0.025717 -0.001211 -0.002018
# 5 -0.000576 0.001313 -0.000104 -0.001211 0.016794 0.004853
# 6 -0.005388 0.006018 0.002311 -0.002018 0.004853 0.030322
#
#
# Mechanical properties :
#
#
# Convention : Reuss Voigt Hill
#
# Bulk Modulus (GPa) = 100.88414 107.50971 104.19693
# Shear Modulus (GPa) = 39.37228 46.85085 43.11156
#
# Velocity S-wave (km/s) = 3.84335 4.19250 4.02171
# Velocity P-wave (km/s) = 7.58577 7.98565 7.78827
#
# Compressibility (1/GPa) = 0.00991236
#
# Stress axis : x y z
#
# Youngs Moduli (GPa) = 94.88084 92.19990 111.12725
#
# Poissons Ratio (x) = 0.40893 0.43661
# Poissons Ratio (y) = 0.42082 0.20800
# Poissons Ratio (z) = 0.37278 0.17257
#
# Static dielectric constant tensor:
#      x y z
#    x 2.382170 -0.011140 0.033000 
#    y -0.011140 2.093690 0.033080 
#    z 0.033000 0.033080 2.198490 
# 
# From -- ./inp_files/63749.got.cif
#   From: 2010.05.17/outbox.cif.g08.bks.cpg/sg2_32_cif.got.tgz:63749.got - 2010.06.03 11:33:40.
