data_PCOD9035468
_publ_section_title
;
Structure prediction by ZEFSAII (Michael W. Deem and Ramdas Pophale) SiO2 
 PCOD9035468
Probable space group: P -1
;
_chemical_formula_sum "Si O2"
_cell_formula_units_Z 16
_cell_length_a 20.642116
_cell_length_b 11.608467
_cell_length_c 17.821448
_cell_angle_alpha 42.208805
_cell_angle_beta 159.514563
_cell_angle_gamma 149.388914
_cell_volume 707.726221
_symmetry_space_group_name_H-M "P -1"
_symmetry_group_IT_number 2
_symmetry_cell_setting 'triclinic'
loop_
_space_group_symop_operation_xyz
x,y,z
-x,-y,-z
loop_
_atom_site_type_symbol
_atom_site_label
_atom_site_fract_x
_atom_site_fract_y
_atom_site_fract_z
Si Si1 0.711058 0.764604 0.695177
Si Si2 0.298891 0.859033 0.779273
Si Si3 0.608249 0.439790 0.041871
Si Si4 0.386997 0.213836 0.589662
Si Si5 0.248445 0.967821 0.157193
Si Si6 0.316138 0.657862 0.438050
Si Si7 0.134300 0.269622 0.529237
Si Si8 0.188642 0.101757 0.875998
O O1 0.607617 0.501299 0.702943
O O2 0.648197 0.821362 0.521495
O O3 0.544296 0.741168 0.590692
O O4 0.024196 0.949572 0.953690
O O5 0.021236 0.745501 0.563821
O O6 0.406584 0.053650 0.736282
O O7 0.265944 0.643720 0.818470
O O8 0.500000 0.000000 0.000000
O O9 0.437290 0.431810 0.799410
O O10 0.390251 0.230555 0.965072
O O11 0.786002 0.692472 0.157004
O O12 0.112885 0.118288 0.366090
O O13 0.175389 0.725011 0.214504
O O14 0.529795 0.178404 0.399346
O O15 0.260432 0.012925 0.060530
O O16 0.124115 0.384838 0.390680
O O17 0.000000 0.000000 0.500000
#
# Coordination Sequence:
#
# PCOD9035468 Si02
#       8
#     2   2   2   2   2   2   2   2
#     4  10  23  43  67  90 132 172 210 276 322 386
#     4  12  26  41  68 101 127 173 222 273 332 392
#     4  11  24  42  68  94 135 177 216 277 326 398
#     4  10  23  44  63  97 129 166 224 265 328 394
#     4  10  23  43  65  99 128 171 222 267 320 400
#     4  11  24  41  68  97 129 174 218 267 327 390
#     4  12  24  44  67  99 137 169 219 277 330 390
#     4  10  22  46  65  93 138 176 217 271 338 380
#
# _framework density 22.607613000000001
#
# number of rings (size 3 to 8) (size 9 to 14) (size 15 to 20)
#    0.000    1.250    3.750    1.125    3.500    0.500 
#    9.000    1.875    0.000    0.000    0.000    0.000 
#    0.000    0.000    0.000    0.000    0.000    0.000 
#
# Total GULP energy -89489.667857 kJ/mol
# GULP energy per Si atom -5593.104241 kJ/mol
# Density = 2.255616 g / cm^3
# Si number density = 22.607613 Si / 1000 Ang^3
#
#
#
# Elastic Constant Matrix: (Units=GPa)
#
#
# Indices 1 2 3 4 5 6 
#
# 1 70.2024 34.9384 10.2649 -25.0789 10.4503 6.0643
# 2 34.9384 95.9313 22.9729 -27.2415 -6.6258 22.1585
# 3 10.2649 22.9729 64.8196 -16.0632 -2.7779 1.1871
# 4 -25.0789 -27.2415 -16.0632 48.3579 6.8159 -6.6448
# 5 10.4503 -6.6258 -2.7779 6.8159 34.4780 -10.4306
# 6 6.0643 22.1585 1.1871 -6.6448 -10.4306 42.8849
#
#
#
# Elastic Compliance Matrix: (Units=1/GPa)
#
#
# Indices 1 2 3 4 5 6 
#
# 1 0.022110 -0.005917 0.000562 0.009588 -0.010001 -0.001032
# 2 -0.005917 0.016086 -0.003665 0.003630 0.001955 -0.006335
# 3 0.000562 -0.003665 0.017689 0.004343 0.000320 0.002075
# 4 0.009588 0.003630 0.004343 0.030183 -0.008014 -0.000624
# 5 -0.010001 0.001955 0.000320 -0.008014 0.036447 0.008018
# 6 -0.001032 -0.006335 0.002075 -0.000624 0.008018 0.028534
#
#
# Mechanical properties :
#
#
# Convention : Reuss Voigt Hill
#
# Bulk Modulus (GPa) = 26.42304 40.81172 33.61738
# Shear Modulus (GPa) = 27.51749 35.99596 31.75673
#
# Velocity S-wave (km/s) = 3.49259 3.99457 3.75199
# Velocity P-wave (km/s) = 5.28936 6.27430 5.80277
#
# Compressibility (1/GPa) = 0.03784576
#
# Stress axis : x y z
#
# Youngs Moduli (GPa) = 45.22828 62.16677 56.53167
#
# Poissons Ratio (x) = 0.36783 -0.03177
# Poissons Ratio (y) = 0.26761 0.20717
# Poissons Ratio (z) = -0.02542 0.22782
#
# Static dielectric constant tensor:
#      x y z
#    x 1.825730 0.006630 -0.024690 
#    y 0.006630 1.873140 0.007390 
#    z -0.024690 0.007390 1.838670 
# 
# From -- ./inp_files/278896.got.cif
#   From: 2010.05.17/outbox.cif.g08.bks.cpg/sg2_140_cif.got.tgz:278896.got - 2010.06.03 11:33:40.
