data_PCOD9035325
_publ_section_title
;
Structure prediction by ZEFSAII (Michael W. Deem and Ramdas Pophale) SiO2 
 PCOD9035325
Probable space group: P -1
;
_chemical_formula_sum "Si O2"
_cell_formula_units_Z 14
_cell_length_a 13.577185
_cell_length_b 5.320794
_cell_length_c 8.324389
_cell_angle_alpha 95.194868
_cell_angle_beta 91.276270
_cell_angle_gamma 58.551892
_cell_volume 510.704885
_symmetry_space_group_name_H-M "P -1"
_symmetry_group_IT_number 2
_symmetry_cell_setting 'triclinic'
loop_
_space_group_symop_operation_xyz
x,y,z
-x,-y,-z
loop_
_atom_site_type_symbol
_atom_site_label
_atom_site_fract_x
_atom_site_fract_y
_atom_site_fract_z
Si Si1 0.125371 0.129023 0.605510
Si Si2 0.241040 0.646060 0.820011
Si Si3 0.413116 0.811347 0.933731
Si Si4 0.036244 0.631024 0.867012
Si Si5 0.624257 0.925448 0.393068
Si Si6 0.172575 0.889533 0.259352
Si Si7 0.670888 0.818803 0.749496
O O1 0.251987 0.092401 0.595933
O O2 0.041835 0.449021 0.694867
O O3 0.891234 0.991815 0.566351
O O4 0.140548 0.891508 0.722076
O O5 0.296532 0.799783 0.924159
O O6 0.340023 0.392741 0.697756
O O7 0.169951 0.526573 0.899640
O O8 0.436607 0.852896 0.749645
O O9 0.500000 0.500000 0.000000
O O10 0.395436 0.058760 0.076160
O O11 0.932001 0.969196 0.862601
O O12 0.000000 0.500000 0.000000
O O13 0.596260 0.935335 0.584662
O O14 0.256029 0.536630 0.259731
O O15 0.246554 0.046793 0.249197
#
# Coordination Sequence:
#
# PCOD9035325 Si02
#       7
#     2   2   2   2   2   2   2
#     4   9  20  42  67  99 147 197 244 305 354 434
#     4  10  22  45  73  99 154 192 246 312 370 431
#     4  11  27  48  78 111 143 193 251 314 387 452
#     4  11  26  39  68 112 149 201 248 300 366 442
#     4   9  21  45  73 104 150 191 242 312 377 434
#     4  11  25  45  71 108 148 203 255 294 369 453
#     4  11  26  48  75 111 152 196 250 311 370 455
#
# _framework density 27.413088999999999
#
# number of rings (size 3 to 8) (size 9 to 14) (size 15 to 20)
#    0.000    1.714    1.429    0.429   10.000    2.286 
#    0.000    1.429    0.000    0.000    0.000    0.000 
#    0.000    0.000    0.000    0.000    0.000    0.000 
#
# Total GULP energy -78369.631205 kJ/mol
# GULP energy per Si atom -5597.830800 kJ/mol
# Density = 2.735070 g / cm^3
# Si number density = 27.413089 Si / 1000 Ang^3
#
#
#
# Elastic Constant Matrix: (Units=GPa)
#
#
# Indices 1 2 3 4 5 6 
#
# 1 74.8519 14.2535 68.8963 -19.5434 -2.4664 12.5171
# 2 14.2535 188.8732 65.8570 -12.9593 7.6016 -9.2509
# 3 68.8963 65.8570 199.3665 -4.2745 3.4312 -23.1963
# 4 -19.5434 -12.9593 -4.2745 52.8202 -5.7890 5.6951
# 5 -2.4664 7.6016 3.4312 -5.7890 51.1306 -7.0193
# 6 12.5171 -9.2509 -23.1963 5.6951 -7.0193 32.1821
#
#
#
# Elastic Compliance Matrix: (Units=1/GPa)
#
#
# Indices 1 2 3 4 5 6 
#
# 1 0.037358 0.002736 -0.016805 0.016270 0.000433 -0.028641
# 2 0.002736 0.006296 -0.003211 0.002462 -0.000603 -0.002136
# 3 -0.016805 -0.003211 0.013679 -0.007697 0.000194 0.016878
# 4 0.016270 0.002462 -0.007697 0.026807 0.001841 -0.015511
# 5 0.000433 -0.000603 0.000194 0.001841 0.020402 0.003922
# 6 -0.028641 -0.002136 0.016878 -0.015511 0.003922 0.057365
#
#
# Mechanical properties :
#
#
# Convention : Reuss Voigt Hill
#
# Bulk Modulus (GPa) = 43.90816 84.56728 64.23772
# Shear Modulus (GPa) = 24.50276 48.16558 36.33417
#
# Velocity S-wave (km/s) = 2.99295 4.19624 3.64460
# Velocity P-wave (km/s) = 5.29109 7.37524 6.41832
#
# Compressibility (1/GPa) = 0.02277481
#
# Stress axis : x y z
#
# Youngs Moduli (GPa) = 26.76771 158.82681 73.10290
#
# Poissons Ratio (x) = -0.43462 1.22851
# Poissons Ratio (y) = -0.07325 0.23472
# Poissons Ratio (z) = 0.44984 0.50997
#
# Static dielectric constant tensor:
#      x y z
#    x 2.260160 0.063830 -0.021890 
#    y 0.063830 2.100890 -0.017550 
#    z -0.021890 -0.017550 2.213350 
# 
# From -- ./inp_files/287920.got.cif
#   From: 2010.05.17/outbox.cif.g08.bks.cpg/sg2_144_cif.got.tgz:287920.got - 2010.06.03 11:33:40.
