data_PCOD9035520
_publ_section_title
;
Structure prediction by ZEFSAII (Michael W. Deem and Ramdas Pophale) SiO2 
 PCOD9035520
Probable space group: P -1
;
_chemical_formula_sum "Si O2"
_cell_formula_units_Z 16
_cell_length_a 12.988243
_cell_length_b 11.904841
_cell_length_c 11.461740
_cell_angle_alpha 85.592833
_cell_angle_beta 34.258949
_cell_angle_gamma 110.791117
_cell_volume 662.885709
_symmetry_space_group_name_H-M "P -1"
_symmetry_group_IT_number 2
_symmetry_cell_setting 'triclinic'
loop_
_space_group_symop_operation_xyz
x,y,z
-x,-y,-z
loop_
_atom_site_type_symbol
_atom_site_label
_atom_site_fract_x
_atom_site_fract_y
_atom_site_fract_z
Si Si1 0.228114 0.774558 0.166071
Si Si2 0.391083 0.401909 0.987700
Si Si3 0.185600 0.311688 0.820184
Si Si4 0.037447 0.143867 0.722332
Si Si5 0.888731 0.354318 0.230938
Si Si6 0.798285 0.161918 0.561519
Si Si7 0.626341 0.358918 0.114107
Si Si8 0.400444 0.241986 0.801384
O O1 0.013142 0.767483 0.315837
O O2 0.199475 0.757454 0.332930
O O3 0.234921 0.655264 0.111719
O O4 0.524828 0.963718 0.841475
O O5 0.076206 0.217295 0.311673
O O6 0.500000 0.500000 0.000000
O O7 0.378810 0.510096 0.915774
O O8 0.525173 0.366529 0.785556
O O9 0.500000 0.500000 0.500000
O O10 0.193794 0.229401 0.927519
O O11 0.094289 0.211860 0.794577
O O12 0.966900 0.307191 0.057989
O O13 0.302698 0.189384 0.440373
O O14 0.767257 0.943545 0.985648
O O15 0.821952 0.244553 0.415299
O O16 0.627155 0.314091 0.486899
O O17 0.166826 0.552842 0.978411
#
# Coordination Sequence:
#
# PCOD9035520 Si02
#       8
#     2   2   2   2   2   2   2   2
#     4  11  25  43  72 106 145 184 243 289 359 430
#     4  11  24  42  70 103 145 195 236 287 355 421
#     4  12  26  50  73 105 144 182 247 301 355 424
#     4  12  26  47  73 107 141 193 237 296 362 419
#     4  11  25  45  71 103 139 191 230 295 355 421
#     4  10  22  46  67 104 147 184 232 299 350 429
#     4  11  25  41  70 102 141 183 235 294 347 421
#     4  12  26  46  73 103 147 182 241 293 361 425
#
# _framework density 24.136892
#
# number of rings (size 3 to 8) (size 9 to 14) (size 15 to 20)
#    0.000    0.750    5.000    1.875    7.000    3.000 
#    0.000    3.125    0.000    0.000    0.000    0.000 
#    0.000    0.000    0.000    0.000    0.000    0.000 
#
# Total GULP energy -89463.376359 kJ/mol
# GULP energy per Si atom -5591.461022 kJ/mol
# Density = 2.408196 g / cm^3
# Si number density = 24.136892 Si / 1000 Ang^3
#
#
#
# Elastic Constant Matrix: (Units=GPa)
#
#
# Indices 1 2 3 4 5 6 
#
# 1 59.9028 23.4034 7.9320 7.8852 4.2066 -6.2944
# 2 23.4034 126.5360 24.7271 28.3694 4.9325 1.4462
# 3 7.9320 24.7271 100.1980 11.9136 -9.2733 -20.6914
# 4 7.8852 28.3694 11.9136 49.7238 2.9164 -0.6771
# 5 4.2066 4.9325 -9.2733 2.9164 41.1722 6.5035
# 6 -6.2944 1.4462 -20.6914 -0.6771 6.5035 24.1836
#
#
#
# Elastic Compliance Matrix: (Units=1/GPa)
#
#
# Indices 1 2 3 4 5 6 
#
# 1 0.018872 -0.003348 0.000502 -0.000984 -0.002314 0.006137
# 2 -0.003348 0.010111 -0.002462 -0.004665 -0.000529 -0.003571
# 3 0.000502 -0.002462 0.013197 -0.001779 0.001590 0.011092
# 4 -0.000984 -0.004665 -0.001779 0.023426 -0.001324 -0.000488
# 5 -0.002314 -0.000529 0.001590 -0.001324 0.026027 -0.006246
# 6 0.006137 -0.003571 0.011092 -0.000488 -0.006246 0.054317
#
#
# Mechanical properties :
#
#
# Convention : Reuss Voigt Hill
#
# Bulk Modulus (GPa) = 31.68057 44.30686 37.99372
# Shear Modulus (GPa) = 29.92463 38.38753 34.15608
#
# Velocity S-wave (km/s) = 3.52488 3.99232 3.76586
# Velocity P-wave (km/s) = 5.45163 6.29665 5.88932
#
# Compressibility (1/GPa) = 0.03156509
#
# Stress axis : x y z
#
# Youngs Moduli (GPa) = 52.98859 98.90625 75.77327
#
# Poissons Ratio (x) = 0.33114 -0.03806
# Poissons Ratio (y) = 0.17741 0.18653
# Poissons Ratio (z) = -0.02662 0.24347
#
# Static dielectric constant tensor:
#      x y z
#    x 1.990590 -0.020430 -0.027750 
#    y -0.020430 1.903050 -0.011310 
#    z -0.027750 -0.011310 1.995000 
# 
# From -- ./inp_files/452447.got.cif
#   From: 2010.05.17/outbox.cif.g08.bks.cpg/sg2_227_cif.got.tgz:452447.got - 2010.06.03 11:33:40.
