data_PCOD9035152
_publ_section_title
;
Structure prediction by ZEFSAII (Michael W. Deem and Ramdas Pophale) SiO2 
 PCOD9035152
Probable space group: P -1
;
_chemical_formula_sum "Si O2"
_cell_formula_units_Z 16
_cell_length_a 13.763913
_cell_length_b 26.038625
_cell_length_c 16.359879
_cell_angle_alpha 19.419980
_cell_angle_beta 156.789305
_cell_angle_gamma 158.567641
_cell_volume 670.195542
_symmetry_space_group_name_H-M "P -1"
_symmetry_group_IT_number 2
_symmetry_cell_setting 'triclinic'
loop_
_space_group_symop_operation_xyz
x,y,z
-x,-y,-z
loop_
_atom_site_type_symbol
_atom_site_label
_atom_site_fract_x
_atom_site_fract_y
_atom_site_fract_z
Si Si1 0.355526 0.692572 0.164171
Si Si2 0.165738 0.268028 0.125927
Si Si3 0.675443 0.339908 0.985253
Si Si4 0.277996 0.665800 0.621742
Si Si5 0.602633 0.973159 0.532718
Si Si6 0.858860 0.760165 0.673349
Si Si7 0.869303 0.007535 0.161512
Si Si8 0.667827 0.544385 0.343761
O O1 0.568245 0.890384 0.063524
O O2 0.320290 0.562501 0.406092
O O3 0.457290 0.655633 0.211989
O O4 0.059359 0.677221 0.935036
O O5 0.445947 0.254892 0.341111
O O6 0.054917 0.172545 0.269248
O O7 0.224103 0.466365 0.889029
O O8 0.957997 0.188332 0.007132
O O9 0.653206 0.148306 0.260470
O O10 0.489545 0.354299 0.893706
O O11 0.000000 0.500000 0.000000
O O12 0.376483 0.790585 0.590040
O O13 0.981650 0.652308 0.388533
O O14 0.500000 0.000000 0.500000
O O15 0.895999 0.970352 0.755996
O O16 0.885476 0.891320 0.424737
O O17 0.537235 0.601851 0.659321
#
# Coordination Sequence:
#
# PCOD9035152 Si02
#       8
#     2   2   2   2   2   2   2   2
#     4  11  22  42  70 100 142 173 235 292 336 407
#     4  10  22  45  71  93 139 184 229 290 335 407
#     4  12  24  44  72 102 139 187 228 285 347 406
#     4  10  24  45  65  97 139 183 229 275 351 409
#     4  11  26  44  69 102 145 179 226 288 342 416
#     4  11  21  42  71 100 134 177 235 293 334 400
#     4  10  23  45  67 105 132 182 233 282 350 401
#     4  11  24  40  70 103 135 184 236 272 351 414
#
# _framework density 23.873629000000001
#
# number of rings (size 3 to 8) (size 9 to 14) (size 15 to 20)
#    0.000    1.250    3.750    1.500    5.250    1.500 
#    2.250    0.000    0.000    0.000    0.000    0.000 
#    0.000    0.000    0.000    0.000    0.000    0.000 
#
# Total GULP energy -89408.649385 kJ/mol
# GULP energy per Si atom -5588.040587 kJ/mol
# Density = 2.381929 g / cm^3
# Si number density = 23.873629 Si / 1000 Ang^3
#
#
#
# Elastic Constant Matrix: (Units=GPa)
#
#
# Indices 1 2 3 4 5 6 
#
# 1 113.1919 24.5244 9.1865 0.1942 20.1077 -28.3908
# 2 24.5244 134.2307 34.5485 1.5404 19.2373 -16.4096
# 3 9.1865 34.5485 66.4449 -9.0642 8.6042 -8.6674
# 4 0.1942 1.5404 -9.0642 37.2088 0.9571 12.5345
# 5 20.1077 19.2373 8.6042 0.9571 37.3452 2.9655
# 6 -28.3908 -16.4096 -8.6674 12.5345 2.9655 25.6487
#
#
#
# Elastic Compliance Matrix: (Units=1/GPa)
#
#
# Indices 1 2 3 4 5 6 
#
# 1 0.016936 0.001685 0.000510 -0.008293 -0.011911 0.025426
# 2 0.001685 0.010353 -0.004172 -0.004689 -0.005958 0.010060
# 3 0.000510 -0.004172 0.018347 0.003860 -0.002651 0.002515
# 4 -0.008293 -0.004689 0.003860 0.038084 0.007425 -0.030345
# 5 -0.011911 -0.005958 -0.002651 0.007425 0.038744 -0.026000
# 6 0.025426 0.010060 0.002515 -0.030345 -0.026000 0.092254
#
#
# Mechanical properties :
#
#
# Convention : Reuss Voigt Hill
#
# Bulk Modulus (GPa) = 23.99128 50.04290 37.01709
# Shear Modulus (GPa) = 21.49919 36.41443 28.95681
#
# Velocity S-wave (km/s) = 3.00416 3.90974 3.48648
# Velocity P-wave (km/s) = 4.70153 6.43339 5.63440
#
# Compressibility (1/GPa) = 0.04168181
#
# Stress axis : x y z
#
# Youngs Moduli (GPa) = 59.04741 96.58765 54.50500
#
# Poissons Ratio (x) = -0.16275 -0.02781
# Poissons Ratio (y) = -0.09949 0.22741
# Poissons Ratio (z) = -0.03013 0.40298
#
# Static dielectric constant tensor:
#      x y z
#    x 1.921910 0.018420 0.002340 
#    y 0.018420 1.919840 -0.045540 
#    z 0.002340 -0.045540 1.929610 
# 
# From -- ./inp_files/574534.got.cif
#   From: 2010.05.17/outbox.cif.g08.bks.cpg/sg2_288_cif.got.tgz:574534.got - 2010.06.03 11:33:40.
