data_PCOD9035896
_publ_section_title
;
Structure prediction by ZEFSAII (Michael W. Deem and Ramdas Pophale) SiO2 
 PCOD9035896
Probable space group: P -1
;
_chemical_formula_sum "Si O2"
_cell_formula_units_Z 16
_cell_length_a 19.869671
_cell_length_b 14.602520
_cell_length_c 8.809911
_cell_angle_alpha 59.370369
_cell_angle_beta 57.666586
_cell_angle_gamma 21.078795
_cell_volume 776.331128
_symmetry_space_group_name_H-M "P -1"
_symmetry_group_IT_number 2
_symmetry_cell_setting 'triclinic'
loop_
_space_group_symop_operation_xyz
x,y,z
-x,-y,-z
loop_
_atom_site_type_symbol
_atom_site_label
_atom_site_fract_x
_atom_site_fract_y
_atom_site_fract_z
Si Si1 0.525819 0.575344 0.678175
Si Si2 0.240520 0.901960 0.256279
Si Si3 0.051478 0.614266 0.398756
Si Si4 0.679209 0.879312 0.340901
Si Si5 0.837894 0.912150 0.116585
Si Si6 0.346651 0.938437 0.339670
Si Si7 0.877700 0.295986 0.527588
Si Si8 0.586168 0.800718 0.333248
O O1 0.573012 0.395252 0.746531
O O2 0.345423 0.816534 0.800984
O O3 0.471665 0.699750 0.481782
O O4 0.726028 0.385693 0.649309
O O5 0.295127 0.946423 0.236188
O O6 0.141606 0.045392 0.094587
O O7 0.090583 0.019074 0.442980
O O8 0.200206 0.346577 0.505130
O O9 0.098088 0.668951 0.375893
O O10 0.015894 0.682012 0.209126
O O11 0.850816 0.815061 0.537481
O O12 0.615020 0.889151 0.263811
O O13 0.787353 0.852512 0.185009
O O14 0.514609 0.114988 0.457513
O O15 0.459013 0.912606 0.253453
O O16 0.784355 0.496996 0.355797
#
# Coordination Sequence:
#
# PCOD9035896 Si02
#       8
#     2   2   2   2   2   2   2   2
#     4  10  19  38  59  75 103 149 188 210 256 326
#     4  11  22  34  55  80 114 140 170 231 277 294
#     4   9  18  32  57  80 104 141 182 216 257 328
#     4  10  17  32  60  81 101 141 184 215 262 313
#     4  11  21  35  52  87 111 133 179 230 264 307
#     4   9  18  35  54  82 105 137 185 216 255 329
#     4   9  18  36  55  79 104 140 184 215 258 328
#     4   9  17  32  59  79 100 134 188 217 246 320
#
# _framework density 20.609762
#
# number of rings (size 3 to 8) (size 9 to 14) (size 15 to 20)
#    0.000    2.250    3.750    1.500    0.000    0.000 
#    0.000    9.375    0.000    0.000    0.000    0.000 
#    0.000    0.000    0.000    0.000    0.000    0.000 
#
# Total GULP energy -89143.516172 kJ/mol
# GULP energy per Si atom -5571.469761 kJ/mol
# Density = 2.056285 g / cm^3
# Si number density = 20.609762 Si / 1000 Ang^3
#
#
#
# Elastic Constant Matrix: (Units=GPa)
#
#
# Indices 1 2 3 4 5 6 
#
# 1 81.0070 21.1157 8.2978 5.8443 18.3764 -7.5401
# 2 21.1157 61.7861 9.4183 -7.8579 8.3175 2.2067
# 3 8.2978 9.4183 43.5974 -8.2764 12.4716 4.5057
# 4 5.8443 -7.8579 -8.2764 13.2800 -2.0647 0.9259
# 5 18.3764 8.3175 12.4716 -2.0647 13.2440 -1.9049
# 6 -7.5401 2.2067 4.5057 0.9259 -1.9049 28.6703
#
#
#
# Elastic Compliance Matrix: (Units=1/GPa)
#
#
# Indices 1 2 3 4 5 6 
#
# 1 0.022585 -0.006175 0.002350 -0.017376 -0.031733 0.004498
# 2 -0.006175 0.020727 0.001097 0.015382 -0.003678 -0.004133
# 3 0.002350 0.001097 0.037141 0.017531 -0.037392 -0.008354
# 4 -0.017376 0.015382 0.017531 0.105744 0.012834 -0.011071
# 5 -0.031733 -0.003678 -0.037392 0.012834 0.160216 0.008044
# 6 0.004498 -0.004133 -0.008354 -0.011071 0.008044 0.038585
#
#
# Mechanical properties :
#
#
# Convention : Reuss Voigt Hill
#
# Bulk Modulus (GPa) = 13.33415 29.33936 21.33675
# Shear Modulus (GPa) = 12.03506 20.87610 16.45558
#
# Velocity S-wave (km/s) = 2.41913 3.18610 2.82873
# Velocity P-wave (km/s) = 3.77978 5.27271 4.58739
#
# Compressibility (1/GPa) = 0.07499543
#
# Stress axis : x y z
#
# Youngs Moduli (GPa) = 44.27808 48.24593 26.92447
#
# Poissons Ratio (x) = 0.29793 -0.06326
# Poissons Ratio (y) = 0.27343 -0.02954
# Poissons Ratio (z) = -0.10404 -0.05293
#
# Static dielectric constant tensor:
#      x y z
#    x 1.793590 -0.018000 0.009610 
#    y -0.018000 1.779330 0.004450 
#    z 0.009610 0.004450 1.698110 
# 
# From -- ./inp_files/200336.got.cif
#   From: 2010.05.17/outbox.cif.g08.bks.cpg/sg2_101_cif.got.tgz:200336.got - 2010.06.03 11:33:40.
