data_PCOD9035999
_publ_section_title
;
Structure prediction by ZEFSAII (Michael W. Deem and Ramdas Pophale) SiO2 
 PCOD9035999
Probable space group: P -1
;
_chemical_formula_sum "Si O2"
_cell_formula_units_Z 16
_cell_length_a 10.332441
_cell_length_b 14.329121
_cell_length_c 11.239803
_cell_angle_alpha 150.681843
_cell_angle_beta 120.023961
_cell_angle_gamma 77.512266
_cell_volume 603.038082
_symmetry_space_group_name_H-M "P -1"
_symmetry_group_IT_number 2
_symmetry_cell_setting 'triclinic'
loop_
_space_group_symop_operation_xyz
x,y,z
-x,-y,-z
loop_
_atom_site_type_symbol
_atom_site_label
_atom_site_fract_x
_atom_site_fract_y
_atom_site_fract_z
Si Si1 0.615938 0.557328 0.237524
Si Si2 0.854087 0.711402 0.331869
Si Si3 0.506614 0.187954 0.370418
Si Si4 0.975354 0.423203 0.041395
Si Si5 0.602829 0.115453 0.796394
Si Si6 0.996554 0.657733 0.777201
Si Si7 0.771188 0.666409 0.990261
Si Si8 0.781070 0.883365 0.010373
O O1 0.801172 0.735132 0.464697
O O2 0.557875 0.669454 0.429576
O O3 0.500000 0.500000 0.000000
O O4 0.620323 0.353832 0.069823
O O5 0.810597 0.455503 0.023194
O O6 0.763831 0.733323 0.196399
O O7 0.060294 0.879466 0.608159
O O8 0.691751 0.396913 0.643766
O O9 0.491499 0.014732 0.269939
O O10 0.362749 0.083841 0.085192
O O11 0.047229 0.482089 0.275887
O O12 0.022820 0.231438 0.832165
O O13 0.000000 0.500000 0.000000
O O14 0.500000 0.000000 0.500000
O O15 0.796537 0.152222 0.913021
O O16 0.000000 0.500000 0.500000
O O17 0.870539 0.763449 0.844117
O O18 0.695525 0.738488 0.929375
#
# Coordination Sequence:
#
# PCOD9035999 Si02
#       8
#     2   2   2   2   2   2   2   2
#     4  12  23  43  69 103 139 177 223 298 351 407
#     4  11  21  43  71 101 134 176 243 287 344 417
#     4  12  26  45  68 103 146 182 230 289 358 423
#     4   9  21  40  69  94 133 182 232 279 346 413
#     4  12  25  41  68 104 137 183 236 284 350 419
#     4  11  24  44  69  99 144 183 229 295 357 415
#     4  10  22  47  68  94 141 191 228 288 347 422
#     4  11  26  42  70 105 137 184 236 290 356 412
#
# _framework density 26.532323000000002
#
# number of rings (size 3 to 8) (size 9 to 14) (size 15 to 20)
#    0.000    1.000    3.750    2.250    3.500    1.000 
#    2.250    0.625    0.000    0.000    0.000    0.000 
#    0.000    0.000    0.000    0.000    0.000    0.000 
#
# Total GULP energy -89133.725916 kJ/mol
# GULP energy per Si atom -5570.857870 kJ/mol
# Density = 2.647193 g / cm^3
# Si number density = 26.532323 Si / 1000 Ang^3
#
#
#
# Elastic Constant Matrix: (Units=GPa)
#
#
# Indices 1 2 3 4 5 6 
#
# 1 77.0822 21.4520 5.4102 5.0793 -21.0419 9.1698
# 2 21.4520 183.0535 51.6198 7.6839 5.1319 16.3638
# 3 5.4102 51.6198 89.8759 -0.4478 13.6944 10.7657
# 4 5.0793 7.6839 -0.4478 45.0197 -5.8098 -2.4856
# 5 -21.0419 5.1319 13.6944 -5.8098 41.2674 -2.2421
# 6 9.1698 16.3638 10.7657 -2.4856 -2.2421 49.5938
#
#
#
# Elastic Compliance Matrix: (Units=1/GPa)
#
#
# Indices 1 2 3 4 5 6 
#
# 1 0.016111 -0.001623 -0.001133 -0.000541 0.008617 -0.001835
# 2 -0.001623 0.006846 -0.003576 -0.001185 -0.000728 -0.001275
# 3 -0.001133 -0.003576 0.014232 0.000136 -0.004941 -0.001916
# 4 -0.000541 -0.001185 0.000136 0.022982 0.003157 0.001756
# 5 0.008617 -0.000728 -0.004941 0.003157 0.030870 0.001273
# 6 -0.001835 -0.001275 -0.001916 0.001756 0.001273 0.021485
#
#
# Mechanical properties :
#
#
# Convention : Reuss Voigt Hill
#
# Bulk Modulus (GPa) = 40.77934 56.33063 48.55498
# Shear Modulus (GPa) = 37.49125 45.27815 41.38470
#
# Velocity S-wave (km/s) = 3.76312 4.13550 3.95370
# Velocity P-wave (km/s) = 5.85530 6.63929 6.25958
#
# Compressibility (1/GPa) = 0.02452222
#
# Stress axis : x y z
#
# Youngs Moduli (GPa) = 62.07106 146.07641 70.26520
#
# Poissons Ratio (x) = 0.23712 0.07963
# Poissons Ratio (y) = 0.10076 0.25129
# Poissons Ratio (z) = 0.07035 0.52242
#
# Static dielectric constant tensor:
#      x y z
#    x 2.512940 0.072590 0.278180 
#    y 0.072590 2.155820 0.134480 
#    z 0.278180 0.134480 2.387160 
# 
# From -- ./inp_files/434384.got.cif
#   From: 2010.05.17/outbox.cif.g08.bks.cpg/sg2_218_cif.got.tgz:434384.got - 2010.06.03 11:33:40.
