data_PCOD9035832
_publ_section_title
;
Structure prediction by ZEFSAII (Michael W. Deem and Ramdas Pophale) SiO2 
 PCOD9035832
Probable space group: P -1
;
_chemical_formula_sum "Si O2"
_cell_formula_units_Z 15
_cell_length_a 5.019224
_cell_length_b 21.394540
_cell_length_c 20.720838
_cell_angle_alpha 164.587468
_cell_angle_beta 113.974529
_cell_angle_gamma 65.743153
_cell_volume 538.660341
_symmetry_space_group_name_H-M "P -1"
_symmetry_group_IT_number 2
_symmetry_cell_setting 'triclinic'
loop_
_space_group_symop_operation_xyz
x,y,z
-x,-y,-z
loop_
_atom_site_type_symbol
_atom_site_label
_atom_site_fract_x
_atom_site_fract_y
_atom_site_fract_z
Si Si1 0.821749 0.631124 0.244233
Si Si2 0.219770 0.814022 0.372043
Si Si3 0.000000 0.500000 0.500000
Si Si4 0.292930 0.945851 0.646268
Si Si5 0.998948 0.646847 0.897825
Si Si6 0.230836 0.003551 0.179307
Si Si7 0.728101 0.385897 0.496701
Si Si8 0.722743 0.950373 0.912954
O O1 0.048625 0.606437 0.182317
O O2 0.993959 0.819265 0.489848
O O3 0.795937 0.446346 0.114800
O O4 0.489404 0.285828 0.733714
O O5 0.348824 0.956035 0.586355
O O6 0.000000 0.000000 0.500000
O O7 0.130687 0.481073 0.416226
O O8 0.942725 0.193819 0.188627
O O9 0.570901 0.824182 0.589464
O O10 0.228187 0.180480 0.913069
O O11 0.807134 0.491658 0.678564
O O12 0.179654 0.789293 0.007243
O O13 0.363296 0.962228 0.080644
O O14 0.913898 0.134264 0.266423
O O15 0.381373 0.353854 0.417653
O O16 0.500000 0.000000 0.000000
#
# Coordination Sequence:
#
# PCOD9035832 Si02
#       8
#     2   2   1   2   2   2   2   2
#     4  10  24  43  72 103 144 188 238 290 347 418
#     4  10  22  46  73 104 146 192 232 289 351 419
#     4  10  24  42  66  94 124 178 220 298 348 430
#     4  10  24  41  70 100 141 182 232 289 354 416
#     4  12  23  40  67 104 135 181 235 300 343 423
#     4  11  24  41  67  98 136 177 228 291 363 413
#     4  11  25  44  67  98 136 173 242 289 369 419
#     4  11  24  43  65  95 132 179 223 291 356 431
#
# _framework density 27.846861000000001
#
# number of rings (size 3 to 8) (size 9 to 14) (size 15 to 20)
#    0.800    0.533    0.000    5.600    1.867    6.400 
#    0.000    1.333    0.000    2.400    0.000    0.000 
#    0.000    0.000    0.000    0.000    0.000    0.000 
#
# Total GULP energy -83745.768402 kJ/mol
# GULP energy per Si atom -5583.051227 kJ/mol
# Density = 2.778348 g / cm^3
# Si number density = 27.846861 Si / 1000 Ang^3
#
#
#
# Elastic Constant Matrix: (Units=GPa)
#
#
# Indices 1 2 3 4 5 6 
#
# 1 207.9285 45.5148 24.3229 0.9752 23.8841 3.2515
# 2 45.5148 133.6084 10.0142 4.1649 15.2361 -6.9784
# 3 24.3229 10.0142 76.6649 -7.3025 -7.4144 9.4843
# 4 0.9752 4.1649 -7.3025 49.5416 6.8767 1.2277
# 5 23.8841 15.2361 -7.4144 6.8767 31.7661 2.2555
# 6 3.2515 -6.9784 9.4843 1.2277 2.2555 49.7986
#
#
#
# Elastic Compliance Matrix: (Units=1/GPa)
#
#
# Indices 1 2 3 4 5 6 
#
# 1 0.005838 -0.001354 -0.002063 0.000289 -0.004285 0.000009
# 2 -0.001354 0.008529 -0.001264 -0.000448 -0.003391 0.001689
# 3 -0.002063 -0.001264 0.014948 0.001664 0.005512 -0.003180
# 4 0.000289 -0.000448 0.001664 0.021052 -0.004120 -0.000731
# 5 -0.004285 -0.003391 0.005512 -0.004120 0.038712 -0.002897
# 6 0.000009 0.001689 -0.003180 -0.000731 -0.002897 0.021072
#
#
# Mechanical properties :
#
#
# Convention : Reuss Voigt Hill
#
# Bulk Modulus (GPa) = 50.11758 64.21173 57.16465
# Shear Modulus (GPa) = 39.63045 48.77792 44.20419
#
# Velocity S-wave (km/s) = 3.77657 4.18981 3.98854
# Velocity P-wave (km/s) = 6.08714 6.82019 6.46406
#
# Compressibility (1/GPa) = 0.01995308
#
# Stress axis : x y z
#
# Youngs Moduli (GPa) = 171.29922 117.24110 66.89635
#
# Poissons Ratio (x) = 0.15874 0.13802
# Poissons Ratio (y) = 0.23194 0.08457
# Poissons Ratio (z) = 0.35342 0.14821
#
# Static dielectric constant tensor:
#      x y z
#    x 2.566820 -0.447490 -0.279310 
#    y -0.447490 2.657460 0.632300 
#    z -0.279310 0.632300 3.068300 
# 
# From -- ./inp_files/551032.got.cif
#   From: 2010.05.17/outbox.cif.g08.bks.cpg/sg2_276_cif.got.tgz:551032.got - 2010.06.03 11:33:40.
