data_PCOD9035393
_publ_section_title
;
Structure prediction by ZEFSAII (Michael W. Deem and Ramdas Pophale) SiO2 
 PCOD9035393
Probable space group: P -1
;
_chemical_formula_sum "Si O2"
_cell_formula_units_Z 14
_cell_length_a 7.501632
_cell_length_b 9.350896
_cell_length_c 7.913584
_cell_angle_alpha 91.995184
_cell_angle_beta 89.050896
_cell_angle_gamma 95.763600
_cell_volume 551.925258
_symmetry_space_group_name_H-M "P -1"
_symmetry_group_IT_number 2
_symmetry_cell_setting 'triclinic'
loop_
_space_group_symop_operation_xyz
x,y,z
-x,-y,-z
loop_
_atom_site_type_symbol
_atom_site_label
_atom_site_fract_x
_atom_site_fract_y
_atom_site_fract_z
Si Si1 0.700804 0.787928 0.597952
Si Si2 0.077847 0.395487 0.629087
Si Si3 0.667259 0.219039 0.078996
Si Si4 0.714807 0.271776 0.726383
Si Si5 0.301529 0.938305 0.598489
Si Si6 0.006906 0.109576 0.160674
Si Si7 0.535904 0.470366 0.258349
O O1 0.861717 0.735913 0.483612
O O2 0.632641 0.915468 0.493889
O O3 0.562196 0.646718 0.616104
O O4 0.796532 0.837753 0.774506
O O5 0.260688 0.470508 0.704790
O O6 0.000000 0.500000 0.500000
O O7 0.917222 0.343745 0.754093
O O8 0.655856 0.171140 0.883293
O O9 0.604017 0.114091 0.232607
O O10 0.881111 0.235769 0.120130
O O11 0.565285 0.361665 0.098759
O O12 0.721732 0.186812 0.547059
O O13 0.586383 0.399364 0.734605
O O14 0.107775 0.963554 0.684785
O O15 0.000000 0.000000 0.000000
#
# Coordination Sequence:
#
# PCOD9035393 Si02
#       7
#     2   2   2   2   2   2   2
#     4  12  24  44  81 115 158 203 258 329 392 465
#     4  12  25  46  80 116 152 210 262 316 392 470
#     4  10  26  46  74 113 155 200 265 316 385 468
#     4  12  25  51  82 109 162 207 257 331 386 465
#     4  10  25  45  79 116 151 204 261 318 401 463
#     4  10  22  45  75 113 155 198 259 320 389 465
#     4  12  28  49  75 119 158 206 264 318 392 470
#
# _framework density 25.365756000000001
#
# number of rings (size 3 to 8) (size 9 to 14) (size 15 to 20)
#    0.857    0.000    2.857    3.857    4.000    1.143 
#    2.571    2.857    0.000    0.000    0.000    0.000 
#    0.000    0.000    0.000    0.000    0.000    0.000 
#
# Total GULP energy -78220.219135 kJ/mol
# GULP energy per Si atom -5587.158510 kJ/mol
# Density = 2.530802 g / cm^3
# Si number density = 25.365756 Si / 1000 Ang^3
#
#
#
# Elastic Constant Matrix: (Units=GPa)
#
#
# Indices 1 2 3 4 5 6 
#
# 1 159.1916 57.2192 52.0409 6.5579 -7.2455 8.5753
# 2 57.2192 154.0834 69.5550 -7.0882 -4.6454 -14.0323
# 3 52.0409 69.5550 183.5192 -13.4432 -12.3161 8.6515
# 4 6.5579 -7.0882 -13.4432 40.8239 -2.1208 -10.6778
# 5 -7.2455 -4.6454 -12.3161 -2.1208 20.3801 8.7439
# 6 8.5753 -14.0323 8.6515 -10.6778 8.7439 48.1555
#
#
#
# Elastic Compliance Matrix: (Units=1/GPa)
#
#
# Indices 1 2 3 4 5 6 
#
# 1 0.008069 -0.002844 -0.001092 -0.002844 0.002627 -0.003177
# 2 -0.002844 0.009335 -0.002956 0.002204 -0.002453 0.004692
# 3 -0.001092 -0.002956 0.007434 0.001706 0.004668 -0.002472
# 4 -0.002844 0.002204 0.001706 0.027727 0.000443 0.006910
# 5 0.002627 -0.002453 0.004668 0.000443 0.057624 -0.012386
# 6 -0.003177 0.004692 -0.002472 0.006910 -0.012386 0.026924
#
#
# Mechanical properties :
#
#
# Convention : Reuss Voigt Hill
#
# Bulk Modulus (GPa) = 90.47336 94.93605 92.70470
# Shear Modulus (GPa) = 32.34494 43.07051 37.70773
#
# Velocity S-wave (km/s) = 3.57479 4.12512 3.85978
# Velocity P-wave (km/s) = 7.26524 7.75867 7.51601
#
# Compressibility (1/GPa) = 0.01105298
#
# Stress axis : x y z
#
# Youngs Moduli (GPa) = 123.92935 107.11989 134.51833
#
# Poissons Ratio (x) = 0.30469 0.14695
# Poissons Ratio (y) = 0.35250 0.39763
# Poissons Ratio (z) = 0.13538 0.31664
#
# Static dielectric constant tensor:
#      x y z
#    x 1.031120 0.050270 -0.065780 
#    y 0.050270 1.979350 0.007740 
#    z -0.065780 0.007740 2.046970 
# 
# From -- ./inp_files/193632.got.cif
#   From: 2010.05.17/outbox.cif.g08.bks.cpg/sg2_97_cif.got.tgz:193632.got - 2010.06.03 11:33:40.
