data_PCOD9035934
_publ_section_title
;
Structure prediction by ZEFSAII (Michael W. Deem and Ramdas Pophale) SiO2 
 PCOD9035934
Probable space group: P -1
;
_chemical_formula_sum "Si O2"
_cell_formula_units_Z 12
_cell_length_a 10.314384
_cell_length_b 10.312877
_cell_length_c 11.215923
_cell_angle_alpha 37.862902
_cell_angle_beta 140.542462
_cell_angle_gamma 141.038427
_cell_volume 419.974322
_symmetry_space_group_name_H-M "P -1"
_symmetry_group_IT_number 2
_symmetry_cell_setting 'triclinic'
loop_
_space_group_symop_operation_xyz
x,y,z
-x,-y,-z
loop_
_atom_site_type_symbol
_atom_site_label
_atom_site_fract_x
_atom_site_fract_y
_atom_site_fract_z
Si Si1 0.858681 0.081741 0.112280
Si Si2 0.269256 0.769942 0.493292
Si Si3 0.761095 0.225460 0.263274
Si Si4 0.670263 0.680913 0.106703
Si Si5 0.000000 0.500000 0.000000
Si Si6 0.000000 0.000000 0.000000
Si Si7 0.537401 0.757180 0.313286
O O1 0.081182 0.296919 0.152870
O O2 0.866683 0.948918 0.094104
O O3 0.716902 0.868434 0.252989
O O4 0.703995 0.234172 0.900035
O O5 0.160524 0.736301 0.573387
O O6 0.307399 0.538533 0.666612
O O7 0.121916 0.819579 0.254931
O O8 0.500000 0.000000 0.500000
O O9 0.935548 0.354343 0.190244
O O10 0.641703 0.947705 0.351884
O O11 0.554837 0.294857 0.047691
O O12 0.749054 0.747948 0.979526
O O13 0.500000 0.500000 0.500000
#
# Coordination Sequence:
#
# PCOD9035934 Si02
#       7
#     2   2   2   2   1   1   2
#     4   9  21  40  67 102 143 192 250 310 391 463
#     4  12  27  49  80 118 157 213 263 330 405 473
#     4  10  23  47  77 114 157 209 265 324 401 478
#     4  11  25  46  77 111 156 207 258 336 399 472
#     4  10  22  46  76 112 160 200 262 332 386 482
#     4  12  28  50  74 118 158 206 268 324 404 472
#     4   9  19  40  67  98 144 195 245 313 384 454
#
# _framework density 28.573174999999999
#
# number of rings (size 3 to 8) (size 9 to 14) (size 15 to 20)
#    0.000    1.667    1.667    2.000    4.667    0.000 
#    6.000    1.667    0.000    0.000    0.000    0.000 
#    0.000    0.000    0.000    0.000    0.000    0.000 
#
# Total GULP energy -66914.069588 kJ/mol
# GULP energy per Si atom -5576.172466 kJ/mol
# Density = 2.850814 g / cm^3
# Si number density = 28.573175 Si / 1000 Ang^3
#
#
#
# Elastic Constant Matrix: (Units=GPa)
#
#
# Indices 1 2 3 4 5 6 
#
# 1 121.7754 48.9975 55.9503 -26.6262 -3.1459 -17.1191
# 2 48.9975 129.7044 86.0385 -55.9178 10.0099 -21.0113
# 3 55.9503 86.0385 262.9389 -59.6582 19.1816 -16.2080
# 4 -26.6262 -55.9178 -59.6582 65.6842 5.1218 -3.5304
# 5 -3.1459 10.0099 19.1816 5.1218 30.0075 -8.5207
# 6 -17.1191 -21.0113 -16.2080 -3.5304 -8.5207 55.1044
#
#
#
# Elastic Compliance Matrix: (Units=1/GPa)
#
#
# Indices 1 2 3 4 5 6 
#
# 1 0.010455 -0.002685 -0.001302 0.000635 0.003399 0.002408
# 2 -0.002685 0.015930 -0.001204 0.012068 -0.005521 0.004805
# 3 -0.001302 -0.001204 0.005680 0.003936 -0.003908 0.000455
# 4 0.000635 0.012068 0.003936 0.030442 -0.009859 0.006382
# 5 0.003399 -0.005521 -0.003908 -0.009859 0.040687 0.003461
# 6 0.002408 0.004805 0.000455 0.006382 0.003461 0.021806
#
#
# Mechanical properties :
#
#
# Convention : Reuss Voigt Hill
#
# Bulk Modulus (GPa) = 46.11638 99.59901 72.85770
# Shear Modulus (GPa) = 35.06071 51.72138 43.39105
#
# Velocity S-wave (km/s) = 3.50673 4.25919 3.90114
# Velocity P-wave (km/s) = 5.70710 7.68900 6.77096
#
# Compressibility (1/GPa) = 0.02168427
#
# Stress axis : x y z
#
# Youngs Moduli (GPa) = 95.64565 62.77351 176.04685
#
# Poissons Ratio (x) = 0.16853 0.22918
# Poissons Ratio (y) = 0.25678 0.21200
# Poissons Ratio (z) = 0.12451 0.07559
#
# Static dielectric constant tensor:
#      x y z
#    x 2.338480 -0.054850 -0.017030 
#    y -0.054850 1.480930 -0.075420 
#    z -0.017030 -0.075420 2.199800 
# 
# From -- ./inp_files/130054.got.cif
#   From: 2010.05.17/outbox.cif.g08.bks.cpg/sg2_66_cif.got.tgz:130054.got - 2010.06.03 11:33:40.
