data_PCOD9035695
_publ_section_title
;
Structure prediction by ZEFSAII (Michael W. Deem and Ramdas Pophale) SiO2 
 PCOD9035695
Probable space group: P -1
;
_chemical_formula_sum "Si O2"
_cell_formula_units_Z 16
_cell_length_a 13.941628
_cell_length_b 11.909354
_cell_length_c 9.483006
_cell_angle_alpha 141.097379
_cell_angle_beta 135.028786
_cell_angle_gamma 67.958330
_cell_volume 642.031433
_symmetry_space_group_name_H-M "P -1"
_symmetry_group_IT_number 2
_symmetry_cell_setting 'triclinic'
loop_
_space_group_symop_operation_xyz
x,y,z
-x,-y,-z
loop_
_atom_site_type_symbol
_atom_site_label
_atom_site_fract_x
_atom_site_fract_y
_atom_site_fract_z
Si Si1 0.686924 0.088899 0.260814
Si Si2 0.722965 0.262271 0.752750
Si Si3 0.995419 0.182620 0.755753
Si Si4 0.586298 0.744209 0.603780
Si Si5 0.011489 0.576241 0.425859
Si Si6 0.657398 0.973833 0.625415
Si Si7 0.734341 0.451903 0.515180
Si Si8 0.094594 0.077992 0.315155
O O1 0.661817 0.091355 0.404685
O O2 0.862964 0.204398 0.554451
O O3 0.639468 0.249343 0.295305
O O4 0.633844 0.882358 0.927185
O O5 0.588895 0.332272 0.681784
O O6 0.743480 0.181005 0.845823
O O7 0.883613 0.420503 0.043532
O O8 0.952743 0.090086 0.778909
O O9 0.000000 0.000000 0.500000
O O10 0.142607 0.375651 0.098022
O O11 0.670906 0.896131 0.716681
O O12 0.632871 0.563295 0.470681
O O13 0.961738 0.755804 0.538101
O O14 0.000000 0.500000 0.500000
O O15 0.170497 0.598349 0.554975
O O16 0.732117 0.857684 0.487985
O O17 0.500000 0.000000 0.500000
O O18 0.000000 0.000000 0.000000
#
# Coordination Sequence:
#
# PCOD9035695 Si02
#       8
#     2   2   2   2   2   2   2   2
#     4  12  25  44  74 103 147 190 240 291 359 427
#     4  11  25  48  69 105 143 191 238 296 358 432
#     4  12  23  42  71 104 143 187 234 297 359 417
#     4  11  26  48  73 101 149 190 239 293 359 426
#     4  12  26  43  72 107 145 179 242 300 356 424
#     4  10  22  46  70  97 135 186 237 285 350 424
#     4  12  26  44  71 109 141 184 243 293 356 427
#     4  12  25  44  71 104 140 186 234 294 365 420
#
# _framework density 24.9209
#
# number of rings (size 3 to 8) (size 9 to 14) (size 15 to 20)
#    0.000    0.500    3.750    4.500    5.250    0.500 
#    4.500    1.875    0.000    0.000    0.000    0.000 
#    0.000    0.000    0.000    0.000    0.000    0.000 
#
# Total GULP energy -89220.573205 kJ/mol
# GULP energy per Si atom -5576.285825 kJ/mol
# Density = 2.486418 g / cm^3
# Si number density = 24.920900 Si / 1000 Ang^3
#
#
#
# Elastic Constant Matrix: (Units=GPa)
#
#
# Indices 1 2 3 4 5 6 
#
# 1 110.9913 49.2990 29.3306 -1.2440 -14.4441 -13.4461
# 2 49.2990 159.7083 29.3389 2.3211 -16.7545 -28.1509
# 3 29.3306 29.3389 69.5472 10.3878 -19.2968 -4.0756
# 4 -1.2440 2.3211 10.3878 27.7827 -6.9220 -12.9965
# 5 -14.4441 -16.7545 -19.2968 -6.9220 32.3023 -2.6318
# 6 -13.4461 -28.1509 -4.0756 -12.9965 -2.6318 52.4523
#
#
#
# Elastic Compliance Matrix: (Units=1/GPa)
#
#
# Indices 1 2 3 4 5 6 
#
# 1 0.011716 -0.002220 -0.003618 0.004074 0.003019 0.002692
# 2 -0.002220 0.008415 -0.001868 0.002899 0.003259 0.004684
# 3 -0.003618 -0.001868 0.019662 -0.006156 0.007715 -0.001540
# 4 0.004074 0.002899 -0.006156 0.047785 0.011070 0.014517
# 5 0.003019 0.003259 0.007715 0.011070 0.041627 0.007954
# 6 0.002692 0.004684 -0.001540 0.014517 0.007954 0.026145
#
#
# Mechanical properties :
#
#
# Convention : Reuss Voigt Hill
#
# Bulk Modulus (GPa) = 41.01382 61.79820 51.40601
# Shear Modulus (GPa) = 27.95009 37.99266 32.97137
#
# Velocity S-wave (km/s) = 3.35259 3.90876 3.64131
# Velocity P-wave (km/s) = 5.61069 6.72479 6.19284
#
# Compressibility (1/GPa) = 0.02438202
#
# Stress axis : x y z
#
# Youngs Moduli (GPa) = 85.34974 118.83166 50.85879
#
# Poissons Ratio (x) = 0.26382 0.18400
# Poissons Ratio (y) = 0.18949 0.09500
# Poissons Ratio (z) = 0.30879 0.22197
#
# Static dielectric constant tensor:
#      x y z
#    x 2.134020 -0.082360 -0.052410 
#    y -0.082360 2.032870 -0.014440 
#    z -0.052410 -0.014440 2.000870 
# 
# From -- ./inp_files/308916.got.cif
#   From: 2010.05.17/outbox.cif.g08.bks.cpg/sg2_155_cif.got.tgz:308916.got - 2010.06.03 11:33:40.
