data_PCOD9035693
_publ_section_title
;
Structure prediction by ZEFSAII (Michael W. Deem and Ramdas Pophale) SiO2 
 PCOD9035693
Probable space group: P -1
;
_chemical_formula_sum "Si O2"
_cell_formula_units_Z 16
_cell_length_a 13.743485
_cell_length_b 8.850941
_cell_length_c 15.173315
_cell_angle_alpha 111.991540
_cell_angle_beta 149.666862
_cell_angle_gamma 85.659007
_cell_volume 733.715763
_symmetry_space_group_name_H-M "P -1"
_symmetry_group_IT_number 2
_symmetry_cell_setting 'triclinic'
loop_
_space_group_symop_operation_xyz
x,y,z
-x,-y,-z
loop_
_atom_site_type_symbol
_atom_site_label
_atom_site_fract_x
_atom_site_fract_y
_atom_site_fract_z
Si Si1 0.516501 0.783631 0.731854
Si Si2 0.410976 0.268264 0.689766
Si Si3 0.828454 0.232104 0.059488
Si Si4 0.043656 0.007740 0.639000
Si Si5 0.851514 0.303179 0.288119
Si Si6 0.500568 0.671874 0.892006
Si Si7 0.873900 0.428252 0.752185
Si Si8 0.320697 0.509086 0.212327
O O1 0.458473 0.745277 0.782335
O O2 0.295911 0.721078 0.486040
O O3 0.609267 0.645477 0.750635
O O4 0.714330 0.003996 0.919898
O O5 0.618857 0.261794 0.890889
O O6 0.401665 0.446863 0.760445
O O7 0.478321 0.321200 0.651765
O O8 0.179327 0.079668 0.494733
O O9 0.931243 0.315625 0.253601
O O10 0.009222 0.360118 0.154552
O O11 0.143246 0.872290 0.704551
O O12 0.000000 0.000000 0.500000
O O13 0.231473 0.220170 0.861598
O O14 0.603065 0.270346 0.096917
O O15 0.000000 0.500000 0.500000
O O16 0.728861 0.417160 0.720960
O O17 0.087194 0.418003 0.952442
#
# Coordination Sequence:
#
# PCOD9035693 Si02
#       8
#     2   2   2   2   2   2   2   2
#     4  11  23  41  66 101 128 176 214 275 328 390
#     4  10  24  44  62  93 128 171 213 270 329 385
#     4  11  25  41  64  96 132 165 226 269 324 394
#     4  12  26  40  64  93 125 173 220 268 328 384
#     4  12  24  43  63  93 132 175 215 274 324 387
#     4  11  24  43  63  90 134 170 222 267 322 396
#     4  10  22  46  70  97 132 177 211 274 334 388
#     4   9  22  45  71  97 135 170 221 266 330 402
#
# _framework density 21.806809999999999
#
# number of rings (size 3 to 8) (size 9 to 14) (size 15 to 20)
#    0.000    1.250    2.500    2.250    5.250    4.500 
#    0.000    8.125    0.000    0.000    0.000    0.000 
#    0.000    0.000    0.000    0.000    0.000    0.000 
#
# Total GULP energy -89484.443164 kJ/mol
# GULP energy per Si atom -5592.777698 kJ/mol
# Density = 2.175718 g / cm^3
# Si number density = 21.806810 Si / 1000 Ang^3
#
#
#
# Elastic Constant Matrix: (Units=GPa)
#
#
# Indices 1 2 3 4 5 6 
#
# 1 97.3756 7.9371 16.3475 -6.8246 13.3260 12.6463
# 2 7.9371 57.0629 0.8425 -4.7518 3.5955 6.2629
# 3 16.3475 0.8425 101.8562 6.2300 -2.2608 17.3218
# 4 -6.8246 -4.7518 6.2300 25.9904 8.1795 3.0987
# 5 13.3260 3.5955 -2.2608 8.1795 31.1432 -0.7386
# 6 12.6463 6.2629 17.3218 3.0987 -0.7386 21.9528
#
#
#
# Elastic Compliance Matrix: (Units=1/GPa)
#
#
# Indices 1 2 3 4 5 6 
#
# 1 0.013061 0.000138 -0.001392 0.007156 -0.007769 -0.007737
# 2 0.000138 0.018929 0.000568 0.005360 -0.003773 -0.006812
# 3 -0.001392 0.000568 0.011617 -0.002675 0.001884 -0.008086
# 4 0.007156 0.005360 -0.002675 0.048603 -0.016900 -0.010970
# 5 -0.007769 -0.003773 0.001884 -0.016900 0.040630 0.007817
# 6 -0.007737 -0.006812 -0.008086 -0.010970 0.007817 0.060144
#
#
# Mechanical properties :
#
#
# Convention : Reuss Voigt Hill
#
# Bulk Modulus (GPa) = 23.67650 34.06101 28.86876
# Shear Modulus (GPa) = 23.98850 31.22846 27.60848
#
# Velocity S-wave (km/s) = 3.32029 3.78835 3.56202
# Velocity P-wave (km/s) = 5.05768 5.89820 5.49404
#
# Compressibility (1/GPa) = 0.04223597
#
# Stress axis : x y z
#
# Youngs Moduli (GPa) = 76.56150 52.83021 86.08120
#
# Poissons Ratio (x) = -0.00731 0.11981
# Poissons Ratio (y) = -0.01059 -0.04889
# Poissons Ratio (z) = 0.10656 -0.03001
#
# Static dielectric constant tensor:
#      x y z
#    x 1.793240 0.013970 0.040250 
#    y 0.013970 1.762810 -0.030730 
#    z 0.040250 -0.030730 1.889340 
# 
# From -- ./inp_files/215331.got.cif
#   From: 2010.05.17/outbox.cif.g08.bks.cpg/sg2_108_cif.got.tgz:215331.got - 2010.06.03 11:33:40.
