data_PCOD9035130
_publ_section_title
;
Structure prediction by ZEFSAII (Michael W. Deem and Ramdas Pophale) SiO2 
 PCOD9035130
Probable space group: P -1
;
_chemical_formula_sum "Si O2"
_cell_formula_units_Z 16
_cell_length_a 23.528300
_cell_length_b 10.087354
_cell_length_c 20.949293
_cell_angle_alpha 33.156080
_cell_angle_beta 161.038801
_cell_angle_gamma 153.760524
_cell_volume 712.143759
_symmetry_space_group_name_H-M "P -1"
_symmetry_group_IT_number 2
_symmetry_cell_setting 'triclinic'
loop_
_space_group_symop_operation_xyz
x,y,z
-x,-y,-z
loop_
_atom_site_type_symbol
_atom_site_label
_atom_site_fract_x
_atom_site_fract_y
_atom_site_fract_z
Si Si1 0.480038 0.099105 0.707331
Si Si2 0.311777 0.422186 0.782297
Si Si3 0.366300 0.036625 0.477667
Si Si4 0.384361 0.653647 0.494120
Si Si5 0.452236 0.549131 0.742555
Si Si6 0.027348 0.475553 0.962802
Si Si7 0.940653 0.850087 0.144271
Si Si8 0.937179 0.165292 0.574246
O O1 0.355436 0.746154 0.700115
O O2 0.449723 0.208833 0.563681
O O3 0.323165 0.073255 0.606110
O O4 0.735157 0.267880 0.916351
O O5 0.337692 0.360491 0.761465
O O6 0.082175 0.167801 0.672055
O O7 0.500000 0.500000 0.000000
O O8 0.472457 0.857372 0.653575
O O9 0.106250 0.808467 0.300280
O O10 0.444318 0.274864 0.408008
O O11 0.354603 0.469226 0.600083
O O12 0.159815 0.534929 0.268984
O O13 0.500000 0.000000 0.500000
O O14 0.685193 0.612331 0.960349
O O15 0.000000 0.500000 0.000000
O O16 0.995236 0.161016 0.050442
O O17 0.987106 0.868071 0.262347
O O18 0.000000 0.500000 0.500000
#
# Coordination Sequence:
#
# PCOD9035130 Si02
#       8
#     2   2   2   2   2   2   2   2
#     4   9  19  33  49  83 116 141 183 236 292 327
#     4  10  17  32  58  80 101 147 196 238 276 328
#     4   9  18  33  51  80 117 146 185 229 273 350
#     4  10  19  37  55  79 122 157 187 234 278 348
#     4  10  19  35  53  85 113 148 196 236 283 334
#     4  12  21  36  58  85 126 157 180 235 293 357
#     4  11  20  33  59  86 117 156 184 227 300 345
#     4   9  19  33  53  83 113 140 197 253 273 325
#
# _framework density 22.467375000000001
#
# number of rings (size 3 to 8) (size 9 to 14) (size 15 to 20)
#    0.000    2.000    5.000    1.500    0.000    2.500 
#    0.000    0.000    0.000    1.500    0.000    0.000 
#    0.000    0.000    0.000    0.000    0.000    0.000 
#
# Total GULP energy -89177.008860 kJ/mol
# GULP energy per Si atom -5573.563054 kJ/mol
# Density = 2.241624 g / cm^3
# Si number density = 22.467375 Si / 1000 Ang^3
#
#
#
# Elastic Constant Matrix: (Units=GPa)
#
#
# Indices 1 2 3 4 5 6 
#
# 1 135.9271 29.3596 82.8036 22.7772 1.2183 60.3853
# 2 29.3596 46.3124 13.0462 6.2624 4.3604 15.0197
# 3 82.8036 13.0462 158.5483 25.8328 8.3931 36.2876
# 4 22.7772 6.2624 25.8328 37.1512 14.7865 9.2580
# 5 1.2183 4.3604 8.3931 14.7865 37.4228 4.9525
# 6 60.3853 15.0197 36.2876 9.2580 4.9525 36.6584
#
#
#
# Elastic Compliance Matrix: (Units=1/GPa)
#
#
# Indices 1 2 3 4 5 6 
#
# 1 0.035551 -0.004442 -0.005859 -0.008756 0.010776 -0.050187
# 2 -0.004442 0.025648 0.001362 -0.000586 -0.002379 -0.004071
# 3 -0.005859 0.001362 0.009726 -0.003109 -0.000971 0.000382
# 4 -0.008756 -0.000586 -0.003109 0.038120 -0.015360 0.010189
# 5 0.010776 -0.002379 -0.000971 -0.015360 0.035143 -0.016682
# 6 -0.050187 -0.004071 0.000382 0.010189 -0.016682 0.110919
#
#
# Mechanical properties :
#
#
# Convention : Reuss Voigt Hill
#
# Bulk Modulus (GPa) = 18.85057 65.68961 42.27009
# Shear Modulus (GPa) = 17.20191 36.61838 26.91015
#
# Velocity S-wave (km/s) = 2.77002 4.04152 3.46460
# Velocity P-wave (km/s) = 4.31730 7.14701 5.90419
#
# Compressibility (1/GPa) = 0.05304880
#
# Stress axis : x y z
#
# Youngs Moduli (GPa) = 28.12840 38.98930 102.82247
#
# Poissons Ratio (x) = 0.17317 0.60243
# Poissons Ratio (y) = 0.12493 -0.14009
# Poissons Ratio (z) = 0.16480 -0.05312
#
# Static dielectric constant tensor:
#      x y z
#    x 1.978750 -0.007190 0.030530 
#    y -0.007190 2.026680 -0.108380 
#    z 0.030530 -0.108380 1.940020 
# 
# From -- ./inp_files/526746.got.cif
#   From: 2010.05.17/outbox.cif.g08.bks.cpg/sg2_264_cif.got.tgz:526746.got - 2010.06.03 11:33:40.
