data_PCOD9035678
_publ_section_title
;
Structure prediction by ZEFSAII (Michael W. Deem and Ramdas Pophale) SiO2 
 PCOD9035678
Probable space group: P -1
;
_chemical_formula_sum "Si O2"
_cell_formula_units_Z 16
_cell_length_a 12.032633
_cell_length_b 11.996043
_cell_length_c 8.258171
_cell_angle_alpha 108.900650
_cell_angle_beta 120.933492
_cell_angle_gamma 109.883103
_cell_volume 755.684673
_symmetry_space_group_name_H-M "P -1"
_symmetry_group_IT_number 2
_symmetry_cell_setting 'triclinic'
loop_
_space_group_symop_operation_xyz
x,y,z
-x,-y,-z
loop_
_atom_site_type_symbol
_atom_site_label
_atom_site_fract_x
_atom_site_fract_y
_atom_site_fract_z
Si Si1 0.747091 0.433796 0.530577
Si Si2 0.933270 0.303099 0.637130
Si Si3 0.106657 0.057573 0.333125
Si Si4 0.192020 0.002951 0.729056
Si Si5 0.282341 0.516609 0.831085
Si Si6 0.919832 0.741387 0.957074
Si Si7 0.586989 0.681771 0.790796
Si Si8 0.414132 0.369114 0.705331
O O1 0.829668 0.361698 0.617625
O O2 0.711853 0.412898 0.301935
O O3 0.569941 0.359462 0.448409
O O4 0.870554 0.613951 0.733399
O O5 0.101572 0.430922 0.727841
O O6 0.003800 0.283207 0.842958
O O7 0.821024 0.144442 0.380830
O O8 0.159803 0.035839 0.539452
O O9 0.264073 0.210489 0.445638
O O10 0.954388 0.051685 0.277026
O O11 0.047633 0.919216 0.106910
O O12 0.346378 0.167259 0.987660
O O13 0.314103 0.393200 0.773036
O O14 0.442763 0.632952 0.116697
O O15 0.751306 0.713125 0.864130
O O16 0.498899 0.520424 0.737487
#
# Coordination Sequence:
#
# PCOD9035678 Si02
#       8
#     2   2   2   2   2   2   2   2
#     4  11  23  34  54  82 114 144 178 216 274 325
#     4  11  20  36  57  80 110 146 177 221 270 323
#     4   9  16  29  55  82 106 133 184 225 260 311
#     4   9  17  30  53  82 107 135 177 230 266 305
#     4  10  19  32  55  83 108 135 181 229 263 313
#     4  10  21  38  56  79 110 146 180 220 264 322
#     4  10  20  36  57  83 108 139 183 228 264 312
#     4  10  17  32  59  85 102 138 185 224 269 312
#
# _framework density 21.172851999999999
#
# number of rings (size 3 to 8) (size 9 to 14) (size 15 to 20)
#    0.000    2.000    2.500    4.125    0.000    0.500 
#    0.000    2.500    2.750    0.750    0.000    0.000 
#    0.000    0.000    0.000    0.000    0.000    0.000 
#
# Total GULP energy -89190.435244 kJ/mol
# GULP energy per Si atom -5574.402203 kJ/mol
# Density = 2.112466 g / cm^3
# Si number density = 21.172852 Si / 1000 Ang^3
#
#
#
# Elastic Constant Matrix: (Units=GPa)
#
#
# Indices 1 2 3 4 5 6 
#
# 1 66.7525 38.0496 43.1806 3.9571 17.5664 -25.0306
# 2 38.0496 76.9977 53.4001 15.2133 13.2610 -3.0816
# 3 43.1806 53.4001 128.9630 35.0236 9.0038 -4.9982
# 4 3.9571 15.2133 35.0236 47.4051 0.4308 1.9541
# 5 17.5664 13.2610 9.0038 0.4308 23.9707 4.7375
# 6 -25.0306 -3.0816 -4.9982 1.9541 4.7375 26.1266
#
#
#
# Elastic Compliance Matrix: (Units=1/GPa)
#
#
# Indices 1 2 3 4 5 6 
#
# 1 0.081414 -0.017831 -0.014109 0.006452 -0.061178 0.083807
# 2 -0.017831 0.023707 -0.004107 -0.002479 0.004648 -0.015730
# 3 -0.014109 -0.004107 0.015339 -0.008422 0.009401 -0.012142
# 4 0.006452 -0.002479 -0.008422 0.027484 -0.001168 0.002434
# 5 -0.061178 0.004648 0.009401 -0.001168 0.094975 -0.073399
# 6 0.083807 -0.015730 -0.012142 0.002434 -0.073399 0.127516
#
#
# Mechanical properties :
#
#
# Convention : Reuss Voigt Hill
#
# Bulk Modulus (GPa) = 20.67576 60.21929 40.44752
# Shear Modulus (GPa) = 10.90149 28.70600 19.80374
#
# Velocity S-wave (km/s) = 2.27156 3.68610 3.06165
# Velocity P-wave (km/s) = 4.08245 6.82788 5.62523
#
# Compressibility (1/GPa) = 0.04836582
#
# Stress axis : x y z
#
# Youngs Moduli (GPa) = 12.28284 42.18168 65.19243
#
# Poissons Ratio (x) = 0.75215 0.91982
# Poissons Ratio (y) = 0.21902 0.26774
# Poissons Ratio (z) = 0.17330 0.17323
#
# Static dielectric constant tensor:
#      x y z
#    x 1.798000 0.039020 -0.030920 
#    y 0.039020 1.781950 -0.019460 
#    z -0.030920 -0.019460 1.854650 
# 
# From -- ./inp_files/259666.got.cif
#   From: 2010.05.17/outbox.cif.g08.bks.cpg/sg2_130_cif.got.tgz:259666.got - 2010.06.03 11:33:40.
