data_PCOD9035063
_publ_section_title
;
Structure prediction by ZEFSAII (Michael W. Deem and Ramdas Pophale) SiO2 
 PCOD9035063
Probable space group: P -1
;
_chemical_formula_sum "Si O2"
_cell_formula_units_Z 16
_cell_length_a 5.249716
_cell_length_b 5.219857
_cell_length_c 30.354990
_cell_angle_alpha 121.974512
_cell_angle_beta 108.574105
_cell_angle_gamma 95.792542
_cell_volume 630.142261
_symmetry_space_group_name_H-M "P -1"
_symmetry_group_IT_number 2
_symmetry_cell_setting 'triclinic'
loop_
_space_group_symop_operation_xyz
x,y,z
-x,-y,-z
loop_
_atom_site_type_symbol
_atom_site_label
_atom_site_fract_x
_atom_site_fract_y
_atom_site_fract_z
Si Si1 0.425922 0.398322 0.037357
Si Si2 0.698975 0.590350 0.824451
Si Si3 0.742410 0.324589 0.341220
Si Si4 0.968052 0.315494 0.066187
Si Si5 0.229982 0.850845 0.373792
Si Si6 0.774735 0.900746 0.766505
Si Si7 0.142807 0.755472 0.568206
Si Si8 0.873249 0.770811 0.263550
O O1 0.736159 0.476092 0.083589
O O2 0.203578 0.522410 0.063191
O O3 0.500000 0.500000 0.000000
O O4 0.244489 0.018766 0.995277
O O5 0.836896 0.747677 0.800662
O O6 0.861042 0.770732 0.892271
O O7 0.712197 0.233578 0.801893
O O8 0.367740 0.549372 0.795197
O O9 0.499883 0.342400 0.296195
O O10 0.735923 0.399020 0.398691
O O11 0.712138 0.952466 0.301923
O O12 0.054936 0.528525 0.360110
O O13 0.568525 0.977440 0.408720
O O14 0.089178 0.100450 0.410708
O O15 0.131117 0.780644 0.310777
O O16 0.020019 0.014371 0.754044
O O17 0.000000 0.500000 0.500000
#
# Coordination Sequence:
#
# PCOD9035063 Si02
#       8
#     2   2   2   2   2   2   2   2
#     4  10  22  45  70  96 134 187 229 284 346 410
#     4  11  26  41  65 105 136 182 228 294 343 417
#     4  10  23  39  64  93 128 177 224 277 348 417
#     4  10  24  42  66 103 135 175 238 283 344 409
#     4  11  23  41  68  89 130 174 221 282 346 415
#     4  11  24  43  66  97 140 181 231 280 357 415
#     4  11  25  42  63  97 130 170 230 288 342 409
#     4  10  23  39  63  95 131 178 225 280 343 422
#
# _framework density 25.391095
#
# number of rings (size 3 to 8) (size 9 to 14) (size 15 to 20)
#    0.000    1.500    2.500    0.750    7.000    1.000 
#    0.000    0.000    0.000    0.000    0.000    0.000 
#    0.000    0.000    0.000    0.000    0.000    0.000 
#
# Total GULP energy -89403.046605 kJ/mol
# GULP energy per Si atom -5587.690413 kJ/mol
# Density = 2.533330 g / cm^3
# Si number density = 25.391095 Si / 1000 Ang^3
#
#
#
# Elastic Constant Matrix: (Units=GPa)
#
#
# Indices 1 2 3 4 5 6 
#
# 1 133.9730 41.8000 35.3185 -1.3447 11.3245 25.4120
# 2 41.8000 88.0613 11.1201 -9.5985 2.7814 20.2683
# 3 35.3185 11.1201 104.4553 -11.1536 17.9871 8.2451
# 4 -1.3447 -9.5985 -11.1536 26.8704 5.6431 -4.2778
# 5 11.3245 2.7814 17.9871 5.6431 29.2835 -1.2709
# 6 25.4120 20.2683 8.2451 -4.2778 -1.2709 46.4000
#
#
#
# Elastic Compliance Matrix: (Units=1/GPa)
#
#
# Indices 1 2 3 4 5 6 
#
# 1 0.010187 -0.003839 -0.002699 -0.002221 -0.001648 -0.003672
# 2 -0.003839 0.014593 0.000878 0.005082 -0.001594 -0.004003
# 3 -0.002699 0.000878 0.012604 0.007010 -0.008164 -0.000722
# 4 -0.002221 0.005082 0.007010 0.044693 -0.012476 0.001529
# 5 -0.001648 -0.001594 -0.008164 -0.012476 0.042489 0.003063
# 6 -0.003672 -0.004003 -0.000722 0.001529 0.003063 0.025665
#
#
# Mechanical properties :
#
#
# Convention : Reuss Voigt Hill
#
# Bulk Modulus (GPa) = 38.36952 55.88520 47.12736
# Shear Modulus (GPa) = 29.37019 36.39419 32.88219
#
# Velocity S-wave (km/s) = 3.40474 3.79006 3.60255
# Velocity P-wave (km/s) = 5.53177 6.41952 5.99211
#
# Compressibility (1/GPa) = 0.02606235
#
# Stress axis : x y z
#
# Youngs Moduli (GPa) = 98.16122 68.52625 79.34037
#
# Poissons Ratio (x) = 0.26311 0.21415
# Poissons Ratio (y) = 0.37689 -0.06964
# Poissons Ratio (z) = 0.26495 -0.06015
#
# Static dielectric constant tensor:
#      x y z
#    x 2.165990 -0.089690 -0.032340 
#    y -0.089690 2.039650 0.030680 
#    z -0.032340 0.030680 2.051180 
# 
# From -- ./inp_files/12465.got.cif
#   From: 2010.05.17/outbox.cif.g08.bks.cpg/sg2_7_cif.got.tgz:12465.got - 2010.06.03 11:33:40.
