data_PCOD9035379
_publ_section_title
;
Structure prediction by ZEFSAII (Michael W. Deem and Ramdas Pophale) SiO2 
 PCOD9035379
Probable space group: P -1
;
_chemical_formula_sum "Si O2"
_cell_formula_units_Z 15
_cell_length_a 10.863765
_cell_length_b 8.457229
_cell_length_c 15.160046
_cell_angle_alpha 61.515581
_cell_angle_beta 50.947338
_cell_angle_gamma 101.728601
_cell_volume 641.510506
_symmetry_space_group_name_H-M "P -1"
_symmetry_group_IT_number 2
_symmetry_cell_setting 'triclinic'
loop_
_space_group_symop_operation_xyz
x,y,z
-x,-y,-z
loop_
_atom_site_type_symbol
_atom_site_label
_atom_site_fract_x
_atom_site_fract_y
_atom_site_fract_z
Si Si1 0.000000 0.000000 0.500000
Si Si2 0.611450 0.288422 0.872495
Si Si3 0.256765 0.747441 0.631906
Si Si4 0.424568 0.165370 0.175936
Si Si5 0.195250 0.309009 0.855981
Si Si6 0.109985 0.439050 0.030676
Si Si7 0.687914 0.579287 0.597907
Si Si8 0.148973 0.627299 0.515900
O O1 0.747433 0.838466 0.699999
O O2 0.865897 0.848181 0.503166
O O3 0.555357 0.349185 0.793891
O O4 0.893727 0.498704 0.685455
O O5 0.519782 0.296287 0.002459
O O6 0.500000 0.000000 0.000000
O O7 0.166086 0.472446 0.772872
O O8 0.279493 0.767813 0.511748
O O9 0.071074 0.730901 0.761949
O O10 0.500000 0.000000 0.500000
O O11 0.269677 0.852690 0.327801
O O12 0.645428 0.310044 0.100513
O O13 0.469495 0.487824 0.671280
O O14 0.153658 0.314235 0.976979
O O15 0.000000 0.000000 0.000000
O O16 0.000000 0.500000 0.000000
O O17 0.829179 0.558640 0.476702
#
# Coordination Sequence:
#
# PCOD9035379 Si02
#       8
#     1   2   2   2   2   2   2   2
#     4  12  26  48  70 110 150 198 240 310 380 434
#     4  12  25  45  74 106 138 198 247 292 375 444
#     4  11  26  47  77 109 146 202 257 304 388 460
#     4  12  24  48  75 106 155 190 253 311 371 461
#     4  11  27  48  72 111 149 196 251 321 384 445
#     4  10  22  45  75 103 144 199 245 304 376 457
#     4  12  27  47  73 105 156 192 247 317 375 448
#     4  12  25  46  75 109 142 197 251 308 368 460
#
# _framework density 23.382311999999999
#
# number of rings (size 3 to 8) (size 9 to 14) (size 15 to 20)
#    0.000    0.533    5.333    2.800    7.467    1.067 
#    2.400    0.000    0.000    0.000    0.000    0.000 
#    0.000    0.000    0.000    0.000    0.000    0.000 
#
# Total GULP energy -83648.396524 kJ/mol
# GULP energy per Si atom -5576.559768 kJ/mol
# Density = 2.332909 g / cm^3
# Si number density = 23.382312 Si / 1000 Ang^3
#
#
#
# Elastic Constant Matrix: (Units=GPa)
#
#
# Indices 1 2 3 4 5 6 
#
# 1 42.4696 -15.1579 21.5157 13.4161 -9.8922 3.2416
# 2 -15.1579 64.4059 29.1036 31.8339 -7.5937 5.6436
# 3 21.5157 29.1036 118.6636 19.9661 -23.8884 -2.9448
# 4 13.4161 31.8339 19.9661 62.8835 -4.1979 -3.0170
# 5 -9.8922 -7.5937 -23.8884 -4.1979 52.4161 -0.9257
# 6 3.2416 5.6436 -2.9448 -3.0170 -0.9257 30.2137
#
#
#
# Elastic Compliance Matrix: (Units=1/GPa)
#
#
# Indices 1 2 3 4 5 6 
#
# 1 0.049883 0.030112 -0.011723 -0.022417 0.006388 -0.014162
# 2 0.030112 0.041342 -0.010972 -0.024257 0.004476 -0.014307
# 3 -0.011723 -0.010972 0.013179 0.004292 0.002638 0.005101
# 4 -0.022417 -0.024257 0.004292 0.031900 -0.003050 0.010446
# 5 0.006388 0.004476 0.002638 -0.003050 0.021874 -0.000899
# 6 -0.014162 -0.014307 0.005101 0.010446 -0.000899 0.038802
#
#
# Mechanical properties :
#
#
# Convention : Reuss Voigt Hill
#
# Bulk Modulus (GPa) = 8.38663 32.94022 20.66342
# Shear Modulus (GPa) = 22.53323 41.77450 32.15386
#
# Velocity S-wave (km/s) = 3.10770 4.23139 3.71231
# Velocity P-wave (km/s) = 4.05852 6.16369 5.21837
#
# Compressibility (1/GPa) = 0.11923741
#
# Stress axis : x y z
#
# Youngs Moduli (GPa) = 20.04687 24.18827 75.87610
#
# Poissons Ratio (x) = -0.72835 0.88953
# Poissons Ratio (y) = -0.60364 0.83250
# Poissons Ratio (z) = 0.23502 0.26539
#
# Static dielectric constant tensor:
#      x y z
#    x 1.876010 -0.175510 0.137870 
#    y -0.175510 1.579460 -0.019030 
#    z 0.137870 -0.019030 1.584300 
# 
# From -- ./inp_files/273927.got.cif
#   From: 2010.05.17/outbox.cif.g08.bks.cpg/sg2_137_cif.got.tgz:273927.got - 2010.06.03 11:33:40.
