data_PCOD9035910
_publ_section_title
;
Structure prediction by ZEFSAII (Michael W. Deem and Ramdas Pophale) SiO2 
 PCOD9035910
Probable space group: P -1
;
_chemical_formula_sum "Si O2"
_cell_formula_units_Z 16
_cell_length_a 5.413098
_cell_length_b 5.025859
_cell_length_c 24.968101
_cell_angle_alpha 87.463293
_cell_angle_beta 62.524132
_cell_angle_gamma 94.782988
_cell_volume 597.917252
_symmetry_space_group_name_H-M "P -1"
_symmetry_group_IT_number 2
_symmetry_cell_setting 'triclinic'
loop_
_space_group_symop_operation_xyz
x,y,z
-x,-y,-z
loop_
_atom_site_type_symbol
_atom_site_label
_atom_site_fract_x
_atom_site_fract_y
_atom_site_fract_z
Si Si1 0.224621 0.822308 0.218638
Si Si2 0.725166 0.402165 0.265522
Si Si3 0.422106 0.586484 0.948296
Si Si4 0.979231 0.782924 0.850053
Si Si5 0.627143 0.118778 0.679441
Si Si6 0.752977 0.899659 0.089853
Si Si7 0.970634 0.136378 0.431350
Si Si8 0.569933 0.710053 0.539748
O O1 0.064766 0.997456 0.192065
O O2 0.256804 0.942931 0.273230
O O3 0.525820 0.833029 0.160409
O O4 0.034703 0.539749 0.247575
O O5 0.761324 0.355888 0.197880
O O6 0.617561 0.120911 0.305048
O O7 0.508033 0.607674 0.301689
O O8 0.352257 0.887555 0.943139
O O9 0.706478 0.572132 0.885480
O O10 0.198188 0.367984 0.943674
O O11 0.500000 0.500000 0.000000
O O12 0.003390 0.932842 0.902892
O O13 0.863366 0.080547 0.612915
O O14 0.748682 0.251520 0.412332
O O15 0.207054 0.344028 0.435579
O O16 0.750959 0.979931 0.496439
O O17 0.500000 0.500000 0.500000
#
# Coordination Sequence:
#
# PCOD9035910 Si02
#       8
#     2   2   2   2   2   2   2   2
#     4  11  24  43  68  97 137 180 228 275 354 428
#     4  12  25  43  65  99 139 179 227 278 353 420
#     4  11  26  44  67 100 131 173 231 290 343 413
#     4  11  25  43  71  97 135 183 225 280 353 428
#     4  12  29  42  69 106 143 179 236 291 348 420
#     4  11  24  41  70  92 136 173 225 276 354 418
#     4  10  25  44  68 108 140 188 244 301 355 430
#     4  10  22  46  75  98 144 192 245 292 370 419
#
# _framework density 26.759557999999998
#
# number of rings (size 3 to 8) (size 9 to 14) (size 15 to 20)
#    0.000    1.000    3.750    0.750    8.750    2.000 
#    0.000    0.000    0.000    0.000    0.000    0.000 
#    0.000    0.000    0.000    0.000    0.000    0.000 
#
# Total GULP energy -89523.584019 kJ/mol
# GULP energy per Si atom -5595.224001 kJ/mol
# Density = 2.669865 g / cm^3
# Si number density = 26.759558 Si / 1000 Ang^3
#
#
#
# Elastic Constant Matrix: (Units=GPa)
#
#
# Indices 1 2 3 4 5 6 
#
# 1 111.0029 38.2066 21.6107 3.5144 2.3716 25.3540
# 2 38.2066 115.3473 26.6478 24.4834 7.7874 5.3587
# 3 21.6107 26.6478 77.6494 10.7606 -3.4342 3.7001
# 4 3.5144 24.4834 10.7606 37.1888 -0.5642 2.3678
# 5 2.3716 7.7874 -3.4342 -0.5642 48.3135 10.8408
# 6 25.3540 5.3587 3.7001 2.3678 10.8408 48.7663
#
#
#
# Elastic Compliance Matrix: (Units=1/GPa)
#
#
# Indices 1 2 3 4 5 6 
#
# 1 0.011996 -0.003815 -0.002012 0.002365 0.001271 -0.006062
# 2 -0.003815 0.012037 -0.002279 -0.007050 -0.002380 0.001705
# 3 -0.002012 -0.002279 0.014636 -0.002521 0.001482 -0.000021
# 4 0.002365 -0.007050 -0.002521 0.032203 0.001713 -0.002208
# 5 0.001271 -0.002380 0.001482 0.001713 0.022395 -0.005573
# 6 -0.006062 0.001705 -0.000021 -0.002208 -0.005573 0.024818
#
#
# Mechanical properties :
#
#
# Convention : Reuss Voigt Hill
#
# Bulk Modulus (GPa) = 44.52741 52.99221 48.75981
# Shear Modulus (GPa) = 35.26473 41.35604 38.31038
#
# Velocity S-wave (km/s) = 3.63414 3.93551 3.78782
# Velocity P-wave (km/s) = 5.85536 6.36373 6.11483
#
# Compressibility (1/GPa) = 0.02245808
#
# Stress axis : x y z
#
# Youngs Moduli (GPa) = 83.35929 83.07478 68.32318
#
# Poissons Ratio (x) = 0.31692 0.13748
# Poissons Ratio (y) = 0.31801 0.15570
# Poissons Ratio (z) = 0.16773 0.18931
#
# Static dielectric constant tensor:
#      x y z
#    x 2.153690 -0.032260 0.028850 
#    y -0.032260 2.100020 0.020720 
#    z 0.028850 0.020720 2.088790 
# 
# From -- ./inp_files/603258.got.cif
#   From: 2010.05.17/outbox.cif.g08.bks.cpg/sg2_302_cif.got.tgz:603258.got - 2010.06.03 11:33:40.
