data_PCOD9035701
_publ_section_title
;
Structure prediction by ZEFSAII (Michael W. Deem and Ramdas Pophale) SiO2 
 PCOD9035701
Probable space group: P -1
;
_chemical_formula_sum "Si O2"
_cell_formula_units_Z 12
_cell_length_a 8.746539
_cell_length_b 5.380309
_cell_length_c 15.791860
_cell_angle_alpha 83.262375
_cell_angle_beta 124.560216
_cell_angle_gamma 66.208480
_cell_volume 497.412047
_symmetry_space_group_name_H-M "P -1"
_symmetry_group_IT_number 2
_symmetry_cell_setting 'triclinic'
loop_
_space_group_symop_operation_xyz
x,y,z
-x,-y,-z
loop_
_atom_site_type_symbol
_atom_site_label
_atom_site_fract_x
_atom_site_fract_y
_atom_site_fract_z
Si Si1 0.361906 0.283192 0.506617
Si Si2 0.563835 0.609554 0.932468
Si Si3 0.949022 0.882802 0.903845
Si Si4 0.532571 0.798328 0.197432
Si Si5 0.172082 0.838600 0.321297
Si Si6 0.997446 0.225596 0.422774
O O1 0.184690 0.562977 0.380188
O O2 0.559077 0.305900 0.603979
O O3 0.207288 0.233213 0.517256
O O4 0.500000 0.000000 0.500000
O O5 0.519399 0.428484 0.855673
O O6 0.440999 0.970082 0.861015
O O7 0.500000 0.500000 0.000000
O O8 0.833589 0.463452 0.025092
O O9 0.696583 0.966700 0.830179
O O10 0.946398 0.047128 0.810304
O O11 0.000000 0.000000 0.000000
O O12 0.761433 0.551496 0.327342
O O13 0.059599 0.088367 0.351307
O O14 0.000000 0.000000 0.500000
#
# Coordination Sequence:
#
# PCOD9035701 Si02
#       6
#     2   2   2   2   2   2
#     4   9  22  42  69 102 136 184 241 292 361 434
#     4  11  24  47  71 102 139 190 246 299 364 425
#     4  10  24  46  71 101 141 186 244 296 362 430
#     4  11  26  44  68 106 143 188 239 303 360 436
#     4  10  22  46  70  98 140 189 236 298 364 428
#     4  11  26  43  67 108 144 186 240 296 367 437
#
# _framework density 24.124869
#
# number of rings (size 3 to 8) (size 9 to 14) (size 15 to 20)
#    0.000    1.667    0.000    2.000   11.667    2.000 
#   18.000    0.000    0.000    0.000    0.000    0.000 
#    0.000    0.000    0.000    0.000    0.000    0.000 
#
# Total GULP energy -66975.649421 kJ/mol
# GULP energy per Si atom -5581.304118 kJ/mol
# Density = 2.406996 g / cm^3
# Si number density = 24.124869 Si / 1000 Ang^3
#
#
#
# Elastic Constant Matrix: (Units=GPa)
#
#
# Indices 1 2 3 4 5 6 
#
# 1 163.2515 32.0883 57.9347 -19.5357 5.6640 1.7145
# 2 32.0883 86.5806 62.6863 -21.4101 -1.4930 4.7867
# 3 57.9347 62.6863 145.0538 -23.0993 -16.7000 -13.0032
# 4 -19.5357 -21.4101 -23.0993 48.0820 -8.9931 -9.4488
# 5 5.6640 -1.4930 -16.7000 -8.9931 41.7780 -13.0882
# 6 1.7145 4.7867 -13.0032 -9.4488 -13.0882 40.0988
#
#
#
# Elastic Compliance Matrix: (Units=1/GPa)
#
#
# Indices 1 2 3 4 5 6 
#
# 1 0.007556 -0.000123 -0.003491 0.000287 -0.003111 -0.002388
# 2 -0.000123 0.018670 -0.008685 0.002153 -0.004171 -0.005894
# 3 -0.003491 -0.008685 0.015384 0.006445 0.011261 0.011369
# 4 0.000287 0.002153 0.006445 0.030039 0.013220 0.013214
# 5 -0.003111 -0.004171 0.011261 0.013220 0.037732 0.019714
# 6 -0.002388 -0.005894 0.011369 0.013214 0.019714 0.038979
#
#
# Mechanical properties :
#
#
# Convention : Reuss Voigt Hill
#
# Bulk Modulus (GPa) = 58.78576 77.81162 68.29869
# Shear Modulus (GPa) = 27.99111 42.13686 35.06399
#
# Velocity S-wave (km/s) = 3.40995 4.18379 3.81653
# Velocity P-wave (km/s) = 6.31854 7.46073 6.91326
#
# Compressibility (1/GPa) = 0.01701092
#
# Stress axis : x y z
#
# Youngs Moduli (GPa) = 132.34455 53.56218 65.00421
#
# Poissons Ratio (x) = 0.00661 0.22694
# Poissons Ratio (y) = 0.01634 0.56454
# Poissons Ratio (z) = 0.46203 0.46517
#
# Static dielectric constant tensor:
#      x y z
#    x 1.979830 0.003690 0.051980 
#    y 0.003690 1.962330 -0.000300 
#    z 0.051980 -0.000300 1.908560 
# 
# From -- ./inp_files/22328.got.cif
#   From: 2010.05.17/outbox.cif.g08.bks.cpg/sg2_12_cif.got.tgz:22328.got - 2010.06.03 11:33:40.
