data_PCOD9035465
_publ_section_title
;
Structure prediction by ZEFSAII (Michael W. Deem and Ramdas Pophale) SiO2 
 PCOD9035465
Probable space group: P -1
;
_chemical_formula_sum "Si O2"
_cell_formula_units_Z 14
_cell_length_a 7.680193
_cell_length_b 19.496904
_cell_length_c 5.159559
_cell_angle_alpha 90.431906
_cell_angle_beta 79.742227
_cell_angle_gamma 47.310063
_cell_volume 549.945683
_symmetry_space_group_name_H-M "P -1"
_symmetry_group_IT_number 2
_symmetry_cell_setting 'triclinic'
loop_
_space_group_symop_operation_xyz
x,y,z
-x,-y,-z
loop_
_atom_site_type_symbol
_atom_site_label
_atom_site_fract_x
_atom_site_fract_y
_atom_site_fract_z
Si Si1 0.005620 0.411257 0.204094
Si Si2 0.098750 0.830273 0.977578
Si Si3 0.854320 0.328983 0.923935
Si Si4 0.414045 0.981923 0.772878
Si Si5 0.650426 0.570205 0.688080
Si Si6 0.740475 0.767973 0.556753
Si Si7 0.586405 0.246278 0.593811
O O1 0.150742 0.444297 0.182741
O O2 0.207356 0.305519 0.258920
O O3 0.787649 0.478155 0.471983
O O4 0.909584 0.392767 0.989662
O O5 0.027081 0.768665 0.958445
O O6 0.296307 0.774778 0.157114
O O7 0.207384 0.825834 0.677478
O O8 0.878164 0.936904 0.131303
O O9 0.991046 0.280561 0.613187
O O10 0.570444 0.396183 0.073892
O O11 0.555511 0.873051 0.715083
O O12 0.500000 0.000000 0.500000
O O13 0.500000 0.000000 0.000000
O O14 0.544793 0.652361 0.501136
O O15 0.601767 0.766467 0.358518
#
# Coordination Sequence:
#
# PCOD9035465 Si02
#       7
#     2   2   2   2   2   2   2
#     4  10  22  46  65 103 139 185 238 292 350 421
#     4  11  24  45  70  99 141 185 233 287 358 411
#     4  11  23  39  69  98 134 185 231 289 349 421
#     4  12  25  44  70 105 140 185 234 295 349 421
#     4   9  22  45  70  97 146 183 237 289 359 411
#     4  11  26  41  70 100 138 181 241 289 354 420
#     4  10  25  45  69 102 139 184 231 297 345 419
#
# _framework density 25.457058
#
# number of rings (size 3 to 8) (size 9 to 14) (size 15 to 20)
#    0.000    1.429    1.429    2.143   10.000    1.714 
#    5.143    2.143    0.000    0.000    0.000    0.000 
#    0.000    0.000    0.000    0.000    0.000    0.000 
#
# Total GULP energy -78327.080220 kJ/mol
# GULP energy per Si atom -5594.791444 kJ/mol
# Density = 2.539912 g / cm^3
# Si number density = 25.457058 Si / 1000 Ang^3
#
#
#
# Elastic Constant Matrix: (Units=GPa)
#
#
# Indices 1 2 3 4 5 6 
#
# 1 78.0979 30.2715 44.3660 18.5620 5.2141 2.2587
# 2 30.2715 156.4754 41.3287 50.4788 6.4298 -0.0004
# 3 44.3660 41.3287 150.7649 37.0258 1.2313 -8.9328
# 4 18.5620 50.4788 37.0258 47.1624 -13.4723 5.8605
# 5 5.2141 6.4298 1.2313 -13.4723 45.6375 4.0405
# 6 2.2587 -0.0004 -8.9328 5.8605 4.0405 33.1213
#
#
#
# Elastic Compliance Matrix: (Units=1/GPa)
#
#
# Indices 1 2 3 4 5 6 
#
# 1 0.016279 -0.001236 -0.003921 -0.002443 -0.002171 -0.001471
# 2 -0.001236 0.011361 0.001166 -0.014831 -0.006204 0.003780
# 3 -0.003921 0.001166 0.010012 -0.009066 -0.003101 0.004950
# 4 -0.002443 -0.014831 -0.009066 0.052402 0.019314 -0.013907
# 5 -0.002171 -0.006204 -0.003101 0.019314 0.029501 -0.007705
# 6 -0.001471 0.003780 0.004950 -0.013907 -0.007705 0.035028
#
#
# Mechanical properties :
#
#
# Convention : Reuss Voigt Hill
#
# Bulk Modulus (GPa) = 33.70362 68.58564 51.14463
# Shear Modulus (GPa) = 28.99284 43.14237 36.06760
#
# Velocity S-wave (km/s) = 3.37841 4.12115 3.76813
# Velocity P-wave (km/s) = 5.33726 7.04595 6.25027
#
# Compressibility (1/GPa) = 0.02967040
#
# Stress axis : x y z
#
# Youngs Moduli (GPa) = 61.42785 88.01747 99.87824
#
# Poissons Ratio (x) = 0.10883 0.39163
# Poissons Ratio (y) = 0.07596 -0.11650
# Poissons Ratio (z) = 0.24086 -0.10266
#
# Static dielectric constant tensor:
#      x y z
#    x 2.140450 -0.017970 0.026300 
#    y -0.017970 2.009580 -0.020320 
#    z 0.026300 -0.020320 1.989210 
# 
# From -- ./inp_files/51454.got.cif
#   From: 2010.05.17/outbox.cif.g08.bks.cpg/sg2_26_cif.got.tgz:51454.got - 2010.06.03 11:33:40.
