data_PCOD9035416
_publ_section_title
;
Structure prediction by ZEFSAII (Michael W. Deem and Ramdas Pophale) SiO2 
 PCOD9035416
Probable space group: P -1
;
_chemical_formula_sum "Si O2"
_cell_formula_units_Z 14
_cell_length_a 5.561729
_cell_length_b 9.037679
_cell_length_c 18.894063
_cell_angle_alpha 52.517326
_cell_angle_beta 97.285608
_cell_angle_gamma 126.032374
_cell_volume 568.543612
_symmetry_space_group_name_H-M "P -1"
_symmetry_group_IT_number 2
_symmetry_cell_setting 'triclinic'
loop_
_space_group_symop_operation_xyz
x,y,z
-x,-y,-z
loop_
_atom_site_type_symbol
_atom_site_label
_atom_site_fract_x
_atom_site_fract_y
_atom_site_fract_z
Si Si1 0.722869 0.931322 0.202563
Si Si2 0.143149 0.289542 0.843433
Si Si3 0.908939 0.522082 0.675866
Si Si4 0.373772 0.419368 0.099959
Si Si5 0.045892 0.978204 0.590578
Si Si6 0.776726 0.241372 0.528092
Si Si7 0.463623 0.856495 0.972114
O O1 0.680922 0.762088 0.187428
O O2 0.426907 0.716407 0.301689
O O3 0.659922 0.097417 0.114277
O O4 0.085515 0.130435 0.184239
O O5 0.339983 0.456653 0.869679
O O6 0.027894 0.411644 0.760282
O O7 0.835438 0.006161 0.929424
O O8 0.160917 0.688999 0.573853
O O9 0.880959 0.694576 0.672228
O O10 0.500000 0.500000 0.000000
O O11 0.260819 0.574940 0.064210
O O12 0.418770 0.116314 0.573700
O O13 0.894274 0.085301 0.591218
O O14 0.000000 0.000000 0.500000
O O15 0.000000 0.500000 0.500000
O O16 0.500000 0.000000 0.000000
#
# Coordination Sequence:
#
# PCOD9035416 Si02
#       7
#     2   2   2   2   2   2   2
#     4  11  24  42  65 100 137 182 231 292 361 408
#     4  11  24  43  64 100 138 183 223 297 363 400
#     4  10  25  45  68  96 146 178 230 287 353 433
#     4  12  23  43  72  93 132 183 242 287 344 424
#     4  10  22  45  77 102 137 197 231 276 362 433
#     4  11  24  47  77 112 139 184 242 290 349 431
#     4  11  21  42  67  91 130 182 236 289 346 423
#
# _framework density 24.624320000000001
#
# number of rings (size 3 to 8) (size 9 to 14) (size 15 to 20)
#    0.000    1.143    2.857    3.857    6.000    0.000 
#    5.143    0.000    0.000    0.000    0.000    0.000 
#    0.000    0.000    0.000    0.000    0.000    0.000 
#
# Total GULP energy -78178.604705 kJ/mol
# GULP energy per Si atom -5584.186050 kJ/mol
# Density = 2.456827 g / cm^3
# Si number density = 24.624320 Si / 1000 Ang^3
#
#
#
# Elastic Constant Matrix: (Units=GPa)
#
#
# Indices 1 2 3 4 5 6 
#
# 1 113.7387 45.3983 39.5471 -18.9714 10.7392 12.8493
# 2 45.3983 147.0505 38.6912 -28.2469 0.1623 19.8658
# 3 39.5471 38.6912 96.2022 -30.3416 4.6804 14.9081
# 4 -18.9714 -28.2469 -30.3416 40.0613 3.2356 -8.7177
# 5 10.7392 0.1623 4.6804 3.2356 41.4071 -15.6868
# 6 12.8493 19.8658 14.9081 -8.7177 -15.6868 35.8919
#
#
#
# Elastic Compliance Matrix: (Units=1/GPa)
#
#
# Indices 1 2 3 4 5 6 
#
# 1 0.011592 -0.002123 -0.002725 0.001552 -0.004035 -0.003229
# 2 -0.002123 0.008890 -0.000917 0.003942 -0.000908 -0.003220
# 3 -0.002725 -0.000917 0.015621 0.009245 -0.003384 -0.004239
# 4 0.001552 0.003942 0.009245 0.035884 -0.004143 0.000328
# 5 -0.004035 -0.000908 -0.003384 -0.004143 0.032113 0.016381
# 6 -0.003229 -0.003220 -0.004239 0.000328 0.016381 0.039799
#
#
# Mechanical properties :
#
#
# Convention : Reuss Voigt Hill
#
# Bulk Modulus (GPa) = 40.69432 67.14052 53.91742
# Shear Modulus (GPa) = 30.55890 39.02904 34.79397
#
# Velocity S-wave (km/s) = 3.52661 3.98550 3.76306
# Velocity P-wave (km/s) = 5.75713 6.96449 6.38939
#
# Compressibility (1/GPa) = 0.02457345
#
# Stress axis : x y z
#
# Youngs Moduli (GPa) = 86.26987 112.48622 64.01641
#
# Poissons Ratio (x) = 0.23878 0.17446
# Poissons Ratio (y) = 0.18313 0.05867
# Poissons Ratio (z) = 0.23510 0.10310
#
# Static dielectric constant tensor:
#      x y z
#    x 2.344200 -0.025450 -0.214540 
#    y -0.025450 1.987200 -0.010130 
#    z -0.214540 -0.010130 2.057940 
# 
# From -- ./inp_files/550455.got.cif
#   From: 2010.05.17/outbox.cif.g08.bks.cpg/sg2_276_cif.got.tgz:550455.got - 2010.06.03 11:33:40.
