data_PCOD9035353
_publ_section_title
;
Structure prediction by ZEFSAII (Michael W. Deem and Ramdas Pophale) SiO2 
 PCOD9035353
Probable space group: P -1
;
_chemical_formula_sum "Si O2"
_cell_formula_units_Z 14
_cell_length_a 7.875478
_cell_length_b 11.801896
_cell_length_c 7.713339
_cell_angle_alpha 70.418097
_cell_angle_beta 124.722314
_cell_angle_gamma 85.653076
_cell_volume 521.208679
_symmetry_space_group_name_H-M "P -1"
_symmetry_group_IT_number 2
_symmetry_cell_setting 'triclinic'
loop_
_space_group_symop_operation_xyz
x,y,z
-x,-y,-z
loop_
_atom_site_type_symbol
_atom_site_label
_atom_site_fract_x
_atom_site_fract_y
_atom_site_fract_z
Si Si1 0.242900 0.400664 0.711655
Si Si2 0.333732 0.936349 0.839075
Si Si3 0.666278 0.373781 0.506853
Si Si4 0.770109 0.526962 0.946368
Si Si5 0.088266 0.175276 0.708593
Si Si6 0.661787 0.884643 0.767130
Si Si7 0.119696 0.736986 0.949806
O O1 0.366761 0.480248 0.642382
O O2 0.231788 0.267042 0.708641
O O3 0.000000 0.500000 0.500000
O O4 0.274122 0.399095 0.936214
O O5 0.125978 0.069066 0.638769
O O6 0.758851 0.161235 0.065537
O O7 0.465718 0.868143 0.781822
O O8 0.500000 0.000000 0.000000
O O9 0.418781 0.381647 0.334354
O O10 0.839711 0.269031 0.541130
O O11 0.779293 0.337782 0.775463
O O12 0.000000 0.500000 0.000000
O O13 0.798706 0.378597 0.081801
O O14 0.172419 0.107311 0.980938
O O15 0.855686 0.797553 0.796361
O O16 0.500000 0.000000 0.500000
#
# Coordination Sequence:
#
# PCOD9035353 Si02
#       7
#     2   2   2   2   2   2   2
#     4  10  22  45  74 106 147 194 242 309 377 450
#     4  10  24  48  77 105 148 205 250 305 387 439
#     4  10  23  45  76 107 146 199 246 313 381 444
#     4  12  25  46  69 116 151 195 253 309 385 454
#     4   9  21  46  72 108 149 192 253 306 375 455
#     4  10  23  45  70 108 150 194 251 308 364 444
#     4  11  26  51  75 113 157 195 258 314 378 461
#
# _framework density 26.860641000000001
#
# number of rings (size 3 to 8) (size 9 to 14) (size 15 to 20)
#    0.000    1.714    0.000    3.429    4.000    8.000 
#   25.714    0.000    0.000    0.000    0.000    0.000 
#    0.000    0.000    0.000    0.000    0.000    0.000 
#
# Total GULP energy -78116.534543 kJ/mol
# GULP energy per Si atom -5579.752467 kJ/mol
# Density = 2.679951 g / cm^3
# Si number density = 26.860641 Si / 1000 Ang^3
#
#
#
# Elastic Constant Matrix: (Units=GPa)
#
#
# Indices 1 2 3 4 5 6 
#
# 1 154.8146 67.5214 58.2968 -24.0408 16.9089 -2.9473
# 2 67.5214 186.2552 40.9528 -33.1823 10.7093 -3.4272
# 3 58.2968 40.9528 164.2431 -22.8729 19.0653 -18.3425
# 4 -24.0408 -33.1823 -22.8729 41.4368 -12.9363 7.8141
# 5 16.9089 10.7093 19.0653 -12.9363 51.9102 -11.4012
# 6 -2.9473 -3.4272 -18.3425 7.8141 -11.4012 45.0624
#
#
#
# Elastic Compliance Matrix: (Units=1/GPa)
#
#
# Indices 1 2 3 4 5 6 
#
# 1 0.008704 -0.002289 -0.002245 0.001776 -0.001353 -0.001169
# 2 -0.002289 0.007024 -0.000442 0.004267 0.000429 -0.000427
# 3 -0.002245 -0.000442 0.007626 0.001792 -0.001014 0.002356
# 4 0.001776 0.004267 0.001792 0.031743 0.005126 -0.003037
# 5 -0.001353 0.000429 -0.001014 0.005126 0.022202 0.004260
# 6 -0.001169 -0.000427 0.002356 -0.003037 0.004260 0.024646
#
#
# Mechanical properties :
#
#
# Convention : Reuss Voigt Hill
#
# Bulk Modulus (GPa) = 74.61738 93.20612 83.91175
# Shear Modulus (GPa) = 42.96851 50.25133 46.60992
#
# Velocity S-wave (km/s) = 4.00394 4.32999 4.17015
# Velocity P-wave (km/s) = 7.01535 7.73134 7.38203
#
# Compressibility (1/GPa) = 0.01340170
#
# Stress axis : x y z
#
# Youngs Moduli (GPa) = 114.88446 142.37505 131.12975
#
# Poissons Ratio (x) = 0.32594 0.29438
# Poissons Ratio (y) = 0.26300 0.05796
# Poissons Ratio (z) = 0.25791 0.06293
#
# Static dielectric constant tensor:
#      x y z
#    x 2.095430 0.038530 0.019720 
#    y 0.038530 2.277320 0.025210 
#    z 0.019720 0.025210 2.216250 
# 
# From -- ./inp_files/206524.got.cif
#   From: 2010.05.17/outbox.cif.g08.bks.cpg/sg2_104_cif.got.tgz:206524.got - 2010.06.03 11:33:40.
