data_PCOD9035105
_publ_section_title
;
Structure prediction by ZEFSAII (Michael W. Deem and Ramdas Pophale) SiO2 
 PCOD9035105
Probable space group: P -1
;
_chemical_formula_sum "Si O2"
_cell_formula_units_Z 14
_cell_length_a 11.539385
_cell_length_b 8.253296
_cell_length_c 11.836875
_cell_angle_alpha 55.003940
_cell_angle_beta 42.866626
_cell_angle_gamma 68.293678
_cell_volume 625.659965
_symmetry_space_group_name_H-M "P -1"
_symmetry_group_IT_number 2
_symmetry_cell_setting 'triclinic'
loop_
_space_group_symop_operation_xyz
x,y,z
-x,-y,-z
loop_
_atom_site_type_symbol
_atom_site_label
_atom_site_fract_x
_atom_site_fract_y
_atom_site_fract_z
Si Si1 0.273304 0.647387 0.184336
Si Si2 0.614776 0.130482 0.774049
Si Si3 0.438983 0.218340 0.639869
Si Si4 0.129849 0.442105 0.062438
Si Si5 0.766361 0.445999 0.294019
Si Si6 0.671916 0.735578 0.812475
Si Si7 0.845092 0.127993 0.025579
O O1 0.277647 0.712881 0.285407
O O2 0.247104 0.409805 0.276833
O O3 0.156998 0.779690 0.137432
O O4 0.465242 0.699416 0.973794
O O5 0.493595 0.219533 0.732950
O O6 0.287404 0.027780 0.305125
O O7 0.500000 0.000000 0.000000
O O8 0.621251 0.276303 0.428631
O O9 0.323796 0.398912 0.626528
O O10 0.328802 0.014452 0.776040
O O11 0.262338 0.342560 0.084442
O O12 0.147729 0.675751 0.982848
O O13 0.933843 0.366572 0.258674
O O14 0.166776 0.422041 0.912944
O O15 0.000000 0.000000 0.000000
#
# Coordination Sequence:
#
# PCOD9035105 Si02
#       7
#     2   2   2   2   2   2   2
#     4   9  18  30  52  87 107 144 191 233 277 340
#     4  10  17  32  58  79 108 152 191 224 281 348
#     4  11  21  37  57  88 112 151 190 236 286 334
#     4  10  21  36  58  84 112 154 187 235 287 341
#     4  10  22  37  56  83 120 146 190 237 285 341
#     4   9  17  30  53  83 107 141 196 230 272 343
#     4  11  20  34  59  85 114 148 194 233 281 345
#
# _framework density 22.376372
#
# number of rings (size 3 to 8) (size 9 to 14) (size 15 to 20)
#    0.000    2.000    4.286    1.714    0.000    0.571 
#    0.000    0.714    0.000    3.429    0.000    0.000 
#    0.000    0.000    0.000    0.000    0.000    0.000 
#
# Total GULP energy -78050.147517 kJ/mol
# GULP energy per Si atom -5575.010537 kJ/mol
# Density = 2.232544 g / cm^3
# Si number density = 22.376372 Si / 1000 Ang^3
#
#
#
# Elastic Constant Matrix: (Units=GPa)
#
#
# Indices 1 2 3 4 5 6 
#
# 1 104.7458 30.9065 18.3165 6.0571 -9.6251 -14.9822
# 2 30.9065 118.1296 15.1373 -8.5160 -11.4406 2.4195
# 3 18.3165 15.1373 53.4028 -9.6433 -17.1582 -1.1445
# 4 6.0571 -8.5160 -9.6433 12.7772 4.9146 -4.9721
# 5 -9.6251 -11.4406 -17.1582 4.9146 24.1544 -3.7293
# 6 -14.9822 2.4195 -1.1445 -4.9721 -3.7293 48.8489
#
#
#
# Elastic Compliance Matrix: (Units=1/GPa)
#
#
# Indices 1 2 3 4 5 6 
#
# 1 0.012706 -0.003351 -0.004429 -0.011643 0.003164 0.003016
# 2 -0.003351 0.010053 0.000287 0.007498 0.002012 -0.000602
# 3 -0.004429 0.000287 0.028487 0.018895 0.015129 0.002373
# 4 -0.011643 0.007498 0.018895 0.109125 -0.008799 0.006936
# 5 0.003164 0.002012 0.015129 -0.008799 0.056872 0.004671
# 6 0.003016 -0.000602 0.002373 0.006936 0.004671 0.022544
#
#
# Mechanical properties :
#
#
# Convention : Reuss Voigt Hill
#
# Bulk Modulus (GPa) = 27.57935 44.99988 36.28961
# Shear Modulus (GPa) = 18.73639 31.28395 25.01017
#
# Velocity S-wave (km/s) = 2.89680 3.74315 3.34684
# Velocity P-wave (km/s) = 4.85187 6.23182 5.58463
#
# Compressibility (1/GPa) = 0.03625901
#
# Stress axis : x y z
#
# Youngs Moduli (GPa) = 78.70525 99.47321 35.10356
#
# Poissons Ratio (x) = 0.33337 0.15548
# Poissons Ratio (y) = 0.26377 -0.01008
# Poissons Ratio (z) = 0.34860 -0.02857
#
# Static dielectric constant tensor:
#      x y z
#    x 1.854980 0.011550 -0.044410 
#    y 0.011550 1.867360 0.012660 
#    z -0.044410 0.012660 1.872020 
# 
# From -- ./inp_files/379069.got.cif
#   From: 2010.05.17/outbox.cif.g08.bks.cpg/sg2_190_cif.got.tgz:379069.got - 2010.06.03 11:33:40.
