data_PCOD9035212
_publ_section_title
;
Structure prediction by ZEFSAII (Michael W. Deem and Ramdas Pophale) SiO2 
 PCOD9035212
Probable space group: P -1
;
_chemical_formula_sum "Si O2"
_cell_formula_units_Z 10
_cell_length_a 10.747032
_cell_length_b 7.078879
_cell_length_c 7.698361
_cell_angle_alpha 105.659792
_cell_angle_beta 42.137391
_cell_angle_gamma 97.780778
_cell_volume 376.438877
_symmetry_space_group_name_H-M "P -1"
_symmetry_group_IT_number 2
_symmetry_cell_setting 'triclinic'
loop_
_space_group_symop_operation_xyz
x,y,z
-x,-y,-z
loop_
_atom_site_type_symbol
_atom_site_label
_atom_site_fract_x
_atom_site_fract_y
_atom_site_fract_z
Si Si1 0.032071 0.018920 0.763851
Si Si2 0.761435 0.396387 0.036324
Si Si3 0.335609 0.452439 0.470060
Si Si4 0.432540 0.890175 0.373639
Si Si5 0.201364 0.295242 0.223587
O O1 0.253118 0.013124 0.508251
O O2 0.962441 0.834121 0.688686
O O3 0.901520 0.207239 0.881339
O O4 0.000000 0.000000 0.000000
O O5 0.546359 0.347581 0.233560
O O6 0.758666 0.541041 0.242452
O O7 0.634987 0.319450 0.548687
O O8 0.219413 0.372857 0.416706
O O9 0.196164 0.480972 0.145744
O O10 0.500000 0.000000 0.500000
O O11 0.606207 0.837270 0.055494
#
# Coordination Sequence:
#
# PCOD9035212 Si02
#       5
#     2   2   2   2   2
#     4  12  24  45  70 108 143 182 240 292 346 424
#     4  10  22  45  72 103 140 190 230 282 365 410
#     4  10  22  45  72 107 139 185 240 286 347 425
#     4  11  21  43  70  99 144 186 226 294 351 407
#     4  11  25  47  75 101 144 185 234 294 345 422
#
# _framework density 26.56474
#
# number of rings (size 3 to 8) (size 9 to 14) (size 15 to 20)
#    0.000    1.200    4.000    2.400    0.000    2.400 
#    0.000   14.000    0.000    0.000    0.000    0.000 
#    0.000    0.000    0.000    0.000    0.000    0.000 
#
# Total GULP energy -56261.718105 kJ/mol
# GULP energy per Si atom -5626.171811 kJ/mol
# Density = 2.650428 g / cm^3
# Si number density = 26.564740 Si / 1000 Ang^3
#
#
#
# Elastic Constant Matrix: (Units=GPa)
#
#
# Indices 1 2 3 4 5 6 
#
# 1 222.9320 93.2886 84.0106 11.5706 -9.6079 5.0592
# 2 93.2886 116.5373 38.4208 12.4062 6.9022 15.7698
# 3 84.0106 38.4208 91.8234 4.5004 -8.9226 8.2837
# 4 11.5706 12.4062 4.5004 33.5648 2.9608 3.9226
# 5 -9.6079 6.9022 -8.9226 2.9608 79.1761 17.7086
# 6 5.0592 15.7698 8.2837 3.9226 17.7086 70.2990
#
#
#
# Elastic Compliance Matrix: (Units=1/GPa)
#
#
# Indices 1 2 3 4 5 6 
#
# 1 0.009042 -0.005387 -0.006032 -0.000507 0.000653 0.001132
# 2 -0.005387 0.013766 -0.000633 -0.002778 -0.001344 -0.002132
# 3 -0.006032 -0.000633 0.016996 0.000105 0.001648 -0.001848
# 4 -0.000507 -0.002778 0.000105 0.031154 -0.000772 -0.000897
# 5 0.000653 -0.001344 0.001648 -0.000772 0.013795 -0.003372
# 6 0.001132 -0.002132 -0.001848 -0.000897 -0.003372 0.015739
#
#
# Mechanical properties :
#
#
# Convention : Reuss Voigt Hill
#
# Bulk Modulus (GPa) = 63.70036 95.85920 79.77978
# Shear Modulus (GPa) = 38.51158 50.97948 44.74553
#
# Velocity S-wave (km/s) = 3.81166 4.38547 4.10859
# Velocity P-wave (km/s) = 6.58809 7.86171 7.25291
#
# Compressibility (1/GPa) = 0.01569850
#
# Stress axis : x y z
#
# Youngs Moduli (GPa) = 110.59336 72.64147 58.83642
#
# Poissons Ratio (x) = 0.39135 0.35493
# Poissons Ratio (y) = 0.59581 0.03726
# Poissons Ratio (z) = 0.66715 0.04600
#
# Static dielectric constant tensor:
#      x y z
#    x 2.016850 -0.031620 -0.030330 
#    y -0.031620 2.083330 -0.019670 
#    z -0.030330 -0.019670 2.062020 
# 
# From -- ./inp_files/147646.got.cif
#   From: 2010.05.17/outbox.cif.g08.bks.cpg/sg2_74_cif.got.tgz:147646.got - 2010.06.03 11:33:40.
