data_PCOD9035784
_publ_section_title
;
Structure prediction by ZEFSAII (Michael W. Deem and Ramdas Pophale) SiO2 
 PCOD9035784
Probable space group: P -1
;
_chemical_formula_sum "Si O2"
_cell_formula_units_Z 14
_cell_length_a 9.316089
_cell_length_b 5.080688
_cell_length_c 21.685665
_cell_angle_alpha 89.047129
_cell_angle_beta 146.064998
_cell_angle_gamma 101.231524
_cell_volume 541.976494
_symmetry_space_group_name_H-M "P -1"
_symmetry_group_IT_number 2
_symmetry_cell_setting 'triclinic'
loop_
_space_group_symop_operation_xyz
x,y,z
-x,-y,-z
loop_
_atom_site_type_symbol
_atom_site_label
_atom_site_fract_x
_atom_site_fract_y
_atom_site_fract_z
Si Si1 0.630049 0.713328 0.099831
Si Si2 0.077031 0.514750 0.325325
Si Si3 0.314081 0.813952 0.526458
Si Si4 0.011010 0.786014 0.582418
Si Si5 0.847917 0.821171 0.755395
Si Si6 0.424178 0.278354 0.214325
Si Si7 0.296294 0.727145 0.096291
O O1 0.407477 0.758862 0.066333
O O2 0.820496 0.589532 0.209766
O O3 0.500000 0.500000 0.000000
O O4 0.843502 0.989326 0.145820
O O5 0.267911 0.749943 0.436987
O O6 0.208064 0.424344 0.313267
O O7 0.981593 0.253893 0.339894
O O8 0.211392 0.499846 0.517138
O O9 0.623229 0.963839 0.655019
O O10 0.104283 0.966569 0.472019
O O11 0.303848 0.781502 0.666553
O O12 0.777826 0.738989 0.800922
O O13 0.479345 0.578894 0.201486
O O14 0.304189 0.022563 0.125286
O O15 0.000000 0.500000 0.000000
#
# Coordination Sequence:
#
# PCOD9035784 Si02
#       7
#     2   2   2   2   2   2   2
#     4  12  28  49  78 111 147 196 254 317 371 441
#     4  10  23  45  71 105 151 194 241 307 368 438
#     4  10  24  44  77 109 148 203 248 300 376 431
#     4  10  22  46  72 104 146 202 242 296 373 445
#     4  12  28  43  75 115 155 188 259 308 366 452
#     4  12  26  48  74 109 153 199 242 312 377 439
#     4  12  27  52  77 103 148 203 253 303 379 446
#
# _framework density 25.831378999999998
#
# number of rings (size 3 to 8) (size 9 to 14) (size 15 to 20)
#    0.857    0.000    1.429    5.143    6.000    2.857 
#    0.000    0.000    0.000    0.000    0.000    0.000 
#    0.000    0.000    0.000    0.000    0.000    0.000 
#
# Total GULP energy -78444.824769 kJ/mol
# GULP energy per Si atom -5603.201769 kJ/mol
# Density = 2.577259 g / cm^3
# Si number density = 25.831379 Si / 1000 Ang^3
#
#
#
# Elastic Constant Matrix: (Units=GPa)
#
#
# Indices 1 2 3 4 5 6 
#
# 1 223.2898 28.8666 42.6703 17.9546 -9.8449 -14.8442
# 2 28.8666 89.3180 13.6301 -1.8856 -6.0266 -12.7270
# 3 42.6703 13.6301 99.8924 8.6826 1.3120 0.3307
# 4 17.9546 -1.8856 8.6826 40.2655 -4.2859 1.4731
# 5 -9.8449 -6.0266 1.3120 -4.2859 53.2269 6.8305
# 6 -14.8442 -12.7270 0.3307 1.4731 6.8305 33.7241
#
#
#
# Elastic Compliance Matrix: (Units=1/GPa)
#
#
# Indices 1 2 3 4 5 6 
#
# 1 0.005311 -0.001157 -0.001948 -0.002020 0.000492 0.001909
# 2 -0.001157 0.012423 -0.001341 0.001329 0.000824 0.003968
# 3 -0.001948 -0.001341 0.011183 -0.001641 -0.000760 -0.001248
# 4 -0.002020 0.001329 -0.001641 0.026458 0.002201 -0.001973
# 5 0.000492 0.000824 -0.000760 0.002201 0.019621 -0.003535
# 6 0.001909 0.003968 -0.001248 -0.001973 -0.003535 0.032804
#
#
# Mechanical properties :
#
#
# Convention : Reuss Voigt Hill
#
# Bulk Modulus (GPa) = 49.93399 64.75934 57.34667
# Shear Modulus (GPa) = 40.52928 47.26553 43.89741
#
# Velocity S-wave (km/s) = 3.96535 4.28222 4.12683
# Velocity P-wave (km/s) = 6.35122 7.04091 6.70494
#
# Compressibility (1/GPa) = 0.02002644
#
# Stress axis : x y z
#
# Youngs Moduli (GPa) = 188.27654 80.49382 89.42478
#
# Poissons Ratio (x) = 0.09311 0.17422
# Poissons Ratio (y) = 0.21778 0.11988
# Poissons Ratio (z) = 0.36680 0.10790
#
# Static dielectric constant tensor:
#      x y z
#    x 2.063170 0.042600 -0.001320 
#    y 0.042600 2.017610 -0.050560 
#    z -0.001320 -0.050560 2.078120 
# 
# From -- ./inp_files/585362.got.cif
#   From: 2010.05.17/outbox.cif.g08.bks.cpg/sg2_293_cif.got.tgz:585362.got - 2010.06.03 11:33:40.
