data_PCOD9035900
_publ_section_title
;
Structure prediction by ZEFSAII (Michael W. Deem and Ramdas Pophale) SiO2 
 PCOD9035900
Probable space group: P -1
;
_chemical_formula_sum "Si O2"
_cell_formula_units_Z 14
_cell_length_a 11.357280
_cell_length_b 4.932376
_cell_length_c 12.097940
_cell_angle_alpha 98.267756
_cell_angle_beta 130.045561
_cell_angle_gamma 81.215639
_cell_volume 511.791704
_symmetry_space_group_name_H-M "P -1"
_symmetry_group_IT_number 2
_symmetry_cell_setting 'triclinic'
loop_
_space_group_symop_operation_xyz
x,y,z
-x,-y,-z
loop_
_atom_site_type_symbol
_atom_site_label
_atom_site_fract_x
_atom_site_fract_y
_atom_site_fract_z
Si Si1 0.588710 0.111042 0.665141
Si Si2 0.365622 0.725561 0.894711
Si Si3 0.274788 0.326691 0.560623
Si Si4 0.612805 0.792437 0.885991
Si Si5 0.173614 0.888196 0.617487
Si Si6 0.071148 0.535834 0.923199
Si Si7 0.099144 0.949523 0.261458
O O1 0.455988 0.329606 0.641668
O O2 0.500000 0.000000 0.500000
O O3 0.619625 0.897365 0.771560
O O4 0.753727 0.185998 0.727773
O O5 0.439297 0.754212 0.817494
O O6 0.192681 0.751465 0.744041
O O7 0.500000 0.500000 0.000000
O O8 0.359263 0.966979 0.994251
O O9 0.203469 0.634300 0.536856
O O10 0.183756 0.136805 0.411274
O O11 0.260346 0.164212 0.657946
O O12 0.743960 0.543228 0.969679
O O13 0.000000 0.000000 0.500000
O O14 0.010773 0.836939 0.864783
O O15 0.001920 0.304015 0.790803
O O16 0.000000 0.500000 0.000000
#
# Coordination Sequence:
#
# PCOD9035900 Si02
#       7
#     2   2   2   2   2   2   2
#     4  10  22  46  75 105 146 193 247 306 372 459
#     4  11  27  46  76 106 150 206 254 310 378 449
#     4  11  25  47  74 104 148 193 246 303 377 449
#     4  11  25  46  71 105 149 195 253 303 376 457
#     4  12  27  47  75 110 147 194 255 316 372 440
#     4  12  26  44  72 108 150 193 247 306 377 447
#     4  11  26  45  72 110 146 195 237 306 384 440
#
# _framework density 27.354883000000001
#
# number of rings (size 3 to 8) (size 9 to 14) (size 15 to 20)
#    0.000    0.857    2.857    2.571    8.000    2.286 
#    0.000    4.286    0.000    0.000    0.000    0.000 
#    0.000    0.000    0.000    0.000    0.000    0.000 
#
# Total GULP energy -78290.107179 kJ/mol
# GULP energy per Si atom -5592.150513 kJ/mol
# Density = 2.729262 g / cm^3
# Si number density = 27.354883 Si / 1000 Ang^3
#
#
#
# Elastic Constant Matrix: (Units=GPa)
#
#
# Indices 1 2 3 4 5 6 
#
# 1 91.7197 18.3419 -6.1683 -2.3522 15.8127 -18.9018
# 2 18.3419 163.3544 38.4033 -15.4973 14.6726 -36.8109
# 3 -6.1683 38.4033 136.2719 -10.8598 -2.7311 -11.5951
# 4 -2.3522 -15.4973 -10.8598 49.3558 -9.4703 15.4970
# 5 15.8127 14.6726 -2.7311 -9.4703 34.3641 -8.7170
# 6 -18.9018 -36.8109 -11.5951 15.4970 -8.7170 37.0647
#
#
#
# Elastic Compliance Matrix: (Units=1/GPa)
#
#
# Indices 1 2 3 4 5 6 
#
# 1 0.013142 0.000089 0.000876 -0.002244 -0.004896 0.006851
# 2 0.000089 0.008360 -0.001791 -0.000511 -0.001982 0.007536
# 3 0.000876 -0.001791 0.008104 0.001238 0.001618 0.001066
# 4 -0.002244 -0.000511 0.001238 0.024535 0.005517 -0.010226
# 5 -0.004896 -0.001982 0.001618 0.005517 0.034306 0.001802
# 6 0.006851 0.007536 0.001066 -0.010226 0.001802 0.042991
#
#
# Mechanical properties :
#
#
# Convention : Reuss Voigt Hill
#
# Bulk Modulus (GPa) = 35.77200 54.72221 45.24710
# Shear Modulus (GPa) = 35.10995 46.87485 40.99240
#
# Velocity S-wave (km/s) = 3.58648 4.14404 3.87530
# Velocity P-wave (km/s) = 5.50053 6.55327 6.04984
#
# Compressibility (1/GPa) = 0.02795483
#
# Stress axis : x y z
#
# Youngs Moduli (GPa) = 76.08975 119.61028 123.38826
#
# Poissons Ratio (x) = -0.01068 -0.10806
# Poissons Ratio (y) = -0.00680 0.22103
# Poissons Ratio (z) = -0.06664 0.21426
#
# Static dielectric constant tensor:
#      x y z
#    x 2.275760 0.021260 0.033520 
#    y 0.021260 2.370920 -0.323520 
#    z 0.033520 -0.323520 2.690210 
# 
# From -- ./inp_files/410930.got.cif
#   From: 2010.05.17/outbox.cif.g08.bks.cpg/sg2_206_cif.got.tgz:410930.got - 2010.06.03 11:33:40.
