data_PCOD9035791
_publ_section_title
;
Structure prediction by ZEFSAII (Michael W. Deem and Ramdas Pophale) SiO2 
 PCOD9035791
Probable space group: P -1
;
_chemical_formula_sum "Si O2"
_cell_formula_units_Z 15
_cell_length_a 12.126285
_cell_length_b 8.477963
_cell_length_c 9.353435
_cell_angle_alpha 77.114674
_cell_angle_beta 61.150911
_cell_angle_gamma 55.043652
_cell_volume 688.383697
_symmetry_space_group_name_H-M "P -1"
_symmetry_group_IT_number 2
_symmetry_cell_setting 'triclinic'
loop_
_space_group_symop_operation_xyz
x,y,z
-x,-y,-z
loop_
_atom_site_type_symbol
_atom_site_label
_atom_site_fract_x
_atom_site_fract_y
_atom_site_fract_z
Si Si1 0.189275 0.519358 0.305296
Si Si2 0.002900 0.894943 0.874462
Si Si3 0.427237 0.227121 0.007758
Si Si4 0.255314 0.853240 0.205781
Si Si5 0.229569 0.936696 0.529792
Si Si6 0.868368 0.664519 0.361821
Si Si7 0.500000 0.500000 0.500000
Si Si8 0.236664 0.454785 0.807975
O O1 0.219187 0.688561 0.258566
O O2 0.157045 0.471721 0.491571
O O3 0.043007 0.587072 0.287002
O O4 0.331994 0.328672 0.188268
O O5 0.095976 0.930677 0.690032
O O6 0.092248 0.667271 0.887758
O O7 0.837421 0.994566 0.892002
O O8 0.000000 0.000000 0.000000
O O9 0.567453 0.250121 0.904019
O O10 0.315537 0.335702 0.924698
O O11 0.500000 0.000000 0.000000
O O12 0.209039 0.956332 0.367832
O O13 0.383436 0.734941 0.503687
O O14 0.223207 0.119601 0.562658
O O15 0.815237 0.651675 0.242132
O O16 0.357729 0.485632 0.647196
#
# Coordination Sequence:
#
# PCOD9035791 Si02
#       8
#     2   2   2   2   2   2   1   2
#     4  11  25  46  72 110 145 192 246 294 368 431
#     4  11  25  44  74 108 139 189 246 297 363 430
#     4  12  28  49  71 108 150 192 237 307 372 428
#     4  12  24  49  76 103 143 197 241 299 359 447
#     4  11  23  45  73 103 146 189 243 295 362 433
#     4  11  26  44  76 108 147 190 245 303 355 437
#     4  10  22  46  72 106 140 188 248 288 360 428
#     4  11  26  47  74 106 149 190 239 307 359 436
#
# _framework density 21.790172999999999
#
# number of rings (size 3 to 8) (size 9 to 14) (size 15 to 20)
#    0.000    0.800    2.667    4.000    5.600    2.133 
#    4.800    0.000    0.000    0.000    0.000    0.000 
#    0.000    0.000    0.000    0.000    0.000    0.000 
#
# Total GULP energy -83758.246197 kJ/mol
# GULP energy per Si atom -5583.883080 kJ/mol
# Density = 2.174058 g / cm^3
# Si number density = 21.790173 Si / 1000 Ang^3
#
#
#
# Elastic Constant Matrix: (Units=GPa)
#
#
# Indices 1 2 3 4 5 6 
#
# 1 100.8586 54.0661 45.9977 5.9358 9.7027 -7.7444
# 2 54.0661 153.6104 11.5402 13.5264 11.6120 -6.3481
# 3 45.9977 11.5402 71.9270 16.6549 3.0456 -1.0076
# 4 5.9358 13.5264 16.6549 34.9983 8.6865 -1.8653
# 5 9.7027 11.6120 3.0456 8.6865 31.1647 -6.0435
# 6 -7.7444 -6.3481 -1.0076 -1.8653 -6.0435 33.0306
#
#
#
# Elastic Compliance Matrix: (Units=1/GPa)
#
#
# Indices 1 2 3 4 5 6 
#
# 1 0.018875 -0.005860 -0.012322 0.005972 -0.003650 0.002593
# 2 -0.005860 0.008713 0.003247 -0.003746 -0.000683 0.000063
# 3 -0.012322 0.003247 0.023729 -0.011325 0.003153 -0.001604
# 4 0.005972 -0.003746 -0.011325 0.036786 -0.009479 0.000678
# 5 -0.003650 -0.000683 0.003153 -0.009479 0.036843 0.005315
# 6 0.002593 0.000063 -0.001604 0.000678 0.005315 0.031857
#
#
# Mechanical properties :
#
#
# Convention : Reuss Voigt Hill
#
# Bulk Modulus (GPa) = 46.63111 61.06710 53.84911
# Shear Modulus (GPa) = 25.79696 34.15818 29.97757
#
# Velocity S-wave (km/s) = 3.44449 3.96358 3.71312
# Velocity P-wave (km/s) = 6.10458 7.00232 6.56881
#
# Compressibility (1/GPa) = 0.02144491
#
# Stress axis : x y z
#
# Youngs Moduli (GPa) = 52.98047 114.77369 42.14339
#
# Poissons Ratio (x) = 0.67262 0.51930
# Poissons Ratio (y) = 0.31049 -0.13684
# Poissons Ratio (z) = 0.65284 -0.37267
#
# Static dielectric constant tensor:
#      x y z
#    x 1.780650 0.000840 -0.014420 
#    y 0.000840 1.766410 -0.027280 
#    z -0.014420 -0.027280 1.794800 
# 
# From -- ./inp_files/216712.got.cif
#   From: 2010.05.17/outbox.cif.g08.bks.cpg/sg2_109_cif.got.tgz:216712.got - 2010.06.03 11:33:40.
