data_PCOD9035376
_publ_section_title
;
Structure prediction by ZEFSAII (Michael W. Deem and Ramdas Pophale) SiO2 
 PCOD9035376
Probable space group: P -1
;
_chemical_formula_sum "Si O2"
_cell_formula_units_Z 16
_cell_length_a 7.923017
_cell_length_b 29.843893
_cell_length_c 5.500809
_cell_angle_alpha 64.992217
_cell_angle_beta 96.861052
_cell_angle_gamma 145.051437
_cell_volume 607.232540
_symmetry_space_group_name_H-M "P -1"
_symmetry_group_IT_number 2
_symmetry_cell_setting 'triclinic'
loop_
_space_group_symop_operation_xyz
x,y,z
-x,-y,-z
loop_
_atom_site_type_symbol
_atom_site_label
_atom_site_fract_x
_atom_site_fract_y
_atom_site_fract_z
Si Si1 0.763611 0.055016 0.211676
Si Si2 0.962864 0.572832 0.398096
Si Si3 0.387784 0.051903 0.954599
Si Si4 0.986232 0.315217 0.107773
Si Si5 0.718413 0.423949 0.924539
Si Si6 0.771744 0.852491 0.531367
Si Si7 0.611373 0.727899 0.436005
Si Si8 0.007957 0.738540 0.281262
O O1 0.652797 0.073108 0.984775
O O2 0.104238 0.142302 0.211321
O O3 0.500000 0.000000 0.500000
O O4 0.720290 0.989682 0.240554
O O5 0.133684 0.575033 0.252478
O O6 0.254334 0.657467 0.444088
O O7 0.678362 0.469761 0.713015
O O8 0.879544 0.598495 0.158778
O O9 0.613446 0.153629 0.833322
O O10 0.055614 0.962833 0.258700
O O11 0.597080 0.224871 0.300457
O O12 0.111833 0.326887 0.366598
O O13 0.001668 0.284740 0.939021
O O14 0.438062 0.322330 0.232185
O O15 0.000000 0.500000 0.000000
O O16 0.778668 0.816997 0.384234
O O17 0.787053 0.733259 0.270671
#
# Coordination Sequence:
#
# PCOD9035376 Si02
#       8
#     2   2   2   2   2   2   2   2
#     4   9  19  37  64  95 122 171 241 307 329 387
#     4  10  22  45  75 102 135 177 234 286 342 419
#     4  10  23  40  62  95 135 183 242 292 343 396
#     4  12  29  46  66 104 149 188 222 296 359 419
#     4   9  20  40  78 107 129 165 242 289 332 408
#     4  11  24  41  74  93 132 186 252 286 338 405
#     4  11  23  43  76 106 131 184 244 285 341 418
#     4  12  30  45  66 104 154 185 230 290 361 411
#
# _framework density 26.349052
#
# number of rings (size 3 to 8) (size 9 to 14) (size 15 to 20)
#    0.000    1.500    1.250    3.000   14.000    1.000 
#    0.000    1.250    0.000    0.000    0.000    0.000 
#    0.000    0.000    0.000    0.000    0.000    0.000 
#
# Total GULP energy -89379.363623 kJ/mol
# GULP energy per Si atom -5586.210226 kJ/mol
# Density = 2.628908 g / cm^3
# Si number density = 26.349052 Si / 1000 Ang^3
#
#
#
# Elastic Constant Matrix: (Units=GPa)
#
#
# Indices 1 2 3 4 5 6 
#
# 1 95.8796 17.8646 29.0912 7.4689 -0.6095 1.5431
# 2 17.8646 86.8905 16.3701 11.4076 7.7369 -15.1476
# 3 29.0912 16.3701 103.5657 -0.1952 8.9269 -24.0406
# 4 7.4689 11.4076 -0.1952 50.3369 -10.9743 8.0780
# 5 -0.6095 7.7369 8.9269 -10.9743 39.9268 7.3054
# 6 1.5431 -15.1476 -24.0406 8.0780 7.3054 31.8767
#
#
#
# Elastic Compliance Matrix: (Units=1/GPa)
#
#
# Indices 1 2 3 4 5 6 
#
# 1 0.012590 -0.003227 -0.004878 0.000652 0.003322 -0.006748
# 2 -0.003227 0.015533 0.001996 -0.006702 -0.007633 0.012491
# 3 -0.004878 0.001996 0.014853 -0.003739 -0.007567 0.015068
# 4 0.000652 -0.006702 -0.003739 0.026441 0.012256 -0.015545
# 5 0.003322 -0.007633 -0.007567 0.012256 0.035427 -0.020720
# 6 -0.006748 0.012491 0.015068 -0.015545 -0.020720 0.057685
#
#
# Mechanical properties :
#
#
# Convention : Reuss Voigt Hill
#
# Bulk Modulus (GPa) = 32.51162 45.88754 39.19958
# Shear Modulus (GPa) = 27.02685 39.29540 33.16113
#
# Velocity S-wave (km/s) = 3.20617 3.86598 3.55143
# Velocity P-wave (km/s) = 5.10604 6.11398 5.63260
#
# Compressibility (1/GPa) = 0.03075823
#
# Stress axis : x y z
#
# Youngs Moduli (GPa) = 79.42759 64.37782 67.32471
#
# Poissons Ratio (x) = 0.20777 0.32841
# Poissons Ratio (y) = 0.25634 -0.13438
# Poissons Ratio (z) = 0.38745 -0.12850
#
# Static dielectric constant tensor:
#      x y z
#    x 2.007460 -0.381950 0.095890 
#    y -0.381950 0.199500 0.072170 
#    z 0.095890 0.072170 2.186190 
# 
# From -- ./inp_files/56850.got.cif
#   From: 2010.05.17/outbox.cif.g08.bks.cpg/sg2_29_cif.got.tgz:56850.got - 2010.06.03 11:33:40.
