data_PCOD9035028
_publ_section_title
;
Structure prediction by ZEFSAII (Michael W. Deem and Ramdas Pophale) SiO2 
 PCOD9035028
Probable space group: P -1
;
_chemical_formula_sum "Si O2"
_cell_formula_units_Z 16
_cell_length_a 9.663958
_cell_length_b 9.960537
_cell_length_c 11.486391
_cell_angle_alpha 91.258197
_cell_angle_beta 77.089891
_cell_angle_gamma 45.491619
_cell_volume 742.771276
_symmetry_space_group_name_H-M "P -1"
_symmetry_group_IT_number 2
_symmetry_cell_setting 'triclinic'
loop_
_space_group_symop_operation_xyz
x,y,z
-x,-y,-z
loop_
_atom_site_type_symbol
_atom_site_label
_atom_site_fract_x
_atom_site_fract_y
_atom_site_fract_z
Si Si1 0.144250 0.032270 0.469491
Si Si2 0.275899 0.038827 0.689154
Si Si3 0.608932 0.729748 0.305637
Si Si4 0.149219 0.522120 0.960905
Si Si5 0.464366 0.387115 0.075207
Si Si6 0.869478 0.954217 0.030231
Si Si7 0.188953 0.634516 0.602785
Si Si8 0.504100 0.378692 0.338826
O O1 0.147647 0.101913 0.596238
O O2 0.044208 0.186788 0.387644
O O3 0.380349 0.843619 0.388087
O O4 0.000000 0.000000 0.500000
O O5 0.356656 0.135027 0.684440
O O6 0.164883 0.072526 0.830916
O O7 0.457840 0.803916 0.644543
O O8 0.666768 0.641352 0.164100
O O9 0.765329 0.539419 0.352756
O O10 0.252071 0.479334 0.065088
O O11 0.000000 0.500000 0.000000
O O12 0.010926 0.740805 0.945460
O O13 0.459360 0.425058 0.212836
O O14 0.647682 0.150724 0.024442
O O15 0.500000 0.500000 0.000000
O O16 0.000000 0.000000 0.000000
O O17 0.321974 0.554170 0.457697
O O18 0.288979 0.681391 0.666302
#
# Coordination Sequence:
#
# PCOD9035028 Si02
#       8
#     2   2   2   2   2   2   2   2
#     4  12  25  45  78 109 142 195 242 297 371 435
#     4  11  24  48  70 105 151 186 238 309 362 435
#     4  12  27  48  70 106 158 183 240 310 366 442
#     4  12  27  50  71 107 151 196 242 309 373 428
#     4  11  24  44  76 106 141 194 245 303 362 439
#     4  11  25  47  77 106 141 198 252 299 362 450
#     4  11  23  42  72 107 140 189 236 301 363 432
#     4  10  22  45  70 104 144 181 249 297 357 441
#
# _framework density 21.540949999999999
#
# number of rings (size 3 to 8) (size 9 to 14) (size 15 to 20)
#    0.000    0.750    5.000    1.875    3.500    3.000 
#    4.500    0.000    0.000    0.000    0.000    0.000 
#    0.000    0.000    0.000    0.000    0.000    0.000 
#
# Total GULP energy -89468.634991 kJ/mol
# GULP energy per Si atom -5591.789687 kJ/mol
# Density = 2.149192 g / cm^3
# Si number density = 21.540950 Si / 1000 Ang^3
#
#
#
# Elastic Constant Matrix: (Units=GPa)
#
#
# Indices 1 2 3 4 5 6 
#
# 1 101.9681 50.9385 37.0018 -6.8976 5.5500 16.4183
# 2 50.9385 140.8046 30.9123 -12.8266 9.6878 11.8942
# 3 37.0018 30.9123 99.1781 -10.1098 16.5826 -1.0821
# 4 -6.8976 -12.8266 -10.1098 39.5245 -3.9873 3.0323
# 5 5.5500 9.6878 16.5826 -3.9873 34.0748 -6.6719
# 6 16.4183 11.8942 -1.0821 3.0323 -6.6719 44.9141
#
#
#
# Elastic Compliance Matrix: (Units=1/GPa)
#
#
# Indices 1 2 3 4 5 6 
#
# 1 0.013826 -0.003724 -0.003990 0.000505 -0.000015 -0.004200
# 2 -0.003724 0.009076 -0.000995 0.001996 -0.001536 -0.001429
# 3 -0.003990 -0.000995 0.012887 0.001691 -0.004908 0.001189
# 4 0.000505 0.001996 0.001691 0.026767 0.001209 -0.002300
# 5 -0.000015 -0.001536 -0.004908 0.001209 0.033327 0.005163
# 6 -0.004200 -0.001429 0.001189 -0.002300 0.005163 0.025129
#
#
# Mechanical properties :
#
#
# Convention : Reuss Voigt Hill
#
# Bulk Modulus (GPa) = 54.42845 64.40621 59.41733
# Shear Modulus (GPa) = 34.58884 38.57591 36.58238
#
# Velocity S-wave (km/s) = 4.01150 4.23640 4.12548
# Velocity P-wave (km/s) = 6.83948 7.34124 7.09479
#
# Compressibility (1/GPa) = 0.01837274
#
# Stress axis : x y z
#
# Youngs Moduli (GPa) = 72.32526 110.18172 77.59544
#
# Poissons Ratio (x) = 0.41035 0.30957
# Poissons Ratio (y) = 0.26936 0.07718
# Poissons Ratio (z) = 0.28854 0.10960
#
# Static dielectric constant tensor:
#      x y z
#    x 1.719760 0.042650 -0.045930 
#    y 0.042650 1.826810 -0.009320 
#    z -0.045930 -0.009320 1.914170 
# 
# From -- ./inp_files/382267.got.cif
#   From: 2010.05.17/outbox.cif.g08.bks.cpg/sg2_192_cif.got.tgz:382267.got - 2010.06.03 11:33:40.
