data_PCOD9035697
_publ_section_title
;
Structure prediction by ZEFSAII (Michael W. Deem and Ramdas Pophale) SiO2 
 PCOD9035697
Probable space group: P -1
;
_chemical_formula_sum "Si O2"
_cell_formula_units_Z 14
_cell_length_a 14.694945
_cell_length_b 23.624816
_cell_length_c 16.985044
_cell_angle_alpha 17.472430
_cell_angle_beta 22.484492
_cell_angle_gamma 20.647826
_cell_volume 596.223864
_symmetry_space_group_name_H-M "P -1"
_symmetry_group_IT_number 2
_symmetry_cell_setting 'triclinic'
loop_
_space_group_symop_operation_xyz
x,y,z
-x,-y,-z
loop_
_atom_site_type_symbol
_atom_site_label
_atom_site_fract_x
_atom_site_fract_y
_atom_site_fract_z
Si Si1 0.983110 0.816519 0.208861
Si Si2 0.952087 0.916860 0.831820
Si Si3 0.722883 0.405255 0.875324
Si Si4 0.270948 0.311632 0.934676
Si Si5 0.532797 0.874182 0.376202
Si Si6 0.706514 0.386380 0.357698
Si Si7 0.199455 0.419482 0.670524
O O1 0.237157 0.723313 0.067890
O O2 0.000648 0.625898 0.505024
O O3 0.694732 0.915077 0.263296
O O4 0.000000 0.000000 0.000000
O O5 0.239169 0.896460 0.601754
O O6 0.025231 0.781094 0.033146
O O7 0.771215 0.170998 0.639717
O O8 0.845153 0.784847 0.039050
O O9 0.709652 0.618848 0.566252
O O10 0.500000 0.500000 0.000000
O O11 0.377086 0.418600 0.773606
O O12 0.203802 0.432129 0.745006
O O13 0.978702 0.354050 0.142803
O O14 0.455951 0.053574 0.132512
O O15 0.493724 0.398290 0.446492
#
# Coordination Sequence:
#
# PCOD9035697 Si02
#       7
#     2   2   2   2   2   2   2
#     4  12  27  44  72 112 142 182 246 302 352 426
#     4  10  23  42  69 102 134 190 238 288 351 425
#     4  10  23  45  70  99 141 193 230 284 360 422
#     4  10  24  44  69 100 142 190 231 291 364 419
#     4  10  22  46  70  97 146 188 235 290 356 431
#     4  10  23  43  67  99 147 184 235 292 357 426
#     4  12  25  41  68 108 138 182 240 297 354 424
#
# _framework density 23.481113000000001
#
# number of rings (size 3 to 8) (size 9 to 14) (size 15 to 20)
#    0.000    1.429    1.429    2.143    4.000    5.714 
#    0.000    2.857    0.000    0.000    0.000    0.000 
#    0.000    0.000    0.000    0.000    0.000    0.000 
#
# Total GULP energy -78003.367241 kJ/mol
# GULP energy per Si atom -5571.669089 kJ/mol
# Density = 2.342767 g / cm^3
# Si number density = 23.481113 Si / 1000 Ang^3
#
#
#
# Elastic Constant Matrix: (Units=GPa)
#
#
# Indices 1 2 3 4 5 6 
#
# 1 104.7447 36.5761 42.2932 -1.3566 -8.6082 0.0133
# 2 36.5761 65.4860 26.3749 -4.0774 1.6275 10.1896
# 3 42.2932 26.3749 128.5388 12.7492 -3.1810 7.9906
# 4 -1.3566 -4.0774 12.7492 35.4327 -4.0705 -5.2083
# 5 -8.6082 1.6275 -3.1810 -4.0705 64.3731 -4.7055
# 6 0.0133 10.1896 7.9906 -5.2083 -4.7055 40.1269
#
#
#
# Elastic Compliance Matrix: (Units=1/GPa)
#
#
# Indices 1 2 3 4 5 6 
#
# 1 0.013357 -0.006496 -0.003342 0.001613 0.002089 0.002765
# 2 -0.006496 0.020626 -0.002034 0.001957 -0.001716 -0.004778
# 3 -0.003342 -0.002034 0.009835 -0.004237 -0.000326 -0.002029
# 4 0.001613 0.001957 -0.004237 0.030973 0.002254 0.004631
# 5 0.002089 -0.001716 -0.000326 0.002254 0.016180 0.002690
# 6 0.002765 -0.004778 -0.002029 0.004631 0.002690 0.027454
#
#
# Mechanical properties :
#
#
# Convention : Reuss Voigt Hill
#
# Bulk Modulus (GPa) = 49.81833 56.58419 53.20126
# Shear Modulus (GPa) = 33.58818 40.88824 37.23821
#
# Velocity S-wave (km/s) = 3.78621 4.17745 3.98663
# Velocity P-wave (km/s) = 6.35423 6.88608 6.62550
#
# Compressibility (1/GPa) = 0.02007293
#
# Stress axis : x y z
#
# Youngs Moduli (GPa) = 74.86652 48.48249 101.67627
#
# Poissons Ratio (x) = 0.31495 0.33981
# Poissons Ratio (y) = 0.48634 0.20686
# Poissons Ratio (z) = 0.25021 0.09864
#
# Static dielectric constant tensor:
#      x y z
#    x 1.885760 -0.021740 0.000810 
#    y -0.021740 2.096800 0.149110 
#    z 0.000810 0.149110 1.929120 
# 
# From -- ./inp_files/523995.got.cif
#   From: 2010.05.17/outbox.cif.g08.bks.cpg/sg2_262_cif.got.tgz:523995.got - 2010.06.03 11:33:40.
