data_PCOD9035858
_publ_section_title
;
Structure prediction by ZEFSAII (Michael W. Deem and Ramdas Pophale) SiO2 
 PCOD9035858
Probable space group: P -1
;
_chemical_formula_sum "Si O2"
_cell_formula_units_Z 16
_cell_length_a 11.354329
_cell_length_b 8.659603
_cell_length_c 18.202446
_cell_angle_alpha 47.214679
_cell_angle_beta 29.704897
_cell_angle_gamma 43.168994
_cell_volume 601.204806
_symmetry_space_group_name_H-M "P -1"
_symmetry_group_IT_number 2
_symmetry_cell_setting 'triclinic'
loop_
_space_group_symop_operation_xyz
x,y,z
-x,-y,-z
loop_
_atom_site_type_symbol
_atom_site_label
_atom_site_fract_x
_atom_site_fract_y
_atom_site_fract_z
Si Si1 0.897596 0.238905 0.655759
Si Si2 0.857578 0.387444 0.470759
Si Si3 0.426856 0.840015 0.533758
Si Si4 0.768644 0.101663 0.147987
Si Si5 0.947843 0.284767 0.130678
Si Si6 0.500467 0.011133 0.905462
Si Si7 0.459707 0.565344 0.086290
Si Si8 0.390503 0.975339 0.316837
O O1 0.846773 0.416422 0.557311
O O2 0.813438 0.328585 0.755604
O O3 0.695004 0.129734 0.776418
O O4 0.178521 0.037216 0.564486
O O5 0.704963 0.629882 0.437068
O O6 0.725435 0.218100 0.564392
O O7 0.158945 0.223067 0.351442
O O8 0.273385 0.683097 0.700516
O O9 0.500000 0.000000 0.500000
O O10 0.867471 0.139112 0.160571
O O11 0.606995 0.351603 0.125212
O O12 0.577502 0.968093 0.285710
O O13 0.000000 0.000000 0.000000
O O14 0.000000 0.500000 0.000000
O O15 0.229817 0.126628 0.054723
O O16 0.437978 0.048768 0.840632
O O17 0.590451 0.748162 0.958454
O O18 0.500000 0.500000 0.000000
#
# Coordination Sequence:
#
# PCOD9035858 Si02
#       8
#     2   2   2   2   2   2   2   2
#     4  11  26  47  75 104 146 205 246 308 386 452
#     4  10  25  50  74 103 149 208 258 303 374 469
#     4  12  29  46  74 113 151 196 260 314 372 466
#     4  12  25  40  70 105 140 189 243 309 387 433
#     4  12  25  46  73 107 147 192 252 315 371 457
#     4  11  22  45  69 104 141 188 247 305 381 441
#     4  12  23  40  65 103 145 181 232 318 375 436
#     4  10  22  46  74 101 152 197 249 318 380 442
#
# _framework density 26.613225
#
# number of rings (size 3 to 8) (size 9 to 14) (size 15 to 20)
#    0.000    0.750    3.750    3.375    5.250    0.500 
#    0.000    5.625    0.000    0.000    0.000    0.000 
#    0.000    0.000    0.000    0.000    0.000    0.000 
#
# Total GULP energy -89378.174256 kJ/mol
# GULP energy per Si atom -5586.135891 kJ/mol
# Density = 2.655265 g / cm^3
# Si number density = 26.613225 Si / 1000 Ang^3
#
#
#
# Elastic Constant Matrix: (Units=GPa)
#
#
# Indices 1 2 3 4 5 6 
#
# 1 141.0636 28.3670 21.3287 7.8446 -24.3495 8.0417
# 2 28.3670 143.3235 17.0255 9.8459 -7.2696 -17.6446
# 3 21.3287 17.0255 107.9750 21.2964 -17.2083 2.4513
# 4 7.8446 9.8459 21.2964 48.3821 1.6087 3.5924
# 5 -24.3495 -7.2696 -17.2083 1.6087 52.7580 -1.9326
# 6 8.0417 -17.6446 2.4513 3.5924 -1.9326 47.9917
#
#
#
# Elastic Compliance Matrix: (Units=1/GPa)
#
#
# Indices 1 2 3 4 5 6 
#
# 1 0.008210 -0.001540 -0.000672 -0.000704 0.003316 -0.001722
# 2 -0.001540 0.007877 -0.000709 -0.001296 0.000304 0.003300
# 3 -0.000672 -0.000709 0.010957 -0.004662 0.003300 -0.000226
# 4 -0.000704 -0.001296 -0.004662 0.023340 -0.002809 -0.001981
# 5 0.003316 0.000304 0.003300 -0.002809 0.021706 0.000472
# 6 -0.001722 0.003300 -0.000226 -0.001981 0.000472 0.022517
#
#
# Mechanical properties :
#
#
# Convention : Reuss Voigt Hill
#
# Bulk Modulus (GPa) = 47.16806 58.42272 52.79539
# Shear Modulus (GPa) = 46.50457 51.53576 49.02017
#
# Velocity S-wave (km/s) = 4.18475 4.40531 4.29645
# Velocity P-wave (km/s) = 6.41183 6.91924 6.67036
#
# Compressibility (1/GPa) = 0.02120079
#
# Stress axis : x y z
#
# Youngs Moduli (GPa) = 121.80060 126.95237 91.26958
#
# Poissons Ratio (x) = 0.19557 0.06137
# Poissons Ratio (y) = 0.18763 0.06467
# Poissons Ratio (z) = 0.08190 0.08995
#
# Static dielectric constant tensor:
#      x y z
#    x 2.376420 -0.191800 0.451180 
#    y -0.191800 2.107280 -0.316370 
#    z 0.451180 -0.316370 2.867690 
# 
# From -- ./inp_files/594021.got.cif
#   From: 2010.05.17/outbox.cif.g08.bks.cpg/sg2_298_cif.got.tgz:594021.got - 2010.06.03 11:33:40.
