data_PCOD9035922
_publ_section_title
;
Structure prediction by ZEFSAII (Michael W. Deem and Ramdas Pophale) SiO2 
 PCOD9035922
Probable space group: P -1
;
_chemical_formula_sum "Si O2"
_cell_formula_units_Z 14
_cell_length_a 8.705042
_cell_length_b 8.461884
_cell_length_c 11.848534
_cell_angle_alpha 103.690728
_cell_angle_beta 105.871141
_cell_angle_gamma 41.174230
_cell_volume 552.033141
_symmetry_space_group_name_H-M "P -1"
_symmetry_group_IT_number 2
_symmetry_cell_setting 'triclinic'
loop_
_space_group_symop_operation_xyz
x,y,z
-x,-y,-z
loop_
_atom_site_type_symbol
_atom_site_label
_atom_site_fract_x
_atom_site_fract_y
_atom_site_fract_z
Si Si1 0.473347 0.978929 0.758122
Si Si2 0.951455 0.846081 0.440768
Si Si3 0.187836 0.468284 0.860500
Si Si4 0.947107 0.878899 0.045815
Si Si5 0.714408 0.476564 0.742663
Si Si6 0.112562 0.199419 0.328760
Si Si7 0.296468 0.695030 0.816074
O O1 0.723650 0.976939 0.340900
O O2 0.651456 0.710131 0.792601
O O3 0.629436 0.972870 0.702166
O O4 0.341434 0.193068 0.857923
O O5 0.174258 0.623154 0.374119
O O6 0.093619 0.211980 0.460397
O O7 0.000000 0.000000 0.500000
O O8 0.352974 0.502849 0.877926
O O9 0.057290 0.543872 0.725596
O O10 0.994664 0.687140 0.944088
O O11 0.116015 0.712660 0.156524
O O12 0.707364 0.126304 0.095749
O O13 0.000000 0.000000 0.000000
O O14 0.473736 0.557466 0.725143
O O15 0.970223 0.144351 0.251202
#
# Coordination Sequence:
#
# PCOD9035922 Si02
#       7
#     2   2   2   2   2   2   2
#     4  12  26  45  70 109 148 186 234 294 366 422
#     4  12  28  47  74 104 144 188 241 297 353 428
#     4   9  24  43  73 107 141 190 238 288 358 420
#     4  10  22  46  76 106 142 189 245 290 349 424
#     4  12  26  45  72 109 146 181 243 300 349 427
#     4  10  24  46  70 103 145 191 237 288 354 420
#     4   9  23  44  74 106 138 190 245 282 348 416
#
# _framework density 25.360797000000002
#
# number of rings (size 3 to 8) (size 9 to 14) (size 15 to 20)
#    0.857    0.571    0.000    3.857    4.000    9.714 
#    0.000    5.000    0.000    0.000    0.000    0.000 
#    0.000    0.000    0.000    0.000    0.000    0.000 
#
# Total GULP energy -78157.932093 kJ/mol
# GULP energy per Si atom -5582.709435 kJ/mol
# Density = 2.530307 g / cm^3
# Si number density = 25.360797 Si / 1000 Ang^3
#
#
#
# Elastic Constant Matrix: (Units=GPa)
#
#
# Indices 1 2 3 4 5 6 
#
# 1 139.3847 16.2683 34.5767 26.8796 -4.0365 -11.6768
# 2 16.2683 130.6007 44.0744 29.1557 17.8516 28.4865
# 3 34.5767 44.0744 104.3780 24.6047 -3.9123 3.7253
# 4 26.8796 29.1557 24.6047 39.9668 -0.6047 3.9956
# 5 -4.0365 17.8516 -3.9123 -0.6047 40.3712 10.8993
# 6 -11.6768 28.4865 3.7253 3.9956 10.8993 28.2643
#
#
#
# Elastic Compliance Matrix: (Units=1/GPa)
#
#
# Indices 1 2 3 4 5 6 
#
# 1 0.009127 -0.000461 -0.001810 -0.005241 -0.000609 0.005450
# 2 -0.000461 0.013107 -0.003726 -0.005932 -0.003385 -0.010766
# 3 -0.001810 -0.003726 0.012744 -0.003971 0.002380 0.000971
# 4 -0.005241 -0.005932 -0.003971 0.035533 0.002714 -0.001733
# 5 -0.000609 -0.003385 0.002380 0.002714 0.028812 -0.008647
# 6 0.005450 -0.010766 0.000971 -0.001733 -0.008647 0.051934
#
#
# Mechanical properties :
#
#
# Convention : Reuss Voigt Hill
#
# Bulk Modulus (GPa) = 43.51073 62.68912 53.09993
# Shear Modulus (GPa) = 29.25458 40.35006 34.80232
#
# Velocity S-wave (km/s) = 3.40006 3.99311 3.70846
# Velocity P-wave (km/s) = 5.71032 6.78473 6.27058
#
# Compressibility (1/GPa) = 0.02298283
#
# Stress axis : x y z
#
# Youngs Moduli (GPa) = 109.56457 76.29433 78.46669
#
# Poissons Ratio (x) = 0.03520 0.14206
# Poissons Ratio (y) = 0.05055 0.29236
# Poissons Ratio (z) = 0.19836 0.28427
#
# Static dielectric constant tensor:
#      x y z
#    x 2.090150 0.022520 0.002130 
#    y 0.022520 2.023960 -0.010380 
#    z 0.002130 -0.010380 2.034310 
# 
# From -- ./inp_files/515772.got.cif
#   From: 2010.05.17/outbox.cif.g08.bks.cpg/sg2_258_cif.got.tgz:515772.got - 2010.06.03 11:33:40.
