data_PCOD9035069
_publ_section_title
;
Structure prediction by ZEFSAII (Michael W. Deem and Ramdas Pophale) SiO2 
 PCOD9035069
Probable space group: P -1
;
_chemical_formula_sum "Si O2"
_cell_formula_units_Z 15
_cell_length_a 9.001156
_cell_length_b 23.980546
_cell_length_c 12.612412
_cell_angle_alpha 32.228859
_cell_angle_beta 43.400520
_cell_angle_gamma 23.694244
_cell_volume 568.592230
_symmetry_space_group_name_H-M "P -1"
_symmetry_group_IT_number 2
_symmetry_cell_setting 'triclinic'
loop_
_space_group_symop_operation_xyz
x,y,z
-x,-y,-z
loop_
_atom_site_type_symbol
_atom_site_label
_atom_site_fract_x
_atom_site_fract_y
_atom_site_fract_z
Si Si1 0.231772 0.346435 0.301255
Si Si2 0.192371 0.728414 0.670474
Si Si3 0.204595 0.416883 0.640960
Si Si4 0.500000 0.000000 0.000000
Si Si5 0.020378 0.755544 0.499997
Si Si6 0.245381 0.679134 0.970591
Si Si7 0.684617 0.083139 0.658698
Si Si8 0.708897 0.030991 0.053937
O O1 0.408253 0.375326 0.104617
O O2 0.598821 0.138427 0.491897
O O3 0.043159 0.455453 0.333251
O O4 0.976060 0.366323 0.340886
O O5 0.917040 0.800700 0.604556
O O6 0.143352 0.725913 0.823841
O O7 0.191443 0.855604 0.457320
O O8 0.566402 0.507688 0.806471
O O9 0.578898 0.342780 0.562826
O O10 0.000000 0.500000 0.500000
O O11 0.338430 0.247013 0.877779
O O12 0.663479 0.820836 0.247132
O O13 0.770372 0.956720 0.026843
O O14 0.731138 0.931679 0.290117
O O15 0.891790 0.882393 0.884776
O O16 0.000000 0.000000 0.000000
#
# Coordination Sequence:
#
# PCOD9035069 Si02
#       8
#     2   2   2   1   2   2   2   2
#     4  11  22  43  66  98 144 182 238 298 357 437
#     4  10  22  45  70  96 143 184 241 299 360 425
#     4  11  23  41  71 105 139 190 237 301 371 432
#     4  12  22  40  78 104 138 188 236 292 376 434
#     4  11  23  44  67 104 148 181 235 311 366 434
#     4  10  24  46  72 100 136 195 248 293 362 446
#     4  11  23  44  71 105 138 183 244 297 360 445
#     4  10  23  43  67 107 149 185 239 297 375 448
#
# _framework density 26.380946000000002
#
# number of rings (size 3 to 8) (size 9 to 14) (size 15 to 20)
#    0.000    1.333    1.333    6.000    0.000    5.867 
#    9.600    3.333    0.000    0.000    0.000    0.000 
#    0.000    0.000    0.000    0.000    0.000    0.000 
#
# Total GULP energy -83583.704783 kJ/mol
# GULP energy per Si atom -5572.246986 kJ/mol
# Density = 2.632090 g / cm^3
# Si number density = 26.380946 Si / 1000 Ang^3
#
#
#
# Elastic Constant Matrix: (Units=GPa)
#
#
# Indices 1 2 3 4 5 6 
#
# 1 183.4711 55.6647 48.1978 -11.6533 -19.2969 24.3426
# 2 55.6647 105.6195 58.0131 -20.7420 -10.4594 4.1778
# 3 48.1978 58.0131 149.1262 -3.6056 -14.6456 20.8532
# 4 -11.6533 -20.7420 -3.6056 40.0644 -2.8000 -2.3967
# 5 -19.2969 -10.4594 -14.6456 -2.8000 52.6324 -4.7824
# 6 24.3426 4.1778 20.8532 -2.3967 -4.7824 41.1594
#
#
#
# Elastic Compliance Matrix: (Units=1/GPa)
#
#
# Indices 1 2 3 4 5 6 
#
# 1 0.007183 -0.003200 -0.000424 0.000295 0.001576 -0.003508
# 2 -0.003200 0.015275 -0.005118 0.006802 0.001114 0.003460
# 3 -0.000424 -0.005118 0.009442 -0.002096 0.000978 -0.004022
# 4 0.000295 0.006802 -0.002096 0.028690 0.002600 0.002170
# 5 0.001576 0.001114 0.000978 0.002600 0.020298 0.000969
# 6 -0.003508 0.003460 -0.004022 0.002170 0.000969 0.028296
#
#
# Mechanical properties :
#
#
# Convention : Reuss Voigt Hill
#
# Bulk Modulus (GPa) = 69.37221 84.66310 77.01765
# Shear Modulus (GPa) = 38.03135 45.19399 41.61267
#
# Velocity S-wave (km/s) = 3.80099 4.14349 3.97593
# Velocity P-wave (km/s) = 6.75402 7.41981 7.09473
#
# Compressibility (1/GPa) = 0.01441499
#
# Stress axis : x y z
#
# Youngs Moduli (GPa) = 139.22497 65.46808 105.91489
#
# Poissons Ratio (x) = 0.20948 0.04493
# Poissons Ratio (y) = 0.44548 0.54207
# Poissons Ratio (z) = 0.05906 0.33506
#
# Static dielectric constant tensor:
#      x y z
#    x 2.030630 -0.013880 0.025470 
#    y -0.013880 2.381010 0.042130 
#    z 0.025470 0.042130 2.234220 
# 
# From -- ./inp_files/508591.got.cif
#   From: 2010.05.17/outbox.cif.g08.bks.cpg/sg2_255_cif.got.tgz:508591.got - 2010.06.03 11:33:40.
