data_PCOD9035037
_publ_section_title
;
Structure prediction by ZEFSAII (Michael W. Deem and Ramdas Pophale) SiO2 
 PCOD9035037
Probable space group: P -1
;
_chemical_formula_sum "Si O2"
_cell_formula_units_Z 14
_cell_length_a 4.897690
_cell_length_b 14.154167
_cell_length_c 8.150979
_cell_angle_alpha 98.965362
_cell_angle_beta 82.854056
_cell_angle_gamma 72.243352
_cell_volume 522.602594
_symmetry_space_group_name_H-M "P -1"
_symmetry_group_IT_number 2
_symmetry_cell_setting 'triclinic'
loop_
_space_group_symop_operation_xyz
x,y,z
-x,-y,-z
loop_
_atom_site_type_symbol
_atom_site_label
_atom_site_fract_x
_atom_site_fract_y
_atom_site_fract_z
Si Si1 0.177924 0.162077 0.376240
Si Si2 0.279577 0.662208 0.494316
Si Si3 0.589399 0.793382 0.321277
Si Si4 0.149888 0.824963 0.922365
Si Si5 0.230498 0.309474 0.043622
Si Si6 0.248305 0.471454 0.332901
Si Si7 0.612079 0.969806 0.166587
O O1 0.181497 0.171233 0.577420
O O2 0.049788 0.284764 0.400648
O O3 0.976580 0.138262 0.241090
O O4 0.486152 0.074788 0.301770
O O5 0.397654 0.751369 0.447543
O O6 0.291987 0.579848 0.332325
O O7 0.472827 0.602657 0.612973
O O8 0.473259 0.893563 0.245884
O O9 0.697915 0.702563 0.158054
O O10 0.496247 0.778645 0.911715
O O11 0.043881 0.729139 0.938208
O O12 0.952796 0.908770 0.087469
O O13 0.190840 0.415361 0.161888
O O14 0.000000 0.500000 0.500000
O O15 0.500000 0.000000 0.000000
#
# Coordination Sequence:
#
# PCOD9035037 Si02
#       7
#     2   2   2   2   2   2   2
#     4  11  22  45  68 104 146 189 241 299 358 426
#     4  11  24  41  71 103 141 182 247 296 360 430
#     4  11  25  42  69 109 144 188 233 308 360 426
#     4  10  22  45  70 106 139 194 242 295 357 434
#     4  11  24  44  73 102 148 185 240 301 361 432
#     4  11  24  46  73 104 135 196 241 293 364 442
#     4   9  22  45  71 101 145 193 242 290 358 438
#
# _framework density 26.788995
#
# number of rings (size 3 to 8) (size 9 to 14) (size 15 to 20)
#    0.000    1.429    1.429    3.000    6.000    1.143 
#    5.143    9.286    0.000    0.000    0.000    0.000 
#    0.000    0.000    0.000    0.000    0.000    0.000 
#
# Total GULP energy -78026.542523 kJ/mol
# GULP energy per Si atom -5573.324466 kJ/mol
# Density = 2.672802 g / cm^3
# Si number density = 26.788995 Si / 1000 Ang^3
#
#
#
# Elastic Constant Matrix: (Units=GPa)
#
#
# Indices 1 2 3 4 5 6 
#
# 1 98.5265 42.7115 26.4598 10.7639 -5.8369 -5.6517
# 2 42.7115 138.5564 52.7335 37.0249 -18.1503 9.1770
# 3 26.4598 52.7335 164.2439 45.0152 7.8286 -7.0570
# 4 10.7639 37.0249 45.0152 60.9206 -1.1857 -8.1964
# 5 -5.8369 -18.1503 7.8286 -1.1857 36.4931 -0.7120
# 6 -5.6517 9.1770 -7.0570 -8.1964 -0.7120 46.0738
#
#
#
# Elastic Compliance Matrix: (Units=1/GPa)
#
#
# Indices 1 2 3 4 5 6 
#
# 1 0.012071 -0.003777 -0.000979 0.001203 0.000346 0.002302
# 2 -0.003777 0.011529 -0.002084 -0.005224 0.005331 -0.003926
# 3 -0.000979 -0.002084 0.008390 -0.004728 -0.003133 0.000691
# 4 0.001203 -0.005224 -0.004728 0.023484 -0.000538 0.004633
# 5 0.000346 0.005331 -0.003133 -0.000538 0.030742 -0.001120
# 6 0.002302 -0.003926 0.000691 0.004633 -0.001120 0.023681
#
#
# Mechanical properties :
#
#
# Convention : Reuss Voigt Hill
#
# Bulk Modulus (GPa) = 54.61538 71.68180 63.14859
# Shear Modulus (GPa) = 38.55612 47.32565 42.94088
#
# Velocity S-wave (km/s) = 3.79786 4.20766 4.00800
# Velocity P-wave (km/s) = 6.29787 7.10084 6.71138
#
# Compressibility (1/GPa) = 0.01830986
#
# Stress axis : x y z
#
# Youngs Moduli (GPa) = 82.84329 86.73776 119.18542
#
# Poissons Ratio (x) = 0.32759 0.11671
# Poissons Ratio (y) = 0.31288 0.24840
# Poissons Ratio (z) = 0.08112 0.18078
#
# Static dielectric constant tensor:
#      x y z
#    x 2.220820 -0.020970 0.009350 
#    y -0.020970 2.128850 -0.001970 
#    z 0.009350 -0.001970 2.189810 
# 
# From -- ./inp_files/135491.got.cif
#   From: 2010.05.17/outbox.cif.g08.bks.cpg/sg2_68_cif.got.tgz:135491.got - 2010.06.03 11:33:40.
