data_PCOD9035495
_publ_section_title
;
Structure prediction by ZEFSAII (Michael W. Deem and Ramdas Pophale) SiO2 
 PCOD9035495
Probable space group: P -1
;
_chemical_formula_sum "Si O2"
_cell_formula_units_Z 16
_cell_length_a 10.356174
_cell_length_b 16.553364
_cell_length_c 9.249237
_cell_angle_alpha 63.987520
_cell_angle_beta 66.077719
_cell_angle_gamma 34.527881
_cell_volume 804.638884
_symmetry_space_group_name_H-M "P -1"
_symmetry_group_IT_number 2
_symmetry_cell_setting 'triclinic'
loop_
_space_group_symop_operation_xyz
x,y,z
-x,-y,-z
loop_
_atom_site_type_symbol
_atom_site_label
_atom_site_fract_x
_atom_site_fract_y
_atom_site_fract_z
Si Si1 0.029297 0.084838 0.855447
Si Si2 0.472662 0.943744 0.925765
Si Si3 0.099301 0.032816 0.519661
Si Si4 0.171347 0.652687 0.671703
Si Si5 0.530029 0.920179 0.411850
Si Si6 0.921410 0.630287 0.005801
Si Si7 0.007056 0.401397 0.657226
Si Si8 0.705594 0.409352 0.670759
O O1 0.071089 0.046776 0.695240
O O2 0.825484 0.260586 0.801553
O O3 0.231901 0.029488 0.903271
O O4 0.000000 0.000000 0.000000
O O5 0.647499 0.776230 0.001889
O O6 0.570410 0.959355 0.748569
O O7 0.500000 0.000000 0.000000
O O8 0.965133 0.185640 0.396840
O O9 0.370673 0.912969 0.478444
O O10 0.000000 0.000000 0.500000
O O11 0.434948 0.532077 0.692788
O O12 0.195745 0.619446 0.513856
O O13 0.047872 0.644947 0.842894
O O14 0.784332 0.762227 0.377541
O O15 0.500000 0.000000 0.500000
O O16 0.965672 0.606879 0.175887
O O17 0.000000 0.500000 0.000000
O O18 0.000000 0.500000 0.500000
O O19 0.778413 0.459639 0.687858
#
# Coordination Sequence:
#
# PCOD9035495 Si02
#       8
#     2   2   2   2   2   2   2   2
#     4  11  25  42  67 100 138 175 223 282 340 405
#     4  12  24  46  72  99 131 181 232 287 341 401
#     4  11  25  41  67 102 134 178 224 277 343 403
#     4  10  23  44  68  93 136 179 219 277 336 406
#     4  12  23  46  74  96 133 181 232 285 340 402
#     4  12  27  43  69 103 135 177 229 281 340 404
#     4  12  27  44  69 102 136 178 227 281 341 409
#     4  10  22  46  66  94 135 179 221 274 341 397
#
# _framework density 19.884696000000002
#
# number of rings (size 3 to 8) (size 9 to 14) (size 15 to 20)
#    0.000    0.750    5.000    1.500    7.000    1.500 
#    0.000    0.000    0.000    0.000    0.000    0.000 
#    0.000    0.000    0.000    0.000    0.000    0.000 
#
# Total GULP energy -89136.278827 kJ/mol
# GULP energy per Si atom -5571.017427 kJ/mol
# Density = 1.983944 g / cm^3
# Si number density = 19.884696 Si / 1000 Ang^3
#
#
#
# Elastic Constant Matrix: (Units=GPa)
#
#
# Indices 1 2 3 4 5 6 
#
# 1 145.8430 55.6582 69.3117 -8.5079 15.1408 -2.9706
# 2 55.6582 102.7176 52.1746 -13.5478 17.0558 0.2259
# 3 69.3117 52.1746 155.3644 -14.8455 5.0758 4.9319
# 4 -8.5079 -13.5478 -14.8455 31.8027 5.3666 3.8213
# 5 15.1408 17.0558 5.0758 5.3666 42.9505 -2.4491
# 6 -2.9706 0.2259 4.9319 3.8213 -2.4491 33.3266
#
#
#
# Elastic Compliance Matrix: (Units=1/GPa)
#
#
# Indices 1 2 3 4 5 6 
#
# 1 0.009919 -0.003479 -0.003267 -0.000235 -0.001625 0.001299
# 2 -0.003479 0.014412 -0.002630 0.004913 -0.004853 -0.000939
# 3 -0.003267 -0.002630 0.009033 0.002317 0.000735 -0.001822
# 4 -0.000235 0.004913 0.002317 0.036342 -0.006972 -0.005076
# 5 -0.001625 -0.004853 0.000735 -0.006972 0.026712 0.002542
# 6 0.001299 -0.000939 -0.001822 -0.005076 0.002542 0.031167
#
#
# Mechanical properties :
#
#
# Convention : Reuss Voigt Hill
#
# Bulk Modulus (GPa) = 68.44229 84.24600 76.34414
# Shear Modulus (GPa) = 33.06732 36.73464 34.90098
#
# Velocity S-wave (km/s) = 4.08236 4.30278 4.19402
# Velocity P-wave (km/s) = 7.53095 8.19417 7.86955
#
# Compressibility (1/GPa) = 0.01461085
#
# Stress axis : x y z
#
# Youngs Moduli (GPa) = 100.82116 69.38479 110.71127
#
# Poissons Ratio (x) = 0.24138 0.36172
# Poissons Ratio (y) = 0.35075 0.29119
# Poissons Ratio (z) = 0.32941 0.18249
#
# Static dielectric constant tensor:
#      x y z
#    x 1.632810 -0.018480 -0.064950 
#    y -0.018480 1.682970 -0.013430 
#    z -0.064950 -0.013430 1.620690 
# 
# From -- ./inp_files/206313.got.cif
#   From: 2010.05.17/outbox.cif.g08.bks.cpg/sg2_104_cif.got.tgz:206313.got - 2010.06.03 11:33:40.
