data_PCOD9035388
_publ_section_title
;
Structure prediction by ZEFSAII (Michael W. Deem and Ramdas Pophale) SiO2 
 PCOD9035388
Probable space group: P -1
;
_chemical_formula_sum "Si O2"
_cell_formula_units_Z 16
_cell_length_a 16.216749
_cell_length_b 5.812109
_cell_length_c 7.788873
_cell_angle_alpha 95.457995
_cell_angle_beta 89.238605
_cell_angle_gamma 59.254948
_cell_volume 626.439903
_symmetry_space_group_name_H-M "P -1"
_symmetry_group_IT_number 2
_symmetry_cell_setting 'triclinic'
loop_
_space_group_symop_operation_xyz
x,y,z
-x,-y,-z
loop_
_atom_site_type_symbol
_atom_site_label
_atom_site_fract_x
_atom_site_fract_y
_atom_site_fract_z
Si Si1 0.612405 0.348924 0.283705
Si Si2 0.569576 0.683916 0.622913
Si Si3 0.466967 0.859994 0.129052
Si Si4 0.823790 0.679563 0.616618
Si Si5 0.836426 0.388834 0.920789
Si Si6 0.003138 0.178372 0.669667
Si Si7 0.700976 0.216757 0.846443
Si Si8 0.188466 0.200311 0.752885
O O1 0.622118 0.535677 0.438610
O O2 0.536068 0.276026 0.358099
O O3 0.768394 0.276561 0.968117
O O4 0.554152 0.562660 0.148542
O O5 0.559328 0.966948 0.683195
O O6 0.627078 0.476807 0.759475
O O7 0.367667 0.882173 0.081622
O O8 0.210289 0.454554 0.248158
O O9 0.500000 0.000000 0.000000
O O10 0.711157 0.072609 0.242983
O O11 0.775067 0.987188 0.696796
O O12 0.937385 0.493407 0.637683
O O13 0.836325 0.593150 0.074153
O O14 0.943019 0.169786 0.835167
O O15 0.105949 0.127548 0.715944
O O16 0.805791 0.665520 0.416915
O O17 0.000000 0.000000 0.500000
#
# Coordination Sequence:
#
# PCOD9035388 Si02
#       8
#     2   2   2   2   2   2   2   2
#     4  10  24  44  75 113 154 202 263 318 390 467
#     4  10  22  45  75 107 149 203 255 317 389 464
#     4  11  26  46  79 111 155 206 259 327 396 467
#     4  10  24  45  79 110 156 208 261 315 401 466
#     4  10  26  45  77 117 158 204 265 324 390 467
#     4  10  24  48  80 117 161 207 258 325 401 467
#     4  11  22  48  80 106 158 209 253 324 396 470
#     4  12  23  50  79 118 160 210 269 326 388 467
#
# _framework density 25.541160000000001
#
# number of rings (size 3 to 8) (size 9 to 14) (size 15 to 20)
#    0.750    0.750    1.250    2.625    0.000    5.000 
#    6.750    3.125   11.000    0.000    0.000    0.000 
#    0.000    0.000    0.000    0.000    0.000    0.000 
#
# Total GULP energy -89542.059693 kJ/mol
# GULP energy per Si atom -5596.378731 kJ/mol
# Density = 2.548303 g / cm^3
# Si number density = 25.541160 Si / 1000 Ang^3
#
#
#
# Elastic Constant Matrix: (Units=GPa)
#
#
# Indices 1 2 3 4 5 6 
#
# 1 193.8087 65.2569 49.2204 18.9604 11.9322 7.4003
# 2 65.2569 93.5959 28.2925 38.8041 4.0711 -14.6052
# 3 49.2204 28.2925 138.2282 10.1671 9.7939 3.7062
# 4 18.9604 38.8041 10.1671 61.8933 2.6751 4.7123
# 5 11.9322 4.0711 9.7939 2.6751 18.4256 -2.4999
# 6 7.4003 -14.6052 3.7062 4.7123 -2.4999 49.0431
#
#
#
# Elastic Compliance Matrix: (Units=1/GPa)
#
#
# Indices 1 2 3 4 5 6 
#
# 1 0.007741 -0.006277 -0.001280 0.002190 -0.003717 -0.003341
# 2 -0.006277 0.022022 -0.001827 -0.012407 0.003193 0.008999
# 3 -0.001280 -0.001827 0.008307 0.000411 -0.003405 -0.001192
# 4 0.002190 -0.012407 0.000411 0.023833 -0.003239 -0.006511
# 5 -0.003717 0.003193 -0.003405 -0.003239 0.058944 0.005085
# 6 -0.003341 0.008999 -0.001192 -0.006511 0.005085 0.024549
#
#
# Mechanical properties :
#
#
# Convention : Reuss Voigt Hill
#
# Bulk Modulus (GPa) = 51.80927 79.01916 65.41421
# Shear Modulus (GPa) = 29.30875 44.72992 37.01933
#
# Velocity S-wave (km/s) = 3.39117 4.18938 3.81123
# Velocity P-wave (km/s) = 5.97177 7.37606 6.71075
#
# Compressibility (1/GPa) = 0.01930156
#
# Stress axis : x y z
#
# Youngs Moduli (GPa) = 129.19022 45.40826 120.38076
#
# Poissons Ratio (x) = 0.28505 0.15403
# Poissons Ratio (y) = 0.81099 0.21996
# Poissons Ratio (z) = 0.16530 0.08297
#
# Static dielectric constant tensor:
#      x y z
#    x 1.999360 0.022400 -0.052860 
#    y 0.022400 1.995230 -0.007570 
#    z -0.052860 -0.007570 2.134850 
# 
# From -- ./inp_files/289941.got.cif
#   From: 2010.05.17/outbox.cif.g08.bks.cpg/sg2_145_cif.got.tgz:289941.got - 2010.06.03 11:33:40.
