data_PCOD9035545
_publ_section_title
;
Structure prediction by ZEFSAII (Michael W. Deem and Ramdas Pophale) SiO2 
 PCOD9035545
Probable space group: P -1
;
_chemical_formula_sum "Si O2"
_cell_formula_units_Z 15
_cell_length_a 6.912078
_cell_length_b 8.925391
_cell_length_c 14.209549
_cell_angle_alpha 121.670089
_cell_angle_beta 89.338046
_cell_angle_gamma 68.653394
_cell_volume 671.806294
_symmetry_space_group_name_H-M "P -1"
_symmetry_group_IT_number 2
_symmetry_cell_setting 'triclinic'
loop_
_space_group_symop_operation_xyz
x,y,z
-x,-y,-z
loop_
_atom_site_type_symbol
_atom_site_label
_atom_site_fract_x
_atom_site_fract_y
_atom_site_fract_z
Si Si1 0.911791 0.350357 0.415471
Si Si2 0.271592 0.172706 0.929790
Si Si3 0.126072 0.254273 0.751608
Si Si4 0.695515 0.570473 0.816156
Si Si5 0.778538 0.119972 0.484620
Si Si6 0.377514 0.435246 0.690595
Si Si7 0.000000 0.000000 0.000000
Si Si8 0.757515 0.883474 0.798702
O O1 0.799958 0.287818 0.478113
O O2 0.754994 0.445751 0.359595
O O3 0.000000 0.500000 0.500000
O O4 0.116303 0.160090 0.313949
O O5 0.142684 0.266631 0.867155
O O6 0.151844 0.066591 0.952052
O O7 0.508168 0.026859 0.845391
O O8 0.307359 0.317493 0.050822
O O9 0.228390 0.384326 0.744485
O O10 0.878024 0.351908 0.754572
O O11 0.241580 0.036283 0.638058
O O12 0.474923 0.564016 0.787513
O O13 0.763999 0.681163 0.771782
O O14 0.571139 0.233613 0.587867
O O15 0.000000 0.000000 0.500000
O O16 0.119347 0.040254 0.104418
#
# Coordination Sequence:
#
# PCOD9035545 Si02
#       8
#     2   2   2   2   2   2   1   2
#     4  12  27  47  75 106 141 190 240 293 355 427
#     4  11  27  42  76 105 144 189 239 299 348 428
#     4  12  26  46  71 108 145 186 234 297 359 424
#     4  11  24  47  68 105 145 183 243 287 360 423
#     4  12  26  47  73 105 144 182 241 295 355 424
#     4  12  27  47  74 100 147 192 231 299 357 422
#     4  10  22  46  68 102 142 182 232 290 356 406
#     4  11  25  43  73 105 141 186 244 289 353 425
#
# _framework density 22.327864000000002
#
# number of rings (size 3 to 8) (size 9 to 14) (size 15 to 20)
#    0.000    0.533    2.667    5.200    9.333    1.600 
#    0.000    0.000    0.000    0.000    0.000    0.000 
#    0.000    0.000    0.000    0.000    0.000    0.000 
#
# Total GULP energy -83763.106730 kJ/mol
# GULP energy per Si atom -5584.207115 kJ/mol
# Density = 2.227704 g / cm^3
# Si number density = 22.327864 Si / 1000 Ang^3
#
#
#
# Elastic Constant Matrix: (Units=GPa)
#
#
# Indices 1 2 3 4 5 6 
#
# 1 119.5587 24.4429 26.4763 -5.8431 27.0539 2.4013
# 2 24.4429 37.6939 18.9293 6.1346 11.2818 -12.8591
# 3 26.4763 18.9293 50.9964 -14.7946 6.0473 -2.3707
# 4 -5.8431 6.1346 -14.7946 27.4857 -2.7756 -0.7119
# 5 27.0539 11.2818 6.0473 -2.7756 52.7395 7.6121
# 6 2.4013 -12.8591 -2.3707 -0.7119 7.6121 22.1796
#
#
#
# Elastic Compliance Matrix: (Units=1/GPa)
#
#
# Indices 1 2 3 4 5 6 
#
# 1 0.011253 -0.006881 -0.002472 0.002155 -0.003287 -0.004275
# 2 -0.006881 0.069512 -0.027765 -0.032437 -0.016002 0.042529
# 3 -0.002472 -0.027765 0.037429 0.026103 0.006182 -0.013113
# 4 0.002155 -0.032437 0.026103 0.058533 0.008412 -0.017257
# 5 -0.003287 -0.016002 0.006182 0.008412 0.026258 -0.017002
# 6 -0.004275 0.042529 -0.013113 -0.017257 -0.017002 0.074086
#
#
# Mechanical properties :
#
#
# Convention : Reuss Voigt Hill
#
# Bulk Modulus (GPa) = 22.74946 38.66066 30.70506
# Shear Modulus (GPa) = 13.66272 29.70764 21.68518
#
# Velocity S-wave (km/s) = 2.47637 3.65158 3.11981
# Velocity P-wave (km/s) = 4.28806 5.92717 5.17295
#
# Compressibility (1/GPa) = 0.04395708
#
# Stress axis : x y z
#
# Youngs Moduli (GPa) = 88.86327 14.38609 26.71744
#
# Poissons Ratio (x) = 0.09899 0.06605
# Poissons Ratio (y) = 0.61148 0.74181
# Poissons Ratio (z) = 0.21968 0.39943
#
# Static dielectric constant tensor:
#      x y z
#    x 1.805550 -0.063410 -0.028940 
#    y -0.063410 1.862180 0.086200 
#    z -0.028940 0.086200 1.861730 
# 
# From -- ./inp_files/38951.got.cif
#   From: 2010.05.17/outbox.cif.g08.bks.cpg/sg2_20_cif.got.tgz:38951.got - 2010.06.03 11:33:40.
