data_PCOD9035051
_publ_section_title
;
Structure prediction by ZEFSAII (Michael W. Deem and Ramdas Pophale) SiO2 
 PCOD9035051
Probable space group: P -1
;
_chemical_formula_sum "Si O2"
_cell_formula_units_Z 12
_cell_length_a 9.254802
_cell_length_b 19.305276
_cell_length_c 5.655555
_cell_angle_alpha 73.653987
_cell_angle_beta 93.321579
_cell_angle_gamma 36.629609
_cell_volume 502.435177
_symmetry_space_group_name_H-M "P -1"
_symmetry_group_IT_number 2
_symmetry_cell_setting 'triclinic'
loop_
_space_group_symop_operation_xyz
x,y,z
-x,-y,-z
loop_
_atom_site_type_symbol
_atom_site_label
_atom_site_fract_x
_atom_site_fract_y
_atom_site_fract_z
Si Si1 0.278313 0.750426 0.321848
Si Si2 0.169537 0.936605 0.333018
Si Si3 0.632957 0.022103 0.950399
Si Si4 0.136888 0.326832 0.809304
Si Si5 0.716927 0.581689 0.145141
Si Si6 0.352008 0.509348 0.150395
O O1 0.359527 0.784634 0.460951
O O2 0.412315 0.711216 0.118452
O O3 0.424207 0.612705 0.523466
O O4 0.950932 0.879022 0.203925
O O5 0.312772 0.954615 0.311478
O O6 0.000000 0.000000 0.500000
O O7 0.000000 0.000000 0.000000
O O8 0.421886 0.167654 0.915214
O O9 0.500000 0.000000 0.000000
O O10 0.208741 0.366736 0.930331
O O11 0.944288 0.444945 0.470981
O O12 0.942258 0.349731 0.892752
O O13 0.708865 0.535654 0.963682
O O14 0.500000 0.500000 0.000000
#
# Coordination Sequence:
#
# PCOD9035051 Si02
#       6
#     2   2   2   2   2   2
#     4  10  24  43  69  99 134 194 237 294 369 448
#     4  10  23  45  70 104 145 198 246 294 373 459
#     4  11  25  44  72 107 149 187 244 319 374 435
#     4  10  23  45  66 101 134 184 241 291 362 437
#     4  10  22  45  70  93 138 180 246 282 358 439
#     4  11  26  41  69 103 140 188 238 304 374 439
#
# _framework density 23.883679000000001
#
# number of rings (size 3 to 8) (size 9 to 14) (size 15 to 20)
#    0.000    1.667    1.667    0.500    9.333    1.333 
#    6.000    4.167    0.000    0.000    0.000    0.000 
#    0.000    0.000    0.000    0.000    0.000    0.000 
#
# Total GULP energy -66890.672918 kJ/mol
# GULP energy per Si atom -5574.222743 kJ/mol
# Density = 2.382932 g / cm^3
# Si number density = 23.883679 Si / 1000 Ang^3
#
#
#
# Elastic Constant Matrix: (Units=GPa)
#
#
# Indices 1 2 3 4 5 6 
#
# 1 152.1096 39.3226 26.1121 -1.6071 -32.6212 -36.3580
# 2 39.3226 158.9953 22.8287 -2.8007 -6.8428 -36.4735
# 3 26.1121 22.8287 41.0480 0.3964 -10.5524 -19.3922
# 4 -1.6071 -2.8007 0.3964 35.3934 -10.4616 -3.4555
# 5 -32.6212 -6.8428 -10.5524 -10.4616 43.1964 11.8597
# 6 -36.3580 -36.4735 -19.3922 -3.4555 11.8597 46.8074
#
#
#
# Elastic Compliance Matrix: (Units=1/GPa)
#
#
# Indices 1 2 3 4 5 6 
#
# 1 0.009519 -0.000686 -0.001929 0.002619 0.005939 0.004749
# 2 -0.000686 0.007871 -0.001740 0.000847 -0.000912 0.005173
# 3 -0.001929 -0.001740 0.032043 0.001481 0.003829 0.009561
# 4 0.002619 0.000847 0.001481 0.031461 0.009186 0.003303
# 5 0.005939 -0.000912 0.003829 0.009186 0.031123 -0.001718
# 6 0.004749 0.005173 0.009561 0.003303 -0.001718 0.033724
#
#
# Mechanical properties :
#
#
# Convention : Reuss Voigt Hill
#
# Bulk Modulus (GPa) = 24.55546 58.74220 41.64883
# Shear Modulus (GPa) = 29.75736 42.67205 36.21471
#
# Velocity S-wave (km/s) = 3.53360 4.23148 3.89819
# Velocity P-wave (km/s) = 5.19153 6.96580 6.14306
#
# Compressibility (1/GPa) = 0.04072414
#
# Stress axis : x y z
#
# Youngs Moduli (GPa) = 105.05101 127.04153 31.20802
#
# Poissons Ratio (x) = 0.08718 0.06020
# Poissons Ratio (y) = 0.07209 0.05429
# Poissons Ratio (z) = 0.20263 0.22101
#
# Static dielectric constant tensor:
#      x y z
#    x 1.977260 -0.033040 -0.024880 
#    y -0.033040 2.032300 -0.026560 
#    z -0.024880 -0.026560 2.102720 
# 
# From -- ./inp_files/52714.got.cif
#   From: 2010.05.17/outbox.cif.g08.bks.cpg/sg2_27_cif.got.tgz:52714.got - 2010.06.03 11:33:40.
