data_PCOD9035708
_publ_section_title
;
Structure prediction by ZEFSAII (Michael W. Deem and Ramdas Pophale) SiO2 
 PCOD9035708
Probable space group: P -1
;
_chemical_formula_sum "Si O2"
_cell_formula_units_Z 14
_cell_length_a 6.509080
_cell_length_b 12.290975
_cell_length_c 10.458311
_cell_angle_alpha 49.084199
_cell_angle_beta 95.329020
_cell_angle_gamma 112.941384
_cell_volume 566.178140
_symmetry_space_group_name_H-M "P -1"
_symmetry_group_IT_number 2
_symmetry_cell_setting 'triclinic'
loop_
_space_group_symop_operation_xyz
x,y,z
-x,-y,-z
loop_
_atom_site_type_symbol
_atom_site_label
_atom_site_fract_x
_atom_site_fract_y
_atom_site_fract_z
Si Si1 0.824531 0.345039 0.787116
Si Si2 0.775382 0.570566 0.048731
Si Si3 0.625176 0.808834 0.433899
Si Si4 0.566205 0.951544 0.865585
Si Si5 0.039852 0.201922 0.728295
Si Si6 0.467929 0.450855 0.703692
Si Si7 0.409703 0.232974 0.241430
O O1 0.925985 0.316509 0.683036
O O2 0.719397 0.470591 0.672332
O O3 0.010501 0.390160 0.877063
O O4 0.613893 0.183622 0.950383
O O5 0.583347 0.577102 0.128820
O O6 0.660105 0.388526 0.135443
O O7 0.781412 0.699093 0.846601
O O8 0.461609 0.619119 0.548582
O O9 0.627660 0.836863 0.564238
O O10 0.870508 0.830145 0.377394
O O11 0.533366 0.920384 0.269833
O O12 0.591647 0.881111 0.784383
O O13 0.822189 0.034041 0.876362
O O14 0.279994 0.295121 0.744566
#
# Coordination Sequence:
#
# PCOD9035708 Si02
#       7
#     2   2   2   2   2   2   2
#     4  11  24  44  74  99 128 175 233 273 329 391
#     4   9  21  44  74  99 128 174 226 283 319 388
#     4  11  26  44  66  99 140 175 219 275 335 397
#     4  12  26  43  66 104 136 177 220 271 339 396
#     4  11  26  44  71  97 141 175 220 278 335 391
#     4  10  22  46  71 100 130 174 230 275 326 395
#     4  10  22  47  68  99 137 171 227 271 331 399
#
# _framework density 24.727198999999999
#
# number of rings (size 3 to 8) (size 9 to 14) (size 15 to 20)
#    0.000    1.429    1.429    2.143    2.000    6.857 
#    2.571    0.000    0.000    0.000    0.000    0.000 
#    0.000    0.000    0.000    0.000    0.000    0.000 
#
# Total GULP energy -78197.250251 kJ/mol
# GULP energy per Si atom -5585.517875 kJ/mol
# Density = 2.467092 g / cm^3
# Si number density = 24.727199 Si / 1000 Ang^3
#
#
#
# Elastic Constant Matrix: (Units=GPa)
#
#
# Indices 1 2 3 4 5 6 
#
# 1 125.3545 55.3409 27.2301 -3.1215 1.3948 -7.5291
# 2 55.3409 121.7337 20.1105 -1.9664 -1.3007 -6.9098
# 3 27.2301 20.1105 81.5279 -9.1722 7.3531 -17.3001
# 4 -3.1215 -1.9664 -9.1722 32.7284 -4.2884 -1.8225
# 5 1.3948 -1.3007 7.3531 -4.2884 40.1183 -6.6088
# 6 -7.5291 -6.9098 -17.3001 -1.8225 -6.6088 29.0615
#
#
#
# Elastic Compliance Matrix: (Units=1/GPa)
#
#
# Indices 1 2 3 4 5 6 
#
# 1 0.010417 -0.004332 -0.002340 0.000091 -0.000018 0.000277
# 2 -0.004332 0.010412 -0.000980 0.000101 0.000838 0.000966
# 3 -0.002340 -0.000980 0.015696 0.004471 -0.000937 0.008571
# 4 0.000091 0.000101 0.004471 0.032602 0.003583 0.005568
# 5 -0.000018 0.000838 -0.000937 0.003583 0.026478 0.005882
# 6 0.000277 0.000966 0.008571 0.005568 0.005882 0.041501
#
#
# Mechanical properties :
#
#
# Convention : Reuss Voigt Hill
#
# Bulk Modulus (GPa) = 47.12735 59.33101 53.22918
# Shear Modulus (GPa) = 31.35129 35.44396 33.39763
#
# Velocity S-wave (km/s) = 3.56460 3.79013 3.67910
# Velocity P-wave (km/s) = 6.00351 6.57266 6.29452
#
# Compressibility (1/GPa) = 0.02121910
#
# Stress axis : x y z
#
# Youngs Moduli (GPa) = 95.99347 96.04761 63.71239
#
# Poissons Ratio (x) = 0.41610 0.14909
# Poissons Ratio (y) = 0.41586 0.06246
# Poissons Ratio (z) = 0.22463 0.09416
#
# Static dielectric constant tensor:
#      x y z
#    x 1.979000 -0.016710 0.001060 
#    y -0.016710 1.987130 -0.009640 
#    z 0.001060 -0.009640 1.997190 
# 
# From -- ./inp_files/363726.got.cif
#   From: 2010.05.17/outbox.cif.g08.bks.cpg/sg2_182_cif.got.tgz:363726.got - 2010.06.03 11:33:40.
