data_PCOD9035220
_publ_section_title
;
Structure prediction by ZEFSAII (Michael W. Deem and Ramdas Pophale) SiO2 
 PCOD9035220
Probable space group: P -1
;
_chemical_formula_sum "Si O2"
_cell_formula_units_Z 14
_cell_length_a 11.890715
_cell_length_b 8.864790
_cell_length_c 6.634752
_cell_angle_alpha 104.231208
_cell_angle_beta 108.120080
_cell_angle_gamma 77.617218
_cell_volume 637.011091
_symmetry_space_group_name_H-M "P -1"
_symmetry_group_IT_number 2
_symmetry_cell_setting 'triclinic'
loop_
_space_group_symop_operation_xyz
x,y,z
-x,-y,-z
loop_
_atom_site_type_symbol
_atom_site_label
_atom_site_fract_x
_atom_site_fract_y
_atom_site_fract_z
Si Si1 0.167551 0.126226 0.996977
Si Si2 0.617988 0.378445 0.060082
Si Si3 0.503921 0.082389 0.813386
Si Si4 0.693682 0.943556 0.570878
Si Si5 0.816395 0.553496 0.035550
Si Si6 0.231576 0.828529 0.637007
Si Si7 0.036549 0.674878 0.273314
O O1 0.191898 0.111359 0.243836
O O2 0.234965 0.271701 0.012654
O O3 0.031952 0.193944 0.876438
O O4 0.208269 0.966014 0.840653
O O5 0.666762 0.312287 0.282004
O O6 0.500000 0.500000 0.000000
O O7 0.580917 0.222607 0.892564
O O8 0.724933 0.454389 0.049048
O O9 0.370967 0.140101 0.671322
O O10 0.585542 0.958503 0.676556
O O11 0.500000 0.000000 0.000000
O O12 0.725122 0.094115 0.515841
O O13 0.876417 0.453037 0.847407
O O14 0.925425 0.588763 0.252915
O O15 0.110299 0.758542 0.501769
#
# Coordination Sequence:
#
# PCOD9035220 Si02
#       7
#     2   2   2   2   2   2   2
#     4  10  22  45  72 105 137 184 235 292 345 425
#     4  12  27  42  69 100 144 185 231 297 347 429
#     4  11  23  44  66  97 136 189 240 285 346 411
#     4  11  23  39  74  95 140 183 231 300 339 412
#     4   9  23  48  68 100 150 182 237 288 364 413
#     4  12  24  44  72 107 140 185 246 283 358 419
#     4   9  22  46  73 105 142 186 232 301 349 429
#
# _framework density 21.977640000000001
#
# number of rings (size 3 to 8) (size 9 to 14) (size 15 to 20)
#    0.857    0.571    2.857    1.286    4.000    2.286 
#    2.571    2.143    0.000    0.000    0.000    0.000 
#    0.000    0.000    0.000    0.000    0.000    0.000 
#
# Total GULP energy -77954.070523 kJ/mol
# GULP energy per Si atom -5568.147894 kJ/mol
# Density = 2.192762 g / cm^3
# Si number density = 21.977640 Si / 1000 Ang^3
#
#
#
# Elastic Constant Matrix: (Units=GPa)
#
#
# Indices 1 2 3 4 5 6 
#
# 1 97.3275 51.4969 44.6914 -0.2301 18.3773 16.9623
# 2 51.4969 113.9504 62.6312 -7.6753 8.8276 11.4311
# 3 44.6914 62.6312 108.9722 -8.9331 27.5926 -0.6438
# 4 -0.2301 -7.6753 -8.9331 27.4567 3.4242 8.6512
# 5 18.3773 8.8276 27.5926 3.4242 38.3986 -2.2655
# 6 16.9623 11.4311 -0.6438 8.6512 -2.2655 51.8612
#
#
#
# Elastic Compliance Matrix: (Units=1/GPa)
#
#
# Indices 1 2 3 4 5 6 
#
# 1 0.015656 -0.004985 -0.002345 -0.000073 -0.004907 -0.004253
# 2 -0.004985 0.015199 -0.007579 0.001848 0.004058 -0.001945
# 3 -0.002345 -0.007579 0.017360 0.004270 -0.009902 0.001508
# 4 -0.000073 0.001848 0.004270 0.041676 -0.007624 -0.007616
# 5 -0.004907 0.004058 -0.009902 -0.007624 0.035454 0.003408
# 6 -0.004253 -0.001945 0.001508 -0.007616 0.003408 0.022540
#
#
# Mechanical properties :
#
#
# Convention : Reuss Voigt Hill
#
# Bulk Modulus (GPa) = 54.35000 70.87658 62.61329
# Shear Modulus (GPa) = 27.19801 34.30535 30.75168
#
# Velocity S-wave (km/s) = 3.52167 3.95513 3.74468
# Velocity P-wave (km/s) = 6.42803 7.29225 6.87374
#
# Compressibility (1/GPa) = 0.01839926
#
# Stress axis : x y z
#
# Youngs Moduli (GPa) = 63.87197 65.79211 57.60241
#
# Poissons Ratio (x) = 0.32797 0.13505
# Poissons Ratio (y) = 0.31840 0.43656
# Poissons Ratio (z) = 0.14975 0.49863
#
# Static dielectric constant tensor:
#      x y z
#    x 1.855070 -0.048190 0.022520 
#    y -0.048190 1.830090 0.025440 
#    z 0.022520 0.025440 1.880000 
# 
# From -- ./inp_files/61064.got.cif
#   From: 2010.05.17/outbox.cif.g08.bks.cpg/sg2_31_cif.got.tgz:61064.got - 2010.06.03 11:33:40.
