data_PCOD9035363
_publ_section_title
;
Structure prediction by ZEFSAII (Michael W. Deem and Ramdas Pophale) SiO2 
 PCOD9035363
Probable space group: P -1
;
_chemical_formula_sum "Si O2"
_cell_formula_units_Z 14
_cell_length_a 16.798295
_cell_length_b 8.811552
_cell_length_c 8.929771
_cell_angle_alpha 146.837745
_cell_angle_beta 133.016639
_cell_angle_gamma 52.698466
_cell_volume 526.627299
_symmetry_space_group_name_H-M "P -1"
_symmetry_group_IT_number 2
_symmetry_cell_setting 'triclinic'
loop_
_space_group_symop_operation_xyz
x,y,z
-x,-y,-z
loop_
_atom_site_type_symbol
_atom_site_label
_atom_site_fract_x
_atom_site_fract_y
_atom_site_fract_z
Si Si1 0.505664 0.537627 0.715879
Si Si2 0.460191 0.813444 0.158128
Si Si3 0.305377 0.253014 0.384561
Si Si4 0.140768 0.038675 0.527286
Si Si5 0.128646 0.439130 0.101585
Si Si6 0.049472 0.786280 0.764632
Si Si7 0.730874 0.540309 0.158021
O O1 0.500000 0.500000 0.500000
O O2 0.397388 0.404564 0.531943
O O3 0.494458 0.828550 0.039886
O O4 0.628440 0.434858 0.846661
O O5 0.500000 0.000000 0.500000
O O6 0.500000 0.500000 0.000000
O O7 0.188042 0.383060 0.287956
O O8 0.306643 0.309860 0.610043
O O9 0.176585 0.708780 0.892822
O O10 0.334357 0.933356 0.105811
O O11 0.212527 0.219919 0.662469
O O12 0.011689 0.103457 0.373400
O O13 0.169293 0.709208 0.293305
O O14 0.157267 0.166162 0.815481
O O15 0.000000 0.500000 0.000000
O O16 0.000000 0.500000 0.500000
O O17 0.000000 0.000000 0.000000
#
# Coordination Sequence:
#
# PCOD9035363 Si02
#       7
#     2   2   2   2   2   2   2
#     4  12  27  53  83 123 171 220 283 346 426 500
#     4  12  25  55  79 117 165 214 287 344 415 498
#     4  12  28  54  84 120 172 223 283 343 425 503
#     4  11  25  51  77 120 158 207 277 336 404 489
#     4  12  28  53  79 117 164 216 265 339 417 494
#     4  10  22  45  74 116 159 207 270 340 406 483
#     4  11  24  51  86 122 167 225 281 350 417 503
#
# _framework density 26.584266
#
# number of rings (size 3 to 8) (size 9 to 14) (size 15 to 20)
#    0.000    0.571    2.857    4.286    2.000    1.714 
#   30.857    0.000    0.000    0.000    0.000    0.000 
#    0.000    0.000    0.000    0.000    0.000    0.000 
#
# Total GULP energy -78254.191316 kJ/mol
# GULP energy per Si atom -5589.585094 kJ/mol
# Density = 2.652376 g / cm^3
# Si number density = 26.584266 Si / 1000 Ang^3
#
#
#
# Elastic Constant Matrix: (Units=GPa)
#
#
# Indices 1 2 3 4 5 6 
#
# 1 169.5857 48.2767 62.1147 -17.9226 -7.1644 1.2365
# 2 48.2767 136.2661 66.4100 -26.1526 -8.0275 -19.2175
# 3 62.1147 66.4100 147.4052 -18.1561 -22.5067 -1.4352
# 4 -17.9226 -26.1526 -18.1561 62.2782 1.7621 -10.4581
# 5 -7.1644 -8.0275 -22.5067 1.7621 58.7612 -4.3736
# 6 1.2365 -19.2175 -1.4352 -10.4581 -4.3736 52.4447
#
#
#
# Elastic Compliance Matrix: (Units=1/GPa)
#
#
# Indices 1 2 3 4 5 6 
#
# 1 0.007229 -0.001360 -0.002395 0.000716 -0.000289 -0.000616
# 2 -0.001360 0.011173 -0.003909 0.003967 0.000103 0.004819
# 3 -0.002395 -0.003909 0.010045 0.000383 0.002952 -0.000778
# 4 0.000716 0.003967 0.000383 0.018908 0.000601 0.005268
# 5 -0.000289 0.000103 0.002952 0.000601 0.018241 0.001766
# 6 -0.000616 0.004819 -0.000778 0.005268 0.001766 0.022024
#
#
# Mechanical properties :
#
#
# Convention : Reuss Voigt Hill
#
# Bulk Modulus (GPa) = 76.23671 89.65109 82.94390
# Shear Modulus (GPa) = 46.58859 53.12720 49.85790
#
# Velocity S-wave (km/s) = 4.19081 4.47525 4.33536
# Velocity P-wave (km/s) = 7.22197 7.77820 7.50524
#
# Compressibility (1/GPa) = 0.01311704
#
# Stress axis : x y z
#
# Youngs Moduli (GPa) = 138.32655 89.50447 99.55264
#
# Poissons Ratio (x) = 0.12175 0.23848
# Poissons Ratio (y) = 0.18817 0.38916
# Poissons Ratio (z) = 0.33136 0.34988
#
# Static dielectric constant tensor:
#      x y z
#    x 2.153580 -0.025390 0.106260 
#    y -0.025390 2.205930 0.009560 
#    z 0.106260 0.009560 2.235400 
# 
# From -- ./inp_files/344014.got.cif
#   From: 2010.05.17/outbox.cif.g08.bks.cpg/sg2_173_cif.got.tgz:344014.got - 2010.06.03 11:33:40.
