data_PCOD9035730
_publ_section_title
;
Structure prediction by ZEFSAII (Michael W. Deem and Ramdas Pophale) SiO2 
 PCOD9035730
Probable space group: P -1
;
_chemical_formula_sum "Si O2"
_cell_formula_units_Z 14
_cell_length_a 5.158639
_cell_length_b 14.786873
_cell_length_c 20.918364
_cell_angle_alpha 19.392694
_cell_angle_beta 79.617143
_cell_angle_gamma 80.211174
_cell_volume 521.147275
_symmetry_space_group_name_H-M "P -1"
_symmetry_group_IT_number 2
_symmetry_cell_setting 'triclinic'
loop_
_space_group_symop_operation_xyz
x,y,z
-x,-y,-z
loop_
_atom_site_type_symbol
_atom_site_label
_atom_site_fract_x
_atom_site_fract_y
_atom_site_fract_z
Si Si1 0.148246 0.968628 0.247711
Si Si2 0.987102 0.388267 0.686501
Si Si3 0.488176 0.934432 0.133531
Si Si4 0.899555 0.782214 0.784879
Si Si5 0.625416 0.839775 0.542291
Si Si6 0.840231 0.460483 0.881196
Si Si7 0.750183 0.506697 0.263918
O O1 0.057932 0.659938 0.464236
O O2 0.384414 0.973554 0.183898
O O3 0.228741 0.080277 0.239086
O O4 0.911780 0.163442 0.102557
O O5 0.208384 0.154604 0.820752
O O6 0.037916 0.464984 0.707315
O O7 0.705099 0.290705 0.739400
O O8 0.404786 0.209519 0.918005
O O9 0.759780 0.659396 0.810074
O O10 0.129227 0.983101 0.613298
O O11 0.000000 0.500000 0.000000
O O12 0.665521 0.544421 0.772735
O O13 0.438374 0.754488 0.548900
O O14 0.500000 0.000000 0.500000
O O15 0.113520 0.537500 0.781722
#
# Coordination Sequence:
#
# PCOD9035730 Si02
#       7
#     2   2   2   2   2   2   2
#     4  10  24  45  74 101 148 201 245 312 388 439
#     4  12  26  48  74 110 149 197 263 316 380 443
#     4  11  27  49  73 109 151 199 260 319 377 447
#     4  10  22  46  71 106 150 191 244 307 382 463
#     4  12  25  43  76 110 147 200 249 308 381 465
#     4  10  23  46  70 105 155 186 249 304 380 464
#     4  11  26  44  75 107 145 197 248 318 382 448
#
# _framework density 26.863807000000001
#
# number of rings (size 3 to 8) (size 9 to 14) (size 15 to 20)
#    0.000    1.143    1.429    3.000   10.000    0.000 
#    2.571    2.857    0.000    0.000    0.000    0.000 
#    0.000    0.000    0.000    0.000    0.000    0.000 
#
# Total GULP energy -78326.547910 kJ/mol
# GULP energy per Si atom -5594.753422 kJ/mol
# Density = 2.680266 g / cm^3
# Si number density = 26.863807 Si / 1000 Ang^3
#
#
#
# Elastic Constant Matrix: (Units=GPa)
#
#
# Indices 1 2 3 4 5 6 
#
# 1 65.9363 20.8402 2.7211 11.9648 -0.6277 12.7565
# 2 20.8402 175.8434 15.3319 20.0877 -0.0533 -4.1228
# 3 2.7211 15.3319 118.8580 20.3484 18.8712 8.9655
# 4 11.9648 20.0877 20.3484 44.0935 6.0660 2.0943
# 5 -0.6277 -0.0533 18.8712 6.0660 29.4031 2.2445
# 6 12.7565 -4.1228 8.9655 2.0943 2.2445 41.3360
#
#
#
# Elastic Compliance Matrix: (Units=1/GPa)
#
#
# Indices 1 2 3 4 5 6 
#
# 1 0.017564 -0.001802 0.000789 -0.004202 0.001161 -0.005622
# 2 -0.001802 0.006241 -0.000598 -0.002243 0.000713 0.001383
# 3 0.000789 -0.000598 0.010153 -0.003766 -0.005570 -0.002012
# 4 -0.004202 -0.002243 -0.003766 0.027000 -0.003301 0.000701
# 5 0.001161 0.000713 -0.005570 -0.003301 0.038368 -0.000995
# 6 -0.005622 0.001383 -0.002012 0.000701 -0.000995 0.026520
#
#
# Mechanical properties :
#
#
# Convention : Reuss Voigt Hill
#
# Bulk Modulus (GPa) = 32.53205 48.71379 40.62292
# Shear Modulus (GPa) = 35.89055 44.41614 40.15335
#
# Velocity S-wave (km/s) = 3.65912 4.07059 3.87033
# Velocity P-wave (km/s) = 5.47618 6.34554 5.92682
#
# Compressibility (1/GPa) = 0.03073892
#
# Stress axis : x y z
#
# Youngs Moduli (GPa) = 56.93382 160.22182 98.49059
#
# Poissons Ratio (x) = 0.28870 -0.07775
# Poissons Ratio (y) = 0.10259 0.05885
# Poissons Ratio (z) = -0.04494 0.09574
#
# Static dielectric constant tensor:
#      x y z
#    x 2.178670 -0.014460 0.067000 
#    y -0.014460 2.095490 -0.028710 
#    z 0.067000 -0.028710 2.065690 
# 
# From -- ./inp_files/583663.got.cif
#   From: 2010.05.17/outbox.cif.g08.bks.cpg/sg2_292_cif.got.tgz:583663.got - 2010.06.03 11:33:40.
