data_PCOD9035879
_publ_section_title
;
Structure prediction by ZEFSAII (Michael W. Deem and Ramdas Pophale) SiO2 
 PCOD9035879
Probable space group: P -1
;
_chemical_formula_sum "Si O2"
_cell_formula_units_Z 13
_cell_length_a 14.587438
_cell_length_b 14.818515
_cell_length_c 8.755019
_cell_angle_alpha 146.099410
_cell_angle_beta 40.931917
_cell_angle_gamma 150.142477
_cell_volume 521.155980
_symmetry_space_group_name_H-M "P -1"
_symmetry_group_IT_number 2
_symmetry_cell_setting 'triclinic'
loop_
_space_group_symop_operation_xyz
x,y,z
-x,-y,-z
loop_
_atom_site_type_symbol
_atom_site_label
_atom_site_fract_x
_atom_site_fract_y
_atom_site_fract_z
Si Si1 0.109817 0.225361 0.766017
Si Si2 0.847531 0.547554 0.448292
Si Si3 0.573292 0.203055 0.083471
Si Si4 0.268594 0.892447 0.489232
Si Si5 0.500000 0.500000 0.500000
Si Si6 0.288658 0.281594 0.949999
Si Si7 0.842748 0.285858 0.304779
O O1 0.301588 0.410912 0.698108
O O2 0.174780 0.241716 0.883923
O O3 0.000000 0.000000 0.500000
O O4 0.954718 0.248723 0.004479
O O5 0.764195 0.413813 0.212826
O O6 0.747270 0.357764 0.434470
O O7 0.064628 0.694685 0.403030
O O8 0.802573 0.698708 0.760318
O O9 0.459024 0.282789 0.319481
O O10 0.600160 0.136950 0.795763
O O11 0.500000 0.000000 0.000000
O O12 0.268886 0.884944 0.660913
O O13 0.296703 0.096777 0.692088
O O14 0.500000 0.500000 0.000000
O O15 0.000000 0.500000 0.500000
#
# Coordination Sequence:
#
# PCOD9035879 Si02
#       7
#     2   2   2   2   1   2   2
#     4  12  28  47  78 116 156 206 272 326 397 485
#     4  11  24  46  76 108 151 197 262 321 394 477
#     4  12  28  50  73 118 156 206 263 334 397 482
#     4  11  24  47  80 107 146 207 262 318 403 472
#     4  12  28  50  76 112 166 208 254 332 406 458
#     4  12  26  48  73 111 160 202 263 332 397 477
#     4  10  22  46  74 108 143 196 256 322 382 474
#
# _framework density 24.944548000000001
#
# number of rings (size 3 to 8) (size 9 to 14) (size 15 to 20)
#    0.000    0.615    3.077    5.538    6.462    1.231 
#    0.000    1.538    0.000    0.000    0.000    0.000 
#    0.000    0.000    0.000    0.000    0.000    0.000 
#
# Total GULP energy -72473.800483 kJ/mol
# GULP energy per Si atom -5574.907729 kJ/mol
# Density = 2.488777 g / cm^3
# Si number density = 24.944548 Si / 1000 Ang^3
#
#
#
# Elastic Constant Matrix: (Units=GPa)
#
#
# Indices 1 2 3 4 5 6 
#
# 1 89.9137 39.4054 45.3369 23.9788 -16.5601 0.8399
# 2 39.4054 83.2072 37.9866 6.2411 10.3466 -4.8388
# 3 45.3369 37.9866 167.2501 10.4930 -9.9521 2.6996
# 4 23.9788 6.2411 10.4930 47.5595 1.5426 1.0963
# 5 -16.5601 10.3466 -9.9521 1.5426 47.6683 22.1701
# 6 0.8399 -4.8388 2.6996 1.0963 22.1701 33.5771
#
#
#
# Elastic Compliance Matrix: (Units=1/GPa)
#
#
# Indices 1 2 3 4 5 6 
#
# 1 0.023229 -0.012328 -0.001666 -0.009971 0.016746 -0.012955
# 2 -0.012328 0.021861 -0.003108 0.004236 -0.016560 0.014504
# 3 -0.001666 -0.003108 0.007392 -0.000413 0.003048 -0.003000
# 4 -0.009971 0.004236 -0.000413 0.025720 -0.007687 0.005129
# 5 0.016746 -0.016560 0.003048 -0.007687 0.047015 -0.033842
# 6 -0.012955 0.014504 -0.003000 0.005129 -0.033842 0.054615
#
#
# Mechanical properties :
#
#
# Convention : Reuss Voigt Hill
#
# Bulk Modulus (GPa) = 54.71259 65.09206 59.90233
# Shear Modulus (GPa) = 22.71401 40.27046 31.49223
#
# Velocity S-wave (km/s) = 3.02086 4.02232 3.55701
# Velocity P-wave (km/s) = 5.84369 6.90821 6.39813
#
# Compressibility (1/GPa) = 0.01827733
#
# Stress axis : x y z
#
# Youngs Moduli (GPa) = 43.04998 45.74443 135.27676
#
# Poissons Ratio (x) = 0.56394 0.22531
# Poissons Ratio (y) = 0.53073 0.42050
# Poissons Ratio (z) = 0.07170 0.14219
#
# Static dielectric constant tensor:
#      x y z
#    x 1.273110 -0.726940 0.210750 
#    y -0.726940 1.401520 0.188110 
#    z 0.210750 0.188110 1.856130 
# 
# From -- ./inp_files/242752.got.cif
#   From: 2010.05.17/outbox.cif.g08.bks.cpg/sg2_122_cif.got.tgz:242752.got - 2010.06.03 11:33:40.
