data_PCOD9035064
_publ_section_title
;
Structure prediction by ZEFSAII (Michael W. Deem and Ramdas Pophale) SiO2 
 PCOD9035064
Probable space group: P -1
;
_chemical_formula_sum "Si O2"
_cell_formula_units_Z 16
_cell_length_a 15.896431
_cell_length_b 5.523484
_cell_length_c 7.829918
_cell_angle_alpha 120.682189
_cell_angle_beta 70.798977
_cell_angle_gamma 105.541536
_cell_volume 554.104110
_symmetry_space_group_name_H-M "P -1"
_symmetry_group_IT_number 2
_symmetry_cell_setting 'triclinic'
loop_
_space_group_symop_operation_xyz
x,y,z
-x,-y,-z
loop_
_atom_site_type_symbol
_atom_site_label
_atom_site_fract_x
_atom_site_fract_y
_atom_site_fract_z
Si Si1 0.118509 0.388059 0.381284
Si Si2 0.467697 0.045424 0.845535
Si Si3 0.260955 0.022598 0.047490
Si Si4 0.136695 0.516268 0.019684
Si Si5 0.481671 0.617224 0.357726
Si Si6 0.660126 0.649650 0.433473
Si Si7 0.989666 0.932945 0.185205
Si Si8 0.232779 0.841603 0.650757
O O1 0.142221 0.664231 0.578920
O O2 0.024368 0.187331 0.383828
O O3 0.120035 0.470135 0.212561
O O4 0.205195 0.211241 0.272883
O O5 0.364860 0.093518 0.966131
O O6 0.587260 0.652860 0.636152
O O7 0.531526 0.293833 0.794204
O O8 0.500000 0.000000 0.000000
O O9 0.234274 0.695958 0.004840
O O10 0.218724 0.038888 0.891851
O O11 0.106887 0.259318 0.813727
O O12 0.066344 0.731139 0.092695
O O13 0.586857 0.578610 0.301430
O O14 0.460966 0.842528 0.601657
O O15 0.715359 0.405937 0.385548
O O16 0.713363 0.952951 0.451858
O O17 0.000000 0.000000 0.000000
#
# Coordination Sequence:
#
# PCOD9035064 Si02
#       8
#     2   2   2   2   2   2   2   2
#     4  10  24  40  69 104 139 187 241 289 364 446
#     4  11  23  43  73 105 145 194 255 312 375 447
#     4  11  24  43  66 107 141 186 241 305 361 436
#     4   9  19  37  70  99 141 183 233 294 355 437
#     4  10  22  45  70  96 138 196 246 314 383 438
#     4  11  24  46  74  94 138 195 241 301 384 429
#     4   8  16  38  65 102 139 182 227 289 360 428
#     4  12  26  44  73 102 146 191 237 310 366 435
#
# _framework density 28.875440000000001
#
# number of rings (size 3 to 8) (size 9 to 14) (size 15 to 20)
#    0.000    1.750    2.500    0.750    7.000    2.500 
#    0.000    3.125    0.000   25.500    0.000    0.000 
#    0.000    0.000    0.000    0.000    0.000    0.000 
#
# Total GULP energy -89313.549125 kJ/mol
# GULP energy per Si atom -5582.096820 kJ/mol
# Density = 2.880972 g / cm^3
# Si number density = 28.875440 Si / 1000 Ang^3
#
#
#
# Elastic Constant Matrix: (Units=GPa)
#
#
# Indices 1 2 3 4 5 6 
#
# 1 128.8259 21.8171 31.6297 -14.9610 0.4371 -8.1014
# 2 21.8171 160.2731 54.6755 -37.0479 11.1114 10.5739
# 3 31.6297 54.6755 148.2618 5.5518 11.8951 6.4552
# 4 -14.9610 -37.0479 5.5518 60.8005 -1.1127 5.4036
# 5 0.4371 11.1114 11.8951 -1.1127 38.2458 -2.0345
# 6 -8.1014 10.5739 6.4552 5.4036 -2.0345 46.6178
#
#
#
# Elastic Compliance Matrix: (Units=1/GPa)
#
#
# Indices 1 2 3 4 5 6 
#
# 1 0.008616 -0.000176 -0.001977 0.002064 0.000713 0.001603
# 2 -0.000176 0.009020 -0.003283 0.005935 -0.001551 -0.002378
# 3 -0.001977 -0.003283 0.008669 -0.003268 -0.001842 -0.000501
# 4 0.002064 0.005935 -0.003268 0.021131 -0.000276 -0.002997
# 5 0.000713 -0.001551 -0.001842 -0.000276 0.027258 0.001952
# 6 0.001603 -0.002378 -0.000501 -0.002997 0.001952 0.022771
#
#
# Mechanical properties :
#
#
# Convention : Reuss Voigt Hill
#
# Bulk Modulus (GPa) = 64.80260 72.62281 68.71271
# Shear Modulus (GPa) = 44.06001 51.08206 47.57104
#
# Velocity S-wave (km/s) = 3.91047 4.21057 4.06329
# Velocity P-wave (km/s) = 6.54827 6.98881 6.77213
#
# Compressibility (1/GPa) = 0.01543148
#
# Stress axis : x y z
#
# Youngs Moduli (GPa) = 116.06566 110.86894 115.35052
#
# Poissons Ratio (x) = 0.01956 0.22808
# Poissons Ratio (y) = 0.02048 0.37868
# Poissons Ratio (z) = 0.22949 0.36397
#
# Static dielectric constant tensor:
#      x y z
#    x 2.584510 -0.265170 -0.204670 
#    y -0.265170 2.815080 0.261310 
#    z -0.204670 0.261310 2.317800 
# 
# From -- ./inp_files/322905.got.cif
#   From: 2010.05.17/outbox.cif.g08.bks.cpg/sg2_162_cif.got.tgz:322905.got - 2010.06.03 11:33:40.
