data_PCOD9035386
_publ_section_title
;
Structure prediction by ZEFSAII (Michael W. Deem and Ramdas Pophale) SiO2 
 PCOD9035386
Probable space group: P -1
;
_chemical_formula_sum "Si O2"
_cell_formula_units_Z 10
_cell_length_a 10.700099
_cell_length_b 8.893124
_cell_length_c 9.946095
_cell_angle_alpha 133.919599
_cell_angle_beta 59.798102
_cell_angle_gamma 84.843947
_cell_volume 417.938713
_symmetry_space_group_name_H-M "P -1"
_symmetry_group_IT_number 2
_symmetry_cell_setting 'triclinic'
loop_
_space_group_symop_operation_xyz
x,y,z
-x,-y,-z
loop_
_atom_site_type_symbol
_atom_site_label
_atom_site_fract_x
_atom_site_fract_y
_atom_site_fract_z
Si Si1 0.170432 0.378503 0.725901
Si Si2 0.091908 0.568716 0.597816
Si Si3 0.669414 0.203183 0.641852
Si Si4 0.102905 0.908848 0.147168
Si Si5 0.521743 0.549536 0.676198
O O1 0.067386 0.489324 0.705475
O O2 0.331217 0.032975 0.450517
O O3 0.213598 0.575624 0.854225
O O4 0.000000 0.500000 0.000000
O O5 0.326230 0.407290 0.367884
O O6 0.000000 0.500000 0.500000
O O7 0.971905 0.902207 0.830587
O O8 0.618210 0.280146 0.558808
O O9 0.500000 0.500000 0.000000
O O10 0.899019 0.071752 0.445260
O O11 0.301455 0.836989 0.037096
O O12 0.500000 0.500000 0.500000
#
# Coordination Sequence:
#
# PCOD9035386 Si02
#       5
#     2   2   2   2   2
#     4  10  22  45  75 106 142 195 242 295 362 435
#     4  11  25  46  72 109 146 188 242 306 364 425
#     4  10  25  46  71 113 152 185 238 313 369 418
#     4  10  23  47  76 100 147 193 250 284 361 443
#     4  11  24  46  76 105 144 197 244 292 362 443
#
# _framework density 23.926952
#
# number of rings (size 3 to 8) (size 9 to 14) (size 15 to 20)
#    0.000    1.600    2.000    0.600    8.400    2.400 
#   14.400    0.000    0.000    0.000    0.000    0.000 
#    0.000    0.000    0.000    0.000    0.000    0.000 
#
# Total GULP energy -55760.553616 kJ/mol
# GULP energy per Si atom -5576.055362 kJ/mol
# Density = 2.387249 g / cm^3
# Si number density = 23.926952 Si / 1000 Ang^3
#
#
#
# Elastic Constant Matrix: (Units=GPa)
#
#
# Indices 1 2 3 4 5 6 
#
# 1 136.3516 48.7984 57.6073 -8.9549 -21.5017 -8.9647
# 2 48.7984 205.0357 52.0269 0.8289 10.1986 9.9129
# 3 57.6073 52.0269 130.7892 13.6953 -22.1279 16.0432
# 4 -8.9549 0.8289 13.6953 39.9199 4.8684 6.7388
# 5 -21.5017 10.1986 -22.1279 4.8684 45.4166 7.6484
# 6 -8.9647 9.9129 16.0432 6.7388 7.6484 33.6460
#
#
#
# Elastic Compliance Matrix: (Units=1/GPa)
#
#
# Indices 1 2 3 4 5 6 
#
# 1 0.010686 -0.001737 -0.004495 0.002963 0.002199 0.004409
# 2 -0.001737 0.006030 -0.002177 0.000728 -0.003211 -0.000617
# 3 -0.004495 -0.002177 0.012988 -0.004986 0.006438 -0.007214
# 4 0.002963 0.000728 -0.004986 0.028192 -0.003908 -0.001805
# 5 0.002199 -0.003211 0.006438 -0.003908 0.028557 -0.007247
# 6 0.004409 -0.000617 -0.007214 -0.001805 -0.007247 0.036526
#
#
# Mechanical properties :
#
#
# Convention : Reuss Voigt Hill
#
# Bulk Modulus (GPa) = 77.60702 87.67131 82.63916
# Shear Modulus (GPa) = 34.70002 44.71275 39.70639
#
# Velocity S-wave (km/s) = 3.81234 4.32756 4.07810
# Velocity P-wave (km/s) = 7.20306 7.85437 7.53575
#
# Compressibility (1/GPa) = 0.01288543
#
# Stress axis : x y z
#
# Youngs Moduli (GPa) = 93.58120 165.84387 76.99419
#
# Poissons Ratio (x) = 0.28812 0.34606
# Poissons Ratio (y) = 0.16258 0.16764
# Poissons Ratio (z) = 0.42061 0.36108
#
# Static dielectric constant tensor:
#      x y z
#    x 2.182980 0.071600 -0.073200 
#    y 0.071600 1.994980 0.020140 
#    z -0.073200 0.020140 2.023630 
# 
# From -- ./inp_files/240844.got.cif
#   From: 2010.05.17/outbox.cif.g08.bks.cpg/sg2_121_cif.got.tgz:240844.got - 2010.06.03 11:33:40.
