data_PCOD9035527
_publ_section_title
;
Structure prediction by ZEFSAII (Michael W. Deem and Ramdas Pophale) SiO2 
 PCOD9035527
Probable space group: P -1
;
_chemical_formula_sum "Si O2"
_cell_formula_units_Z 16
_cell_length_a 9.282332
_cell_length_b 8.783444
_cell_length_c 11.638404
_cell_angle_alpha 97.538912
_cell_angle_beta 92.299107
_cell_angle_gamma 127.897509
_cell_volume 733.416437
_symmetry_space_group_name_H-M "P -1"
_symmetry_group_IT_number 2
_symmetry_cell_setting 'triclinic'
loop_
_space_group_symop_operation_xyz
x,y,z
-x,-y,-z
loop_
_atom_site_type_symbol
_atom_site_label
_atom_site_fract_x
_atom_site_fract_y
_atom_site_fract_z
Si Si1 0.742224 0.691505 0.172416
Si Si2 0.087563 0.907861 0.054723
Si Si3 0.176837 0.373550 0.333160
Si Si4 0.569773 0.136505 0.338153
Si Si5 0.784051 0.247901 0.592508
Si Si6 0.210357 0.931666 0.827183
Si Si7 0.430954 0.309057 0.209151
Si Si8 0.891069 0.774051 0.436713
O O1 0.572557 0.462240 0.132829
O O2 0.775039 0.728937 0.314380
O O3 0.927880 0.753227 0.122678
O O4 0.707610 0.841427 0.142378
O O5 0.272094 0.087200 0.140651
O O6 0.144994 0.839413 0.943313
O O7 0.000000 0.000000 0.000000
O O8 0.179310 0.557958 0.340493
O O9 0.326819 0.388190 0.262392
O O10 0.210608 0.348027 0.463391
O O11 0.975242 0.181733 0.267227
O O12 0.710090 0.217566 0.456942
O O13 0.650727 0.090548 0.232078
O O14 0.540195 0.288605 0.308114
O O15 0.376897 0.940736 0.358859
O O16 0.962973 0.260948 0.594858
O O17 0.000000 0.000000 0.500000
#
# Coordination Sequence:
#
# PCOD9035527 Si02
#       8
#     2   2   2   2   2   2   2   2
#     4  11  23  41  69 101 129 176 220 274 330 390
#     4  10  22  46  67  93 131 177 221 279 327 388
#     4  12  23  40  65 100 129 180 216 264 334 399
#     4  11  24  43  62  99 135 169 219 281 322 398
#     4  11  24  39  66  95 140 177 214 263 339 399
#     4  11  23  44  67  92 136 172 223 272 330 389
#     4  12  25  43  69 100 131 171 230 276 327 391
#     4  12  21  39  68  98 139 176 213 271 333 395
#
# _framework density 21.815709999999999
#
# number of rings (size 3 to 8) (size 9 to 14) (size 15 to 20)
#    0.000    0.750    5.000    3.375    1.750    6.500 
#    2.250    0.625    0.000    0.000    0.000    0.000 
#    0.000    0.000    0.000    0.000    0.000    0.000 
#
# Total GULP energy -89515.786081 kJ/mol
# GULP energy per Si atom -5594.736630 kJ/mol
# Density = 2.176606 g / cm^3
# Si number density = 21.815710 Si / 1000 Ang^3
#
#
#
# Elastic Constant Matrix: (Units=GPa)
#
#
# Indices 1 2 3 4 5 6 
#
# 1 52.0646 33.9155 17.1541 4.8940 -11.5613 2.8624
# 2 33.9155 93.1148 6.7357 -14.1095 -17.2596 3.2038
# 3 17.1541 6.7357 78.6682 -9.2392 -23.0974 9.6324
# 4 4.8940 -14.1095 -9.2392 17.8130 0.4902 -4.9703
# 5 -11.5613 -17.2596 -23.0974 0.4902 32.3178 -6.2227
# 6 2.8624 3.2038 9.6324 -4.9703 -6.2227 37.9210
#
#
#
# Elastic Compliance Matrix: (Units=1/GPa)
#
#
# Indices 1 2 3 4 5 6 
#
# 1 0.036520 -0.017868 -0.010947 -0.030638 -0.004455 -0.003213
# 2 -0.017868 0.023007 0.008384 0.027963 0.012024 0.002914
# 3 -0.010947 0.008384 0.021312 0.020248 0.015466 -0.000104
# 4 -0.030638 0.027963 0.020248 0.099755 0.019051 0.011008
# 5 -0.004455 0.012024 0.015466 0.019051 0.047633 0.005705
# 6 -0.003213 0.002914 -0.000104 0.011008 0.005705 0.028772
#
#
# Mechanical properties :
#
#
# Convention : Reuss Voigt Hill
#
# Bulk Modulus (GPa) = 25.01352 37.71758 31.36555
# Shear Modulus (GPa) = 16.06750 28.67984 22.37367
#
# Velocity S-wave (km/s) = 2.71682 3.62973 3.20594
# Velocity P-wave (km/s) = 4.61868 5.90706 5.30215
#
# Compressibility (1/GPa) = 0.03997838
#
# Stress axis : x y z
#
# Youngs Moduli (GPa) = 27.38216 43.46578 46.92091
#
# Poissons Ratio (x) = 0.77664 0.51362
# Poissons Ratio (y) = 0.48926 -0.39338
# Poissons Ratio (z) = 0.29974 -0.36441
#
# Static dielectric constant tensor:
#      x y z
#    x 1.755300 0.024380 0.009720 
#    y 0.024380 1.827780 0.011960 
#    z 0.009720 0.011960 1.836240 
# 
# From -- ./inp_files/188013.got.cif
#   From: 2010.05.17/outbox.cif.g08.bks.cpg/sg2_95_cif.got.tgz:188013.got - 2010.06.03 11:33:40.
