data_PCOD9035605
_publ_section_title
;
Structure prediction by ZEFSAII (Michael W. Deem and Ramdas Pophale) SiO2 
 PCOD9035605
Probable space group: P -1
;
_chemical_formula_sum "Si O2"
_cell_formula_units_Z 14
_cell_length_a 14.099968
_cell_length_b 10.771932
_cell_length_c 5.637831
_cell_angle_alpha 86.688734
_cell_angle_beta 113.879659
_cell_angle_gamma 130.655110
_cell_volume 567.225072
_symmetry_space_group_name_H-M "P -1"
_symmetry_group_IT_number 2
_symmetry_cell_setting 'triclinic'
loop_
_space_group_symop_operation_xyz
x,y,z
-x,-y,-z
loop_
_atom_site_type_symbol
_atom_site_label
_atom_site_fract_x
_atom_site_fract_y
_atom_site_fract_z
Si Si1 0.939177 0.068410 0.578187
Si Si2 0.798317 0.591644 0.363326
Si Si3 0.917243 0.442043 0.675354
Si Si4 0.279000 0.256152 0.374950
Si Si5 0.574382 0.144835 0.755171
Si Si6 0.720588 0.096534 0.264703
Si Si7 0.412850 0.584983 0.206294
O O1 0.818581 0.055332 0.328548
O O2 0.077377 0.270630 0.716956
O O3 0.855242 0.948715 0.739764
O O4 0.000000 0.000000 0.500000
O O5 0.859887 0.533784 0.589535
O O6 0.764006 0.681674 0.475280
O O7 0.651418 0.432038 0.109568
O O8 0.796466 0.236902 0.537479
O O9 0.000000 0.500000 0.500000
O O10 0.000000 0.500000 0.000000
O O11 0.331329 0.387945 0.201998
O O12 0.421761 0.305880 0.600201
O O13 0.620784 0.318381 0.690050
O O14 0.500000 0.000000 0.500000
O O15 0.442272 0.066273 0.809114
O O16 0.698494 0.171519 0.012180
#
# Coordination Sequence:
#
# PCOD9035605 Si02
#       7
#     2   2   2   2   2   2   2
#     4  10  22  46  69 104 146 194 248 306 379 452
#     4  11  24  42  73 101 147 190 248 306 384 449
#     4  12  28  46  76 111 149 198 248 316 385 460
#     4  10  24  43  69  98 144 192 249 310 366 464
#     4  11  26  43  72 104 142 194 251 320 381 450
#     4  11  24  46  71 104 147 192 254 316 384 454
#     4  11  23  45  68 104 141 193 252 309 381 444
#
# _framework density 24.681560000000001
#
# number of rings (size 3 to 8) (size 9 to 14) (size 15 to 20)
#    0.000    1.143    4.286    0.429    6.000    0.571 
#   10.286    4.286    0.000    0.000    0.000    0.000 
#    0.000    0.000    0.000    0.000    0.000    0.000 
#
# Total GULP energy -78173.317472 kJ/mol
# GULP energy per Si atom -5583.808391 kJ/mol
# Density = 2.462538 g / cm^3
# Si number density = 24.681560 Si / 1000 Ang^3
#
#
#
# Elastic Constant Matrix: (Units=GPa)
#
#
# Indices 1 2 3 4 5 6 
#
# 1 105.7350 49.1453 54.7046 -17.0769 28.5917 -14.8592
# 2 49.1453 67.5300 24.4095 -22.5075 28.7599 -7.8051
# 3 54.7046 24.4095 161.9256 -1.7514 39.0586 -18.2717
# 4 -17.0769 -22.5075 -1.7514 20.6265 -4.8497 4.6441
# 5 28.5917 28.7599 39.0586 -4.8497 35.8715 -8.7120
# 6 -14.8592 -7.8051 -18.2717 4.6441 -8.7120 52.0892
#
#
#
# Elastic Compliance Matrix: (Units=1/GPa)
#
#
# Indices 1 2 3 4 5 6 
#
# 1 0.016639 -0.009182 -0.003780 0.002833 -0.001007 0.001624
# 2 -0.009182 0.042228 0.003089 0.033187 -0.026026 -0.002520
# 3 -0.003780 0.003089 0.009434 -0.001499 -0.009643 0.001214
# 4 0.002833 0.033187 -0.001499 0.084038 -0.017110 -0.005099
# 5 -0.001007 -0.026026 -0.009643 -0.017110 0.058647 0.003765
# 6 0.001624 -0.002520 0.001214 -0.005099 0.003765 0.020794
#
#
# Mechanical properties :
#
#
# Convention : Reuss Voigt Hill
#
# Bulk Modulus (GPa) = 20.59561 65.74548 43.17055
# Shear Modulus (GPa) = 18.67673 35.51286 27.09480
#
# Velocity S-wave (km/s) = 2.75382 3.79732 3.31686
# Velocity P-wave (km/s) = 4.29814 6.77654 5.67431
#
# Compressibility (1/GPa) = 0.04855403
#
# Stress axis : x y z
#
# Youngs Moduli (GPa) = 60.09823 23.68105 105.99791
#
# Poissons Ratio (x) = 0.21744 0.40072
# Poissons Ratio (y) = 0.55182 -0.32740
# Poissons Ratio (z) = 0.22720 -0.07314
#
# Static dielectric constant tensor:
#      x y z
#    x 1.983870 0.068030 -0.021140 
#    y 0.068030 2.152870 -0.075460 
#    z -0.021140 -0.075460 1.898100 
# 
# From -- ./inp_files/93540.got.cif
#   From: 2010.05.17/outbox.cif.g08.bks.cpg/sg2_47_cif.got.tgz:93540.got - 2010.06.03 11:33:40.
