data_PCOD9035448
_publ_section_title
;
Structure prediction by ZEFSAII (Michael W. Deem and Ramdas Pophale) SiO2 
 PCOD9035448
Probable space group: P -1
;
_chemical_formula_sum "Si O2"
_cell_formula_units_Z 15
_cell_length_a 9.801929
_cell_length_b 9.383060
_cell_length_c 13.808503
_cell_angle_alpha 64.601650
_cell_angle_beta 49.550472
_cell_angle_gamma 46.548796
_cell_volume 701.253387
_symmetry_space_group_name_H-M "P -1"
_symmetry_group_IT_number 2
_symmetry_cell_setting 'triclinic'
loop_
_space_group_symop_operation_xyz
x,y,z
-x,-y,-z
loop_
_atom_site_type_symbol
_atom_site_label
_atom_site_fract_x
_atom_site_fract_y
_atom_site_fract_z
Si Si1 0.851640 0.232531 0.610716
Si Si2 0.000000 0.500000 0.500000
Si Si3 0.501891 0.146650 0.385093
Si Si4 0.877462 0.441646 0.001951
Si Si5 0.008613 0.184628 0.332220
Si Si6 0.814538 0.962344 0.108790
Si Si7 0.571782 0.847088 0.924554
Si Si8 0.362267 0.584605 0.710291
O O1 0.915539 0.357831 0.600734
O O2 0.583677 0.363814 0.683071
O O3 0.946700 0.207267 0.466124
O O4 0.945312 0.017531 0.668219
O O5 0.748568 0.695996 0.583060
O O6 0.559186 0.277021 0.378408
O O7 0.500000 0.000000 0.500000
O O8 0.679434 0.035082 0.249881
O O9 0.680305 0.633336 0.981268
O O10 0.055773 0.270169 0.898820
O O11 0.774881 0.363721 0.142653
O O12 0.000000 0.500000 0.000000
O O13 0.229451 0.169706 0.218811
O O14 0.804000 0.367693 0.314159
O O15 0.635283 0.074021 0.072735
O O16 0.000000 0.000000 0.000000
O O17 0.500000 0.000000 0.000000
#
# Coordination Sequence:
#
# PCOD9035448 Si02
#       8
#     2   1   2   2   2   2   2   2
#     4  10  23  38  65  95 131 180 234 295 354 432
#     4  10  22  46  62  96 142 182 238 286 368 426
#     4  11  25  46  72 101 145 192 236 303 363 432
#     4  12  24  46  73 105 143 190 242 302 364 439
#     4  11  22  40  64  98 132 177 237 294 357 423
#     4  12  27  49  74 111 148 190 251 303 369 442
#     4  12  25  43  74 102 145 191 241 300 368 434
#     4  11  22  42  66  96 136 181 234 292 355 423
#
# _framework density 21.390270000000001
#
# number of rings (size 3 to 8) (size 9 to 14) (size 15 to 20)
#    0.000    0.800    4.000    2.800    0.000    4.800 
#    4.800    0.000    0.000    0.000    0.000    0.000 
#    0.000    0.000    0.000    0.000    0.000    0.000 
#
# Total GULP energy -83640.652533 kJ/mol
# GULP energy per Si atom -5576.043502 kJ/mol
# Density = 2.134159 g / cm^3
# Si number density = 21.390270 Si / 1000 Ang^3
#
#
#
# Elastic Constant Matrix: (Units=GPa)
#
#
# Indices 1 2 3 4 5 6 
#
# 1 79.3526 10.6062 20.7131 5.5262 -19.7604 -15.6515
# 2 10.6062 84.1939 11.0562 3.5935 -3.2838 -3.0385
# 3 20.7131 11.0562 110.9284 9.9811 -12.2440 -5.5166
# 4 5.5262 3.5935 9.9811 39.5849 -4.4193 -3.3425
# 5 -19.7604 -3.2838 -12.2440 -4.4193 31.5966 5.5600
# 6 -15.6515 -3.0385 -5.5166 -3.3425 5.5600 27.5876
#
#
#
# Elastic Compliance Matrix: (Units=1/GPa)
#
#
# Indices 1 2 3 4 5 6 
#
# 1 0.016759 -0.001288 -0.001691 -0.000244 0.008371 0.007311
# 2 -0.001288 0.012198 -0.000902 -0.000675 -0.000045 0.000360
# 3 -0.001691 -0.000902 0.009862 -0.001887 0.002370 0.000207
# 4 -0.000244 -0.000675 -0.001887 0.026274 0.002348 0.002120
# 5 0.008371 -0.000045 0.002370 0.002348 0.038524 -0.002261
# 6 0.007311 0.000360 0.000207 0.002120 -0.002261 0.041190
#
#
# Mechanical properties :
#
#
# Convention : Reuss Voigt Hill
#
# Bulk Modulus (GPa) = 32.19891 39.91400 36.05646
# Shear Modulus (GPa) = 30.68933 35.22711 32.95822
#
# Velocity S-wave (km/s) = 3.79190 4.06257 3.92957
# Velocity P-wave (km/s) = 5.85295 6.38016 6.12223
#
# Compressibility (1/GPa) = 0.03105695
#
# Stress axis : x y z
#
# Youngs Moduli (GPa) = 59.66800 81.98024 101.39780
#
# Poissons Ratio (x) = 0.10562 0.17150
# Poissons Ratio (y) = 0.07687 0.09142
# Poissons Ratio (z) = 0.10092 0.07391
#
# Static dielectric constant tensor:
#      x y z
#    x 1.770430 0.022770 -0.009960 
#    y 0.022770 1.762520 -0.000170 
#    z -0.009960 -0.000170 1.756650 
# 
# From -- ./inp_files/315932.got.cif
#   From: 2010.05.17/outbox.cif.g08.bks.cpg/sg2_158_cif.got.tgz:315932.got - 2010.06.03 11:33:40.
