data_PCOD9035188
_publ_section_title
;
Structure prediction by ZEFSAII (Michael W. Deem and Ramdas Pophale) SiO2 
 PCOD9035188
Probable space group: P -1
;
_chemical_formula_sum "Si O2"
_cell_formula_units_Z 15
_cell_length_a 5.212177
_cell_length_b 16.480134
_cell_length_c 8.703886
_cell_angle_alpha 55.995843
_cell_angle_beta 103.916699
_cell_angle_gamma 101.365931
_cell_volume 599.777578
_symmetry_space_group_name_H-M "P -1"
_symmetry_group_IT_number 2
_symmetry_cell_setting 'triclinic'
loop_
_space_group_symop_operation_xyz
x,y,z
-x,-y,-z
loop_
_atom_site_type_symbol
_atom_site_label
_atom_site_fract_x
_atom_site_fract_y
_atom_site_fract_z
Si Si1 0.560951 0.435915 0.286357
Si Si2 0.971052 0.139000 0.441239
Si Si3 0.287032 0.344704 0.835754
Si Si4 0.270087 0.664228 0.871979
Si Si5 0.303260 0.725063 0.280264
Si Si6 0.000000 0.500000 0.000000
Si Si7 0.640665 0.993837 0.364298
Si Si8 0.220577 0.937721 0.169489
O O1 0.657548 0.536575 0.279100
O O2 0.731723 0.425246 0.162020
O O3 0.626335 0.341527 0.492816
O O4 0.258248 0.439877 0.187227
O O5 0.865536 0.243452 0.301299
O O6 0.874940 0.077952 0.338165
O O7 0.874658 0.094736 0.637734
O O8 0.275901 0.117620 0.513679
O O9 0.469996 0.296368 0.785463
O O10 0.988080 0.309954 0.788262
O O11 0.437846 0.312256 0.047257
O O12 0.077883 0.597362 0.023659
O O13 0.286705 0.838865 0.199759
O O14 0.500000 0.000000 0.500000
O O15 0.478957 0.009283 0.172462
O O16 0.000000 0.000000 0.000000
#
# Coordination Sequence:
#
# PCOD9035188 Si02
#       8
#     2   2   2   2   2   1   2   2
#     4  11  25  46  74 103 146 197 249 309 365 449
#     4  10  22  45  72 100 134 192 241 303 368 441
#     4  11  28  46  71 110 150 195 250 305 372 446
#     4  11  25  43  76 100 146 192 252 305 365 448
#     4  12  28  48  73 109 153 202 240 306 384 445
#     4  10  24  38  70 106 136 180 246 306 354 422
#     4   9  22  42  68 101 133 179 241 305 362 424
#     4  11  26  44  70 103 144 189 244 306 369 444
#
# _framework density 25.009271999999999
#
# number of rings (size 3 to 8) (size 9 to 14) (size 15 to 20)
#    0.000    1.333    1.333    2.400   14.933    3.733 
#    0.000    0.000    0.000    0.000    0.000    0.000 
#    0.000    0.000    0.000    0.000    0.000    0.000 
#
# Total GULP energy -83671.018402 kJ/mol
# GULP energy per Si atom -5578.067893 kJ/mol
# Density = 2.495235 g / cm^3
# Si number density = 25.009272 Si / 1000 Ang^3
#
#
#
# Elastic Constant Matrix: (Units=GPa)
#
#
# Indices 1 2 3 4 5 6 
#
# 1 117.3485 50.3798 53.1882 10.3644 34.5830 -10.0614
# 2 50.3798 165.6788 91.0120 -1.8761 21.0503 -26.1452
# 3 53.1882 91.0120 173.2535 -20.5818 41.5830 -3.7817
# 4 10.3644 -1.8761 -20.5818 45.5601 -0.8949 12.3811
# 5 34.5830 21.0503 41.5830 -0.8949 44.4150 8.6403
# 6 -10.0614 -26.1452 -3.7817 12.3811 8.6403 43.4967
#
#
#
# Elastic Compliance Matrix: (Units=1/GPa)
#
#
# Indices 1 2 3 4 5 6 
#
# 1 0.013705 -0.001005 -0.001920 -0.005843 -0.009680 0.005985
# 2 -0.001005 0.010293 -0.005242 -0.003523 -0.000545 0.006610
# 3 -0.001920 -0.005242 0.011124 0.006006 -0.005691 -0.003207
# 4 -0.005843 -0.003523 0.006006 0.029161 0.003507 -0.011944
# 5 -0.009680 -0.000545 -0.005691 0.003507 0.037966 -0.011602
# 6 0.005985 0.006610 -0.003207 -0.011944 -0.011602 0.033774
#
#
# Mechanical properties :
#
#
# Convention : Reuss Voigt Hill
#
# Bulk Modulus (GPa) = 53.22109 93.93786 73.57948
# Shear Modulus (GPa) = 31.52187 44.14108 37.83148
#
# Velocity S-wave (km/s) = 3.55407 4.20573 3.89356
# Velocity P-wave (km/s) = 6.17808 7.82477 7.04967
#
# Compressibility (1/GPa) = 0.01878954
#
# Stress axis : x y z
#
# Youngs Moduli (GPa) = 72.96608 97.14926 89.89226
#
# Poissons Ratio (x) = 0.09759 0.17259
# Poissons Ratio (y) = 0.07330 0.47123
# Poissons Ratio (z) = 0.14009 0.50928
#
# Static dielectric constant tensor:
#      x y z
#    x 2.292540 0.064840 -0.088190 
#    y 0.064840 2.038530 0.002120 
#    z -0.088190 0.002120 2.008030 
# 
# From -- ./inp_files/122556.got.cif
#   From: 2010.05.17/outbox.cif.g08.bks.cpg/sg2_62_cif.got.tgz:122556.got - 2010.06.03 11:33:40.
