data_PCOD9035227
_publ_section_title
;
Structure prediction by ZEFSAII (Michael W. Deem and Ramdas Pophale) SiO2 
 PCOD9035227
Probable space group: P -1
;
_chemical_formula_sum "Si O2"
_cell_formula_units_Z 15
_cell_length_a 17.587234
_cell_length_b 11.330576
_cell_length_c 10.689095
_cell_angle_alpha 59.354195
_cell_angle_beta 51.416611
_cell_angle_gamma 22.500690
_cell_volume 621.293441
_symmetry_space_group_name_H-M "P -1"
_symmetry_group_IT_number 2
_symmetry_cell_setting 'triclinic'
loop_
_space_group_symop_operation_xyz
x,y,z
-x,-y,-z
loop_
_atom_site_type_symbol
_atom_site_label
_atom_site_fract_x
_atom_site_fract_y
_atom_site_fract_z
Si Si1 0.836411 0.268662 0.171064
Si Si2 0.730886 0.130158 0.952053
Si Si3 0.500000 0.000000 0.500000
Si Si4 0.049369 0.181318 0.638052
Si Si5 0.163069 0.923443 0.396213
Si Si6 0.264828 0.359596 0.091397
Si Si7 0.493334 0.291815 0.495203
Si Si8 0.886047 0.676840 0.154574
O O1 0.659015 0.525080 0.323892
O O2 0.881186 0.050091 0.240042
O O3 0.749030 0.465778 0.036971
O O4 0.071460 0.035808 0.096180
O O5 0.802636 0.030367 0.787149
O O6 0.500000 0.500000 0.000000
O O7 0.709774 0.016677 0.108997
O O8 0.535387 0.801018 0.512837
O O9 0.745854 0.736401 0.330068
O O10 0.810225 0.537820 0.741657
O O11 0.067040 0.127050 0.503034
O O12 0.249355 0.027167 0.554669
O O13 0.400567 0.550760 0.389512
O O14 0.000000 0.000000 0.500000
O O15 0.073331 0.511454 0.138231
O O16 0.500000 0.000000 0.000000
O O17 0.000000 0.500000 0.000000
#
# Coordination Sequence:
#
# PCOD9035227 Si02
#       8
#     2   2   1   2   2   2   2   2
#     4  10  22  45  72 106 151 192 245 323 383 454
#     4  11  23  43  73 114 147 185 256 312 379 454
#     4  12  22  46  80  98 154 206 256 304 392 462
#     4  11  23  47  75 108 147 197 252 314 397 446
#     4  11  22  44  74 113 147 189 250 317 381 461
#     4  11  25  49  70 111 154 197 257 318 396 465
#     4  11  23  45  73 108 142 201 251 312 385 458
#     4  11  26  49  74 108 150 205 256 316 383 461
#
# _framework density 24.143181999999999
#
# number of rings (size 3 to 8) (size 9 to 14) (size 15 to 20)
#    0.000    1.067    4.000    4.400    1.867    1.067 
#   12.000    0.667    0.000    0.000    0.000    0.000 
#    0.000    0.000    0.000    0.000    0.000    0.000 
#
# Total GULP energy -83756.506519 kJ/mol
# GULP energy per Si atom -5583.767101 kJ/mol
# Density = 2.408823 g / cm^3
# Si number density = 24.143182 Si / 1000 Ang^3
#
#
#
# Elastic Constant Matrix: (Units=GPa)
#
#
# Indices 1 2 3 4 5 6 
#
# 1 89.1859 26.0074 52.6606 2.3628 12.1803 19.8123
# 2 26.0074 94.5099 55.5895 26.5921 14.5062 7.9173
# 3 52.6606 55.5895 137.3675 21.2475 2.6705 10.3206
# 4 2.3628 26.5921 21.2475 43.3818 14.6491 11.2369
# 5 12.1803 14.5062 2.6705 14.6491 39.8226 11.0154
# 6 19.8123 7.9173 10.3206 11.2369 11.0154 29.2189
#
#
#
# Elastic Compliance Matrix: (Units=1/GPa)
#
#
# Indices 1 2 3 4 5 6 
#
# 1 0.018482 -0.001731 -0.006653 0.007630 -0.004337 -0.011013
# 2 -0.001731 0.016204 -0.004932 -0.006984 -0.003135 0.002393
# 3 -0.006653 -0.004932 0.012316 -0.004491 0.004204 0.001640
# 4 0.007630 -0.006984 -0.004491 0.035279 -0.009204 -0.011793
# 5 -0.004337 -0.003135 0.004204 -0.009204 0.032451 -0.006389
# 6 -0.011013 0.002393 0.001640 -0.011793 -0.006389 0.047408
#
#
# Mechanical properties :
#
#
# Convention : Reuss Voigt Hill
#
# Bulk Modulus (GPa) = 49.09475 65.50870 57.30173
# Shear Modulus (GPa) = 25.56707 34.93836 30.25272
#
# Velocity S-wave (km/s) = 3.25772 3.80825 3.54369
# Velocity P-wave (km/s) = 5.87617 6.82124 6.36626
#
# Compressibility (1/GPa) = 0.02036878
#
# Stress axis : x y z
#
# Youngs Moduli (GPa) = 54.10542 61.71179 81.19520
#
# Poissons Ratio (x) = 0.10685 0.54021
# Poissons Ratio (y) = 0.09368 0.40049
# Poissons Ratio (z) = 0.35997 0.30439
#
# Static dielectric constant tensor:
#      x y z
#    x 1.917520 0.001620 0.031950 
#    y 0.001620 1.972570 -0.044850 
#    z 0.031950 -0.044850 1.935450 
# 
# From -- ./inp_files/465054.got.cif
#   From: 2010.05.17/outbox.cif.g08.bks.cpg/sg2_233_cif.got.tgz:465054.got - 2010.06.03 11:33:40.
