data_PCOD9035103
_publ_section_title
;
Structure prediction by ZEFSAII (Michael W. Deem and Ramdas Pophale) SiO2 
 PCOD9035103
Probable space group: P -1
;
_chemical_formula_sum "Si O2"
_cell_formula_units_Z 14
_cell_length_a 5.355141
_cell_length_b 11.643562
_cell_length_c 10.024514
_cell_angle_alpha 92.945164
_cell_angle_beta 83.675240
_cell_angle_gamma 86.774074
_cell_volume 619.223760
_symmetry_space_group_name_H-M "P -1"
_symmetry_group_IT_number 2
_symmetry_cell_setting 'triclinic'
loop_
_space_group_symop_operation_xyz
x,y,z
-x,-y,-z
loop_
_atom_site_type_symbol
_atom_site_label
_atom_site_fract_x
_atom_site_fract_y
_atom_site_fract_z
Si Si1 0.261357 0.214466 0.236763
Si Si2 0.981833 0.451246 0.350173
Si Si3 0.580558 0.193489 0.818858
Si Si4 0.056068 0.130646 0.974006
Si Si5 0.259434 0.571122 0.125837
Si Si6 0.646041 0.368136 0.149486
Si Si7 0.270668 0.992248 0.412058
O O1 0.152061 0.329895 0.324975
O O2 0.536036 0.244400 0.169347
O O3 0.272287 0.099923 0.316706
O O4 0.091172 0.194053 0.116593
O O5 0.057569 0.552192 0.250764
O O6 0.000000 0.500000 0.500000
O O7 0.729114 0.413040 0.290565
O O8 0.321715 0.144398 0.883061
O O9 0.559192 0.331926 0.826906
O O10 0.820733 0.171745 0.900066
O O11 0.669948 0.127159 0.676701
O O12 0.000000 0.000000 0.000000
O O13 0.408373 0.447072 0.112877
O O14 0.169207 0.606636 0.983799
O O15 0.500000 0.000000 0.500000
O O16 0.000000 0.000000 0.500000
#
# Coordination Sequence:
#
# PCOD9035103 Si02
#       7
#     2   2   2   2   2   2   2
#     4  11  26  45  73 101 142 190 243 309 367 434
#     4  11  26  42  71 102 146 196 240 296 364 452
#     4  12  26  44  75 108 143 190 239 307 364 441
#     4  12  25  45  76 111 143 182 249 307 373 422
#     4  10  23  41  70 107 137 185 239 303 364 423
#     4  10  22  45  71 102 142 183 242 303 366 424
#     4  12  30  48  70 103 148 198 240 296 367 442
#
# _framework density 22.608948999999999
#
# number of rings (size 3 to 8) (size 9 to 14) (size 15 to 20)
#    0.000    0.857    2.857    2.571    6.000    3.429 
#    0.000    0.000    0.000    0.000    0.000    0.000 
#    0.000    0.000    0.000    0.000    0.000    0.000 
#
# Total GULP energy -78176.099849 kJ/mol
# GULP energy per Si atom -5584.007132 kJ/mol
# Density = 2.255749 g / cm^3
# Si number density = 22.608949 Si / 1000 Ang^3
#
#
#
# Elastic Constant Matrix: (Units=GPa)
#
#
# Indices 1 2 3 4 5 6 
#
# 1 118.7132 8.7600 36.1732 -5.5916 1.0192 25.3474
# 2 8.7600 91.3019 28.3491 7.2451 -15.1670 24.9633
# 3 36.1732 28.3491 137.5756 20.6043 9.8803 9.8069
# 4 -5.5916 7.2451 20.6043 53.4838 -1.1587 -3.5171
# 5 1.0192 -15.1670 9.8803 -1.1587 39.0397 -0.4210
# 6 25.3474 24.9633 9.8069 -3.5171 -0.4210 43.0593
#
#
#
# Elastic Compliance Matrix: (Units=1/GPa)
#
#
# Indices 1 2 3 4 5 6 
#
# 1 0.010664 0.001741 -0.003032 0.001648 0.001145 -0.006451
# 2 0.001741 0.015566 -0.003316 -0.001117 0.006707 -0.009320
# 3 -0.003032 -0.003316 0.009452 -0.003508 -0.003692 0.001232
# 4 0.001648 -0.001117 -0.003508 0.020537 0.001044 0.002164
# 5 0.001145 0.006707 -0.003692 0.001044 0.029120 -0.003352
# 6 -0.006451 -0.009320 0.001232 0.002164 -0.003352 0.032288
#
#
# Mechanical properties :
#
#
# Convention : Reuss Voigt Hill
#
# Bulk Modulus (GPa) = 37.77851 54.90613 46.34232
# Shear Modulus (GPa) = 36.85606 45.40380 41.12993
#
# Velocity S-wave (km/s) = 4.04190 4.48618 4.26982
# Velocity P-wave (km/s) = 6.20712 7.15348 6.69704
#
# Compressibility (1/GPa) = 0.02647007
#
# Stress axis : x y z
#
# Youngs Moduli (GPa) = 93.77185 64.24197 105.79892
#
# Poissons Ratio (x) = -0.11187 0.32078
# Poissons Ratio (y) = -0.16330 0.35078
# Poissons Ratio (z) = 0.28431 0.21300
#
# Static dielectric constant tensor:
#      x y z
#    x 1.939790 -0.049060 -0.077280 
#    y -0.049060 1.908320 0.012890 
#    z -0.077280 0.012890 1.877740 
# 
# From -- ./inp_files/66084.got.cif
#   From: 2010.05.17/outbox.cif.g08.bks.cpg/sg2_34_cif.got.tgz:66084.got - 2010.06.03 11:33:40.
