data_PCOD9035769
_publ_section_title
;
Structure prediction by ZEFSAII (Michael W. Deem and Ramdas Pophale) SiO2 
 PCOD9035769
Probable space group: P -1
;
_chemical_formula_sum "Si O2"
_cell_formula_units_Z 12
_cell_length_a 8.277335
_cell_length_b 9.355669
_cell_length_c 9.068303
_cell_angle_alpha 70.703012
_cell_angle_beta 86.542351
_cell_angle_gamma 49.814623
_cell_volume 494.830575
_symmetry_space_group_name_H-M "P -1"
_symmetry_group_IT_number 2
_symmetry_cell_setting 'triclinic'
loop_
_space_group_symop_operation_xyz
x,y,z
-x,-y,-z
loop_
_atom_site_type_symbol
_atom_site_label
_atom_site_fract_x
_atom_site_fract_y
_atom_site_fract_z
Si Si1 0.429563 0.681005 0.836877
Si Si2 0.473935 0.856043 0.236486
Si Si3 0.896119 0.527467 0.839611
Si Si4 0.904889 0.434593 0.416467
Si Si5 0.775095 0.198772 0.504771
Si Si6 0.230297 0.065312 0.872983
O O1 0.648451 0.640880 0.829035
O O2 0.366108 0.678968 0.674635
O O3 0.234296 0.902676 0.843014
O O4 0.500000 0.500000 0.000000
O O5 0.685421 0.621249 0.283735
O O6 0.340746 0.852506 0.370097
O O7 0.597906 0.937839 0.226867
O O8 0.334402 0.963623 0.061057
O O9 0.922992 0.661285 0.691917
O O10 0.026047 0.301425 0.839648
O O11 0.000000 0.500000 0.000000
O O12 0.841249 0.317236 0.535203
O O13 0.000000 0.500000 0.500000
O O14 0.000000 0.000000 0.500000
#
# Coordination Sequence:
#
# PCOD9035769 Si02
#       6
#     2   2   2   2   2   2
#     4  12  27  48  72 109 153 196 249 304 371 441
#     4  10  22  46  72 101 148 187 248 302 365 435
#     4  11  24  45  77 103 145 193 248 299 365 445
#     4  11  25  46  70 102 139 196 242 299 374 431
#     4  12  29  44  71 111 151 189 245 310 366 436
#     4  10  24  44  77 109 141 200 243 303 373 440
#
# _framework density 24.250724999999999
#
# number of rings (size 3 to 8) (size 9 to 14) (size 15 to 20)
#    0.000    1.000    0.000    6.500   11.667    2.667 
#    0.000    0.000    0.000    0.000    0.000    0.000 
#    0.000    0.000    0.000    0.000    0.000    0.000 
#
# Total GULP energy -67053.919382 kJ/mol
# GULP energy per Si atom -5587.826615 kJ/mol
# Density = 2.419553 g / cm^3
# Si number density = 24.250725 Si / 1000 Ang^3
#
#
#
# Elastic Constant Matrix: (Units=GPa)
#
#
# Indices 1 2 3 4 5 6 
#
# 1 62.3495 31.3949 31.7005 1.1507 -3.2715 -2.3031
# 2 31.3949 116.6591 12.1063 -12.5553 -7.1355 13.3329
# 3 31.7005 12.1063 127.3072 -8.0907 -16.3543 9.5772
# 4 1.1507 -12.5553 -8.0907 33.7602 3.0926 2.8007
# 5 -3.2715 -7.1355 -16.3543 3.0926 53.3147 4.2101
# 6 -2.3031 13.3329 9.5772 2.8007 4.2101 41.5763
#
#
#
# Elastic Compliance Matrix: (Units=1/GPa)
#
#
# Indices 1 2 3 4 5 6 
#
# 1 0.022615 -0.006697 -0.005890 -0.004976 -0.001440 0.005238
# 2 -0.006697 0.011428 0.001486 0.005088 0.001665 -0.004890
# 3 -0.005890 0.001486 0.010044 0.003186 0.003021 -0.003637
# 4 -0.004976 0.005088 0.003186 0.032863 -0.000171 -0.004837
# 5 -0.001440 0.001665 0.003021 -0.000171 0.020091 -0.003333
# 6 0.005238 -0.004890 -0.003637 -0.004837 -0.003333 0.027411
#
#
# Mechanical properties :
#
#
# Convention : Reuss Voigt Hill
#
# Bulk Modulus (GPa) = 45.69131 50.74659 48.21895
# Shear Modulus (GPa) = 32.47803 41.13786 36.80794
#
# Velocity S-wave (km/s) = 3.66356 4.12315 3.90013
# Velocity P-wave (km/s) = 6.06446 6.60594 6.34098
#
# Compressibility (1/GPa) = 0.02188600
#
# Stress axis : x y z
#
# Youngs Moduli (GPa) = 44.21821 87.50193 99.55729
#
# Poissons Ratio (x) = 0.58601 0.58637
# Poissons Ratio (y) = 0.29614 -0.14794
# Poissons Ratio (z) = 0.26044 -0.13003
#
# Static dielectric constant tensor:
#      x y z
#    x 2.001040 0.096200 0.301000 
#    y 0.096200 2.015250 0.161150 
#    z 0.301000 0.161150 4.146750 
# 
# From -- ./inp_files/157299.got.cif
#   From: 2010.05.17/outbox.cif.g08.bks.cpg/sg2_79_cif.got.tgz:157299.got - 2010.06.03 11:33:40.
