data_PCOD9035898
_publ_section_title
;
Structure prediction by ZEFSAII (Michael W. Deem and Ramdas Pophale) SiO2 
 PCOD9035898
Probable space group: P -1
;
_chemical_formula_sum "Si O2"
_cell_formula_units_Z 16
_cell_length_a 8.106790
_cell_length_b 8.114408
_cell_length_c 14.032252
_cell_angle_alpha 106.247846
_cell_angle_beta 75.810999
_cell_angle_gamma 127.306199
_cell_volume 701.432564
_symmetry_space_group_name_H-M "P -1"
_symmetry_group_IT_number 2
_symmetry_cell_setting 'triclinic'
loop_
_space_group_symop_operation_xyz
x,y,z
-x,-y,-z
loop_
_atom_site_type_symbol
_atom_site_label
_atom_site_fract_x
_atom_site_fract_y
_atom_site_fract_z
Si Si1 0.342513 0.443055 0.289313
Si Si2 0.964747 0.025142 0.267970
Si Si3 0.009024 0.547027 0.374882
Si Si4 0.227644 0.442222 0.766949
Si Si5 0.695087 0.245321 0.027822
Si Si6 0.127324 0.934884 0.913536
Si Si7 0.562134 0.375618 0.906616
Si Si8 0.743446 0.135383 0.462053
O O1 0.572070 0.529301 0.307759
O O2 0.380446 0.517196 0.185756
O O3 0.202323 0.194145 0.290986
O O4 0.199243 0.520386 0.353080
O O5 0.957788 0.137516 0.191759
O O6 0.809729 0.015052 0.366117
O O7 0.903746 0.796431 0.214087
O O8 0.920386 0.544056 0.283702
O O9 0.818729 0.345750 0.424910
O O10 0.107000 0.768164 0.450689
O O11 0.320947 0.618325 0.865536
O O12 0.867473 0.223213 0.043755
O O13 0.723752 0.355308 0.940754
O O14 0.500000 0.000000 0.000000
O O15 0.358333 0.138459 0.891691
O O16 0.000000 0.000000 0.000000
O O17 0.500000 0.500000 0.000000
O O18 0.500000 0.000000 0.500000
#
# Coordination Sequence:
#
# PCOD9035898 Si02
#       8
#     2   2   2   2   2   2   2   2
#     4  11  23  44  69  97 145 185 230 301 349 419
#     4  11  24  42  70 104 137 188 238 287 369 424
#     4  10  25  45  71 109 137 185 239 286 365 434
#     4  12  24  46  70 102 144 184 241 295 356 431
#     4  10  23  40  66  98 134 189 242 286 356 420
#     4  11  23  40  66  99 139 177 236 296 345 426
#     4  11  20  40  63  93 138 183 231 288 353 407
#     4  10  22  46  75 103 146 183 231 301 358 423
#
# _framework density 22.810459999999999
#
# number of rings (size 3 to 8) (size 9 to 14) (size 15 to 20)
#    0.000    1.250    2.500    3.000    1.750    2.500 
#    2.250   11.250    0.000    0.000    0.000    0.000 
#    0.000    0.000    0.000    0.000    0.000    0.000 
#
# Total GULP energy -89296.939622 kJ/mol
# GULP energy per Si atom -5581.058726 kJ/mol
# Density = 2.275854 g / cm^3
# Si number density = 22.810460 Si / 1000 Ang^3
#
#
#
# Elastic Constant Matrix: (Units=GPa)
#
#
# Indices 1 2 3 4 5 6 
#
# 1 89.6336 36.7115 14.2357 -0.2291 -1.9900 -10.4089
# 2 36.7115 105.8325 14.1454 10.2464 -10.3048 15.0612
# 3 14.2357 14.1454 87.1945 10.6866 -8.7768 1.4127
# 4 -0.2291 10.2464 10.6866 34.5360 7.6143 -3.6573
# 5 -1.9900 -10.3048 -8.7768 7.6143 31.4013 -3.0141
# 6 -10.4089 15.0612 1.4127 -3.6573 -3.0141 36.5344
#
#
#
# Elastic Compliance Matrix: (Units=1/GPa)
#
#
# Indices 1 2 3 4 5 6 
#
# 1 0.014984 -0.006520 -0.002196 0.003937 -0.002061 0.007266
# 2 -0.006520 0.013867 0.000188 -0.006127 0.004928 -0.007788
# 3 -0.002196 0.000188 0.012933 -0.005246 0.004680 -0.001342
# 4 0.003937 -0.006127 -0.005246 0.035586 -0.011234 0.006486
# 5 -0.002061 0.004928 0.004680 -0.011234 0.037283 -0.000848
# 6 0.007266 -0.007788 -0.001342 0.006486 -0.000848 0.033283
#
#
# Mechanical properties :
#
#
# Convention : Reuss Voigt Hill
#
# Bulk Modulus (GPa) = 40.44240 45.87175 43.15708
# Shear Modulus (GPa) = 28.86262 34.99888 31.93075
#
# Velocity S-wave (km/s) = 3.56100 3.92131 3.74549
# Velocity P-wave (km/s) = 5.88862 6.37619 6.13725
#
# Compressibility (1/GPa) = 0.02472653
#
# Stress axis : x y z
#
# Youngs Moduli (GPa) = 66.73870 72.11485 77.32441
#
# Poissons Ratio (x) = 0.47019 0.16983
# Poissons Ratio (y) = 0.43513 -0.01454
# Poissons Ratio (z) = 0.14658 -0.01356
#
# Static dielectric constant tensor:
#      x y z
#    x 1.833790 -0.001380 -0.011180 
#    y -0.001380 1.849770 0.044930 
#    z -0.011180 0.044930 1.887490 
# 
# From -- ./inp_files/495414.got.cif
#   From: 2010.05.17/outbox.cif.g08.bks.cpg/sg2_248_cif.got.tgz:495414.got - 2010.06.03 11:33:40.
