data_PCOD9035143
_publ_section_title
;
Structure prediction by ZEFSAII (Michael W. Deem and Ramdas Pophale) SiO2 
 PCOD9035143
Probable space group: P -1
;
_chemical_formula_sum "Si O2"
_cell_formula_units_Z 14
_cell_length_a 22.760333
_cell_length_b 14.203524
_cell_length_c 4.943923
_cell_angle_alpha 83.686582
_cell_angle_beta 79.569301
_cell_angle_gamma 20.310868
_cell_volume 537.165855
_symmetry_space_group_name_H-M "P -1"
_symmetry_group_IT_number 2
_symmetry_cell_setting 'triclinic'
loop_
_space_group_symop_operation_xyz
x,y,z
-x,-y,-z
loop_
_atom_site_type_symbol
_atom_site_label
_atom_site_fract_x
_atom_site_fract_y
_atom_site_fract_z
Si Si1 0.371864 0.779807 0.002389
Si Si2 0.092368 0.292738 0.280215
Si Si3 0.243948 0.237028 0.828697
Si Si4 0.850366 0.035352 0.154317
Si Si5 0.751266 0.593764 0.858222
Si Si6 0.615603 0.694354 0.446970
Si Si7 0.711935 0.354556 0.667389
O O1 0.223458 0.956558 0.879641
O O2 0.512019 0.647701 0.838066
O O3 0.500000 0.500000 0.000000
O O4 0.262943 0.975893 0.292266
O O5 0.000000 0.500000 0.500000
O O6 0.930063 0.469710 0.273204
O O7 0.176866 0.236033 0.000264
O O8 0.413800 0.975373 0.587379
O O9 0.275870 0.262400 0.037099
O O10 0.739396 0.245595 0.422778
O O11 0.827670 0.140771 0.883526
O O12 0.046374 0.732560 0.184745
O O13 0.675285 0.690637 0.594775
O O14 0.653629 0.666236 0.118435
O O15 0.733262 0.430005 0.525619
#
# Coordination Sequence:
#
# PCOD9035143 Si02
#       7
#     2   2   2   2   2   2   2
#     4  10  22  45  71 109 139 187 236 302 374 428
#     4  11  25  45  79 105 145 186 235 308 374 431
#     4  11  26  46  66 106 140 183 244 294 370 425
#     4  11  24  44  72 103 142 183 239 298 361 431
#     4  12  27  45  72 100 143 195 242 291 351 424
#     4  12  27  45  72 100 143 195 242 291 351 424
#     4  11  24  44  72 103 142 183 239 298 361 431
#
# _framework density 26.062712000000001
#
# number of rings (size 3 to 8) (size 9 to 14) (size 15 to 20)
#    0.000    0.857    2.857    3.000    4.000    8.000 
#    0.000    0.000    0.000    0.000    0.000    0.000 
#    0.000    0.000    0.000    0.000    0.000    0.000 
#
# Total GULP energy -78406.317073 kJ/mol
# GULP energy per Si atom -5600.451219 kJ/mol
# Density = 2.600339 g / cm^3
# Si number density = 26.062712 Si / 1000 Ang^3
#
#
#
# Elastic Constant Matrix: (Units=GPa)
#
#
# Indices 1 2 3 4 5 6 
#
# 1 53.3667 17.1393 1.2401 -3.6331 -12.2283 -0.1605
# 2 17.1393 122.5237 42.9643 26.0549 -5.0654 -6.6315
# 3 1.2401 42.9643 89.3053 8.9009 3.4429 -5.1474
# 4 -3.6331 26.0549 8.9009 50.5793 4.6255 -12.6805
# 5 -12.2283 -5.0654 3.4429 4.6255 44.9686 4.2009
# 6 -0.1605 -6.6315 -5.1474 -12.6805 4.2009 38.2687
#
#
#
# Elastic Compliance Matrix: (Units=1/GPa)
#
#
# Indices 1 2 3 4 5 6 
#
# 1 0.021244 -0.003720 0.001021 0.002796 0.004996 -0.000040
# 2 -0.003720 0.011700 -0.005102 -0.005698 0.001350 -0.000711
# 3 0.001021 -0.005102 0.013700 0.000782 -0.001557 0.001393
# 4 0.002796 -0.005698 0.000782 0.025015 -0.003241 0.007774
# 5 0.004996 0.001350 -0.001557 -0.003241 0.024549 -0.003723
# 6 -0.000040 -0.000711 0.001393 0.007774 -0.003723 0.029180
#
#
# Mechanical properties :
#
#
# Convention : Reuss Voigt Hill
#
# Bulk Modulus (GPa) = 32.21390 43.09812 37.65601
# Shear Modulus (GPa) = 33.03865 40.35344 36.69605
#
# Velocity S-wave (km/s) = 3.56428 3.93914 3.75639
# Velocity P-wave (km/s) = 5.41533 6.10420 5.77006
#
# Compressibility (1/GPa) = 0.03104250
#
# Stress axis : x y z
#
# Youngs Moduli (GPa) = 47.07161 85.46810 72.99052
#
# Poissons Ratio (x) = 0.31794 -0.07453
# Poissons Ratio (y) = 0.17510 0.37242
# Poissons Ratio (z) = -0.04806 0.43609
#
# Static dielectric constant tensor:
#      x y z
#    x 2.122460 0.130450 -0.016410 
#    y 0.130450 2.236160 -0.006110 
#    z -0.016410 -0.006110 2.107780 
# 
# From -- ./inp_files/124162.got.cif
#   From: 2010.05.17/outbox.cif.g08.bks.cpg/sg2_63_cif.got.tgz:124162.got - 2010.06.03 11:33:40.
