data_PCOD9035757
_publ_section_title
;
Structure prediction by ZEFSAII (Michael W. Deem and Ramdas Pophale) SiO2 
 PCOD9035757
Probable space group: P -1
;
_chemical_formula_sum "Si O2"
_cell_formula_units_Z 14
_cell_length_a 8.856061
_cell_length_b 5.073643
_cell_length_c 28.730116
_cell_angle_alpha 125.559769
_cell_angle_beta 150.922858
_cell_angle_gamma 63.251900
_cell_volume 504.811671
_symmetry_space_group_name_H-M "P -1"
_symmetry_group_IT_number 2
_symmetry_cell_setting 'triclinic'
loop_
_space_group_symop_operation_xyz
x,y,z
-x,-y,-z
loop_
_atom_site_type_symbol
_atom_site_label
_atom_site_fract_x
_atom_site_fract_y
_atom_site_fract_z
Si Si1 0.693277 0.583212 0.400188
Si Si2 0.183016 0.658572 0.938369
Si Si3 0.242860 0.629320 0.705986
Si Si4 0.898907 0.967642 0.804766
Si Si5 0.737799 0.248148 0.929813
Si Si6 0.346886 0.019046 0.410021
Si Si7 0.216236 0.548516 0.792287
O O1 0.743877 0.575476 0.357810
O O2 0.429288 0.267843 0.306984
O O3 0.588482 0.921376 0.426178
O O4 0.000000 0.500000 0.500000
O O5 0.084423 0.857880 0.888394
O O6 0.500000 0.500000 0.000000
O O7 0.194419 0.862235 0.010627
O O8 0.911555 0.353099 0.845091
O O9 0.307954 0.479924 0.757693
O O10 0.515430 0.952559 0.812536
O O11 0.875130 0.695641 0.620175
O O12 0.091630 0.887670 0.802250
O O13 0.485291 0.499050 0.894882
O O14 0.000000 0.500000 0.000000
O O15 0.077176 0.712393 0.301088
O O16 0.500000 0.000000 0.500000
#
# Coordination Sequence:
#
# PCOD9035757 Si02
#       7
#     2   2   2   2   2   2   2
#     4  11  24  48  74 108 144 196 249 309 383 445
#     4  12  24  45  73 106 145 202 250 307 374 450
#     4  11  24  46  70 101 148 185 247 304 367 452
#     4  11  26  45  72 110 150 192 259 311 369 457
#     4  11  25  41  67  99 144 193 238 303 370 437
#     4  10  22  46  71  98 139 186 242 305 373 438
#     4  10  24  42  66 101 141 191 242 302 370 443
#
# _framework density 27.733112999999999
#
# number of rings (size 3 to 8) (size 9 to 14) (size 15 to 20)
#    0.000    1.143    2.857    2.143    8.000    1.143 
#    0.000    1.429    0.000    0.000    0.000    0.000 
#    0.000    0.000    0.000    0.000    0.000    0.000 
#
# Total GULP energy -78425.416840 kJ/mol
# GULP energy per Si atom -5601.815489 kJ/mol
# Density = 2.766999 g / cm^3
# Si number density = 27.733113 Si / 1000 Ang^3
#
#
#
# Elastic Constant Matrix: (Units=GPa)
#
#
# Indices 1 2 3 4 5 6 
#
# 1 189.2284 37.4318 53.5665 -4.7870 -36.4213 -19.7436
# 2 37.4318 83.9934 16.9607 -4.5514 -11.2225 7.5906
# 3 53.5665 16.9607 136.2479 -18.8706 -4.6651 0.9112
# 4 -4.7870 -4.5514 -18.8706 26.0560 6.6198 -13.4751
# 5 -36.4213 -11.2225 -4.6651 6.6198 58.7133 4.2155
# 6 -19.7436 7.5906 0.9112 -13.4751 4.2155 50.2153
#
#
#
# Elastic Compliance Matrix: (Units=1/GPa)
#
#
# Indices 1 2 3 4 5 6 
#
# 1 0.007579 -0.002636 -0.002590 -0.000358 0.003816 0.003009
# 2 -0.002636 0.013653 -0.000689 -0.000653 0.001235 -0.003367
# 3 -0.002590 -0.000689 0.009368 0.007182 -0.001876 0.001000
# 4 -0.000358 -0.000653 0.007182 0.052623 -0.006751 0.014516
# 5 0.003816 0.001235 -0.001876 -0.006751 0.020404 -0.002177
# 6 0.003009 -0.003367 0.001000 0.014516 -0.002177 0.025666
#
#
# Mechanical properties :
#
#
# Convention : Reuss Voigt Hill
#
# Bulk Modulus (GPa) = 53.27914 69.48752 61.38333
# Shear Modulus (GPa) = 33.92614 47.09763 40.51189
#
# Velocity S-wave (km/s) = 3.50138 4.12545 3.82616
# Velocity P-wave (km/s) = 5.96651 6.91394 6.45763
#
# Compressibility (1/GPa) = 0.01876907
#
# Stress axis : x y z
#
# Youngs Moduli (GPa) = 131.94921 73.24187 106.75107
#
# Poissons Ratio (x) = 0.19305 0.27653
# Poissons Ratio (y) = 0.34779 0.07355
# Poissons Ratio (z) = 0.34181 0.05047
#
# Static dielectric constant tensor:
#      x y z
#    x 2.187930 -0.123280 0.067140 
#    y -0.123280 2.169660 0.005280 
#    z 0.067140 0.005280 2.145470 
# 
# From -- ./inp_files/143054.got.cif
#   From: 2010.05.17/outbox.cif.g08.bks.cpg/sg2_72_cif.got.tgz:143054.got - 2010.06.03 11:33:40.
