data_PCOD9035161
_publ_section_title
;
Structure prediction by ZEFSAII (Michael W. Deem and Ramdas Pophale) SiO2 
 PCOD9035161
Probable space group: P -1
;
_chemical_formula_sum "Si O2"
_cell_formula_units_Z 14
_cell_length_a 7.033616
_cell_length_b 5.521158
_cell_length_c 16.626114
_cell_angle_alpha 111.359717
_cell_angle_beta 83.607861
_cell_angle_gamma 108.955990
_cell_volume 568.677415
_symmetry_space_group_name_H-M "P -1"
_symmetry_group_IT_number 2
_symmetry_cell_setting 'triclinic'
loop_
_space_group_symop_operation_xyz
x,y,z
-x,-y,-z
loop_
_atom_site_type_symbol
_atom_site_label
_atom_site_fract_x
_atom_site_fract_y
_atom_site_fract_z
Si Si1 0.374962 0.711985 0.011840
Si Si2 0.953115 0.272542 0.406721
Si Si3 0.660168 0.833366 0.464512
Si Si4 0.171167 0.862903 0.196348
Si Si5 0.782452 0.465362 0.168488
Si Si6 0.639200 0.705058 0.637499
Si Si7 0.776931 0.025585 0.230918
O O1 0.274534 0.779011 0.105018
O O2 0.500000 0.500000 0.000000
O O3 0.217373 0.576923 0.932159
O O4 0.500000 0.000000 0.000000
O O5 0.789288 0.195401 0.333425
O O6 0.000000 0.500000 0.500000
O O7 0.159663 0.367945 0.359485
O O8 0.863214 0.994937 0.429149
O O9 0.685694 0.776485 0.549797
O O10 0.551648 0.558550 0.387711
O O11 0.500000 0.000000 0.500000
O O12 0.007362 0.595983 0.208526
O O13 0.328983 0.034891 0.275288
O O14 0.003101 0.011369 0.196859
O O15 0.700165 0.179369 0.183030
O O16 0.673175 0.700522 0.212237
#
# Coordination Sequence:
#
# PCOD9035161 Si02
#       7
#     2   2   2   2   2   2   2
#     4  12  27  45  68 105 140 174 220 291 362 416
#     4  11  22  40  68  96 137 186 232 285 346 412
#     4  11  23  40  64  98 140 179 230 290 334 414
#     4   9  24  44  71  93 135 183 231 287 339 429
#     4  10  22  45  71  96 134 176 239 272 348 418
#     4  10  23  45  63 101 130 186 235 282 353 403
#     4   9  23  40  72 101 125 183 238 281 333 411
#
# _framework density 24.618524000000001
#
# number of rings (size 3 to 8) (size 9 to 14) (size 15 to 20)
#    0.857    0.857    1.429    1.714    4.000    2.857 
#    5.143    0.000    0.000    0.000    0.000    0.000 
#    0.000    0.000    0.000    0.000    0.000    0.000 
#
# Total GULP energy -78002.734398 kJ/mol
# GULP energy per Si atom -5571.623886 kJ/mol
# Density = 2.456249 g / cm^3
# Si number density = 24.618524 Si / 1000 Ang^3
#
#
#
# Elastic Constant Matrix: (Units=GPa)
#
#
# Indices 1 2 3 4 5 6 
#
# 1 59.2962 47.7886 12.5712 11.7872 -7.6506 0.9773
# 2 47.7886 130.3138 36.5804 7.4271 5.2944 -1.7588
# 3 12.5712 36.5804 154.9116 25.8543 12.5045 -1.5156
# 4 11.7872 7.4271 25.8543 44.2411 -0.6603 7.6473
# 5 -7.6506 5.2944 12.5045 -0.6603 38.8004 4.6784
# 6 0.9773 -1.7588 -1.5156 7.6473 4.6784 48.6285
#
#
#
# Elastic Compliance Matrix: (Units=1/GPa)
#
#
# Indices 1 2 3 4 5 6 
#
# 1 0.026655 -0.009888 0.000581 -0.005580 0.006397 -0.000613
# 2 -0.009888 0.011906 -0.002046 0.001686 -0.002957 0.000585
# 3 0.000581 -0.002046 0.007866 -0.004636 -0.002355 0.001115
# 4 -0.005580 0.001686 -0.004636 0.027290 0.001156 -0.004374
# 5 0.006397 -0.002957 -0.002355 0.001156 0.028607 -0.003243
# 6 -0.000613 0.000585 0.001115 -0.004374 -0.003243 0.021632
#
#
# Mechanical properties :
#
#
# Convention : Reuss Voigt Hill
#
# Bulk Modulus (GPa) = 42.15776 59.82244 50.99010
# Shear Modulus (GPa) = 32.34778 42.83942 37.59360
#
# Velocity S-wave (km/s) = 3.62879 4.17601 3.91198
# Velocity P-wave (km/s) = 5.89229 6.89961 6.41575
#
# Compressibility (1/GPa) = 0.02372043
#
# Stress axis : x y z
#
# Youngs Moduli (GPa) = 37.51629 83.98972 127.12862
#
# Poissons Ratio (x) = 0.83050 -0.07383
# Poissons Ratio (y) = 0.37097 0.26012
# Poissons Ratio (z) = -0.02179 0.17185
#
# Static dielectric constant tensor:
#      x y z
#    x 2.196490 -0.121120 -0.014450 
#    y -0.121120 2.057170 0.073140 
#    z -0.014450 0.073140 1.986740 
# 
# From -- ./inp_files/487836.got.cif
#   From: 2010.05.17/outbox.cif.g08.bks.cpg/sg2_244_cif.got.tgz:487836.got - 2010.06.03 11:33:40.
