data_PCOD9035866
_publ_section_title
;
Structure prediction by ZEFSAII (Michael W. Deem and Ramdas Pophale) SiO2 
 PCOD9035866
Probable space group: P -1
;
_chemical_formula_sum "Si O2"
_cell_formula_units_Z 15
_cell_length_a 14.977894
_cell_length_b 15.290193
_cell_length_c 8.315472
_cell_angle_alpha 136.252373
_cell_angle_beta 43.866144
_cell_angle_gamma 152.163987
_cell_volume 594.648903
_symmetry_space_group_name_H-M "P -1"
_symmetry_group_IT_number 2
_symmetry_cell_setting 'triclinic'
loop_
_space_group_symop_operation_xyz
x,y,z
-x,-y,-z
loop_
_atom_site_type_symbol
_atom_site_label
_atom_site_fract_x
_atom_site_fract_y
_atom_site_fract_z
Si Si1 0.029752 0.288330 0.355335
Si Si2 0.954787 0.239498 0.749416
Si Si3 0.000000 0.000000 0.500000
Si Si4 0.548928 0.701279 0.810464
Si Si5 0.165558 0.655579 0.739496
Si Si6 0.663075 0.018652 0.283383
Si Si7 0.354140 0.371136 0.868209
Si Si8 0.456265 0.177763 0.350044
O O1 0.082890 0.475093 0.508319
O O2 0.063226 0.299512 0.517697
O O3 0.801855 0.096373 0.356850
O O4 0.152777 0.284165 0.078711
O O5 0.001304 0.154687 0.685611
O O6 0.718067 0.049948 0.768415
O O7 0.982084 0.394496 0.003685
O O8 0.225246 0.162384 0.344872
O O9 0.432797 0.501028 0.779676
O O10 0.462316 0.701077 0.761624
O O11 0.562489 0.818689 0.084475
O O12 0.203634 0.809060 0.790033
O O13 0.369336 0.754267 0.683375
O O14 0.500000 0.000000 0.500000
O O15 0.350167 0.220229 0.629035
O O16 0.500000 0.500000 0.000000
#
# Coordination Sequence:
#
# PCOD9035866 Si02
#       8
#     2   2   1   2   2   2   2   2
#     4  12  28  46  75 112 149 195 243 310 372 434
#     4  11  25  46  75 104 146 196 249 299 363 442
#     4  10  22  46  74 104 136 190 256 292 352 434
#     4  11  26  48  75 105 146 199 246 303 361 448
#     4  12  24  50  70 109 146 193 249 301 368 441
#     4  12  27  48  75 105 153 195 244 306 376 439
#     4  12  26  49  73 113 153 189 243 312 374 432
#     4  11  25  46  78 103 146 196 246 302 364 445
#
# _framework density 25.224969000000002
#
# number of rings (size 3 to 8) (size 9 to 14) (size 15 to 20)
#    0.000    0.533    4.000    4.000    7.467    0.533 
#    2.400    0.000    0.000    0.000    0.000    0.000 
#    0.000    0.000    0.000    0.000    0.000    0.000 
#
# Total GULP energy -83785.999487 kJ/mol
# GULP energy per Si atom -5585.733299 kJ/mol
# Density = 2.516756 g / cm^3
# Si number density = 25.224969 Si / 1000 Ang^3
#
#
#
# Elastic Constant Matrix: (Units=GPa)
#
#
# Indices 1 2 3 4 5 6 
#
# 1 56.9750 5.1329 12.2904 -7.7309 -6.7053 -6.6690
# 2 5.1329 48.7628 10.2317 -15.5374 -9.6368 -12.9091
# 3 12.2904 10.2317 145.5774 -13.7665 -28.4305 22.0512
# 4 -7.7309 -15.5374 -13.7665 48.0881 0.6776 1.5244
# 5 -6.7053 -9.6368 -28.4305 0.6776 37.8133 -1.2654
# 6 -6.6690 -12.9091 22.0512 1.5244 -1.2654 51.6710
#
#
#
# Elastic Compliance Matrix: (Units=1/GPa)
#
#
# Indices 1 2 3 4 5 6 
#
# 1 0.018819 0.000464 -0.001354 0.002654 0.002494 0.003105
# 2 0.000464 0.026256 -0.000990 0.007968 0.006120 0.006957
# 3 -0.001354 -0.000990 0.009096 0.002113 0.006168 -0.004215
# 4 0.002654 0.007968 0.002113 0.024324 0.003681 0.000804
# 5 0.002494 0.006120 0.006168 0.003681 0.033016 -0.000081
# 6 0.003105 0.006957 -0.004215 0.000804 -0.000081 0.023265
#
#
# Mechanical properties :
#
#
# Convention : Reuss Voigt Hill
#
# Bulk Modulus (GPa) = 19.83672 34.06946 26.95309
# Shear Modulus (GPa) = 32.18764 42.42519 37.30642
#
# Velocity S-wave (km/s) = 3.57602 4.10551 3.84988
# Velocity P-wave (km/s) = 4.99315 6.00077 5.52000
#
# Compressibility (1/GPa) = 0.05041156
#
# Stress axis : x y z
#
# Youngs Moduli (GPa) = 53.13804 38.08631 109.94025
#
# Poissons Ratio (x) = -0.01766 0.14883
# Poissons Ratio (y) = -0.02464 0.10881
# Poissons Ratio (z) = 0.07193 0.03769
#
# Static dielectric constant tensor:
#      x y z
#    x 1.995100 -0.117780 0.054850 
#    y -0.117780 1.975650 -0.154590 
#    z 0.054850 -0.154590 1.893810 
# 
# From -- ./inp_files/316071.got.cif
#   From: 2010.05.17/outbox.cif.g08.bks.cpg/sg2_159_cif.got.tgz:316071.got - 2010.06.03 11:33:40.
