data_PCOD9035956
_publ_section_title
;
Structure prediction by ZEFSAII (Michael W. Deem and Ramdas Pophale) SiO2 
 PCOD9035956
Probable space group: P -1
;
_chemical_formula_sum "Si O2"
_cell_formula_units_Z 16
_cell_length_a 5.161840
_cell_length_b 5.478520
_cell_length_c 22.099143
_cell_angle_alpha 91.790160
_cell_angle_beta 110.274624
_cell_angle_gamma 85.779812
_cell_volume 584.626402
_symmetry_space_group_name_H-M "P -1"
_symmetry_group_IT_number 2
_symmetry_cell_setting 'triclinic'
loop_
_space_group_symop_operation_xyz
x,y,z
-x,-y,-z
loop_
_atom_site_type_symbol
_atom_site_label
_atom_site_fract_x
_atom_site_fract_y
_atom_site_fract_z
Si Si1 0.082185 0.163129 0.195406
Si Si2 0.629620 0.425840 0.241018
Si Si3 0.777243 0.820783 0.926794
Si Si4 0.580926 0.508612 0.604133
Si Si5 0.784916 0.152469 0.368918
Si Si6 0.013463 0.798512 0.282536
Si Si7 0.737670 0.782126 0.507047
Si Si8 0.663617 0.337552 0.959639
O O1 0.314712 0.360619 0.220446
O O2 0.081622 0.108666 0.124122
O O3 0.793144 0.245367 0.204843
O O4 0.167396 0.936130 0.243298
O O5 0.767267 0.373815 0.318793
O O6 0.746336 0.678607 0.232515
O O7 0.657242 0.549560 0.909604
O O8 0.581869 0.061826 0.932949
O O9 0.024850 0.746376 0.993563
O O10 0.511122 0.785040 0.624600
O O11 0.754318 0.374107 0.668205
O O12 0.722879 0.557460 0.552560
O O13 0.325566 0.348891 0.562457
O O14 0.975591 0.129180 0.443787
O O15 0.882253 0.944631 0.329923
O O16 0.500000 0.000000 0.500000
O O17 0.500000 0.500000 0.000000
#
# Coordination Sequence:
#
# PCOD9035956 Si02
#       8
#     2   2   2   2   2   2   2   2
#     4  11  28  49  75 119 151 206 265 317 386 465
#     4  11  26  48  74 107 153 199 259 315 387 460
#     4  10  24  46  74 117 159 208 269 326 391 469
#     4  11  24  43  70  95 143 182 243 312 390 460
#     4  11  24  43  68 101 135 191 241 307 386 465
#     4  11  25  50  75 104 150 196 251 319 386 465
#     4  11  23  42  65 103 134 178 246 312 378 472
#     4  10  22  46  79 112 161 211 262 325 396 460
#
# _framework density 27.367906000000001
#
# number of rings (size 3 to 8) (size 9 to 14) (size 15 to 20)
#    0.000    1.250    2.500    1.500    5.250    5.500 
#    0.000    0.000    0.000    0.000    0.000    0.000 
#    0.000    0.000    0.000    0.000    0.000    0.000 
#
# Total GULP energy -89296.420739 kJ/mol
# GULP energy per Si atom -5581.026296 kJ/mol
# Density = 2.730562 g / cm^3
# Si number density = 27.367906 Si / 1000 Ang^3
#
#
#
# Elastic Constant Matrix: (Units=GPa)
#
#
# Indices 1 2 3 4 5 6 
#
# 1 55.1983 40.6231 17.4455 -2.9520 2.5616 -15.5785
# 2 40.6231 153.7336 41.7054 -2.9219 -5.8459 -21.3585
# 3 17.4455 41.7054 116.1389 -22.5764 -13.4970 4.8859
# 4 -2.9520 -2.9219 -22.5764 40.7481 -2.4144 -2.2693
# 5 2.5616 -5.8459 -13.4970 -2.4144 40.4149 4.6721
# 6 -15.5785 -21.3585 4.8859 -2.2693 4.6721 43.3683
#
#
#
# Elastic Compliance Matrix: (Units=1/GPa)
#
#
# Indices 1 2 3 4 5 6 
#
# 1 0.024870 -0.004989 -0.002693 0.000115 -0.004025 0.007220
# 2 -0.004989 0.008958 -0.002761 -0.001073 0.000297 0.002842
# 3 -0.002693 -0.002761 0.011917 0.006267 0.004569 -0.003834
# 4 0.000115 -0.001073 0.006267 0.028153 0.003625 -0.000110
# 5 -0.004025 0.000297 0.004569 0.003625 0.027312 -0.004567
# 6 0.007220 0.002842 -0.003834 -0.000110 -0.004567 0.027970
#
#
# Mechanical properties :
#
#
# Convention : Reuss Voigt Hill
#
# Bulk Modulus (GPa) = 40.22824 58.29097 49.25961
# Shear Modulus (GPa) = 31.57531 39.92604 35.75067
#
# Velocity S-wave (km/s) = 3.40035 3.82365 3.61820
# Velocity P-wave (km/s) = 5.49067 6.39054 5.95762
#
# Compressibility (1/GPa) = 0.02485816
#
# Stress axis : x y z
#
# Youngs Moduli (GPa) = 40.20935 111.63383 83.91496
#
# Poissons Ratio (x) = 0.55692 0.22601
# Poissons Ratio (y) = 0.20060 0.23169
# Poissons Ratio (z) = 0.10830 0.30822
#
# Static dielectric constant tensor:
#      x y z
#    x 2.306910 0.184780 0.045970 
#    y 0.184780 2.464130 0.114200 
#    z 0.045970 0.114200 2.161760 
# 
# From -- ./inp_files/581099.got.cif
#   From: 2010.05.17/outbox.cif.g08.bks.cpg/sg2_291_cif.got.tgz:581099.got - 2010.06.03 11:33:40.
