data_PCOD9035732
_publ_section_title
;
Structure prediction by ZEFSAII (Michael W. Deem and Ramdas Pophale) SiO2 
 PCOD9035732
Probable space group: P -1
;
_chemical_formula_sum "Si O2"
_cell_formula_units_Z 14
_cell_length_a 4.904821
_cell_length_b 11.965828
_cell_length_c 11.343057
_cell_angle_alpha 131.477712
_cell_angle_beta 99.233144
_cell_angle_gamma 81.911230
_cell_volume 491.775144
_symmetry_space_group_name_H-M "P -1"
_symmetry_group_IT_number 2
_symmetry_cell_setting 'triclinic'
loop_
_space_group_symop_operation_xyz
x,y,z
-x,-y,-z
loop_
_atom_site_type_symbol
_atom_site_label
_atom_site_fract_x
_atom_site_fract_y
_atom_site_fract_z
Si Si1 0.924459 0.355241 0.757787
Si Si2 0.426578 0.054789 0.167535
Si Si3 0.317839 0.659336 0.674765
Si Si4 0.572103 0.097358 0.459667
Si Si5 0.183776 0.371937 0.559221
Si Si6 0.911210 0.206558 0.005076
Si Si7 0.356210 0.345903 0.985286
O O1 0.807594 0.204270 0.594353
O O2 0.061609 0.440230 0.719111
O O3 0.164420 0.316805 0.840297
O O4 0.691783 0.475823 0.873259
O O5 0.448906 0.232992 0.277894
O O6 0.609037 0.023725 0.279970
O O7 0.147956 0.970097 0.120168
O O8 0.500000 0.000000 0.000000
O O9 0.390531 0.490774 0.604140
O O10 0.076973 0.648683 0.555627
O O11 0.171370 0.736894 0.831906
O O12 0.322296 0.215725 0.497085
O O13 0.500000 0.000000 0.500000
O O14 0.669951 0.282922 0.958310
O O15 0.205733 0.258188 0.019245
#
# Coordination Sequence:
#
# PCOD9035732 Si02
#       7
#     2   2   2   2   2   2   2
#     4  11  25  44  71 106 145 198 250 318 384 458
#     4  10  24  45  70 107 150 199 255 312 384 457
#     4  10  22  46  71 107 143 197 255 313 383 456
#     4  12  27  46  74 111 150 203 256 323 399 467
#     4  11  24  45  76 104 148 191 261 319 384 462
#     4  11  24  47  72 109 149 201 248 322 382 461
#     4  11  26  44  76 109 152 197 258 317 389 463
#
# _framework density 28.468297
#
# number of rings (size 3 to 8) (size 9 to 14) (size 15 to 20)
#    0.000    1.143    2.857    1.714    4.000    6.857 
#    0.000    5.000    0.000    0.000    0.000    0.000 
#    0.000    0.000    0.000    0.000    0.000    0.000 
#
# Total GULP energy -78539.050318 kJ/mol
# GULP energy per Si atom -5609.932166 kJ/mol
# Density = 2.840350 g / cm^3
# Si number density = 28.468297 Si / 1000 Ang^3
#
#
#
# Elastic Constant Matrix: (Units=GPa)
#
#
# Indices 1 2 3 4 5 6 
#
# 1 111.5648 52.7682 26.7290 0.2779 11.1029 3.5339
# 2 52.7682 228.2422 66.1952 0.5547 13.2707 19.0050
# 3 26.7290 66.1952 162.6293 -16.3556 14.2180 -1.1363
# 4 0.2779 0.5547 -16.3556 66.3264 -7.3985 13.5194
# 5 11.1029 13.2707 14.2180 -7.3985 40.7182 -0.7550
# 6 3.5339 19.0050 -1.1363 13.5194 -0.7550 61.5763
#
#
#
# Elastic Compliance Matrix: (Units=1/GPa)
#
#
# Indices 1 2 3 4 5 6 
#
# 1 0.010308 -0.002066 -0.000726 -0.000445 -0.001963 0.000107
# 2 -0.002066 0.005586 -0.001913 -0.000260 -0.000666 -0.001592
# 3 -0.000726 -0.001913 0.007335 0.001585 -0.001445 0.000402
# 4 -0.000445 -0.000260 0.001585 0.016462 0.002580 -0.003448
# 5 -0.001963 -0.000666 -0.001445 0.002580 0.026285 0.000047
# 6 0.000107 -0.001592 0.000402 -0.003448 0.000047 0.017490
#
#
# Mechanical properties :
#
#
# Convention : Reuss Voigt Hill
#
# Bulk Modulus (GPa) = 72.36375 88.20234 80.28304
# Shear Modulus (GPa) = 51.29125 57.50711 54.39918
#
# Velocity S-wave (km/s) = 4.24925 4.49936 4.37609
# Velocity P-wave (km/s) = 7.03911 7.61855 7.33455
#
# Compressibility (1/GPa) = 0.01381907
#
# Stress axis : x y z
#
# Youngs Moduli (GPa) = 97.01554 179.02785 136.32646
#
# Poissons Ratio (x) = 0.36993 0.09891
# Poissons Ratio (y) = 0.20046 0.26079
# Poissons Ratio (z) = 0.07039 0.34248
#
# Static dielectric constant tensor:
#      x y z
#    x 2.188370 -0.003030 -0.101570 
#    y -0.003030 2.218790 0.005220 
#    z -0.101570 0.005220 2.305260 
# 
# From -- ./inp_files/80609.got.cif
#   From: 2010.05.17/outbox.cif.g08.bks.cpg/sg2_41_cif.got.tgz:80609.got - 2010.06.03 11:33:40.
