data_PCOD9035869
_publ_section_title
;
Structure prediction by ZEFSAII (Michael W. Deem and Ramdas Pophale) SiO2 
 PCOD9035869
Probable space group: P -1
;
_chemical_formula_sum "Si O2"
_cell_formula_units_Z 15
_cell_length_a 6.718861
_cell_length_b 10.840580
_cell_length_c 14.201517
_cell_angle_alpha 129.098316
_cell_angle_beta 126.154513
_cell_angle_gamma 70.184243
_cell_volume 647.261489
_symmetry_space_group_name_H-M "P -1"
_symmetry_group_IT_number 2
_symmetry_cell_setting 'triclinic'
loop_
_space_group_symop_operation_xyz
x,y,z
-x,-y,-z
loop_
_atom_site_type_symbol
_atom_site_label
_atom_site_fract_x
_atom_site_fract_y
_atom_site_fract_z
Si Si1 0.464467 0.759063 0.604339
Si Si2 0.119577 0.043288 0.654715
Si Si3 0.661478 0.287716 0.071902
Si Si4 0.000000 0.000000 0.000000
Si Si5 0.488568 0.291531 0.823451
Si Si6 0.203525 0.005500 0.274964
Si Si7 0.751886 0.538119 0.892872
Si Si8 0.833251 0.547188 0.700786
O O1 0.321435 0.912143 0.668184
O O2 0.639532 0.825306 0.600186
O O3 0.655147 0.692242 0.700201
O O4 0.277357 0.612232 0.455749
O O5 0.945331 0.025743 0.686908
O O6 0.225226 0.224558 0.755668
O O7 0.000000 0.000000 0.500000
O O8 0.394808 0.300734 0.052597
O O9 0.765155 0.113600 0.007224
O O10 0.895245 0.393363 0.228555
O O11 0.629065 0.348057 0.984409
O O12 0.055141 0.995620 0.130086
O O13 0.539005 0.414994 0.814315
O O14 0.606759 0.133188 0.743389
O O15 0.816305 0.523155 0.795508
O O16 0.000000 0.500000 0.000000
#
# Coordination Sequence:
#
# PCOD9035869 Si02
#       8
#     2   2   2   1   2   2   2   2
#     4  10  25  46  67 106 143 185 250 283 363 441
#     4  11  27  43  74 103 141 195 239 298 362 420
#     4  11  24  44  71 103 146 185 239 298 359 434
#     4  10  22  46  74 104 142 186 244 290 366 428
#     4  10  25  44  64 107 139 182 242 289 360 434
#     4  10  23  45  71  98 144 183 237 302 349 422
#     4  12  27  42  73 107 144 189 237 298 369 427
#     4  11  25  44  70 102 146 190 233 301 358 431
#
# _framework density 23.174561000000001
#
# number of rings (size 3 to 8) (size 9 to 14) (size 15 to 20)
#    0.000    1.333    2.667    0.400    9.333    1.067 
#    0.000    5.333    0.000    0.000    0.000    0.000 
#    0.000    0.000    0.000    0.000    0.000    0.000 
#
# Total GULP energy -83523.042777 kJ/mol
# GULP energy per Si atom -5568.202852 kJ/mol
# Density = 2.312181 g / cm^3
# Si number density = 23.174561 Si / 1000 Ang^3
#
#
#
# Elastic Constant Matrix: (Units=GPa)
#
#
# Indices 1 2 3 4 5 6 
#
# 1 102.9495 16.0409 25.5027 1.7712 1.2420 -2.6733
# 2 16.0409 88.6339 10.3052 0.9969 3.0282 -21.6685
# 3 25.5027 10.3052 55.6988 -14.5676 14.4208 6.3054
# 4 1.7712 0.9969 -14.5676 25.9248 2.2509 4.5654
# 5 1.2420 3.0282 14.4208 2.2509 29.0105 1.0429
# 6 -2.6733 -21.6685 6.3054 4.5654 1.0429 48.3574
#
#
#
# Elastic Compliance Matrix: (Units=1/GPa)
#
#
# Indices 1 2 3 4 5 6 
#
# 1 0.011967 -0.000840 -0.008155 -0.006041 0.004032 0.001832
# 2 -0.000840 0.013655 -0.004217 -0.004137 0.000776 0.006996
# 3 -0.008155 -0.004217 0.033948 0.022824 -0.017550 -0.008543
# 4 -0.006041 -0.004137 0.022824 0.055003 -0.014562 -0.010042
# 5 0.004032 0.000776 -0.017550 -0.014562 0.043952 0.003286
# 6 0.001832 0.006996 -0.008543 -0.010042 0.003286 0.025907
#
#
# Mechanical properties :
#
#
# Convention : Reuss Voigt Hill
#
# Bulk Modulus (GPa) = 30.16857 38.99774 34.58315
# Shear Modulus (GPa) = 22.53219 33.68744 28.10981
#
# Velocity S-wave (km/s) = 3.12152 3.81680 3.48654
# Velocity P-wave (km/s) = 5.10276 6.02398 5.58240
#
# Compressibility (1/GPa) = 0.03314708
#
# Stress axis : x y z
#
# Youngs Moduli (GPa) = 83.56004 73.23396 29.45653
#
# Poissons Ratio (x) = 0.06148 0.24023
# Poissons Ratio (y) = 0.07015 0.12421
# Poissons Ratio (z) = 0.68147 0.30881
#
# Static dielectric constant tensor:
#      x y z
#    x 1.894080 -0.053000 0.082950 
#    y -0.053000 1.913720 0.080990 
#    z 0.082950 0.080990 1.941530 
# 
# From -- ./inp_files/66166.got.cif
#   From: 2010.05.17/outbox.cif.g08.bks.cpg/sg2_34_cif.got.tgz:66166.got - 2010.06.03 11:33:40.
