data_PCOD9035582
_publ_section_title
;
Structure prediction by ZEFSAII (Michael W. Deem and Ramdas Pophale) SiO2 
 PCOD9035582
Probable space group: P -1
;
_chemical_formula_sum "Si O2"
_cell_formula_units_Z 16
_cell_length_a 26.334726
_cell_length_b 8.878905
_cell_length_c 12.366169
_cell_angle_alpha 148.836537
_cell_angle_beta 28.816482
_cell_angle_gamma 142.557276
_cell_volume 709.794968
_symmetry_space_group_name_H-M "P -1"
_symmetry_group_IT_number 2
_symmetry_cell_setting 'triclinic'
loop_
_space_group_symop_operation_xyz
x,y,z
-x,-y,-z
loop_
_atom_site_type_symbol
_atom_site_label
_atom_site_fract_x
_atom_site_fract_y
_atom_site_fract_z
Si Si1 0.756689 0.053409 0.509754
Si Si2 0.343664 0.365416 0.998480
Si Si3 0.776229 0.238741 0.223524
Si Si4 0.084355 0.796518 0.500891
Si Si5 0.381542 0.334599 0.149884
Si Si6 0.931949 0.244594 0.737207
Si Si7 0.077228 0.806234 0.879259
Si Si8 0.441067 0.238403 0.200526
O O1 0.819088 0.160429 0.568817
O O2 0.840794 0.982518 0.220867
O O3 0.664762 0.776952 0.539630
O O4 0.707258 0.335317 0.730863
O O5 0.469297 0.466608 0.795731
O O6 0.282444 0.103977 0.878211
O O7 0.333238 0.244683 0.067195
O O8 0.688635 0.445383 0.529165
O O9 0.856369 0.299045 0.211810
O O10 0.845815 0.286443 0.014225
O O11 0.117231 0.819431 0.328571
O O12 0.000000 0.500000 0.500000
O O13 0.015389 0.049350 0.808009
O O14 0.402783 0.130614 0.084903
O O15 0.500000 0.500000 0.000000
O O16 0.020888 0.540110 0.746625
O O17 0.000000 0.000000 0.500000
O O18 0.500000 0.000000 0.000000
#
# Coordination Sequence:
#
# PCOD9035582 Si02
#       8
#     2   2   2   2   2   2   2   2
#     4  11  22  42  71  95 140 186 221 285 349 399
#     4  10  22  46  68  98 135 176 231 282 340 409
#     4  12  25  40  76 101 133 183 233 279 348 401
#     4  12  26  43  67 101 145 184 232 283 343 411
#     4  10  23  43  72  95 135 174 227 284 342 400
#     4  12  27  44  67 102 142 185 237 285 334 414
#     4  12  25  44  69 100 144 183 232 286 341 412
#     4   9  22  41  70  97 128 172 223 277 344 404
#
# _framework density 22.541722
#
# number of rings (size 3 to 8) (size 9 to 14) (size 15 to 20)
#    0.000    1.000    3.750    2.250    3.500    2.000 
#    0.000    0.625    5.500    0.000    0.000    0.000 
#    0.000    0.000    0.000    0.000    0.000    0.000 
#
# Total GULP energy -89458.115378 kJ/mol
# GULP energy per Si atom -5591.132211 kJ/mol
# Density = 2.249042 g / cm^3
# Si number density = 22.541722 Si / 1000 Ang^3
#
#
#
# Elastic Constant Matrix: (Units=GPa)
#
#
# Indices 1 2 3 4 5 6 
#
# 1 137.8071 9.2112 29.6595 -13.2034 0.8298 -22.7515
# 2 9.2112 86.1210 27.0797 -34.5580 3.3306 -3.9013
# 3 29.6595 27.0797 71.6692 -22.7528 5.4216 -3.8434
# 4 -13.2034 -34.5580 -22.7528 40.9330 -10.0182 4.8395
# 5 0.8298 3.3306 5.4216 -10.0182 30.6242 -6.7045
# 6 -22.7515 -3.9013 -3.8434 4.8395 -6.7045 33.9893
#
#
#
# Elastic Compliance Matrix: (Units=1/GPa)
#
#
# Indices 1 2 3 4 5 6 
#
# 1 0.009060 0.000952 -0.003431 0.001626 0.002097 0.005968
# 2 0.000952 0.018296 -0.002771 0.014974 0.003593 0.001000
# 3 -0.003431 -0.002771 0.018574 0.006826 -0.001031 -0.001690
# 4 0.001626 0.014974 0.006826 0.044259 0.011498 -0.000455
# 5 0.002097 0.003593 -0.001031 0.011498 0.037796 0.007518
# 6 0.005968 0.001000 -0.001690 -0.000455 0.007518 0.034887
#
#
# Mechanical properties :
#
#
# Convention : Reuss Voigt Hill
#
# Bulk Modulus (GPa) = 28.22538 47.49979 37.86259
# Shear Modulus (GPa) = 27.00018 36.41908 31.70963
#
# Velocity S-wave (km/s) = 3.46466 4.02385 3.75468
# Velocity P-wave (km/s) = 5.34357 6.53500 5.96908
#
# Compressibility (1/GPa) = 0.03542910
#
# Stress axis : x y z
#
# Youngs Moduli (GPa) = 110.37736 54.65570 53.83756
#
# Poissons Ratio (x) = -0.05202 0.18473
# Poissons Ratio (y) = -0.10505 0.14919
# Poissons Ratio (z) = 0.37873 0.15146
#
# Static dielectric constant tensor:
#      x y z
#    x 1.842140 -0.011960 -0.016120 
#    y -0.011960 1.829230 0.008090 
#    z -0.016120 0.008090 1.822850 
# 
# From -- ./inp_files/357023.got.cif
#   From: 2010.05.17/outbox.cif.g08.bks.cpg/sg2_179_cif.got.tgz:357023.got - 2010.06.03 11:33:40.
