data_PCOD9035635
_publ_section_title
;
Structure prediction by ZEFSAII (Michael W. Deem and Ramdas Pophale) SiO2 
 PCOD9035635
Probable space group: P -1
;
_chemical_formula_sum "Si O2"
_cell_formula_units_Z 15
_cell_length_a 14.680277
_cell_length_b 7.653347
_cell_length_c 6.424606
_cell_angle_alpha 92.737109
_cell_angle_beta 109.712337
_cell_angle_gamma 114.473413
_cell_volume 603.483950
_symmetry_space_group_name_H-M "P -1"
_symmetry_group_IT_number 2
_symmetry_cell_setting 'triclinic'
loop_
_space_group_symop_operation_xyz
x,y,z
-x,-y,-z
loop_
_atom_site_type_symbol
_atom_site_label
_atom_site_fract_x
_atom_site_fract_y
_atom_site_fract_z
Si Si1 0.500000 0.500000 0.000000
Si Si2 0.663470 0.153329 0.275925
Si Si3 0.300997 0.438502 0.787710
Si Si4 0.316912 0.162887 0.486535
Si Si5 0.053898 0.647449 0.858623
Si Si6 0.068984 0.312896 0.617992
Si Si7 0.093369 0.972418 0.186749
Si Si8 0.438856 0.103555 0.191741
O O1 0.387790 0.502256 0.040595
O O2 0.522669 0.708978 0.917343
O O3 0.708912 0.386507 0.328704
O O4 0.546012 0.072915 0.293399
O O5 0.721730 0.040480 0.426385
O O6 0.645235 0.080238 0.019427
O O7 0.369528 0.348663 0.696599
O O8 0.177223 0.286276 0.730017
O O9 0.390693 0.153824 0.360343
O O10 0.205524 0.162574 0.328841
O O11 0.099022 0.529073 0.745977
O O12 0.971714 0.685609 0.647007
O O13 0.127862 0.847395 0.045483
O O14 0.000000 0.500000 0.000000
O O15 0.968598 0.152918 0.664247
O O16 0.000000 0.000000 0.000000
#
# Coordination Sequence:
#
# PCOD9035635 Si02
#       8
#     1   2   2   2   2   2   2   2
#     4  10  22  46  70 100 136 178 228 280 352 408
#     4  10  24  46  69 103 135 180 237 276 354 417
#     4  11  25  44  71 103 139 184 231 282 351 413
#     4  12  26  44  71 103 141 180 234 286 346 413
#     4   9  21  42  66  94 132 176 232 279 337 405
#     4  10  23  44  69  96 141 183 225 292 338 412
#     4  11  26  42  64 104 138 181 236 280 348 417
#     4  10  23  47  71  99 139 181 227 292 343 415
#
# _framework density 24.855672999999999
#
# number of rings (size 3 to 8) (size 9 to 14) (size 15 to 20)
#    0.000    1.600    1.333    1.200    9.333    4.267 
#    7.200    0.000    0.000    0.000    0.000    0.000 
#    0.000    0.000    0.000    0.000    0.000    0.000 
#
# Total GULP energy -83582.487388 kJ/mol
# GULP energy per Si atom -5572.165826 kJ/mol
# Density = 2.479910 g / cm^3
# Si number density = 24.855673 Si / 1000 Ang^3
#
#
#
# Elastic Constant Matrix: (Units=GPa)
#
#
# Indices 1 2 3 4 5 6 
#
# 1 140.9507 7.8076 40.6096 -1.2076 -3.7839 2.2994
# 2 7.8076 78.3420 22.9675 0.8212 -4.6509 -14.7226
# 3 40.6096 22.9675 77.0232 -2.6972 -5.6537 -1.5575
# 4 -1.2076 0.8212 -2.6972 35.5805 -15.9498 0.4340
# 5 -3.7839 -4.6509 -5.6537 -15.9498 36.1631 6.2241
# 6 2.2994 -14.7226 -1.5575 0.4340 6.2241 31.5682
#
#
#
# Elastic Compliance Matrix: (Units=1/GPa)
#
#
# Indices 1 2 3 4 5 6 
#
# 1 0.008401 0.000371 -0.004521 0.000123 0.000402 -0.000743
# 2 0.000371 0.015415 -0.004708 -0.000935 -0.000333 0.007008
# 3 -0.004521 -0.004708 0.017052 0.002627 0.003031 -0.001659
# 4 0.000123 -0.000935 0.002627 0.035942 0.016867 -0.004135
# 5 0.000402 -0.000333 0.003031 0.016867 0.036862 -0.007535
# 6 -0.000743 0.007008 -0.001659 -0.004135 -0.007535 0.036461
#
#
# Mechanical properties :
#
#
# Convention : Reuss Voigt Hill
#
# Bulk Modulus (GPa) = 43.19308 48.78724 45.99016
# Shear Modulus (GPa) = 28.47972 35.65777 32.06875
#
# Velocity S-wave (km/s) = 3.38864 3.79171 3.59583
# Velocity P-wave (km/s) = 5.72065 6.23219 5.98189
#
# Compressibility (1/GPa) = 0.02315186
#
# Stress axis : x y z
#
# Youngs Moduli (GPa) = 119.03848 64.87280 58.64584
#
# Poissons Ratio (x) = -0.02408 0.26514
# Poissons Ratio (y) = -0.04419 0.27609
# Poissons Ratio (z) = 0.53818 0.30540
#
# Static dielectric constant tensor:
#      x y z
#    x 1.645590 -0.320920 -0.976050 
#    y -0.320920 1.788260 -0.673130 
#    z -0.976050 -0.673130 -0.396490 
# 
# From -- ./inp_files/90510.got.cif
#   From: 2010.05.17/outbox.cif.g08.bks.cpg/sg2_46_cif.got.tgz:90510.got - 2010.06.03 11:33:40.
