data_PCOD9035666
_publ_section_title
;
Structure prediction by ZEFSAII (Michael W. Deem and Ramdas Pophale) SiO2 
 PCOD9035666
Probable space group: P -1
;
_chemical_formula_sum "Si O2"
_cell_formula_units_Z 9
_cell_length_a 7.639989
_cell_length_b 10.088870
_cell_length_c 7.948164
_cell_angle_alpha 61.822196
_cell_angle_beta 140.749381
_cell_angle_gamma 114.450525
_cell_volume 340.404007
_symmetry_space_group_name_H-M "P -1"
_symmetry_group_IT_number 2
_symmetry_cell_setting 'triclinic'
loop_
_space_group_symop_operation_xyz
x,y,z
-x,-y,-z
loop_
_atom_site_type_symbol
_atom_site_label
_atom_site_fract_x
_atom_site_fract_y
_atom_site_fract_z
Si Si1 0.041270 0.171287 0.365657
Si Si2 0.500000 0.000000 0.500000
Si Si3 0.692682 0.240577 0.740243
Si Si4 0.715386 0.504825 0.382987
Si Si5 0.441003 0.731784 0.850545
O O1 0.872586 0.264636 0.316127
O O2 0.365286 0.209023 0.552804
O O3 0.889621 0.190740 0.062880
O O4 0.000000 0.000000 0.500000
O O5 0.721146 0.138548 0.655481
O O6 0.456369 0.102651 0.236324
O O7 0.745232 0.419166 0.632058
O O8 0.511155 0.383495 0.196644
O O9 0.000000 0.500000 0.500000
O O10 0.596737 0.663816 0.165603
#
# Coordination Sequence:
#
# PCOD9035666 Si02
#       5
#     2   1   2   2   2
#     4  12  26  46  70 109 142 180 231 294 350 409
#     4  10  22  46  70 106 132 192 228 290 338 426
#     4  11  27  45  73 103 141 185 235 282 354 409
#     4  10  25  45  69 100 138 191 232 284 341 421
#     4  10  24  43  70 100 142 180 236 283 349 408
#
# _framework density 26.439171000000002
#
# number of rings (size 3 to 8) (size 9 to 14) (size 15 to 20)
#    0.000    1.333    2.222    0.667   12.444    2.667 
#    0.000    0.000    0.000    0.000    0.000    0.000 
#    0.000    0.000    0.000    0.000    0.000    0.000 
#
# Total GULP energy -50126.146258 kJ/mol
# GULP energy per Si atom -5569.571806 kJ/mol
# Density = 2.637899 g / cm^3
# Si number density = 26.439171 Si / 1000 Ang^3
#
#
#
# Elastic Constant Matrix: (Units=GPa)
#
#
# Indices 1 2 3 4 5 6 
#
# 1 70.7386 26.1821 51.4244 -10.0475 7.0645 21.9198
# 2 26.1821 74.6790 63.4203 -32.6896 -19.1894 27.0085
# 3 51.4244 63.4203 210.0820 -32.4978 -21.0825 26.2112
# 4 -10.0475 -32.6896 -32.4978 55.7096 12.2451 -26.1170
# 5 7.0645 -19.1894 -21.0825 12.2451 57.3376 0.2482
# 6 21.9198 27.0085 26.2112 -26.1170 0.2482 68.1956
#
#
#
# Elastic Compliance Matrix: (Units=1/GPa)
#
#
# Indices 1 2 3 4 5 6 
#
# 1 0.020030 -0.004465 -0.003873 -0.002029 -0.004936 -0.003941
# 2 -0.004465 0.024894 -0.004098 0.008490 0.005577 -0.003618
# 3 -0.003873 -0.004098 0.007192 0.000975 0.001540 0.000471
# 4 -0.002029 0.008490 0.000975 0.027072 -0.002364 0.007292
# 5 -0.004936 0.005577 0.001540 -0.002364 0.020996 -0.002196
# 6 -0.003941 -0.003618 0.000471 0.007292 -0.002196 0.019983
#
#
# Mechanical properties :
#
#
# Convention : Reuss Voigt Hill
#
# Bulk Modulus (GPa) = 36.70423 70.83924 53.77174
# Shear Modulus (GPa) = 32.44250 50.54674 41.49462
#
# Velocity S-wave (km/s) = 3.50674 4.37717 3.96591
# Velocity P-wave (km/s) = 5.50536 7.23862 6.43065
#
# Compressibility (1/GPa) = 0.02724482
#
# Stress axis : x y z
#
# Youngs Moduli (GPa) = 49.92444 40.17063 139.05209
#
# Poissons Ratio (x) = 0.17936 0.53851
# Poissons Ratio (y) = 0.22291 0.56979
# Poissons Ratio (z) = 0.19334 0.16461
#
# Static dielectric constant tensor:
#      x y z
#    x 2.222200 -0.145920 -0.061720 
#    y -0.145920 2.185550 0.055730 
#    z -0.061720 0.055730 2.109190 
# 
# From -- ./inp_files/15469.got.cif
#   From: 2010.05.17/outbox.cif.g08.bks.cpg/sg2_8_cif.got.tgz:15469.got - 2010.06.03 11:33:40.
