data_PCOD9035675
_publ_section_title
;
Structure prediction by ZEFSAII (Michael W. Deem and Ramdas Pophale) SiO2 
 PCOD9035675
Probable space group: P -1
;
_chemical_formula_sum "Si O2"
_cell_formula_units_Z 11
_cell_length_a 5.289985
_cell_length_b 18.491996
_cell_length_c 4.898616
_cell_angle_alpha 54.709458
_cell_angle_beta 91.702928
_cell_angle_gamma 86.988752
_cell_volume 389.532122
_symmetry_space_group_name_H-M "P -1"
_symmetry_group_IT_number 2
_symmetry_cell_setting 'triclinic'
loop_
_space_group_symop_operation_xyz
x,y,z
-x,-y,-z
loop_
_atom_site_type_symbol
_atom_site_label
_atom_site_fract_x
_atom_site_fract_y
_atom_site_fract_z
Si Si1 0.297403 0.354976 0.037087
Si Si2 0.863514 0.198196 0.974427
Si Si3 0.219294 0.617191 0.674463
Si Si4 0.264623 0.984814 0.710239
Si Si5 0.812040 0.831688 0.441199
Si Si6 0.000000 0.500000 0.500000
O O1 0.542879 0.389570 0.103984
O O2 0.343909 0.246862 0.271680
O O3 0.027251 0.371833 0.158042
O O4 0.205753 0.409518 0.646594
O O5 0.749601 0.296461 0.697247
O O6 0.122202 0.189462 0.822522
O O7 0.936878 0.181824 0.325656
O O8 0.716860 0.120183 0.004778
O O9 0.188653 0.535447 0.655586
O O10 0.262908 0.063075 0.761634
O O11 0.500000 0.000000 0.500000
O O12 0.000000 0.000000 0.500000
#
# Coordination Sequence:
#
# PCOD9035675 Si02
#       6
#     2   2   2   2   2   1
#     4  11  26  45  71 105 144 189 243 302 366 437
#     4  10  22  46  70 108 147 196 244 303 365 438
#     4  11  26  45  71 105 144 189 243 302 366 437
#     4  10  23  42  72 104 146 193 243 297 364 438
#     4  10  22  46  70 108 147 196 244 303 365 438
#     4  12  24  50  72 106 140 190 248 298 378 424
#
# _framework density 28.239004000000001
#
# number of rings (size 3 to 8) (size 9 to 14) (size 15 to 20)
#    0.000    1.455    1.818    1.636    0.000   14.545 
#    0.000    8.182    0.000    0.000    0.000    0.000 
#    0.000    0.000    0.000    0.000    0.000    0.000 
#
# Total GULP energy -61427.839874 kJ/mol
# GULP energy per Si atom -5584.349079 kJ/mol
# Density = 2.817473 g / cm^3
# Si number density = 28.239004 Si / 1000 Ang^3
#
#
#
# Elastic Constant Matrix: (Units=GPa)
#
#
# Indices 1 2 3 4 5 6 
#
# 1 111.6958 31.6326 53.1611 6.0478 3.9998 16.7312
# 2 31.6326 175.9903 37.7152 -15.9392 12.5497 23.4364
# 3 53.1611 37.7152 99.2540 -15.2307 17.1798 8.9547
# 4 6.0478 -15.9392 -15.2307 58.8225 -3.5407 3.5011
# 5 3.9998 12.5497 17.1798 -3.5407 33.1896 -2.3609
# 6 16.7312 23.4364 8.9547 3.5011 -2.3609 40.0254
#
#
#
# Elastic Compliance Matrix: (Units=1/GPa)
#
#
# Indices 1 2 3 4 5 6 
#
# 1 0.013228 -0.000836 -0.007324 -0.003186 0.001959 -0.003007
# 2 -0.000836 0.006881 -0.001235 0.001732 -0.001938 -0.003669
# 3 -0.007324 -0.001235 0.016342 0.004285 -0.006698 -0.000641
# 4 -0.003186 0.001732 0.004285 0.019008 -0.000628 -0.002341
# 5 0.001959 -0.001938 -0.006698 -0.000628 0.034304 0.003893
# 6 -0.003007 -0.003669 -0.000641 -0.002341 0.003893 0.028968
#
#
# Mechanical properties :
#
#
# Convention : Reuss Voigt Hill
#
# Bulk Modulus (GPa) = 56.61979 70.21752 63.41865
# Shear Modulus (GPa) = 34.86572 44.03624 39.45098
#
# Velocity S-wave (km/s) = 3.51759 3.95322 3.74175
# Velocity P-wave (km/s) = 6.04911 6.76437 6.41671
#
# Compressibility (1/GPa) = 0.01766167
#
# Stress axis : x y z
#
# Youngs Moduli (GPa) = 75.59478 145.33492 61.19206
#
# Poissons Ratio (x) = 0.12148 0.44819
# Poissons Ratio (y) = 0.06319 0.07554
# Poissons Ratio (z) = 0.55368 0.17942
#
# Static dielectric constant tensor:
#      x y z
#    x 2.211010 -0.007700 -0.107000 
#    y -0.007700 2.337200 -0.206200 
#    z -0.107000 -0.206200 2.703210 
# 
# From -- ./inp_files/7123.got.cif
#   From: 2010.05.17/outbox.cif.g08.bks.cpg/sg2_4_cif.got.tgz:7123.got - 2010.06.03 11:33:40.
