data_PCOD9035918
_publ_section_title
;
Structure prediction by ZEFSAII (Michael W. Deem and Ramdas Pophale) SiO2 
 PCOD9035918
Probable space group: P -1
;
_chemical_formula_sum "Si O2"
_cell_formula_units_Z 16
_cell_length_a 7.669544
_cell_length_b 27.229948
_cell_length_c 9.278410
_cell_angle_alpha 138.368178
_cell_angle_beta 131.099374
_cell_angle_gamma 35.964591
_cell_volume 749.162030
_symmetry_space_group_name_H-M "P -1"
_symmetry_group_IT_number 2
_symmetry_cell_setting 'triclinic'
loop_
_space_group_symop_operation_xyz
x,y,z
-x,-y,-z
loop_
_atom_site_type_symbol
_atom_site_label
_atom_site_fract_x
_atom_site_fract_y
_atom_site_fract_z
Si Si1 0.713579 0.764332 0.570445
Si Si2 0.055716 0.969310 0.626659
Si Si3 0.921036 0.228909 0.463175
Si Si4 0.199338 0.607969 0.073235
Si Si5 0.775793 0.609487 0.064447
Si Si6 0.785184 0.874436 0.314677
Si Si7 0.200477 0.904392 0.993247
Si Si8 0.883400 0.299195 0.070840
O O1 0.380352 0.868362 0.619652
O O2 0.721465 0.681713 0.319034
O O3 0.911545 0.774400 0.592347
O O4 0.881080 0.729768 0.739440
O O5 0.807135 0.957690 0.504835
O O6 0.000000 0.000000 0.500000
O O7 0.978322 0.057812 0.870469
O O8 0.735755 0.331358 0.664002
O O9 0.154381 0.161609 0.568355
O O10 0.761546 0.184874 0.242558
O O11 0.932828 0.619927 0.039029
O O12 0.500000 0.500000 0.000000
O O13 0.113867 0.647302 0.949749
O O14 0.454916 0.638648 0.917593
O O15 0.000000 0.500000 0.000000
O O16 0.510933 0.882639 0.128819
O O17 0.040664 0.794965 0.168183
O O18 0.000000 0.000000 0.000000
#
# Coordination Sequence:
#
# PCOD9035918 Si02
#       8
#     2   2   2   2   2   2   2   2
#     4  11  26  46  69 106 139 181 242 291 351 427
#     4  12  26  43  71  98 143 188 235 291 356 417
#     4  10  25  44  69  97 138 182 230 287 355 414
#     4  10  22  46  76 103 141 186 231 292 364 422
#     4  11  23  47  75 102 146 183 232 296 359 427
#     4  11  24  46  66  96 138 186 231 286 357 416
#     4  12  25  42  69 100 134 180 242 289 344 421
#     4  11  24  43  75 101 140 183 235 290 356 416
#
# _framework density 21.357195999999998
#
# number of rings (size 3 to 8) (size 9 to 14) (size 15 to 20)
#    0.000    1.000    3.750    1.875    3.500    4.000 
#    0.000    0.625    0.000    0.000    0.000    0.000 
#    0.000    0.000    0.000    0.000    0.000    0.000 
#
# Total GULP energy -89414.897665 kJ/mol
# GULP energy per Si atom -5588.431104 kJ/mol
# Density = 2.130859 g / cm^3
# Si number density = 21.357196 Si / 1000 Ang^3
#
#
#
# Elastic Constant Matrix: (Units=GPa)
#
#
# Indices 1 2 3 4 5 6 
#
# 1 106.6077 55.2620 75.0398 -7.5983 -6.4149 0.5068
# 2 55.2620 119.5175 82.9297 0.0793 6.4268 -13.5279
# 3 75.0398 82.9297 123.2412 -12.6126 1.0498 3.0461
# 4 -7.5983 0.0793 -12.6126 39.1965 5.4211 0.3095
# 5 -6.4149 6.4268 1.0498 5.4211 38.4555 -3.4275
# 6 0.5068 -13.5279 3.0461 0.3095 -3.4275 35.5866
#
#
#
# Elastic Compliance Matrix: (Units=1/GPa)
#
#
# Indices 1 2 3 4 5 6 
#
# 1 0.016930 -0.001461 -0.009383 -0.000205 0.003383 0.000334
# 2 -0.001461 0.018444 -0.012117 -0.004045 -0.001718 0.007939
# 3 -0.009383 -0.012117 0.022751 0.005796 -0.001568 -0.006621
# 4 -0.000205 -0.004045 0.005796 0.027876 -0.003680 -0.002628
# 5 0.003383 -0.001718 -0.001568 -0.003680 0.027606 0.002124
# 6 0.000334 0.007939 -0.006621 -0.002628 0.002124 0.031908
#
#
# Mechanical properties :
#
#
# Convention : Reuss Voigt Hill
#
# Bulk Modulus (GPa) = 81.95125 86.20327 84.07726
# Shear Modulus (GPa) = 25.57513 31.72338 28.64925
#
# Velocity S-wave (km/s) = 3.46424 3.85823 3.66653
# Velocity P-wave (km/s) = 7.37945 7.76519 7.57478
#
# Compressibility (1/GPa) = 0.01220238
#
# Stress axis : x y z
#
# Youngs Moduli (GPa) = 59.06835 54.21947 43.95464
#
# Poissons Ratio (x) = 0.07923 0.41242
# Poissons Ratio (y) = 0.08631 0.53258
# Poissons Ratio (z) = 0.55423 0.65695
#
# Static dielectric constant tensor:
#      x y z
#    x 1.712140 -0.036100 -0.033860 
#    y -0.036100 1.783100 0.019940 
#    z -0.033860 0.019940 1.773770 
# 
# From -- ./inp_files/228004.got.cif
#   From: 2010.05.17/outbox.cif.g08.bks.cpg/sg2_115_cif.got.tgz:228004.got - 2010.06.03 11:33:40.
