data_PCOD9035091
_publ_section_title
;
Structure prediction by ZEFSAII (Michael W. Deem and Ramdas Pophale) SiO2 
 PCOD9035091
Probable space group: P -1
;
_chemical_formula_sum "Si O2"
_cell_formula_units_Z 14
_cell_length_a 8.266041
_cell_length_b 12.834996
_cell_length_c 7.923193
_cell_angle_alpha 91.121045
_cell_angle_beta 88.893567
_cell_angle_gamma 44.863528
_cell_volume 592.212338
_symmetry_space_group_name_H-M "P -1"
_symmetry_group_IT_number 2
_symmetry_cell_setting 'triclinic'
loop_
_space_group_symop_operation_xyz
x,y,z
-x,-y,-z
loop_
_atom_site_type_symbol
_atom_site_label
_atom_site_fract_x
_atom_site_fract_y
_atom_site_fract_z
Si Si1 0.137023 0.038761 0.943620
Si Si2 0.061603 0.298189 0.622064
Si Si3 0.756450 0.733674 0.721936
Si Si4 0.467757 0.937582 0.237415
Si Si5 0.155866 0.024277 0.548287
Si Si6 0.395854 0.420671 0.182113
Si Si7 0.186049 0.637386 0.895024
O O1 0.194790 0.997524 0.745881
O O2 0.346036 0.958282 0.068525
O O3 0.959603 0.215324 0.982506
O O4 0.000000 0.000000 0.000000
O O5 0.166386 0.321655 0.473676
O O6 0.046534 0.189106 0.540434
O O7 0.814676 0.442572 0.696197
O O8 0.260312 0.203231 0.759132
O O9 0.994820 0.657077 0.804486
O O10 0.605790 0.908160 0.735503
O O11 0.629476 0.691810 0.801170
O O12 0.360022 0.932417 0.405021
O O13 0.000000 0.000000 0.500000
O O14 0.637817 0.368062 0.212391
O O15 0.334632 0.488641 0.997415
#
# Coordination Sequence:
#
# PCOD9035091 Si02
#       7
#     2   2   2   2   2   2   2
#     4  11  22  43  71 108 139 187 238 288 367 419
#     4  11  24  46  68 106 143 179 240 295 357 424
#     4  10  22  45  71 100 141 187 238 287 364 421
#     4  10  24  45  69 107 144 178 236 301 356 424
#     4  11  21  41  67 101 144 181 226 297 350 416
#     4  11  23  47  71  97 147 190 235 292 350 432
#     4  10  24  45  69 103 142 187 240 291 348 433
#
# _framework density 23.640170999999999
#
# number of rings (size 3 to 8) (size 9 to 14) (size 15 to 20)
#    0.000    1.429    2.857    2.571    0.000    3.429 
#   12.857    0.000    0.000    0.000    0.000    0.000 
#    0.000    0.000    0.000    0.000    0.000    0.000 
#
# Total GULP energy -78308.833471 kJ/mol
# GULP energy per Si atom -5593.488105 kJ/mol
# Density = 2.358636 g / cm^3
# Si number density = 23.640171 Si / 1000 Ang^3
#
#
#
# Elastic Constant Matrix: (Units=GPa)
#
#
# Indices 1 2 3 4 5 6 
#
# 1 168.4493 60.6591 72.1540 -2.9579 -35.1941 10.1786
# 2 60.6591 82.3273 37.2711 -0.3535 -7.1372 3.5527
# 3 72.1540 37.2711 152.8473 -1.7945 -20.8489 -1.2802
# 4 -2.9579 -0.3535 -1.7945 34.8485 5.9821 -12.8350
# 5 -35.1941 -7.1372 -20.8489 5.9821 45.9430 -9.3606
# 6 10.1786 3.5527 -1.2802 -12.8350 -9.3606 35.4271
#
#
#
# Elastic Compliance Matrix: (Units=1/GPa)
#
#
# Indices 1 2 3 4 5 6 
#
# 1 0.010521 -0.005957 -0.002753 -0.000767 0.005721 -0.001291
# 2 -0.005957 0.017126 -0.001764 -0.000272 -0.002856 -0.000923
# 3 -0.002753 -0.001764 0.008544 0.000604 0.001818 0.001976
# 4 -0.000767 -0.000272 0.000604 0.033384 -0.002308 0.011755
# 5 0.005721 -0.002856 0.001818 -0.002308 0.027899 0.005244
# 6 -0.001291 -0.000923 0.001976 0.011755 0.005244 0.034406
#
#
# Mechanical properties :
#
#
# Convention : Reuss Voigt Hill
#
# Bulk Modulus (GPa) = 65.61207 82.64360 74.12784
# Shear Modulus (GPa) = 31.66362 38.81303 35.23832
#
# Velocity S-wave (km/s) = 3.66375 4.05634 3.86503
# Velocity P-wave (km/s) = 6.76108 7.54807 7.16539
#
# Compressibility (1/GPa) = 0.01524110
#
# Stress axis : x y z
#
# Youngs Moduli (GPa) = 95.04880 58.39221 117.03932
#
# Poissons Ratio (x) = 0.34784 0.32226
# Poissons Ratio (y) = 0.56620 0.20651
# Poissons Ratio (z) = 0.26171 0.10303
#
# Static dielectric constant tensor:
#      x y z
#    x 1.925080 -0.028560 -0.016920 
#    y -0.028560 1.918710 -0.027240 
#    z -0.016920 -0.027240 1.931700 
# 
# From -- ./inp_files/192940.got.cif
#   From: 2010.05.17/outbox.cif.g08.bks.cpg/sg2_97_cif.got.tgz:192940.got - 2010.06.03 11:33:40.
