data_PCOD9035177
_publ_section_title
;
Structure prediction by ZEFSAII (Michael W. Deem and Ramdas Pophale) SiO2 
 PCOD9035177
Probable space group: P -1
;
_chemical_formula_sum "Si O2"
_cell_formula_units_Z 12
_cell_length_a 12.785732
_cell_length_b 12.945161
_cell_length_c 7.249676
_cell_angle_alpha 118.144219
_cell_angle_beta 91.759236
_cell_angle_gamma 141.195661
_cell_volume 459.586695
_symmetry_space_group_name_H-M "P -1"
_symmetry_group_IT_number 2
_symmetry_cell_setting 'triclinic'
loop_
_space_group_symop_operation_xyz
x,y,z
-x,-y,-z
loop_
_atom_site_type_symbol
_atom_site_label
_atom_site_fract_x
_atom_site_fract_y
_atom_site_fract_z
Si Si1 0.025725 0.880594 0.184960
Si Si2 0.959300 0.673075 0.327321
Si Si3 0.429108 0.293216 0.277161
Si Si4 0.233441 0.744912 0.355697
Si Si5 0.342201 0.727808 0.708026
Si Si6 0.235456 0.153410 0.793562
O O1 0.159257 0.005432 0.105302
O O2 0.235712 0.134718 0.558062
O O3 0.914669 0.657501 0.097930
O O4 0.822852 0.774411 0.091932
O O5 0.794898 0.432364 0.244145
O O6 0.213003 0.861064 0.508025
O O7 0.994116 0.835368 0.555179
O O8 0.500000 0.500000 0.500000
O O9 0.552823 0.296492 0.352250
O O10 0.432013 0.297747 0.058152
O O11 0.203816 0.635168 0.442513
O O12 0.500000 0.000000 0.500000
O O13 0.000000 0.500000 0.000000
O O14 0.500000 0.000000 0.000000
#
# Coordination Sequence:
#
# PCOD9035177 Si02
#       6
#     2   2   2   2   2   2
#     4   9  21  43  67 102 143 194 258 313 393 461
#     4  10  22  45  71  98 149 207 247 323 396 467
#     4  12  25  42  73 110 146 195 261 323 392 469
#     4  12  27  47  74 111 150 202 271 327 390 477
#     4  12  27  49  73 110 158 206 262 332 405 479
#     4   9  21  42  70 101 150 193 257 314 402 459
#
# _framework density 26.110416000000001
#
# number of rings (size 3 to 8) (size 9 to 14) (size 15 to 20)
#    1.000    0.333    0.000    5.000    0.000    4.667 
#    0.000    0.000    0.000    0.000    0.000    0.000 
#    0.000    0.000    0.000    0.000    0.000    0.000 
#
# Total GULP energy -66892.451172 kJ/mol
# GULP energy per Si atom -5574.370931 kJ/mol
# Density = 2.605099 g / cm^3
# Si number density = 26.110416 Si / 1000 Ang^3
#
#
#
# Elastic Constant Matrix: (Units=GPa)
#
#
# Indices 1 2 3 4 5 6 
#
# 1 144.3224 41.0519 40.8796 -2.5934 -3.8035 -41.1149
# 2 41.0519 171.7574 50.9419 16.5562 2.1135 -25.4950
# 3 40.8796 50.9419 113.4152 -18.4625 0.4165 -16.8954
# 4 -2.5934 16.5562 -18.4625 52.8892 -7.4167 4.9368
# 5 -3.8035 2.1135 0.4165 -7.4167 34.9988 -5.5981
# 6 -41.1149 -25.4950 -16.8954 4.9368 -5.5981 55.9670
#
#
#
# Elastic Compliance Matrix: (Units=1/GPa)
#
#
# Indices 1 2 3 4 5 6 
#
# 1 0.009612 -0.000661 -0.002306 -0.000431 0.002029 0.006305
# 2 -0.000661 0.007778 -0.003581 -0.004067 -0.001003 0.002235
# 3 -0.002306 -0.003581 0.012122 0.005377 0.000954 -0.000045
# 4 -0.000431 -0.004067 0.005377 0.022884 0.004648 -0.002099
# 5 0.002029 -0.001003 0.000954 0.004648 0.030460 0.003958
# 6 0.006305 0.002235 -0.000045 -0.002099 0.003958 0.024085
#
#
# Mechanical properties :
#
#
# Convention : Reuss Voigt Hill
#
# Bulk Modulus (GPa) = 60.91400 77.24908 69.08154
# Shear Modulus (GPa) = 39.83751 48.54578 44.19165
#
# Velocity S-wave (km/s) = 3.91030 4.31658 4.11845
# Velocity P-wave (km/s) = 6.61569 7.38198 7.00931
#
# Compressibility (1/GPa) = 0.01641659
#
# Stress axis : x y z
#
# Youngs Moduli (GPa) = 104.03612 128.56290 82.49549
#
# Poissons Ratio (x) = 0.08498 0.19023
# Poissons Ratio (y) = 0.06877 0.29540
# Poissons Ratio (z) = 0.23991 0.46036
#
# Static dielectric constant tensor:
#      x y z
#    x 2.104060 0.000280 -0.062990 
#    y 0.000280 1.979820 0.012540 
#    z -0.062990 0.012540 2.178220 
# 
# From -- ./inp_files/260152.got.cif
#   From: 2010.05.17/outbox.cif.g08.bks.cpg/sg2_131_cif.got.tgz:260152.got - 2010.06.03 11:33:40.
