data_PCOD9035117
_publ_section_title
;
Structure prediction by ZEFSAII (Michael W. Deem and Ramdas Pophale) SiO2 
 PCOD9035117
Probable space group: P -1
;
_chemical_formula_sum "Si O2"
_cell_formula_units_Z 14
_cell_length_a 5.461702
_cell_length_b 15.759771
_cell_length_c 13.435089
_cell_angle_alpha 29.743069
_cell_angle_beta 94.942829
_cell_angle_gamma 87.330302
_cell_volume 554.077465
_symmetry_space_group_name_H-M "P -1"
_symmetry_group_IT_number 2
_symmetry_cell_setting 'triclinic'
loop_
_space_group_symop_operation_xyz
x,y,z
-x,-y,-z
loop_
_atom_site_type_symbol
_atom_site_label
_atom_site_fract_x
_atom_site_fract_y
_atom_site_fract_z
Si Si1 0.769978 0.873929 0.550699
Si Si2 0.074048 0.047921 0.119881
Si Si3 0.108327 0.677398 0.598933
Si Si4 0.684442 0.146519 0.841384
Si Si5 0.035348 0.799914 0.836558
Si Si6 0.108498 0.345164 0.585495
Si Si7 0.576941 0.550627 0.842714
O O1 0.001872 0.735629 0.645191
O O2 0.569096 0.760114 0.634467
O O3 0.819817 0.869830 0.674385
O O4 0.776758 0.065800 0.311635
O O5 0.064298 0.183361 0.071139
O O6 0.133304 0.864246 0.367114
O O7 0.798685 0.092857 0.009576
O O8 0.280011 0.017627 0.068453
O O9 0.928254 0.619409 0.570100
O O10 0.371442 0.538041 0.764695
O O11 0.406381 0.268375 0.694060
O O12 0.904076 0.232328 0.718950
O O13 0.170701 0.598110 0.022879
O O14 0.000000 0.500000 0.500000
O O15 0.500000 0.500000 0.000000
#
# Coordination Sequence:
#
# PCOD9035117 Si02
#       7
#     2   2   2   2   2   2   2
#     4  10  23  46  67  97 149 181 245 307 358 436
#     4   9  22  44  70 101 138 187 244 295 364 441
#     4  10  24  43  66 101 140 192 232 300 374 423
#     4  10  23  46  70 101 143 190 239 306 369 434
#     4  10  22  45  71 104 138 193 251 289 374 442
#     4  11  25  44  72 105 145 187 245 303 370 442
#     4  12  25  43  68 104 147 193 239 303 369 434
#
# _framework density 25.267226999999998
#
# number of rings (size 3 to 8) (size 9 to 14) (size 15 to 20)
#    0.000    1.714    1.429    0.857    6.000    6.857 
#    2.571    0.000    0.000    0.000    0.000    0.000 
#    0.000    0.000    0.000    0.000    0.000    0.000 
#
# Total GULP energy -78080.544795 kJ/mol
# GULP energy per Si atom -5577.181771 kJ/mol
# Density = 2.520972 g / cm^3
# Si number density = 25.267227 Si / 1000 Ang^3
#
#
#
# Elastic Constant Matrix: (Units=GPa)
#
#
# Indices 1 2 3 4 5 6 
#
# 1 70.7573 8.6282 38.0404 2.6769 35.2411 10.0870
# 2 8.6282 143.9505 43.9928 7.4342 20.1562 -13.7644
# 3 38.0404 43.9928 92.8277 11.6206 21.9442 14.7580
# 4 2.6769 7.4342 11.6206 47.7374 12.7027 2.9671
# 5 35.2411 20.1562 21.9442 12.7027 39.4503 -4.4828
# 6 10.0870 -13.7644 14.7580 2.9671 -4.4828 36.0794
#
#
#
# Elastic Compliance Matrix: (Units=1/GPa)
#
#
# Indices 1 2 3 4 5 6 
#
# 1 0.035628 0.003485 -0.007867 0.008861 -0.033251 -0.010273
# 2 0.003485 0.009467 -0.005605 0.000637 -0.004547 0.004313
# 3 -0.007867 -0.005605 0.018165 -0.002612 -0.000188 -0.007178
# 4 0.008861 0.000637 -0.002612 0.025455 -0.015575 -0.005195
# 5 -0.033251 -0.004547 -0.000188 -0.015575 0.064417 0.016923
# 6 -0.010273 0.004313 -0.007178 -0.005195 0.016923 0.037700
#
#
# Mechanical properties :
#
#
# Convention : Reuss Voigt Hill
#
# Bulk Modulus (GPa) = 23.10257 54.31759 38.71008
# Shear Modulus (GPa) = 22.19895 39.11169 30.65532
#
# Velocity S-wave (km/s) = 2.96728 3.93863 3.48694
# Velocity P-wave (km/s) = 4.57196 6.49828 5.61830
#
# Compressibility (1/GPa) = 0.04328523
#
# Stress axis : x y z
#
# Youngs Moduli (GPa) = 28.06811 105.62832 55.04970
#
# Poissons Ratio (x) = -0.36808 0.43308
# Poissons Ratio (y) = -0.09781 0.30856
# Poissons Ratio (z) = 0.22081 0.59207
#
# Static dielectric constant tensor:
#      x y z
#    x 2.129390 0.021090 -0.096100 
#    y 0.021090 2.150900 -0.062060 
#    z -0.096100 -0.062060 2.035090 
# 
# From -- ./inp_files/485170.got.cif
#   From: 2010.05.17/outbox.cif.g08.bks.cpg/sg2_243_cif.got.tgz:485170.got - 2010.06.03 11:33:40.
