data_PCOD9035469
_publ_section_title
;
Structure prediction by ZEFSAII (Michael W. Deem and Ramdas Pophale) SiO2 
 PCOD9035469
Probable space group: P -1
;
_chemical_formula_sum "Si O2"
_cell_formula_units_Z 16
_cell_length_a 9.219342
_cell_length_b 13.839284
_cell_length_c 16.292686
_cell_angle_alpha 36.233051
_cell_angle_beta 110.533793
_cell_angle_gamma 84.118053
_cell_volume 825.880707
_symmetry_space_group_name_H-M "P -1"
_symmetry_group_IT_number 2
_symmetry_cell_setting 'triclinic'
loop_
_space_group_symop_operation_xyz
x,y,z
-x,-y,-z
loop_
_atom_site_type_symbol
_atom_site_label
_atom_site_fract_x
_atom_site_fract_y
_atom_site_fract_z
Si Si1 0.631835 0.999744 0.093684
Si Si2 0.538883 0.192601 0.201247
Si Si3 0.022724 0.857488 0.026170
Si Si4 0.942858 0.191966 0.654055
Si Si5 0.533447 0.448628 0.731644
Si Si6 0.723567 0.767795 0.005789
Si Si7 0.554575 0.420682 0.188424
Si Si8 0.013588 0.758663 0.558609
O O1 0.595108 0.216756 0.920244
O O2 0.506666 0.055473 0.114579
O O3 0.500000 0.000000 0.000000
O O4 0.891151 0.795588 0.284657
O O5 0.350673 0.213914 0.114709
O O6 0.490405 0.312174 0.196635
O O7 0.773231 0.936159 0.424349
O O8 0.545752 0.342692 0.035860
O O9 0.270116 0.615922 0.234495
O O10 0.856453 0.831268 0.010383
O O11 0.983392 0.991343 0.844367
O O12 0.000000 0.000000 0.000000
O O13 0.996781 0.158811 0.591251
O O14 0.687766 0.402138 0.464458
O O15 0.499394 0.549976 0.745947
O O16 0.868090 0.505355 0.242052
O O17 0.813069 0.260559 0.343870
#
# Coordination Sequence:
#
# PCOD9035469 Si02
#       8
#     2   2   2   2   2   2   2   2
#     4  11  20  36  58  84 115 145 196 250 286 339
#     4  10  17  32  58  90 121 149 191 240 299 337
#     4  11  25  42  57  82 121 161 193 241 299 353
#     4  10  20  39  62  80 111 161 187 236 298 342
#     4  10  20  41  57  83 116 151 200 233 287 356
#     4  11  21  37  57  91 121 147 196 253 289 336
#     4   9  18  32  59  89 117 153 193 238 287 352
#     4  10  18  35  60  89 117 150 193 242 288 344
#
# _framework density 19.373259999999998
#
# number of rings (size 3 to 8) (size 9 to 14) (size 15 to 20)
#    0.000    1.750    5.000    2.625    0.000    2.000 
#    2.250    0.625    0.000    3.750    0.000    0.000 
#    0.000    0.000    0.000    0.000    0.000    0.000 
#
# Total GULP energy -89144.865276 kJ/mol
# GULP energy per Si atom -5571.554080 kJ/mol
# Density = 1.932917 g / cm^3
# Si number density = 19.373260 Si / 1000 Ang^3
#
#
#
# Elastic Constant Matrix: (Units=GPa)
#
#
# Indices 1 2 3 4 5 6 
#
# 1 32.0307 -2.0485 33.5536 -13.0021 26.7178 27.1042
# 2 -2.0485 94.2679 23.2534 7.4040 9.5165 25.2037
# 3 33.5536 23.2534 68.1801 12.5301 22.1490 -1.4643
# 4 -13.0021 7.4040 12.5301 17.1077 3.8573 10.6334
# 5 26.7178 9.5165 22.1490 3.8573 32.3140 0.3755
# 6 27.1042 25.2037 -1.4643 10.6334 0.3755 23.3038
#
#
#
# Elastic Compliance Matrix: (Units=1/GPa)
#
#
# Indices 1 2 3 4 5 6 
#
# 1 -0.004142 -0.006165 0.007407 -0.019281 0.002225 0.020713
# 2 -0.006165 0.010924 0.000237 -0.010251 0.002942 0.000001
# 3 0.007407 0.000237 0.015664 0.003736 -0.017268 -0.009313
# 4 -0.019281 -0.010251 0.003736 0.030464 0.012535 0.019643
# 5 0.002225 0.002942 -0.017268 0.012535 0.038734 -0.013198
# 6 0.020713 0.000001 -0.009313 0.019643 -0.013198 0.009484
#
#
# Mechanical properties :
#
#
# Convention : Reuss Voigt Hill
#
# Bulk Modulus (GPa) = 39.36647 33.77731 36.57189
# Shear Modulus (GPa) = 46.88743 23.85979 35.37361
#
# Velocity S-wave (km/s) = 4.92490 3.51320 4.27769
# Velocity P-wave (km/s) = 7.25973 5.82491 6.58154
#
# Compressibility (1/GPa) = 0.02540233
#
# Stress axis : x y z
#
# Youngs Moduli (GPa) = -241.41084 91.54560 63.83891
#
# Poissons Ratio (x) = 0.56439 -0.47284
# Poissons Ratio (y) = -1.48833 -0.01511
# Poissons Ratio (z) = 1.78808 -0.02167
#
# Static dielectric constant tensor:
#      x y z
#    x 1.553330 -0.091580 -0.189930 
#    y -0.091580 1.676070 -0.092360 
#    z -0.189930 -0.092360 1.381820 
# 
# From -- ./inp_files/561134.got.cif
#   From: 2010.05.17/outbox.cif.g08.bks.cpg/sg2_281_cif.got.tgz:561134.got - 2010.06.03 11:33:40.
