data_PCOD9035984
_publ_section_title
;
Structure prediction by ZEFSAII (Michael W. Deem and Ramdas Pophale) SiO2 
 PCOD9035984
Probable space group: P -1
;
_chemical_formula_sum "Si O2"
_cell_formula_units_Z 16
_cell_length_a 9.041734
_cell_length_b 12.045563
_cell_length_c 14.141994
_cell_angle_alpha 28.059512
_cell_angle_beta 67.879416
_cell_angle_gamma 60.993419
_cell_volume 628.676054
_symmetry_space_group_name_H-M "P -1"
_symmetry_group_IT_number 2
_symmetry_cell_setting 'triclinic'
loop_
_space_group_symop_operation_xyz
x,y,z
-x,-y,-z
loop_
_atom_site_type_symbol
_atom_site_label
_atom_site_fract_x
_atom_site_fract_y
_atom_site_fract_z
Si Si1 0.738367 0.911128 0.587059
Si Si2 0.788379 0.566578 0.559419
Si Si3 0.703914 0.399514 0.511390
Si Si4 0.946509 0.506553 0.118895
Si Si5 0.912939 0.719434 0.154144
Si Si6 0.702317 0.042551 0.113341
Si Si7 0.344217 0.078003 0.183998
Si Si8 0.542120 0.618061 0.734279
O O1 0.667224 0.900231 0.717231
O O2 0.652244 0.753833 0.662442
O O3 0.941266 0.764469 0.660073
O O4 0.654730 0.196701 0.353734
O O5 0.793116 0.412246 0.579731
O O6 0.605277 0.612902 0.615234
O O7 0.929947 0.430237 0.704009
O O8 0.798178 0.835112 0.323772
O O9 0.500000 0.500000 0.500000
O O10 0.780432 0.567564 0.301491
O O11 0.746195 0.118977 0.673643
O O12 0.980656 0.694086 0.049571
O O13 0.745390 0.649573 0.046241
O O14 0.000000 0.500000 0.000000
O O15 0.816144 0.979930 0.037805
O O16 0.536170 0.975136 0.179465
O O17 0.616825 0.323318 0.962854
#
# Coordination Sequence:
#
# PCOD9035984 Si02
#       8
#     2   2   2   2   2   2   2   2
#     4  10  22  47  66  98 141 191 245 299 360 426
#     4  11  23  45  69 111 152 181 242 305 360 443
#     4  11  21  41  72 103 150 191 224 300 372 431
#     4  10  24  44  70  98 143 191 244 302 352 439
#     4  11  24  45  72 109 152 188 243 304 373 434
#     4  11  24  42  70 115 140 187 248 296 375 441
#     4  11  23  43  66 102 148 186 246 300 354 439
#     4  11  23  42  78  96 142 194 242 305 367 425
#
# _framework density 25.450310000000002
#
# number of rings (size 3 to 8) (size 9 to 14) (size 15 to 20)
#    0.000    1.250    5.000    1.500    1.750    5.500 
#    0.000    6.875    0.000    0.000    0.000    0.000 
#    0.000    0.000    0.000    0.000    0.000    0.000 
#
# Total GULP energy -89272.656020 kJ/mol
# GULP energy per Si atom -5579.541001 kJ/mol
# Density = 2.539238 g / cm^3
# Si number density = 25.450310 Si / 1000 Ang^3
#
#
#
# Elastic Constant Matrix: (Units=GPa)
#
#
# Indices 1 2 3 4 5 6 
#
# 1 75.2984 9.9050 39.0706 -13.8270 17.1128 -12.4494
# 2 9.9050 99.5606 16.7311 -5.5127 11.2763 10.4953
# 3 39.0706 16.7311 97.5540 -29.1390 4.6619 6.5500
# 4 -13.8270 -5.5127 -29.1390 44.1746 3.9931 8.0615
# 5 17.1128 11.2763 4.6619 3.9931 50.8932 -13.8386
# 6 -12.4494 10.4953 6.5500 8.0615 -13.8386 39.6558
#
#
#
# Elastic Compliance Matrix: (Units=1/GPa)
#
#
# Indices 1 2 3 4 5 6 
#
# 1 0.019386 -0.000821 -0.007853 0.000003 -0.003923 0.006231
# 2 -0.000821 0.011244 -0.000493 0.002033 -0.003645 -0.004837
# 3 -0.007853 -0.000493 0.017221 0.010451 -0.001805 -0.007934
# 4 0.000003 0.002033 0.010451 0.032488 -0.007037 -0.011323
# 5 -0.003923 -0.003645 -0.001805 -0.007037 0.025290 0.010287
# 6 0.006231 -0.004837 -0.007934 -0.011323 0.010287 0.035656
#
#
# Mechanical properties :
#
#
# Convention : Reuss Voigt Hill
#
# Bulk Modulus (GPa) = 33.88070 44.86959 39.37514
# Shear Modulus (GPa) = 29.50568 40.72513 35.11540
#
# Velocity S-wave (km/s) = 3.40861 4.00457 3.71855
# Velocity P-wave (km/s) = 5.36963 6.24905 5.82595
#
# Compressibility (1/GPa) = 0.02951533
#
# Stress axis : x y z
#
# Youngs Moduli (GPa) = 51.58469 88.93588 58.06818
#
# Poissons Ratio (x) = 0.07304 0.45602
# Poissons Ratio (y) = 0.04236 0.02864
# Poissons Ratio (z) = 0.40511 0.04387
#
# Static dielectric constant tensor:
#      x y z
#    x 2.016130 -0.034750 -0.026860 
#    y -0.034750 2.025140 -0.013040 
#    z -0.026860 -0.013040 2.099270 
# 
# From -- ./inp_files/499677.got.cif
#   From: 2010.05.17/outbox.cif.g08.bks.cpg/sg2_250_cif.got.tgz:499677.got - 2010.06.03 11:33:40.
