data_PCOD9035630
_publ_section_title
;
Structure prediction by ZEFSAII (Michael W. Deem and Ramdas Pophale) SiO2 
 PCOD9035630
Probable space group: P -1
;
_chemical_formula_sum "Si O2"
_cell_formula_units_Z 16
_cell_length_a 24.337267
_cell_length_b 10.933597
_cell_length_c 6.357616
_cell_angle_alpha 59.894704
_cell_angle_beta 129.615250
_cell_angle_gamma 148.680930
_cell_volume 673.471512
_symmetry_space_group_name_H-M "P -1"
_symmetry_group_IT_number 2
_symmetry_cell_setting 'triclinic'
loop_
_space_group_symop_operation_xyz
x,y,z
-x,-y,-z
loop_
_atom_site_type_symbol
_atom_site_label
_atom_site_fract_x
_atom_site_fract_y
_atom_site_fract_z
Si Si1 0.861121 0.739523 0.897446
Si Si2 0.418138 0.479752 0.695792
Si Si3 0.234273 0.026052 0.888663
Si Si4 0.983770 0.521669 0.691416
Si Si5 0.313736 0.362412 0.133608
Si Si6 0.606680 0.000128 0.789708
Si Si7 0.689997 0.399366 0.394313
Si Si8 0.764047 0.328270 0.252478
O O1 0.787571 0.720567 0.899792
O O2 0.789175 0.620613 0.604279
O O3 0.843748 0.550779 0.098199
O O4 0.000000 0.000000 0.000000
O O5 0.416561 0.480285 0.442111
O O6 0.476681 0.723769 0.683490
O O7 0.500000 0.500000 0.000000
O O8 0.291291 0.217270 0.684858
O O9 0.268803 0.155289 0.078858
O O10 0.295646 0.967190 0.067085
O O11 0.092834 0.805349 0.713063
O O12 0.000000 0.500000 0.500000
O O13 0.842712 0.321832 0.513515
O O14 0.000000 0.500000 0.000000
O O15 0.357484 0.546499 0.911280
O O16 0.618038 0.161298 0.545068
O O17 0.644339 0.099150 0.033900
O O18 0.749547 0.398074 0.361195
#
# Coordination Sequence:
#
# PCOD9035630 Si02
#       8
#     2   2   2   2   2   2   2   2
#     4  10  24  42  66  95 142 187 235 292 359 443
#     4  10  25  44  70 102 141 186 239 305 367 433
#     4  11  25  43  70 105 145 182 243 299 369 443
#     4  12  27  43  71 109 151 196 244 309 377 452
#     4  11  25  43  68 104 141 186 239 300 370 440
#     4  10  22  46  69  98 139 186 242 302 363 439
#     4  10  23  44  66  99 140 187 242 296 364 446
#     4  10  23  40  67  99 137 187 238 295 366 435
#
# _framework density 23.757501999999999
#
# number of rings (size 3 to 8) (size 9 to 14) (size 15 to 20)
#    0.000    1.500    1.250    1.500    8.750    6.500 
#    0.000    8.750    0.000    0.000    0.000    0.000 
#    0.000    0.000    0.000    0.000    0.000    0.000 
#
# Total GULP energy -89147.770895 kJ/mol
# GULP energy per Si atom -5571.735681 kJ/mol
# Density = 2.370343 g / cm^3
# Si number density = 23.757502 Si / 1000 Ang^3
#
#
#
# Elastic Constant Matrix: (Units=GPa)
#
#
# Indices 1 2 3 4 5 6 
#
# 1 94.0550 11.9219 36.3010 -7.0827 -25.0582 -22.7305
# 2 11.9219 155.1485 63.9762 3.9576 -10.5576 -1.4798
# 3 36.3010 63.9762 185.2568 -12.4250 -30.2679 -3.9828
# 4 -7.0827 3.9576 -12.4250 23.0748 -12.2861 2.8541
# 5 -25.0582 -10.5576 -30.2679 -12.2861 39.9425 -0.5692
# 6 -22.7305 -1.4798 -3.9828 2.8541 -0.5692 35.8256
#
#
#
# Elastic Compliance Matrix: (Units=1/GPa)
#
#
# Indices 1 2 3 4 5 6 
#
# 1 0.018406 -0.000698 0.000311 0.012971 0.015744 0.010901
# 2 -0.000698 0.007784 -0.003205 -0.004409 -0.002167 -0.000161
# 3 0.000311 -0.003205 0.008577 0.009967 0.008919 0.000366
# 4 0.012971 -0.004409 0.009967 0.072608 0.036916 0.003958
# 5 0.015744 -0.002167 0.008919 0.036916 0.052579 0.008785
# 6 0.010901 -0.000161 0.000366 0.003958 0.008785 0.034688
#
#
# Mechanical properties :
#
#
# Convention : Reuss Voigt Hill
#
# Bulk Modulus (GPa) = 36.25321 73.20649 54.72985
# Shear Modulus (GPa) = 23.69445 41.25266 32.47355
#
# Velocity S-wave (km/s) = 3.16150 4.17154 3.70114
# Velocity P-wave (km/s) = 5.34973 7.35413 6.43051
#
# Compressibility (1/GPa) = 0.02758377
#
# Stress axis : x y z
#
# Youngs Moduli (GPa) = 54.32959 128.46945 116.58846
#
# Poissons Ratio (x) = 0.08970 -0.03626
# Poissons Ratio (y) = 0.03793 0.37362
# Poissons Ratio (z) = -0.01690 0.41169
#
# Static dielectric constant tensor:
#      x y z
#    x 2.006910 -0.009390 0.045530 
#    y -0.009390 1.856850 -0.009130 
#    z 0.045530 -0.009130 1.934860 
# 
# From -- ./inp_files/126856.got.cif
#   From: 2010.05.17/outbox.cif.g08.bks.cpg/sg2_64_cif.got.tgz:126856.got - 2010.06.03 11:33:40.
