data_PCOD9035897
_publ_section_title
;
Structure prediction by ZEFSAII (Michael W. Deem and Ramdas Pophale) SiO2 
 PCOD9035897
Probable space group: P -1
;
_chemical_formula_sum "Si O2"
_cell_formula_units_Z 14
_cell_length_a 23.820528
_cell_length_b 7.229031
_cell_length_c 5.974315
_cell_angle_alpha 46.334308
_cell_angle_beta 120.588655
_cell_angle_gamma 127.087196
_cell_volume 585.979689
_symmetry_space_group_name_H-M "P -1"
_symmetry_group_IT_number 2
_symmetry_cell_setting 'triclinic'
loop_
_space_group_symop_operation_xyz
x,y,z
-x,-y,-z
loop_
_atom_site_type_symbol
_atom_site_label
_atom_site_fract_x
_atom_site_fract_y
_atom_site_fract_z
Si Si1 0.775299 0.493733 0.121213
Si Si2 0.165867 0.830208 0.812380
Si Si3 0.419545 0.407433 0.990107
Si Si4 0.963409 0.096719 0.647276
Si Si5 0.648184 0.176871 0.439307
Si Si6 0.094027 0.416613 0.385352
Si Si7 0.705628 0.652933 0.485578
O O1 0.805719 0.379287 0.072018
O O2 0.710641 0.254732 0.320037
O O3 0.843066 0.615331 0.318600
O O4 0.738363 0.680534 0.775129
O O5 0.108044 0.855981 0.502194
O O6 0.232676 0.123318 0.726341
O O7 0.126966 0.699785 0.073165
O O8 0.403290 0.661604 0.849700
O O9 0.367107 0.313424 0.744147
O O10 0.500000 0.500000 0.000000
O O11 0.394091 0.145090 0.323577
O O12 0.024944 0.368161 0.434641
O O13 0.935564 0.837656 0.635933
O O14 0.000000 0.000000 0.000000
O O15 0.686263 0.343879 0.603370
#
# Coordination Sequence:
#
# PCOD9035897 Si02
#       7
#     2   2   2   2   2   2   2
#     4  12  24  41  66 102 135 180 237 289 348 420
#     4  12  24  41  67  94 135 181 230 294 353 420
#     4  10  22  46  75 103 144 187 232 288 350 415
#     4  11  25  46  64  94 133 182 235 297 352 422
#     4  10  24  44  70 104 140 187 233 285 350 415
#     4  11  25  42  64  93 135 174 242 279 369 401
#     4  10  24  41  69  97 142 176 237 281 354 411
#
# _framework density 23.891613
#
# number of rings (size 3 to 8) (size 9 to 14) (size 15 to 20)
#    0.857    0.286    0.000    6.857    2.000    5.714 
#    0.000    1.429    0.000    0.000    0.000    0.000 
#    0.000    0.000    0.000    0.000    0.000    0.000 
#
# Total GULP energy -78293.794778 kJ/mol
# GULP energy per Si atom -5592.413913 kJ/mol
# Density = 2.383723 g / cm^3
# Si number density = 23.891613 Si / 1000 Ang^3
#
#
#
# Elastic Constant Matrix: (Units=GPa)
#
#
# Indices 1 2 3 4 5 6 
#
# 1 113.3266 38.8860 44.4608 2.4950 15.3630 51.4102
# 2 38.8860 68.2233 47.1599 -9.7092 4.3950 36.9942
# 3 44.4608 47.1599 122.1522 -15.8710 6.8511 35.8545
# 4 2.4950 -9.7092 -15.8710 29.0477 5.2373 1.4761
# 5 15.3630 4.3950 6.8511 5.2373 36.7216 -4.8406
# 6 51.4102 36.9942 35.8545 1.4761 -4.8406 52.1524
#
#
#
# Elastic Compliance Matrix: (Units=1/GPa)
#
#
# Indices 1 2 3 4 5 6 
#
# 1 0.019608 0.001787 -0.000776 0.001600 -0.011289 -0.021156
# 2 0.001787 0.029938 -0.004307 0.009961 -0.007721 -0.021036
# 3 -0.000776 -0.004307 0.012732 0.006429 -0.003165 -0.005409
# 4 0.001600 0.009961 0.006429 0.043959 -0.011355 -0.015361
# 5 -0.011289 -0.007721 -0.003165 -0.011355 0.038073 0.022637
# 6 -0.021156 -0.021036 -0.005409 -0.015361 0.022637 0.061206
#
#
# Mechanical properties :
#
#
# Convention : Reuss Voigt Hill
#
# Bulk Modulus (GPa) = 17.95762 62.74615 40.35188
# Shear Modulus (GPa) = 21.67596 35.13070 28.40333
#
# Velocity S-wave (km/s) = 3.01535 3.83877 3.45170
# Velocity P-wave (km/s) = 4.43347 6.77997 5.72816
#
# Compressibility (1/GPa) = 0.05568668
#
# Stress axis : x y z
#
# Youngs Moduli (GPa) = 50.99990 33.40230 78.54002
#
# Poissons Ratio (x) = -0.05970 0.06094
# Poissons Ratio (y) = -0.09115 0.33828
# Poissons Ratio (z) = 0.03957 0.14387
#
# Static dielectric constant tensor:
#      x y z
#    x 1.932140 -0.073580 0.022710 
#    y -0.073580 1.907570 0.000700 
#    z 0.022710 0.000700 1.955360 
# 
# From -- ./inp_files/122747.got.cif
#   From: 2010.05.17/outbox.cif.g08.bks.cpg/sg2_62_cif.got.tgz:122747.got - 2010.06.03 11:33:40.
