data_PCOD9035094
_publ_section_title
;
Structure prediction by ZEFSAII (Michael W. Deem and Ramdas Pophale) SiO2 
 PCOD9035094
Probable space group: P -1
;
_chemical_formula_sum "Si O2"
_cell_formula_units_Z 16
_cell_length_a 8.921230
_cell_length_b 6.781404
_cell_length_c 21.206253
_cell_angle_alpha 42.696786
_cell_angle_beta 124.705297
_cell_angle_gamma 125.100544
_cell_volume 686.425827
_symmetry_space_group_name_H-M "P -1"
_symmetry_group_IT_number 2
_symmetry_cell_setting 'triclinic'
loop_
_space_group_symop_operation_xyz
x,y,z
-x,-y,-z
loop_
_atom_site_type_symbol
_atom_site_label
_atom_site_fract_x
_atom_site_fract_y
_atom_site_fract_z
Si Si1 0.870095 0.788732 0.226197
Si Si2 0.831396 0.323658 0.884733
Si Si3 0.780071 0.398177 0.062107
Si Si4 0.914196 0.600644 0.703515
Si Si5 0.888772 0.729680 0.391708
Si Si6 0.532408 0.779241 0.872965
Si Si7 0.473842 0.295694 0.391960
Si Si8 0.548946 0.672325 0.768348
O O1 0.930186 0.787652 0.313742
O O2 0.658149 0.566834 0.221046
O O3 0.014443 0.653319 0.254565
O O4 0.848178 0.112351 0.123917
O O5 0.910301 0.517897 0.795612
O O6 0.716164 0.510253 0.852545
O O7 0.030291 0.319210 0.963970
O O8 0.672830 0.027950 0.892411
O O9 0.677849 0.304283 0.128296
O O10 0.609825 0.484439 0.965420
O O11 0.700829 0.617105 0.638233
O O12 0.046258 0.937677 0.640297
O O13 0.665635 0.566043 0.380865
O O14 0.000000 0.500000 0.500000
O O15 0.552412 0.879611 0.781559
O O16 0.435019 0.220734 0.325604
O O17 0.500000 0.000000 0.500000
#
# Coordination Sequence:
#
# PCOD9035094 Si02
#       8
#     2   2   2   2   2   2   2   2
#     4  11  24  45  66  99 135 179 224 274 341 407
#     4  11  23  44  68  98 135 178 229 278 340 400
#     4  11  24  46  69  97 141 178 230 284 337 397
#     4  11  24  41  71  97 133 179 216 275 343 395
#     4  11  23  45  70  94 138 172 222 282 331 404
#     4  11  25  46  67 100 135 182 229 286 335 399
#     4  10  22  45  71 101 135 173 225 281 331 405
#     4  10  24  42  70  97 136 178 226 278 344 396
#
# _framework density 23.309145999999998
#
# number of rings (size 3 to 8) (size 9 to 14) (size 15 to 20)
#    0.000    1.250    3.750    1.125    1.750    1.500 
#    2.250    0.625    0.000    0.000    0.000    0.000 
#    0.000    0.000    0.000    0.000    0.000    0.000 
#
# Total GULP energy -89456.071167 kJ/mol
# GULP energy per Si atom -5591.004448 kJ/mol
# Density = 2.325609 g / cm^3
# Si number density = 23.309146 Si / 1000 Ang^3
#
#
#
# Elastic Constant Matrix: (Units=GPa)
#
#
# Indices 1 2 3 4 5 6 
#
# 1 180.6709 62.5291 45.9851 0.3276 21.7573 -5.5822
# 2 62.5291 74.0366 21.9308 -13.1839 0.1979 -2.2478
# 3 45.9851 21.9308 61.6030 -21.0752 15.3536 -8.3918
# 4 0.3276 -13.1839 -21.0752 27.5020 2.4984 9.4482
# 5 21.7573 0.1979 15.3536 2.4984 38.3428 -4.8859
# 6 -5.5822 -2.2478 -8.3918 9.4482 -4.8859 37.2842
#
#
#
# Elastic Compliance Matrix: (Units=1/GPa)
#
#
# Indices 1 2 3 4 5 6 
#
# 1 0.010911 -0.008718 -0.008028 -0.010899 -0.001992 0.001802
# 2 -0.008718 0.022540 0.001818 0.012861 0.002957 -0.002409
# 3 -0.008028 0.001818 0.033883 0.028704 -0.011173 -0.002204
# 4 -0.010899 0.012861 0.028704 0.070454 -0.011723 -0.013786
# 5 -0.001992 0.002957 -0.011173 -0.011723 0.033028 0.004664
# 6 0.001802 -0.002409 -0.002204 -0.013786 0.004664 0.030554
#
#
# Mechanical properties :
#
#
# Convention : Reuss Voigt Hill
#
# Bulk Modulus (GPa) = 26.68193 64.13338 45.40765
# Shear Modulus (GPa) = 20.51555 33.01684 26.76620
#
# Velocity S-wave (km/s) = 2.96995 3.76769 3.39235
# Velocity P-wave (km/s) = 4.82003 6.81919 5.90483
#
# Compressibility (1/GPa) = 0.03747855
#
# Stress axis : x y z
#
# Youngs Moduli (GPa) = 91.65408 44.36530 29.51333
#
# Poissons Ratio (x) = 0.38676 0.23693
# Poissons Ratio (y) = 0.79900 -0.05365
# Poissons Ratio (z) = 0.73578 -0.08065
#
# Static dielectric constant tensor:
#      x y z
#    x 1.846650 0.018560 0.001070 
#    y 0.018560 1.969680 0.030040 
#    z 0.001070 0.030040 1.882560 
# 
# From -- ./inp_files/553265.got.cif
#   From: 2010.05.17/outbox.cif.g08.bks.cpg/sg2_277_cif.got.tgz:553265.got - 2010.06.03 11:33:40.
