data_PCOD9035893
_publ_section_title
;
Structure prediction by ZEFSAII (Michael W. Deem and Ramdas Pophale) SiO2 
 PCOD9035893
Probable space group: P -1
;
_chemical_formula_sum "Si O2"
_cell_formula_units_Z 16
_cell_length_a 14.052269
_cell_length_b 7.815237
_cell_length_c 13.901168
_cell_angle_alpha 72.559406
_cell_angle_beta 34.846223
_cell_angle_gamma 95.582564
_cell_volume 646.478844
_symmetry_space_group_name_H-M "P -1"
_symmetry_group_IT_number 2
_symmetry_cell_setting 'triclinic'
loop_
_space_group_symop_operation_xyz
x,y,z
-x,-y,-z
loop_
_atom_site_type_symbol
_atom_site_label
_atom_site_fract_x
_atom_site_fract_y
_atom_site_fract_z
Si Si1 0.871124 0.097522 0.419896
Si Si2 0.922259 0.517159 0.214183
Si Si3 0.251225 0.171664 0.012471
Si Si4 0.093970 0.353178 0.373755
Si Si5 0.562878 0.526322 0.553632
Si Si6 0.717776 0.171847 0.846116
Si Si7 0.654437 0.257483 0.286619
Si Si8 0.565756 0.604303 0.818594
O O1 0.866151 0.302387 0.359870
O O2 0.019897 0.177662 0.378496
O O3 0.646206 0.854897 0.676945
O O4 0.015599 0.099645 0.217935
O O5 0.801575 0.415711 0.228650
O O6 0.802831 0.606962 0.347468
O O7 0.175751 0.686278 0.947057
O O8 0.389441 0.271899 0.784704
O O9 0.402117 0.395110 0.920021
O O10 0.241525 0.967668 0.096973
O O11 0.243269 0.615190 0.167788
O O12 0.204246 0.340591 0.377030
O O13 0.876321 0.285250 0.605139
O O14 0.500000 0.500000 0.500000
O O15 0.499225 0.678359 0.623504
O O16 0.500000 0.000000 0.000000
O O17 0.500000 0.000000 0.500000
O O18 0.500000 0.500000 0.000000
#
# Coordination Sequence:
#
# PCOD9035893 Si02
#       8
#     2   2   2   2   2   2   2   2
#     4  12  25  42  67  99 141 181 241 283 345 430
#     4  10  24  44  69 100 138 180 226 292 353 421
#     4  12  24  44  70  97 139 187 235 292 353 416
#     4  11  24  41  61  95 137 183 228 287 349 409
#     4  10  24  47  69 102 140 178 233 290 352 421
#     4  11  24  41  63  93 137 180 232 294 344 413
#     4  10  22  46  74  99 135 176 230 294 356 417
#     4  12  24  40  68  99 136 188 235 287 351 414
#
# _framework density 24.749454
#
# number of rings (size 3 to 8) (size 9 to 14) (size 15 to 20)
#    0.000    1.000    5.000    1.125    3.500    0.500 
#    4.500    0.000    0.000    0.000    0.000    0.000 
#    0.000    0.000    0.000    0.000    0.000    0.000 
#
# Total GULP energy -89352.541843 kJ/mol
# GULP energy per Si atom -5584.533865 kJ/mol
# Density = 2.469312 g / cm^3
# Si number density = 24.749454 Si / 1000 Ang^3
#
#
#
# Elastic Constant Matrix: (Units=GPa)
#
#
# Indices 1 2 3 4 5 6 
#
# 1 73.3387 26.3776 36.2456 2.9211 16.4317 -20.2756
# 2 26.3776 77.3267 62.7681 -8.2317 4.2368 -34.8636
# 3 36.2456 62.7681 199.0113 7.7532 10.5555 -23.7053
# 4 2.9211 -8.2317 7.7532 42.2834 -10.4767 -1.6032
# 5 16.4317 4.2368 10.5555 -10.4767 42.8193 1.7663
# 6 -20.2756 -34.8636 -23.7053 -1.6032 1.7663 55.5614
#
#
#
# Elastic Compliance Matrix: (Units=1/GPa)
#
#
# Indices 1 2 3 4 5 6 
#
# 1 0.018423 -0.003261 -0.001295 -0.003348 -0.007423 0.004264
# 2 -0.003261 0.025326 -0.006306 0.007157 0.001549 0.012169
# 3 -0.001295 -0.006306 0.007267 -0.002847 -0.001311 -0.001369
# 4 -0.003348 0.007157 -0.002847 0.027875 0.007991 0.002605
# 5 -0.007423 0.001549 -0.001311 0.007991 0.028450 -0.002970
# 6 0.004264 0.012169 -0.001369 0.002605 -0.002970 0.026775
#
#
# Mechanical properties :
#
#
# Convention : Reuss Voigt Hill
#
# Bulk Modulus (GPa) = 34.13631 66.71769 50.42700
# Shear Modulus (GPa) = 30.19248 43.08517 36.63883
#
# Velocity S-wave (km/s) = 3.49653 4.17688 3.85176
# Velocity P-wave (km/s) = 5.48850 7.09067 6.34039
#
# Compressibility (1/GPa) = 0.02929432
#
# Stress axis : x y z
#
# Youngs Moduli (GPa) = 54.27861 39.48478 137.61224
#
# Poissons Ratio (x) = 0.12874 0.17821
# Poissons Ratio (y) = 0.17698 0.86772
# Poissons Ratio (z) = 0.07029 0.24897
#
# Static dielectric constant tensor:
#      x y z
#    x 1.966060 -0.008580 -0.050520 
#    y -0.008580 2.121060 0.109280 
#    z -0.050520 0.109280 2.046550 
# 
# From -- ./inp_files/529546.got.cif
#   From: 2010.05.17/outbox.cif.g08.bks.cpg/sg2_265_cif.got.tgz:529546.got - 2010.06.03 11:33:40.
