data_PCOD9035162
_publ_section_title
;
Structure prediction by ZEFSAII (Michael W. Deem and Ramdas Pophale) SiO2 
 PCOD9035162
Probable space group: P -1
;
_chemical_formula_sum "Si O2"
_cell_formula_units_Z 16
_cell_length_a 11.223699
_cell_length_b 4.960444
_cell_length_c 12.196632
_cell_angle_alpha 87.438118
_cell_angle_beta 89.469830
_cell_angle_gamma 80.509899
_cell_volume 669.077845
_symmetry_space_group_name_H-M "P -1"
_symmetry_group_IT_number 2
_symmetry_cell_setting 'triclinic'
loop_
_space_group_symop_operation_xyz
x,y,z
-x,-y,-z
loop_
_atom_site_type_symbol
_atom_site_label
_atom_site_fract_x
_atom_site_fract_y
_atom_site_fract_z
Si Si1 0.282997 0.965566 0.938980
Si Si2 0.527882 0.434015 0.192797
Si Si3 0.748255 0.296132 0.566248
Si Si4 0.719146 0.526239 0.914567
Si Si5 0.432988 0.829959 0.585377
Si Si6 0.817062 0.777787 0.697225
Si Si7 0.938818 0.339299 0.409513
Si Si8 0.260913 0.250280 0.726849
O O1 0.403159 0.796831 0.884600
O O2 0.209016 0.096692 0.831473
O O3 0.224934 0.743443 0.013102
O O4 0.309507 0.214865 0.008742
O O5 0.404237 0.554795 0.132569
O O6 0.492014 0.313171 0.311332
O O7 0.630310 0.609616 0.224620
O O8 0.632619 0.360203 0.488444
O O9 0.778174 0.569504 0.612826
O O10 0.858583 0.166835 0.486700
O O11 0.740855 0.074657 0.665237
O O12 0.794383 0.640651 0.815296
O O13 0.500000 0.000000 0.500000
O O14 0.326821 0.032453 0.644300
O O15 0.956927 0.795264 0.671113
O O16 0.840808 0.539139 0.335361
O O17 0.000000 0.500000 0.500000
#
# Coordination Sequence:
#
# PCOD9035162 Si02
#       8
#     2   2   2   2   2   2   2   2
#     4  11  25  45  68  96 132 177 224 281 330 401
#     4  11  24  40  68  97 135 175 225 267 331 415
#     4  11  22  43  64  98 136 180 220 263 338 403
#     4  12  25  43  69  97 134 174 226 281 343 375
#     4  11  24  37  63 101 145 174 211 274 338 399
#     4  11  25  42  68 100 132 177 229 282 324 399
#     4  10  22  45  71  96 134 181 224 270 328 406
#     4  11  24  44  66 102 130 180 227 268 327 408
#
# _framework density 23.913512000000001
#
# number of rings (size 3 to 8) (size 9 to 14) (size 15 to 20)
#    0.000    1.000    2.500    4.125    5.250    1.500 
#    0.000    1.250    0.000    0.000    0.000    0.000 
#    0.000    0.000    0.000    0.000    0.000    0.000 
#
# Total GULP energy -89533.367744 kJ/mol
# GULP energy per Si atom -5595.835484 kJ/mol
# Density = 2.385908 g / cm^3
# Si number density = 23.913512 Si / 1000 Ang^3
#
#
#
# Elastic Constant Matrix: (Units=GPa)
#
#
# Indices 1 2 3 4 5 6 
#
# 1 54.5769 9.0632 35.6081 -3.2545 -7.0185 7.4055
# 2 9.0632 92.9644 32.7555 -13.9188 14.6164 10.5918
# 3 35.6081 32.7555 147.3974 -28.1417 -11.9565 5.9130
# 4 -3.2545 -13.9188 -28.1417 62.7366 7.3048 0.9436
# 5 -7.0185 14.6164 -11.9565 7.3048 12.8737 -0.2584
# 6 7.4055 10.5918 5.9130 0.9436 -0.2584 28.9067
#
#
#
# Elastic Compliance Matrix: (Units=1/GPa)
#
#
# Indices 1 2 3 4 5 6 
#
# 1 0.023803 -0.002953 -0.004375 -0.002937 0.013855 -0.003902
# 2 -0.002953 0.019085 -0.004733 0.005653 -0.030997 -0.005730
# 3 -0.004375 -0.004733 0.010151 0.001945 0.011329 0.000816
# 4 -0.002937 0.005653 0.001945 0.020003 -0.017614 -0.002527
# 5 0.013855 -0.030997 0.011329 -0.017614 0.141089 0.007327
# 6 -0.003902 -0.005730 0.000816 -0.002527 0.007327 0.037674
#
#
# Mechanical properties :
#
#
# Convention : Reuss Voigt Hill
#
# Bulk Modulus (GPa) = 34.58048 49.97691 42.27870
# Shear Modulus (GPa) = 17.50915 35.40417 26.45666
#
# Velocity S-wave (km/s) = 2.70883 3.85191 3.32979
# Velocity P-wave (km/s) = 4.92704 6.38180 5.70101
#
# Compressibility (1/GPa) = 0.02891805
#
# Stress axis : x y z
#
# Youngs Moduli (GPa) = 42.01107 52.39659 98.51711
#
# Poissons Ratio (x) = 0.15472 0.43097
# Poissons Ratio (y) = 0.12405 0.46629
# Poissons Ratio (z) = 0.18378 0.24800
#
# Static dielectric constant tensor:
#      x y z
#    x 1.979720 0.002130 -0.034880 
#    y 0.002130 1.924990 -0.021340 
#    z -0.034880 -0.021340 1.935240 
# 
# From -- ./inp_files/410542.got.cif
#   From: 2010.05.17/outbox.cif.g08.bks.cpg/sg2_206_cif.got.tgz:410542.got - 2010.06.03 11:33:40.
