data_PCOD9035585
_publ_section_title
;
Structure prediction by ZEFSAII (Michael W. Deem and Ramdas Pophale) SiO2 
 PCOD9035585
Probable space group: P -1
;
_chemical_formula_sum "Si O2"
_cell_formula_units_Z 13
_cell_length_a 6.483428
_cell_length_b 8.964554
_cell_length_c 12.449369
_cell_angle_alpha 120.781380
_cell_angle_beta 76.131870
_cell_angle_gamma 108.298816
_cell_volume 587.427990
_symmetry_space_group_name_H-M "P -1"
_symmetry_group_IT_number 2
_symmetry_cell_setting 'triclinic'
loop_
_space_group_symop_operation_xyz
x,y,z
-x,-y,-z
loop_
_atom_site_type_symbol
_atom_site_label
_atom_site_fract_x
_atom_site_fract_y
_atom_site_fract_z
Si Si1 0.975501 0.156167 0.294693
Si Si2 0.598284 0.523782 0.617702
Si Si3 0.500000 0.500000 0.000000
Si Si4 0.166685 0.669153 0.217151
Si Si5 0.284384 0.849232 0.468630
Si Si6 0.200822 0.650566 0.790544
Si Si7 0.023042 0.224546 0.938395
O O1 0.194436 0.309994 0.338055
O O2 0.879804 0.110883 0.407557
O O3 0.806680 0.237077 0.274179
O O4 0.998199 0.981642 0.162726
O O5 0.500000 0.500000 0.500000
O O6 0.660690 0.341016 0.577737
O O7 0.415201 0.573510 0.736701
O O8 0.394169 0.625437 0.139464
O O9 0.735998 0.659538 0.019380
O O10 0.200021 0.836021 0.352699
O O11 0.007324 0.513802 0.245434
O O12 0.045946 0.689519 0.129465
O O13 0.500000 0.000000 0.500000
O O14 0.151506 0.756422 0.940655
#
# Coordination Sequence:
#
# PCOD9035585 Si02
#       7
#     2   2   1   2   2   2   2
#     4  12  26  48  69 107 144 182 238 292 350 421
#     4  12  26  46  74 101 143 189 234 293 355 415
#     4  10  22  46  68  98 146 178 234 286 348 408
#     4  11  25  43  70 106 142 186 236 288 354 419
#     4  12  27  46  73 105 142 188 237 294 352 421
#     4  11  24  46  71 100 142 184 239 287 354 415
#     4  11  27  43  74 107 141 190 234 291 353 422
#
# _framework density 22.130372000000001
#
# number of rings (size 3 to 8) (size 9 to 14) (size 15 to 20)
#    0.000    0.615    3.077    4.615    8.615    2.462 
#    0.000    0.000    0.000    0.000    0.000    0.000 
#    0.000    0.000    0.000    0.000    0.000    0.000 
#
# Total GULP energy -72466.969829 kJ/mol
# GULP energy per Si atom -5574.382295 kJ/mol
# Density = 2.208000 g / cm^3
# Si number density = 22.130372 Si / 1000 Ang^3
#
#
#
# Elastic Constant Matrix: (Units=GPa)
#
#
# Indices 1 2 3 4 5 6 
#
# 1 59.1475 27.6692 43.7896 1.2652 -15.0003 10.6962
# 2 27.6692 68.7302 34.8906 16.9955 -0.4256 16.6671
# 3 43.7896 34.8906 125.1024 20.4174 -3.7966 17.0409
# 4 1.2652 16.9955 20.4174 38.0676 3.9259 0.1929
# 5 -15.0003 -0.4256 -3.7966 3.9259 43.0274 -8.1388
# 6 10.6962 16.6671 17.0409 0.1929 -8.1388 38.1936
#
#
#
# Elastic Compliance Matrix: (Units=1/GPa)
#
#
# Indices 1 2 3 4 5 6 
#
# 1 0.029860 -0.009634 -0.008882 0.007114 0.009209 0.001731
# 2 -0.009634 0.022837 -0.000561 -0.009142 -0.003821 -0.007786
# 3 -0.008882 -0.000561 0.012626 -0.005996 -0.002067 -0.003311
# 4 0.007114 -0.009142 -0.005996 0.033343 -0.000344 0.004431
# 5 0.009209 -0.003821 -0.002067 -0.000344 0.027368 0.005844
# 6 0.001731 -0.007786 -0.003311 0.004431 0.005844 0.031796
#
#
# Mechanical properties :
#
#
# Convention : Reuss Voigt Hill
#
# Bulk Modulus (GPa) = 36.80587 51.74210 44.27398
# Shear Modulus (GPa) = 24.38548 33.63313 29.00930
#
# Velocity S-wave (km/s) = 3.32309 3.90266 3.62448
# Velocity P-wave (km/s) = 5.60280 6.61354 6.12904
#
# Compressibility (1/GPa) = 0.02716958
#
# Stress axis : x y z
#
# Youngs Moduli (GPa) = 33.48979 43.78765 79.20232
#
# Poissons Ratio (x) = 0.42184 0.70351
# Poissons Ratio (y) = 0.32263 0.04440
# Poissons Ratio (z) = 0.29747 0.02455
#
# Static dielectric constant tensor:
#      x y z
#    x 1.645770 0.291040 -0.088060 
#    y 0.291040 1.134370 0.207480 
#    z -0.088060 0.207480 1.794050 
# 
# From -- ./inp_files/25593.got.cif
#   From: 2010.05.17/outbox.cif.g08.bks.cpg/sg2_13_cif.got.tgz:25593.got - 2010.06.03 11:33:40.
