data_PCOD9035952
_publ_section_title
;
Structure prediction by ZEFSAII (Michael W. Deem and Ramdas Pophale) SiO2 
 PCOD9035952
Probable space group: P -1
;
_chemical_formula_sum "Si O2"
_cell_formula_units_Z 16
_cell_length_a 22.531399
_cell_length_b 9.357088
_cell_length_c 14.127131
_cell_angle_alpha 42.847880
_cell_angle_beta 161.475732
_cell_angle_gamma 142.740625
_cell_volume 569.294641
_symmetry_space_group_name_H-M "P -1"
_symmetry_group_IT_number 2
_symmetry_cell_setting 'triclinic'
loop_
_space_group_symop_operation_xyz
x,y,z
-x,-y,-z
loop_
_atom_site_type_symbol
_atom_site_label
_atom_site_fract_x
_atom_site_fract_y
_atom_site_fract_z
Si Si1 0.595838 0.785952 0.017743
Si Si2 0.785464 0.720913 0.164583
Si Si3 0.348125 0.258300 0.676552
Si Si4 0.219535 0.005618 0.145430
Si Si5 0.101610 0.292386 0.037172
Si Si6 0.291648 0.649021 0.294988
Si Si7 0.077753 0.529377 0.712794
Si Si8 0.570623 0.881494 0.319377
O O1 0.705697 0.863136 0.044854
O O2 0.732875 0.843001 0.293222
O O3 0.500000 0.500000 0.000000
O O4 0.442652 0.902108 0.752209
O O5 0.946164 0.656258 0.492884
O O6 0.587238 0.468010 0.957582
O O7 0.868753 0.869732 0.122535
O O8 0.250571 0.411910 0.406237
O O9 0.344826 0.074274 0.682812
O O10 0.084180 0.893970 0.087721
O O11 0.462011 0.202654 0.431818
O O12 0.235842 0.801890 0.208117
O O13 0.164548 0.547242 0.056428
O O14 0.302441 0.242736 0.378877
O O15 0.031718 0.305910 0.818660
O O16 0.000000 0.500000 0.500000
O O17 0.326715 0.689122 0.026948
#
# Coordination Sequence:
#
# PCOD9035952 Si02
#       8
#     2   2   2   2   2   2   2   2
#     4  10  23  43  74 119 157 207 271 332 412 482
#     4  10  23  45  72 111 159 207 264 338 400 477
#     4   9  19  42  75 109 157 211 263 327 404 483
#     4  10  22  46  78 118 163 216 274 333 414 485
#     4  11  26  49  84 116 158 221 278 328 408 500
#     4   9  21  43  76 116 167 210 268 344 399 487
#     4  12  27  51  80 113 168 211 273 343 412 482
#     4  11  24  48  77 116 162 217 271 339 407 485
#
# _framework density 28.104955
#
# number of rings (size 3 to 8) (size 9 to 14) (size 15 to 20)
#    0.000    1.750    1.250    1.125    3.500    3.500 
#    2.250    0.625    2.750    0.000    0.000    0.000 
#    0.000    0.000    0.000    0.000    0.000    0.000 
#
# Total GULP energy -89703.319817 kJ/mol
# GULP energy per Si atom -5606.457489 kJ/mol
# Density = 2.804099 g / cm^3
# Si number density = 28.104955 Si / 1000 Ang^3
#
#
#
# Elastic Constant Matrix: (Units=GPa)
#
#
# Indices 1 2 3 4 5 6 
#
# 1 194.3720 67.6952 80.8412 -7.8892 -24.7290 -14.7113
# 2 67.6952 140.4107 49.2738 -10.7136 -7.5066 -17.3314
# 3 80.8412 49.2738 162.1851 -0.4039 -19.9127 2.7984
# 4 -7.8892 -10.7136 -0.4039 49.9002 6.7496 1.0382
# 5 -24.7290 -7.5066 -19.9127 6.7496 50.4081 1.9394
# 6 -14.7113 -17.3314 2.7984 1.0382 1.9394 51.2747
#
#
#
# Elastic Compliance Matrix: (Units=1/GPa)
#
#
# Indices 1 2 3 4 5 6 
#
# 1 0.007512 -0.002321 -0.002802 0.000349 0.002131 0.001436
# 2 -0.002321 0.009273 -0.001797 0.001663 -0.000789 0.002563
# 3 -0.002802 -0.001797 0.008368 -0.000974 0.001868 -0.001919
# 4 0.000349 0.001663 -0.000974 0.020810 -0.002768 0.000399
# 5 0.002131 -0.000789 0.001868 -0.002768 0.021895 -0.000529
# 6 0.001436 0.002563 -0.001919 0.000399 -0.000529 0.020898
#
#
# Mechanical properties :
#
#
# Convention : Reuss Voigt Hill
#
# Bulk Modulus (GPa) = 88.38839 99.17645 93.78242
# Shear Modulus (GPa) = 47.00711 50.26044 48.63377
#
# Velocity S-wave (km/s) = 4.09413 4.23343 4.16436
# Velocity P-wave (km/s) = 7.33940 7.69808 7.52088
#
# Compressibility (1/GPa) = 0.01131370
#
# Stress axis : x y z
#
# Youngs Moduli (GPa) = 133.11535 107.84444 119.49827
#
# Poissons Ratio (x) = 0.25029 0.33479
# Poissons Ratio (y) = 0.30894 0.21477
# Poissons Ratio (z) = 0.37294 0.19382
#
# Static dielectric constant tensor:
#      x y z
#    x 2.265210 0.017780 0.020800 
#    y 0.017780 2.246680 0.053690 
#    z 0.020800 0.053690 2.195310 
# 
# From -- ./inp_files/543725.got.cif
#   From: 2010.05.17/outbox.cif.g08.bks.cpg/sg2_272_cif.got.tgz:543725.got - 2010.06.03 11:33:40.
