data_PCOD9035938
_publ_section_title
;
Structure prediction by ZEFSAII (Michael W. Deem and Ramdas Pophale) SiO2 
 PCOD9035938
Probable space group: P -1
;
_chemical_formula_sum "Si O2"
_cell_formula_units_Z 14
_cell_length_a 27.495485
_cell_length_b 21.743070
_cell_length_c 9.076333
_cell_angle_alpha 36.627069
_cell_angle_beta 143.536551
_cell_angle_gamma 169.160304
_cell_volume 602.569112
_symmetry_space_group_name_H-M "P -1"
_symmetry_group_IT_number 2
_symmetry_cell_setting 'triclinic'
loop_
_space_group_symop_operation_xyz
x,y,z
-x,-y,-z
loop_
_atom_site_type_symbol
_atom_site_label
_atom_site_fract_x
_atom_site_fract_y
_atom_site_fract_z
Si Si1 0.231569 0.414718 0.198848
Si Si2 0.705517 0.689042 0.244369
Si Si3 0.139430 0.818745 0.608777
Si Si4 0.262489 0.640166 0.063934
Si Si5 0.603503 0.391262 0.395797
Si Si6 0.800867 0.215373 0.864190
Si Si7 0.314159 0.569836 0.779969
O O1 0.375317 0.488026 0.482789
O O2 0.279786 0.583153 0.074419
O O3 0.283613 0.473060 0.042112
O O4 0.919942 0.018621 0.204317
O O5 0.799628 0.712745 0.314763
O O6 0.500000 0.500000 0.000000
O O7 0.943466 0.491375 0.720062
O O8 0.963636 0.710548 0.391248
O O9 0.345180 0.075057 0.479250
O O10 0.235111 0.894102 0.860000
O O11 0.262325 0.558106 0.352940
O O12 0.000571 0.391809 0.907484
O O13 0.500000 0.000000 0.000000
O O14 0.567662 0.357678 0.200928
O O15 0.537672 0.918263 0.702661
#
# Coordination Sequence:
#
# PCOD9035938 Si02
#       7
#     2   2   2   2   2   2   2
#     4  10  25  44  70 102 137 177 229 283 344 408
#     4  10  22  46  76  95 132 182 226 289 343 397
#     4  11  24  44  64  98 143 188 225 285 336 403
#     4  11  22  44  72 100 143 183 229 285 339 413
#     4  11  24  44  70 100 139 181 229 283 344 400
#     4  11  24  40  68  97 141 190 229 276 345 404
#     4  12  26  41  66 105 139 178 232 278 342 420
#
# _framework density 23.233848999999999
#
# number of rings (size 3 to 8) (size 9 to 14) (size 15 to 20)
#    0.000    1.143    2.857    3.000    6.000    2.286 
#    0.000    0.714    0.000    0.000    0.000    0.000 
#    0.000    0.000    0.000    0.000    0.000    0.000 
#
# Total GULP energy -77947.570574 kJ/mol
# GULP energy per Si atom -5567.683612 kJ/mol
# Density = 2.318097 g / cm^3
# Si number density = 23.233849 Si / 1000 Ang^3
#
#
#
# Elastic Constant Matrix: (Units=GPa)
#
#
# Indices 1 2 3 4 5 6 
#
# 1 102.2259 42.5709 50.7396 -14.2797 -29.2914 -9.1907
# 2 42.5709 65.3099 22.1452 7.1052 -6.8208 -0.2302
# 3 50.7396 22.1452 90.6353 6.7593 -10.8044 4.1536
# 4 -14.2797 7.1052 6.7593 29.6434 3.1465 7.5835
# 5 -29.2914 -6.8208 -10.8044 3.1465 45.4983 -5.2509
# 6 -9.1907 -0.2302 4.1536 7.5835 -5.2509 42.1477
#
#
#
# Elastic Compliance Matrix: (Units=1/GPa)
#
#
# Indices 1 2 3 4 5 6 
#
# 1 0.029079 -0.015231 -0.012607 0.017645 0.012909 0.005934
# 2 -0.015231 0.025202 0.002871 -0.013109 -0.004633 -0.001685
# 3 -0.012607 0.002871 0.017884 -0.009703 -0.003130 -0.003140
# 4 0.017645 -0.013109 -0.009703 0.048131 0.003357 -0.003510
# 5 0.012909 -0.004633 -0.003130 0.003357 0.029329 0.006148
# 6 0.005934 -0.001685 -0.003140 -0.003510 0.006148 0.026718
#
#
# Mechanical properties :
#
#
# Convention : Reuss Voigt Hill
#
# Bulk Modulus (GPa) = 44.97897 54.34252 49.66074
# Shear Modulus (GPa) = 21.39629 32.97223 27.18426
#
# Velocity S-wave (km/s) = 3.03794 3.77124 3.42428
# Velocity P-wave (km/s) = 5.63087 6.51177 6.08728
#
# Compressibility (1/GPa) = 0.02223261
#
# Stress axis : x y z
#
# Youngs Moduli (GPa) = 34.38872 39.67918 55.91682
#
# Poissons Ratio (x) = 0.60434 0.70494
# Poissons Ratio (y) = 0.52376 -0.16055
# Poissons Ratio (z) = 0.43354 -0.11393
#
# Static dielectric constant tensor:
#      x y z
#    x 1.861630 -0.069980 0.014810 
#    y -0.069980 2.837660 -0.681920 
#    z 0.014810 -0.681920 2.479170 
# 
# From -- ./inp_files/359010.got.cif
#   From: 2010.05.17/outbox.cif.g08.bks.cpg/sg2_180_cif.got.tgz:359010.got - 2010.06.03 11:33:40.
