data_PCOD9035947
_publ_section_title
;
Structure prediction by ZEFSAII (Michael W. Deem and Ramdas Pophale) SiO2 
 PCOD9035947
Probable space group: P -1
;
_chemical_formula_sum "Si O2"
_cell_formula_units_Z 16
_cell_length_a 21.399045
_cell_length_b 7.214159
_cell_length_c 4.742552
_cell_angle_alpha 76.383304
_cell_angle_beta 74.504532
_cell_angle_gamma 72.470054
_cell_volume 663.125490
_symmetry_space_group_name_H-M "P -1"
_symmetry_group_IT_number 2
_symmetry_cell_setting 'triclinic'
loop_
_space_group_symop_operation_xyz
x,y,z
-x,-y,-z
loop_
_atom_site_type_symbol
_atom_site_label
_atom_site_fract_x
_atom_site_fract_y
_atom_site_fract_z
Si Si1 0.353716 0.774493 0.193039
Si Si2 0.820043 0.337514 0.815607
Si Si3 0.964341 0.684326 0.669766
Si Si4 0.745708 0.889645 0.166087
Si Si5 0.302384 0.476536 0.690258
Si Si6 0.904521 0.399484 0.203233
Si Si7 0.829940 0.940659 0.585854
Si Si8 0.573914 0.405653 0.340613
O O1 0.389225 0.786691 0.445083
O O2 0.310242 0.950034 0.997950
O O3 0.304751 0.638338 0.392605
O O4 0.415271 0.659259 0.969221
O O5 0.848865 0.458524 0.496006
O O6 0.874151 0.303170 0.016355
O O7 0.822660 0.137855 0.710494
O O8 0.751977 0.432046 0.036995
O O9 0.927339 0.587461 0.990072
O O10 0.908540 0.839758 0.507956
O O11 0.000000 0.500000 0.500000
O O12 0.027643 0.745669 0.704729
O O13 0.712614 0.715964 0.354100
O O14 0.784374 0.963356 0.351254
O O15 0.798731 0.807396 0.883841
O O16 0.377557 0.446670 0.729775
O O17 0.500000 0.500000 0.500000
#
# Coordination Sequence:
#
# PCOD9035947 Si02
#       8
#     2   2   2   2   2   2   2   2
#     4  10  24  46  73 109 156 196 249 313 364 451
#     4  12  26  48  68 114 139 196 249 321 388 453
#     4  11  26  50  69 106 141 199 255 315 389 468
#     4  12  27  48  71 113 149 200 250 325 373 442
#     4  10  28  43  82 107 156 194 262 301 385 451
#     4  11  26  45  76  94 148 187 250 306 393 456
#     4  12  30  45  72 103 154 186 257 319 387 455
#     4  10  22  46  77 111 159 207 245 303 373 449
#
# _framework density 24.128163000000001
#
# number of rings (size 3 to 8) (size 9 to 14) (size 15 to 20)
#    0.750    0.250    1.250    3.375   12.250    1.000 
#    2.250    1.250    0.000    0.000    0.000    0.000 
#    0.000    0.000    0.000    0.000    0.000    0.000 
#
# Total GULP energy -89389.400466 kJ/mol
# GULP energy per Si atom -5586.837529 kJ/mol
# Density = 2.407325 g / cm^3
# Si number density = 24.128163 Si / 1000 Ang^3
#
#
#
# Elastic Constant Matrix: (Units=GPa)
#
#
# Indices 1 2 3 4 5 6 
#
# 1 122.2926 49.0853 50.5865 4.8046 -5.4330 -14.2915
# 2 49.0853 79.8261 39.9560 1.2977 -9.6320 -8.8716
# 3 50.5865 39.9560 171.5986 2.9240 -6.9826 -6.1538
# 4 4.8046 1.2977 2.9240 24.6612 -0.6086 3.3468
# 5 -5.4330 -9.6320 -6.9826 -0.6086 58.6275 3.0176
# 6 -14.2915 -8.8716 -6.1538 3.3468 3.0176 35.6259
#
#
#
# Elastic Compliance Matrix: (Units=1/GPa)
#
#
# Indices 1 2 3 4 5 6 
#
# 1 0.011810 -0.005930 -0.001963 -0.002192 -0.000299 0.003153
# 2 -0.005930 0.017695 -0.002244 0.000345 0.002020 0.001436
# 3 -0.001963 -0.002244 0.006940 -0.000296 0.000280 -0.000143
# 4 -0.002192 0.000345 -0.000296 0.041657 0.000498 -0.004800
# 5 -0.000299 0.002020 0.000280 0.000498 0.017456 -0.001094
# 6 0.003153 0.001436 -0.000143 -0.004800 -0.001094 0.030211
#
#
# Mechanical properties :
#
#
# Convention : Reuss Voigt Hill
#
# Bulk Modulus (GPa) = 61.83673 72.55254 67.19464
# Shear Modulus (GPa) = 33.01798 39.38890 36.20344
#
# Velocity S-wave (km/s) = 3.70326 4.04479 3.87778
# Velocity P-wave (km/s) = 6.63096 7.20754 6.92525
#
# Compressibility (1/GPa) = 0.01617162
#
# Stress axis : x y z
#
# Youngs Moduli (GPa) = 84.67119 56.51458 144.09246
#
# Poissons Ratio (x) = 0.33512 0.28280
# Poissons Ratio (y) = 0.50209 0.32337
# Poissons Ratio (z) = 0.16618 0.12683
#
# Static dielectric constant tensor:
#      x y z
#    x 2.013380 -0.000430 0.005890 
#    y -0.000430 2.016580 -0.049970 
#    z 0.005890 -0.049970 1.941400 
# 
# From -- ./inp_files/116213.got.cif
#   From: 2010.05.17/outbox.cif.g08.bks.cpg/sg2_59_cif.got.tgz:116213.got - 2010.06.03 11:33:40.
