data_PCOD9035345
_publ_section_title
;
Structure prediction by ZEFSAII (Michael W. Deem and Ramdas Pophale) SiO2 
 PCOD9035345
Probable space group: P -1
;
_chemical_formula_sum "Si O2"
_cell_formula_units_Z 14
_cell_length_a 14.824660
_cell_length_b 14.812473
_cell_length_c 25.606993
_cell_angle_alpha 15.498483
_cell_angle_beta 160.156892
_cell_angle_gamma 154.959415
_cell_volume 510.028060
_symmetry_space_group_name_H-M "P -1"
_symmetry_group_IT_number 2
_symmetry_cell_setting 'triclinic'
loop_
_space_group_symop_operation_xyz
x,y,z
-x,-y,-z
loop_
_atom_site_type_symbol
_atom_site_label
_atom_site_fract_x
_atom_site_fract_y
_atom_site_fract_z
Si Si1 0.145965 0.774722 0.360799
Si Si2 0.053133 0.000758 0.768522
Si Si3 0.926923 0.376035 0.233004
Si Si4 0.977333 0.194526 0.249065
Si Si5 0.582318 0.049439 0.913183
Si Si6 0.331738 0.630240 0.384168
Si Si7 0.486419 0.831802 0.740852
O O1 0.164404 0.916858 0.351073
O O2 0.143464 0.368801 0.590375
O O3 0.359479 0.948824 0.342452
O O4 0.840323 0.883827 0.117881
O O5 0.962827 0.780026 0.793837
O O6 0.292284 0.858325 0.013910
O O7 0.034646 0.412663 0.211288
O O8 0.047511 0.613172 0.211311
O O9 0.617162 0.465908 0.012224
O O10 0.000000 0.000000 0.500000
O O11 0.658605 0.207360 0.067224
O O12 0.170432 0.870946 0.545208
O O13 0.412061 0.350296 0.626934
O O14 0.500000 0.500000 0.500000
O O15 0.424502 0.978552 0.263915
#
# Coordination Sequence:
#
# PCOD9035345 Si02
#       7
#     2   2   2   2   2   2   2
#     4   9  22  45  75 107 147 201 246 296 380 443
#     4   9  22  45  76 108 149 202 247 297 376 453
#     4  12  28  50  71 111 151 200 248 308 371 448
#     4  12  25  44  75 111 147 193 250 305 374 433
#     4  10  22  45  74 104 150 198 246 296 368 453
#     4  12  24  49  75 108 150 199 248 304 377 443
#     4  12  28  47  76 113 152 190 251 315 374 433
#
# _framework density 27.449470999999999
#
# number of rings (size 3 to 8) (size 9 to 14) (size 15 to 20)
#    0.857    0.286    2.857    2.571    2.000    1.143 
#    0.000    5.000    0.000    0.000    0.000    0.000 
#    0.000    0.000    0.000    0.000    0.000    0.000 
#
# Total GULP energy -78167.775150 kJ/mol
# GULP energy per Si atom -5583.412511 kJ/mol
# Density = 2.738699 g / cm^3
# Si number density = 27.449471 Si / 1000 Ang^3
#
#
#
# Elastic Constant Matrix: (Units=GPa)
#
#
# Indices 1 2 3 4 5 6 
#
# 1 163.1371 55.4818 54.1517 -3.7787 -18.1356 -19.4631
# 2 55.4818 82.2102 37.8690 24.5152 -22.9992 -21.9659
# 3 54.1517 37.8690 161.7895 17.2952 1.1555 -9.8186
# 4 -3.7787 24.5152 17.2952 50.4498 6.1392 -10.0191
# 5 -18.1356 -22.9992 1.1555 6.1392 49.8744 15.8987
# 6 -19.4631 -21.9659 -9.8186 -10.0191 15.8987 53.6948
#
#
#
# Elastic Compliance Matrix: (Units=1/GPa)
#
#
# Indices 1 2 3 4 5 6 
#
# 1 0.009246 -0.006626 -0.001983 0.004959 -0.000708 0.001413
# 2 -0.006626 0.024700 -0.002169 -0.012563 0.009933 0.002021
# 3 -0.001983 -0.002169 0.007521 -0.001463 -0.001717 0.000005
# 4 0.004959 -0.012563 -0.001463 0.028753 -0.008895 0.004390
# 5 -0.000708 0.009933 -0.001717 -0.008895 0.027521 -0.006316
# 6 0.001413 0.002021 0.000005 0.004390 -0.006316 0.022653
#
#
# Mechanical properties :
#
#
# Convention : Reuss Voigt Hill
#
# Bulk Modulus (GPa) = 50.22294 78.01574 64.11934
# Shear Modulus (GPa) = 33.65011 48.11275 40.88143
#
# Velocity S-wave (km/s) = 3.50507 4.19116 3.86338
# Velocity P-wave (km/s) = 5.89211 7.20447 6.58108
#
# Compressibility (1/GPa) = 0.01991122
#
# Stress axis : x y z
#
# Youngs Moduli (GPa) = 108.15168 40.48631 132.95615
#
# Poissons Ratio (x) = 0.26826 0.26368
# Poissons Ratio (y) = 0.71660 0.28838
# Poissons Ratio (z) = 0.21448 0.08781
#
# Static dielectric constant tensor:
#      x y z
#    x 2.170660 0.071750 -0.051290 
#    y 0.071750 2.275920 -0.009020 
#    z -0.051290 -0.009020 2.160810 
# 
# From -- ./inp_files/612091.got.cif
#   From: 2010.05.17/outbox.cif.g08.bks.cpg/sg2_307_cif.got.tgz:612091.got - 2010.06.03 11:33:40.
