data_PCOD9035673
_publ_section_title
;
Structure prediction by ZEFSAII (Michael W. Deem and Ramdas Pophale) SiO2 
 PCOD9035673
Probable space group: P -1
;
_chemical_formula_sum "Si O2"
_cell_formula_units_Z 16
_cell_length_a 11.445011
_cell_length_b 5.584866
_cell_length_c 12.766390
_cell_angle_alpha 93.828344
_cell_angle_beta 53.269232
_cell_angle_gamma 78.134604
_cell_volume 621.014448
_symmetry_space_group_name_H-M "P -1"
_symmetry_group_IT_number 2
_symmetry_cell_setting 'triclinic'
loop_
_space_group_symop_operation_xyz
x,y,z
-x,-y,-z
loop_
_atom_site_type_symbol
_atom_site_label
_atom_site_fract_x
_atom_site_fract_y
_atom_site_fract_z
Si Si1 0.609784 0.634486 0.385379
Si Si2 0.741175 0.182211 0.151589
Si Si3 0.817987 0.112957 0.589372
Si Si4 0.436642 0.274722 0.986756
Si Si5 0.526372 0.024051 0.717322
Si Si6 0.009931 0.049520 0.836082
Si Si7 0.867627 0.434868 0.747411
Si Si8 0.136244 0.578775 0.611390
O O1 0.500000 0.500000 0.500000
O O2 0.515444 0.872867 0.375053
O O3 0.733299 0.641690 0.407930
O O4 0.705983 0.443023 0.239507
O O5 0.575832 0.157635 0.213439
O O6 0.841333 0.969278 0.173312
O O7 0.857324 0.136505 0.991212
O O8 0.708396 0.936742 0.638873
O O9 0.781111 0.296256 0.714035
O O10 0.785080 0.276606 0.506202
O O11 0.000000 0.000000 0.500000
O O12 0.464153 0.236001 0.846824
O O13 0.500000 0.500000 0.000000
O O14 0.258198 0.360404 0.114474
O O15 0.500000 0.000000 0.000000
O O16 0.974233 0.239780 0.765582
O O17 0.049141 0.775805 0.753884
O O18 0.995604 0.527963 0.624972
#
# Coordination Sequence:
#
# PCOD9035673 Si02
#       8
#     2   2   2   2   2   2   2   2
#     4  11  24  45  69 105 144 185 253 313 387 451
#     4  10  24  42  75 104 142 187 241 314 384 456
#     4  12  26  45  67 104 147 198 257 309 377 467
#     4  12  30  50  78 114 155 206 260 321 390 463
#     4  12  26  46  74 105 149 196 251 320 381 464
#     4  10  22  46  70 108 139 183 247 310 380 459
#     4  12  25  44  75  98 147 195 249 313 387 449
#     4  11  24  45  70 100 143 190 247 318 376 462
#
# _framework density 25.764295000000001
#
# number of rings (size 3 to 8) (size 9 to 14) (size 15 to 20)
#    0.000    0.750    3.750    2.625    7.000    1.500 
#    0.000    5.000    0.000    0.000    0.000    0.000 
#    0.000    0.000    0.000    0.000    0.000    0.000 
#
# Total GULP energy -89546.060032 kJ/mol
# GULP energy per Si atom -5596.628752 kJ/mol
# Density = 2.570565 g / cm^3
# Si number density = 25.764295 Si / 1000 Ang^3
#
#
#
# Elastic Constant Matrix: (Units=GPa)
#
#
# Indices 1 2 3 4 5 6 
#
# 1 149.2229 29.0257 42.8658 -8.1570 -24.0816 10.5329
# 2 29.0257 66.3825 14.1355 4.0102 -8.6563 -6.9363
# 3 42.8658 14.1355 102.4204 4.1102 -3.0285 -17.1660
# 4 -8.1570 4.0102 4.1102 36.5021 0.0637 -6.3106
# 5 -24.0816 -8.6563 -3.0285 0.0637 57.8403 -2.7901
# 6 10.5329 -6.9363 -17.1660 -6.3106 -2.7901 32.7798
#
#
#
# Elastic Compliance Matrix: (Units=1/GPa)
#
#
# Indices 1 2 3 4 5 6 
#
# 1 0.009677 -0.003595 -0.004481 0.002096 0.002986 -0.005559
# 2 -0.003595 0.017407 -0.000015 -0.001926 0.001330 0.004573
# 3 -0.004481 -0.000015 0.012996 -0.001085 -0.000802 0.007966
# 4 0.002096 -0.001926 -0.001085 0.028883 0.000687 0.003970
# 5 0.002986 0.001330 -0.000802 0.000687 0.018719 0.000628
# 6 -0.005559 0.004573 0.007966 0.003970 0.000628 0.038250
#
#
# Mechanical properties :
#
#
# Convention : Reuss Voigt Hill
#
# Bulk Modulus (GPa) = 41.84512 54.45331 48.14921
# Shear Modulus (GPa) = 33.31575 40.89104 37.10340
#
# Velocity S-wave (km/s) = 3.59987 3.98819 3.79899
# Velocity P-wave (km/s) = 5.79271 6.51065 6.16215
#
# Compressibility (1/GPa) = 0.02389765
#
# Stress axis : x y z
#
# Youngs Moduli (GPa) = 103.33999 57.44838 76.94575
#
# Poissons Ratio (x) = 0.20653 0.34483
# Poissons Ratio (y) = 0.37151 0.00113
# Poissons Ratio (z) = 0.46311 0.00084
#
# Static dielectric constant tensor:
#      x y z
#    x 2.002470 0.015230 0.002130 
#    y 0.015230 2.074340 0.001750 
#    z 0.002130 0.001750 2.033960 
# 
# From -- ./inp_files/428578.got.cif
#   From: 2010.05.17/outbox.cif.g08.bks.cpg/sg2_215_cif.got.tgz:428578.got - 2010.06.03 11:33:40.
