data_PCOD9035809
_publ_section_title
;
Structure prediction by ZEFSAII (Michael W. Deem and Ramdas Pophale) SiO2 
 PCOD9035809
Probable space group: P -1
;
_chemical_formula_sum "Si O2"
_cell_formula_units_Z 14
_cell_length_a 11.471230
_cell_length_b 7.121315
_cell_length_c 11.330723
_cell_angle_alpha 122.550597
_cell_angle_beta 131.022312
_cell_angle_gamma 57.246239
_cell_volume 562.357936
_symmetry_space_group_name_H-M "P -1"
_symmetry_group_IT_number 2
_symmetry_cell_setting 'triclinic'
loop_
_space_group_symop_operation_xyz
x,y,z
-x,-y,-z
loop_
_atom_site_type_symbol
_atom_site_label
_atom_site_fract_x
_atom_site_fract_y
_atom_site_fract_z
Si Si1 0.761385 0.645834 0.742169
Si Si2 0.549548 0.586124 0.186392
Si Si3 0.108627 0.770358 0.655391
Si Si4 0.055208 0.280558 0.694738
Si Si5 0.234606 0.517314 0.056236
Si Si6 0.565211 0.064322 0.441285
Si Si7 0.874717 0.992402 0.766629
O O1 0.776928 0.637142 0.890332
O O2 0.809789 0.848330 0.772027
O O3 0.885831 0.412999 0.692456
O O4 0.569764 0.703983 0.610902
O O5 0.718922 0.418858 0.287986
O O6 0.406947 0.563023 0.170795
O O7 0.561740 0.849359 0.281608
O O8 0.500000 0.500000 0.000000
O O9 0.986399 0.691306 0.461067
O O10 0.035550 0.838859 0.759208
O O11 0.116526 0.010863 0.681313
O O12 0.183567 0.401670 0.869260
O O13 0.113161 0.771792 0.087731
O O14 0.743714 0.065059 0.596514
O O15 0.500000 0.000000 0.500000
#
# Coordination Sequence:
#
# PCOD9035809 Si02
#       7
#     2   2   2   2   2   2   2
#     4  11  24  45  80 107 148 196 257 303 368 451
#     4  12  29  49  75 113 153 200 249 311 383 443
#     4  11  27  51  74 112 159 196 246 313 382 451
#     4  11  27  46  75 116 151 198 250 306 386 443
#     4  12  27  49  75 112 148 198 257 307 368 447
#     4  10  22  46  72 112 146 194 254 301 371 449
#     4  11  25  47  81 110 150 199 253 313 373 443
#
# _framework density 24.895178999999999
#
# number of rings (size 3 to 8) (size 9 to 14) (size 15 to 20)
#    0.000    0.857    4.286    2.143    6.000    5.143 
#    0.000    0.000    0.000    0.000    0.000    0.000 
#    0.000    0.000    0.000    0.000    0.000    0.000 
#
# Total GULP energy -78474.829681 kJ/mol
# GULP energy per Si atom -5605.344977 kJ/mol
# Density = 2.483852 g / cm^3
# Si number density = 24.895179 Si / 1000 Ang^3
#
#
#
# Elastic Constant Matrix: (Units=GPa)
#
#
# Indices 1 2 3 4 5 6 
#
# 1 89.7752 31.4593 27.3748 -11.6862 3.8827 3.6099
# 2 31.4593 86.6801 6.6733 -21.7386 20.4854 -13.5932
# 3 27.3748 6.6733 113.2007 7.8493 4.2641 7.1262
# 4 -11.6862 -21.7386 7.8493 34.6924 1.7294 -0.6186
# 5 3.8827 20.4854 4.2641 1.7294 39.1188 -1.7049
# 6 3.6099 -13.5932 7.1262 -0.6186 -1.7049 49.3094
#
#
#
# Elastic Compliance Matrix: (Units=1/GPa)
#
#
# Indices 1 2 3 4 5 6 
#
# 1 0.014166 -0.004916 -0.003231 0.002323 0.001337 -0.001850
# 2 -0.004916 0.019408 -0.000718 0.011259 -0.009850 0.005615
# 3 -0.003231 -0.000718 0.010026 -0.003818 -0.000291 -0.001468
# 4 0.002323 0.011259 -0.003818 0.037953 -0.007226 0.003712
# 5 0.001337 -0.009850 -0.000291 -0.007226 0.030862 -0.001795
# 6 -0.001850 0.005615 -0.001468 0.003712 -0.001795 0.022160
#
#
# Mechanical properties :
#
#
# Convention : Reuss Voigt Hill
#
# Bulk Modulus (GPa) = 38.65623 46.74119 42.69871
# Shear Modulus (GPa) = 31.06978 39.56737 35.31857
#
# Velocity S-wave (km/s) = 3.53657 3.99100 3.77064
# Velocity P-wave (km/s) = 5.67783 6.32878 6.01212
#
# Compressibility (1/GPa) = 0.02586905
#
# Stress axis : x y z
#
# Youngs Moduli (GPa) = 70.59297 51.52396 99.74390
#
# Poissons Ratio (x) = 0.25330 0.32225
# Poissons Ratio (y) = 0.34705 0.07165
# Poissons Ratio (z) = 0.22807 0.03701
#
# Static dielectric constant tensor:
#      x y z
#    x 1.957230 -0.007510 0.023070 
#    y -0.007510 1.972720 -0.001370 
#    z 0.023070 -0.001370 1.969590 
# 
# From -- ./inp_files/418484.got.cif
#   From: 2010.05.17/outbox.cif.g08.bks.cpg/sg2_210_cif.got.tgz:418484.got - 2010.06.03 11:33:40.
