data_PCOD9035334
_publ_section_title
;
Structure prediction by ZEFSAII (Michael W. Deem and Ramdas Pophale) SiO2 
 PCOD9035334
Probable space group: P -1
;
_chemical_formula_sum "Si O2"
_cell_formula_units_Z 16
_cell_length_a 17.527607
_cell_length_b 9.490818
_cell_length_c 5.513607
_cell_angle_alpha 100.443973
_cell_angle_beta 110.084440
_cell_angle_gamma 53.842189
_cell_volume 695.229875
_symmetry_space_group_name_H-M "P -1"
_symmetry_group_IT_number 2
_symmetry_cell_setting 'triclinic'
loop_
_space_group_symop_operation_xyz
x,y,z
-x,-y,-z
loop_
_atom_site_type_symbol
_atom_site_label
_atom_site_fract_x
_atom_site_fract_y
_atom_site_fract_z
Si Si1 0.744003 0.256954 0.675941
Si Si2 0.635752 0.256467 0.948351
Si Si3 0.425192 0.428433 0.657687
Si Si4 0.037372 0.894918 0.258401
Si Si5 0.883193 0.583939 0.369882
Si Si6 0.283477 0.026072 0.686606
Si Si7 0.922501 0.450257 0.870908
Si Si8 0.559212 0.909605 0.287430
O O1 0.735588 0.221645 0.935539
O O2 0.654326 0.459392 0.602129
O O3 0.843961 0.217600 0.667689
O O4 0.730464 0.113072 0.498892
O O5 0.541842 0.325870 0.688927
O O6 0.599329 0.414689 0.142364
O O7 0.659860 0.080757 0.042073
O O8 0.411832 0.287474 0.723182
O O9 0.012601 0.753729 0.175601
O O10 0.000000 0.000000 0.500000
O O11 0.000000 0.000000 0.000000
O O12 0.856268 0.544378 0.590164
O O13 0.000000 0.500000 0.500000
O O14 0.819720 0.790479 0.324175
O O15 0.869618 0.498161 0.090819
O O16 0.349598 0.071891 0.625616
O O17 0.000000 0.500000 0.000000
O O18 0.500000 0.000000 0.500000
O O19 0.500000 0.000000 0.000000
#
# Coordination Sequence:
#
# PCOD9035334 Si02
#       8
#     2   2   2   2   2   2   2   2
#     4  11  27  43  75 103 147 195 252 299 370 442
#     4  10  22  45  74 102 142 192 243 300 365 436
#     4  10  23  44  70 105 145 185 242 299 371 432
#     4  12  30  49  75 106 150 193 253 311 367 442
#     4  10  24  42  72 102 143 182 239 295 365 427
#     4  11  26  43  73 108 141 197 248 297 368 446
#     4  10  24  45  72 100 138 190 235 298 374 425
#     4  12  27  46  72 107 147 187 240 303 370 431
#
# _framework density 23.013968999999999
#
# number of rings (size 3 to 8) (size 9 to 14) (size 15 to 20)
#    0.000    1.250    1.250    1.875   15.750    1.000 
#    0.000    0.000    0.000    0.000    0.000    0.000 
#    0.000    0.000    0.000    0.000    0.000    0.000 
#
# Total GULP energy -89319.555528 kJ/mol
# GULP energy per Si atom -5582.472220 kJ/mol
# Density = 2.296159 g / cm^3
# Si number density = 23.013969 Si / 1000 Ang^3
#
#
#
# Elastic Constant Matrix: (Units=GPa)
#
#
# Indices 1 2 3 4 5 6 
#
# 1 105.0546 34.3855 12.9866 -6.9645 -14.1890 0.8113
# 2 34.3855 174.8940 59.4263 -17.1754 -8.0687 12.9423
# 3 12.9866 59.4263 131.0027 -1.9885 -26.9497 -3.5174
# 4 -6.9645 -17.1754 -1.9885 32.4573 1.8329 -5.8654
# 5 -14.1890 -8.0687 -26.9497 1.8329 27.0578 1.7814
# 6 0.8113 12.9423 -3.5174 -5.8654 1.7814 44.0427
#
#
#
# Elastic Compliance Matrix: (Units=1/GPa)
#
#
# Indices 1 2 3 4 5 6 
#
# 1 0.011000 -0.002228 0.001229 0.000982 0.006233 0.000429
# 2 -0.002228 0.007821 -0.003912 0.003213 -0.002817 -0.002028
# 3 0.001229 -0.003912 0.011565 -0.001464 0.011003 0.001411
# 4 0.000982 0.003213 -0.001464 0.033398 -0.002476 0.003469
# 5 0.006233 -0.002817 0.011003 -0.002476 0.050565 -0.000783
# 6 0.000429 -0.002028 0.001411 0.003469 -0.000783 0.023899
#
#
# Mechanical properties :
#
#
# Convention : Reuss Voigt Hill
#
# Bulk Modulus (GPa) = 48.62861 69.39424 59.01142
# Shear Modulus (GPa) = 32.27370 40.98844 36.63107
#
# Velocity S-wave (km/s) = 3.74886 4.22480 3.99393
# Velocity P-wave (km/s) = 6.31780 7.34963 6.85316
#
# Compressibility (1/GPa) = 0.02056403
#
# Stress axis : x y z
#
# Youngs Moduli (GPa) = 90.91043 127.86656 86.46480
#
# Poissons Ratio (x) = 0.28488 -0.10626
# Poissons Ratio (y) = 0.20254 0.33824
# Poissons Ratio (z) = -0.11172 0.50020
#
# Static dielectric constant tensor:
#      x y z
#    x 1.896830 -0.010410 -0.002110 
#    y -0.010410 1.823700 -0.007560 
#    z -0.002110 -0.007560 1.918580 
# 
# From -- ./inp_files/106987.got.cif
#   From: 2010.05.17/outbox.cif.g08.bks.cpg/sg2_54_cif.got.tgz:106987.got - 2010.06.03 11:33:40.
