data_PCOD9035243
_publ_section_title
;
Structure prediction by ZEFSAII (Michael W. Deem and Ramdas Pophale) SiO2 
 PCOD9035243
Probable space group: P -1
;
_chemical_formula_sum "Si O2"
_cell_formula_units_Z 16
_cell_length_a 11.617797
_cell_length_b 19.484163
_cell_length_c 16.713610
_cell_angle_alpha 157.949118
_cell_angle_beta 35.920807
_cell_angle_gamma 132.109858
_cell_volume 776.325326
_symmetry_space_group_name_H-M "P -1"
_symmetry_group_IT_number 2
_symmetry_cell_setting 'triclinic'
loop_
_space_group_symop_operation_xyz
x,y,z
-x,-y,-z
loop_
_atom_site_type_symbol
_atom_site_label
_atom_site_fract_x
_atom_site_fract_y
_atom_site_fract_z
Si Si1 0.358580 0.777192 0.179875
Si Si2 0.080363 0.609214 0.641567
Si Si3 0.388429 0.229504 0.132839
Si Si4 0.082529 0.224085 0.863979
Si Si5 0.333766 0.204188 0.845447
Si Si6 0.595060 0.185326 0.313715
Si Si7 0.832928 0.550476 0.079879
Si Si8 0.390801 0.728295 0.787201
O O1 0.539108 0.708695 0.072595
O O2 0.220455 0.003152 0.520255
O O3 0.462844 0.766705 0.022204
O O4 0.225618 0.638149 0.109776
O O5 0.196690 0.439287 0.458555
O O6 0.251618 0.703103 0.624960
O O7 0.000000 0.500000 0.500000
O O8 0.871852 0.787568 0.980352
O O9 0.519947 0.186966 0.096036
O O10 0.313969 0.045749 0.968723
O O11 0.216687 0.298488 0.932248
O O12 0.056407 0.372282 0.967623
O O13 0.860245 0.218507 0.011417
O O14 0.500000 0.000000 0.500000
O O15 0.379780 0.280619 0.586941
O O16 0.557787 0.224316 0.280849
O O17 0.000000 0.500000 0.000000
O O18 0.500000 0.500000 0.500000
#
# Coordination Sequence:
#
# PCOD9035243 Si02
#       8
#     2   2   2   2   2   2   2   2
#     4  11  23  45  67  99 135 178 222 284 340 405
#     4  12  23  46  71  98 137 183 227 285 340 405
#     4  12  24  41  70  99 137 180 229 279 343 412
#     4  11  24  43  69  96 136 177 223 282 346 401
#     4  10  22  45  72  96 137 177 227 284 343 401
#     4  12  25  44  67 103 137 179 229 280 345 412
#     4  12  25  41  69  99 135 182 228 274 342 412
#     4  12  23  45  68  96 140 179 225 289 342 408
#
# _framework density 20.609915000000001
#
# number of rings (size 3 to 8) (size 9 to 14) (size 15 to 20)
#    0.000    0.500    6.250    1.875    1.750    2.000 
#    4.500    1.250    0.000    0.000    0.000    0.000 
#    0.000    0.000    0.000    0.000    0.000    0.000 
#
# Total GULP energy -89259.949436 kJ/mol
# GULP energy per Si atom -5578.746840 kJ/mol
# Density = 2.056301 g / cm^3
# Si number density = 20.609915 Si / 1000 Ang^3
#
#
#
# Elastic Constant Matrix: (Units=GPa)
#
#
# Indices 1 2 3 4 5 6 
#
# 1 65.4441 -38.7463 -52.0883 24.6947 9.2974 30.4282
# 2 -38.7463 22.9814 -22.0477 39.3380 7.3795 20.0836
# 3 -52.0883 -22.0477 13.2576 17.8427 7.8116 21.0989
# 4 24.6947 39.3380 17.8427 24.2451 -2.5243 -1.7168
# 5 9.2974 7.3795 7.8116 -2.5243 28.4728 -6.4022
# 6 30.4282 20.0836 21.0989 -1.7168 -6.4022 34.1670
#
#
#
# Elastic Compliance Matrix: (Units=1/GPa)
#
#
# Indices 1 2 3 4 5 6 
#
# 1 0.005686 -0.007044 -0.002285 0.007560 0.001525 0.001154
# 2 -0.007044 0.014071 -0.015351 -0.003323 0.004401 0.008140
# 3 -0.002285 -0.015351 0.016973 0.015047 0.001777 0.001666
# 4 0.007560 -0.003323 0.015047 0.026190 -0.006558 -0.013984
# 5 0.001525 0.004401 0.001777 -0.006558 0.032578 0.000732
# 6 0.001154 0.008140 0.001666 -0.013984 0.000732 0.021862
#
#
# Mechanical properties :
#
#
# Convention : Reuss Voigt Hill
#
# Bulk Modulus (GPa) = -79.16994 -13.78682 -46.47838
# Shear Modulus (GPa) = 30.76743 31.68135 31.22439
#
# Velocity S-wave (km/s) = 3.86793 3.92495 3.89655
# Velocity P-wave (km/s) = 4.30687 3.71973 1.53504
#
# Compressibility (1/GPa) = -0.01263106
#
# Stress axis : x y z
#
# Youngs Moduli (GPa) = 175.87981 71.07031 58.91709
#
# Poissons Ratio (x) = 0.50062 0.13460
# Poissons Ratio (y) = 1.23891 0.90446
# Poissons Ratio (z) = 0.40182 1.09103
#
# Static dielectric constant tensor:
#      x y z
#    x 1.788040 -0.002860 0.041710 
#    y -0.002860 1.701710 -0.011460 
#    z 0.041710 -0.011460 1.780700 
# 
# From -- ./inp_files/273101.got.cif
#   From: 2010.05.17/outbox.cif.g08.bks.cpg/sg2_137_cif.got.tgz:273101.got - 2010.06.03 11:33:40.
