data_PCOD9035371
_publ_section_title
;
Structure prediction by ZEFSAII (Michael W. Deem and Ramdas Pophale) SiO2 
 PCOD9035371
Probable space group: P -1
;
_chemical_formula_sum "Si O2"
_cell_formula_units_Z 16
_cell_length_a 17.483986
_cell_length_b 5.366581
_cell_length_c 26.361790
_cell_angle_alpha 56.513428
_cell_angle_beta 19.021008
_cell_angle_gamma 62.667039
_cell_volume 654.354899
_symmetry_space_group_name_H-M "P -1"
_symmetry_group_IT_number 2
_symmetry_cell_setting 'triclinic'
loop_
_space_group_symop_operation_xyz
x,y,z
-x,-y,-z
loop_
_atom_site_type_symbol
_atom_site_label
_atom_site_fract_x
_atom_site_fract_y
_atom_site_fract_z
Si Si1 0.372211 0.330153 0.148801
Si Si2 0.583785 0.749221 0.067525
Si Si3 0.577524 0.442033 0.400424
Si Si4 0.863261 0.978776 0.320131
Si Si5 0.700753 0.796549 0.549225
Si Si6 0.213157 0.362080 0.858169
Si Si7 0.571841 0.127464 0.195802
Si Si8 0.107855 0.757796 0.491630
O O1 0.083735 0.297945 0.335377
O O2 0.500000 0.500000 0.000000
O O3 0.485929 0.548461 0.100931
O O4 0.421295 0.987928 0.155166
O O5 0.603660 0.484280 0.125360
O O6 0.853447 0.958515 0.871661
O O7 0.500000 0.500000 0.500000
O O8 0.314607 0.334818 0.551001
O O9 0.738102 0.636297 0.233107
O O10 0.746065 0.205523 0.334168
O O11 0.824432 0.998551 0.402491
O O12 0.459909 0.575982 0.701424
O O13 0.591150 0.968168 0.641643
O O14 0.866865 0.590699 0.494360
O O15 0.202372 0.021301 0.924336
O O16 0.000000 0.500000 0.000000
O O17 0.385934 0.937791 0.294235
O O18 0.000000 0.000000 0.500000
#
# Coordination Sequence:
#
# PCOD9035371 Si02
#       8
#     2   2   2   2   2   2   2   2
#     4  12  28  47  73 108 146 197 251 313 381 444
#     4  12  28  46  72 109 150 191 249 316 380 447
#     4  10  22  45  75 100 139 197 249 299 379 456
#     4  10  24  44  68 103 141 189 244 309 367 455
#     4  10  23  43  70 101 139 191 245 299 382 445
#     4  10  24  45  71 108 147 185 247 317 379 449
#     4  11  25  43  73 102 143 199 243 306 378 453
#     4  11  23  44  68  99 143 190 245 300 362 455
#
# _framework density 24.451563
#
# number of rings (size 3 to 8) (size 9 to 14) (size 15 to 20)
#    0.000    1.250    1.250    2.625    8.750    1.500 
#    4.500    0.000    0.000    0.000    0.000    0.000 
#    0.000    0.000    0.000    0.000    0.000    0.000 
#
# Total GULP energy -89160.179214 kJ/mol
# GULP energy per Si atom -5572.511201 kJ/mol
# Density = 2.439591 g / cm^3
# Si number density = 24.451563 Si / 1000 Ang^3
#
#
#
# Elastic Constant Matrix: (Units=GPa)
#
#
# Indices 1 2 3 4 5 6 
#
# 1 94.1262 32.3830 33.1728 2.4223 15.5266 -1.3677
# 2 32.3830 151.5843 40.4983 32.4682 2.7211 -18.2172
# 3 33.1728 40.4983 125.1548 13.7737 -6.2614 4.3990
# 4 2.4223 32.4682 13.7737 39.9763 2.8169 4.5489
# 5 15.5266 2.7211 -6.2614 2.8169 40.9521 -5.4890
# 6 -1.3677 -18.2172 4.3990 4.5489 -5.4890 35.7281
#
#
#
# Elastic Compliance Matrix: (Units=1/GPa)
#
#
# Indices 1 2 3 4 5 6 
#
# 1 0.013632 -0.002847 -0.003282 0.003247 -0.005953 -0.001854
# 2 -0.002847 0.010257 -0.001793 -0.008410 0.001594 0.006657
# 3 -0.003282 -0.001793 0.009827 -0.001744 0.002771 -0.001602
# 4 0.003247 -0.008410 -0.001744 0.033576 -0.004442 -0.008907
# 5 -0.005953 0.001594 0.002771 -0.004442 0.027984 0.005109
# 6 -0.001854 0.006657 -0.001602 -0.008907 0.005109 0.033429
#
#
# Mechanical properties :
#
#
# Convention : Reuss Voigt Hill
#
# Bulk Modulus (GPa) = 55.95339 64.77481 60.36410
# Shear Modulus (GPa) = 33.22144 40.98540 37.10342
#
# Velocity S-wave (km/s) = 3.69000 4.09857 3.89964
# Velocity P-wave (km/s) = 6.40998 6.99616 6.70948
#
# Compressibility (1/GPa) = 0.01787202
#
# Stress axis : x y z
#
# Youngs Moduli (GPa) = 73.35950 97.49370 101.75955
#
# Poissons Ratio (x) = 0.27753 0.33397
# Poissons Ratio (y) = 0.20883 0.18247
# Poissons Ratio (z) = 0.24076 0.17482
#
# Static dielectric constant tensor:
#      x y z
#    x 6.241670 0.876210 -0.269190 
#    y 0.876210 2.188060 -0.080970 
#    z -0.269190 -0.080970 1.971520 
# 
# From -- ./inp_files/620130.got.cif
#   From: 2010.05.17/outbox.cif.g08.bks.cpg/sg2_311_cif.got.tgz:620130.got - 2010.06.03 11:33:40.
