data_PCOD9035813
_publ_section_title
;
Structure prediction by ZEFSAII (Michael W. Deem and Ramdas Pophale) SiO2 
 PCOD9035813
Probable space group: P -1
;
_chemical_formula_sum "Si O2"
_cell_formula_units_Z 15
_cell_length_a 6.275760
_cell_length_b 11.496384
_cell_length_c 11.521795
_cell_angle_alpha 87.773243
_cell_angle_beta 50.891799
_cell_angle_gamma 77.869758
_cell_volume 625.807027
_symmetry_space_group_name_H-M "P -1"
_symmetry_group_IT_number 2
_symmetry_cell_setting 'triclinic'
loop_
_space_group_symop_operation_xyz
x,y,z
-x,-y,-z
loop_
_atom_site_type_symbol
_atom_site_label
_atom_site_fract_x
_atom_site_fract_y
_atom_site_fract_z
Si Si1 0.705942 0.038344 0.166946
Si Si2 0.665352 0.797954 0.158616
Si Si3 0.743728 0.614632 0.947975
Si Si4 0.688403 0.715484 0.711586
Si Si5 0.608264 0.609969 0.510981
Si Si6 0.500000 0.000000 0.500000
Si Si7 0.778103 0.186630 0.510158
Si Si8 0.080847 0.634551 0.177253
O O1 0.562086 0.938305 0.163981
O O2 0.670458 0.020365 0.318277
O O3 0.582666 0.177328 0.178433
O O4 0.000000 0.000000 0.000000
O O5 0.396625 0.766449 0.314682
O O6 0.910541 0.758782 0.174013
O O7 0.793866 0.717869 0.009485
O O8 0.784048 0.650060 0.800705
O O9 0.923892 0.478313 0.901430
O O10 0.410721 0.622315 0.081569
O O11 0.635667 0.621334 0.638377
O O12 0.916257 0.787393 0.585964
O O13 0.500000 0.500000 0.500000
O O14 0.386367 0.728274 0.538640
O O15 0.905354 0.616291 0.351291
O O16 0.278549 0.941067 0.499951
#
# Coordination Sequence:
#
# PCOD9035813 Si02
#       8
#     2   2   2   2   2   1   2   2
#     4  11  25  45  70 102 144 183 241 290 354 433
#     4  10  23  43  65  98 130 190 228 284 350 420
#     4  11  24  40  66 101 140 175 232 292 351 425
#     4  12  26  44  68 107 139 183 232 298 358 425
#     4  11  24  44  70  98 137 185 231 294 354 424
#     4  10  22  46  72  96 140 194 232 294 348 418
#     4  10  23  44  69  98 137 183 242 285 353 424
#     4  10  23  43  66  95 133 185 230 291 346 423
#
# _framework density 23.969049999999999
#
# number of rings (size 3 to 8) (size 9 to 14) (size 15 to 20)
#    0.000    1.333    1.333    2.800    1.867   12.267 
#    9.600    0.000    0.000    0.000    0.000    0.000 
#    0.000    0.000    0.000    0.000    0.000    0.000 
#
# Total GULP energy -83524.564097 kJ/mol
# GULP energy per Si atom -5568.304273 kJ/mol
# Density = 2.391450 g / cm^3
# Si number density = 23.969050 Si / 1000 Ang^3
#
#
#
# Elastic Constant Matrix: (Units=GPa)
#
#
# Indices 1 2 3 4 5 6 
#
# 1 35.4079 24.0787 24.8024 4.2276 8.9072 16.1770
# 2 24.0787 77.1797 14.9416 10.0073 9.7652 18.3546
# 3 24.8024 14.9416 89.1667 -5.2801 -7.7717 -1.4403
# 4 4.2276 10.0073 -5.2801 35.7415 3.8665 1.3971
# 5 8.9072 9.7652 -7.7717 3.8665 50.5387 4.7817
# 6 16.1770 18.3546 -1.4403 1.3971 4.7817 25.4679
#
#
#
# Elastic Compliance Matrix: (Units=1/GPa)
#
#
# Indices 1 2 3 4 5 6 
#
# 1 0.065135 -0.006121 -0.018861 -0.006365 -0.009311 -0.035931
# 2 -0.006121 0.018011 -0.001833 -0.004083 -0.001549 -0.008681
# 3 -0.018861 -0.001833 0.017656 0.004317 0.004818 0.013158
# 4 -0.006365 -0.004083 0.004317 0.030323 -0.000277 0.005618
# 5 -0.009311 -0.001549 0.004818 -0.000277 0.022191 0.003152
# 6 -0.035931 -0.008681 0.013158 0.005618 0.003152 0.068189
#
#
# Mechanical properties :
#
#
# Convention : Reuss Voigt Hill
#
# Bulk Modulus (GPa) = 21.19842 36.59994 28.89918
# Shear Modulus (GPa) = 17.19050 31.54505 24.36778
#
# Velocity S-wave (km/s) = 2.68096 3.63171 3.19193
# Velocity P-wave (km/s) = 4.29496 5.73486 5.06632
#
# Compressibility (1/GPa) = 0.04717334
#
# Stress axis : x y z
#
# Youngs Moduli (GPa) = 15.35282 55.52100 56.63667
#
# Poissons Ratio (x) = 0.33985 1.06821
# Poissons Ratio (y) = 0.09398 0.10379
# Poissons Ratio (z) = 0.28957 0.10174
#
# Static dielectric constant tensor:
#      x y z
#    x 1.961670 0.059410 -0.007080 
#    y 0.059410 1.972780 -0.020020 
#    z -0.007080 -0.020020 1.920800 
# 
# From -- ./inp_files/90535.got.cif
#   From: 2010.05.17/outbox.cif.g08.bks.cpg/sg2_46_cif.got.tgz:90535.got - 2010.06.03 11:33:40.
