data_PCOD9035847
_publ_section_title
;
Structure prediction by ZEFSAII (Michael W. Deem and Ramdas Pophale) SiO2 
 PCOD9035847
Probable space group: P -1
;
_chemical_formula_sum "Si O2"
_cell_formula_units_Z 14
_cell_length_a 10.981721
_cell_length_b 12.994126
_cell_length_c 5.693283
_cell_angle_alpha 98.033953
_cell_angle_beta 75.433614
_cell_angle_gamma 47.049778
_cell_volume 517.058417
_symmetry_space_group_name_H-M "P -1"
_symmetry_group_IT_number 2
_symmetry_cell_setting 'triclinic'
loop_
_space_group_symop_operation_xyz
x,y,z
-x,-y,-z
loop_
_atom_site_type_symbol
_atom_site_label
_atom_site_fract_x
_atom_site_fract_y
_atom_site_fract_z
Si Si1 0.536815 0.702865 0.012380
Si Si2 0.638345 0.785866 0.358700
Si Si3 0.648796 0.449962 0.217156
Si Si4 0.042361 0.869960 0.281841
Si Si5 0.273602 0.962635 0.891273
Si Si6 0.821177 0.819638 0.624027
Si Si7 0.141512 0.518383 0.599213
O O1 0.812872 0.602541 0.285049
O O2 0.248500 0.697500 0.046009
O O3 0.695200 0.579453 0.706052
O O4 0.593466 0.781357 0.114373
O O5 0.690784 0.860681 0.485794
O O6 0.548521 0.142159 0.400582
O O7 0.500000 0.500000 0.500000
O O8 0.450606 0.395554 0.831981
O O9 0.824593 0.397216 0.244353
O O10 0.956235 0.826041 0.458237
O O11 0.909090 0.957045 0.141257
O O12 0.000000 0.000000 0.500000
O O13 0.338376 0.843555 0.024715
O O14 0.264632 0.077024 0.068205
O O15 0.943834 0.648152 0.606969
#
# Coordination Sequence:
#
# PCOD9035847 Si02
#       7
#     2   2   2   2   2   2   2
#     4  10  23  48  74 115 148 196 254 312 382 453
#     4  10  24  43  78 117 150 201 246 315 377 467
#     4  11  25  51  80 107 151 208 266 315 381 456
#     4  12  29  51  77 113 155 205 262 323 380 452
#     4  11  25  48  75 112 158 193 253 310 393 452
#     4  12  24  47  75 111 160 197 254 309 387 452
#     4  10  22  46  73 112 149 196 253 312 380 455
#
# _framework density 27.076246999999999
#
# number of rings (size 3 to 8) (size 9 to 14) (size 15 to 20)
#    0.000    1.143    2.857    1.714    0.000   10.857 
#   10.286    1.429    0.000    0.000    0.000    0.000 
#    0.000    0.000    0.000    0.000    0.000    0.000 
#
# Total GULP energy -78419.962494 kJ/mol
# GULP energy per Si atom -5601.425892 kJ/mol
# Density = 2.701462 g / cm^3
# Si number density = 27.076247 Si / 1000 Ang^3
#
#
#
# Elastic Constant Matrix: (Units=GPa)
#
#
# Indices 1 2 3 4 5 6 
#
# 1 75.4605 42.0372 36.0013 9.8290 26.1299 2.2694
# 2 42.0372 142.7736 56.1420 10.2871 13.6546 -14.5519
# 3 36.0013 56.1420 122.5841 27.7469 18.9797 -3.8708
# 4 9.8290 10.2871 27.7469 62.4066 0.3450 17.0232
# 5 26.1299 13.6546 18.9797 0.3450 73.6093 1.8753
# 6 2.2694 -14.5519 -3.8708 17.0232 1.8753 49.7376
#
#
#
# Elastic Compliance Matrix: (Units=1/GPa)
#
#
# Indices 1 2 3 4 5 6 
#
# 1 0.018762 -0.004096 -0.002789 -0.000490 -0.005130 -0.001910
# 2 -0.004096 0.009729 -0.003141 -0.000354 0.000387 0.002895
# 3 -0.002789 -0.003141 0.011782 -0.004768 -0.001489 0.001813
# 4 -0.000490 -0.000354 -0.004768 0.020306 0.001564 -0.007461
# 5 -0.005130 0.000387 -0.001489 0.001564 0.015734 -0.000897
# 6 -0.001910 0.002895 0.001813 -0.007461 -0.000897 0.023768
#
#
# Mechanical properties :
#
#
# Convention : Reuss Voigt Hill
#
# Bulk Modulus (GPa) = 49.45473 67.68659 58.57066
# Shear Modulus (GPa) = 39.40870 50.92653 45.16761
#
# Velocity S-wave (km/s) = 3.81920 4.34159 4.08875
# Velocity P-wave (km/s) = 6.14435 7.08416 6.63093
#
# Compressibility (1/GPa) = 0.02022051
#
# Stress axis : x y z
#
# Youngs Moduli (GPa) = 53.29821 102.78661 84.87175
#
# Poissons Ratio (x) = 0.42103 0.23673
# Poissons Ratio (y) = 0.21832 0.26659
# Poissons Ratio (z) = 0.14866 0.32287
#
# Static dielectric constant tensor:
#      x y z
#    x 2.126420 0.062770 0.012700 
#    y 0.062770 2.163900 -0.020440 
#    z 0.012700 -0.020440 2.077200 
# 
# From -- ./inp_files/64635.got.cif
#   From: 2010.05.17/outbox.cif.g08.bks.cpg/sg2_33_cif.got.tgz:64635.got - 2010.06.03 11:33:40.
