data_PCOD9035098
_publ_section_title
;
Structure prediction by ZEFSAII (Michael W. Deem and Ramdas Pophale) SiO2 
 PCOD9035098
Probable space group: P -1
;
_chemical_formula_sum "Si O2"
_cell_formula_units_Z 10
_cell_length_a 13.673155
_cell_length_b 5.418030
_cell_length_c 5.977433
_cell_angle_alpha 83.402466
_cell_angle_beta 78.820251
_cell_angle_gamma 113.967877
_cell_volume 387.583034
_symmetry_space_group_name_H-M "P -1"
_symmetry_group_IT_number 2
_symmetry_cell_setting 'triclinic'
loop_
_space_group_symop_operation_xyz
x,y,z
-x,-y,-z
loop_
_atom_site_type_symbol
_atom_site_label
_atom_site_fract_x
_atom_site_fract_y
_atom_site_fract_z
Si Si1 0.943714 0.200789 0.441536
Si Si2 0.248811 0.508130 0.071822
Si Si3 0.511616 0.138853 0.230051
Si Si4 0.299390 0.205093 0.426909
Si Si5 0.175457 0.959541 0.921125
O O1 0.929247 0.184630 0.181569
O O2 0.000000 0.500000 0.500000
O O3 0.812578 0.056646 0.575619
O O4 0.000000 0.000000 0.500000
O O5 0.362879 0.631723 0.869535
O O6 0.195510 0.715441 0.044224
O O7 0.171466 0.207863 0.036038
O O8 0.278782 0.460444 0.318074
O O9 0.413048 0.232675 0.273073
O O10 0.500000 0.000000 0.500000
O O11 0.500000 0.000000 0.000000
O O12 0.285418 0.132268 0.700339
#
# Coordination Sequence:
#
# PCOD9035098 Si02
#       5
#     2   2   2   2   2
#     4  10  22  45  71 101 144 194 247 321 384 448
#     4  12  24  46  71 107 148 192 252 301 385 459
#     4  12  26  46  78 115 159 206 256 314 390 467
#     4  10  26  43  73 104 149 195 252 310 381 453
#     4  10  25  43  72 100 146 187 247 304 379 443
#
# _framework density 25.800920999999999
#
# number of rings (size 3 to 8) (size 9 to 14) (size 15 to 20)
#    1.200    0.000    2.000    3.000    2.800    5.600 
#    0.000    6.000    0.000    0.000    0.000    0.000 
#    0.000    0.000    0.000    0.000    0.000    0.000 
#
# Total GULP energy -55780.985052 kJ/mol
# GULP energy per Si atom -5578.098505 kJ/mol
# Density = 2.574220 g / cm^3
# Si number density = 25.800921 Si / 1000 Ang^3
#
#
#
# Elastic Constant Matrix: (Units=GPa)
#
#
# Indices 1 2 3 4 5 6 
#
# 1 151.3656 72.3840 24.7273 1.2886 6.0642 -20.4240
# 2 72.3840 189.4401 52.8014 11.6203 36.7911 -13.3569
# 3 24.7273 52.8014 117.3559 -4.9157 14.1829 -19.2780
# 4 1.2886 11.6203 -4.9157 40.9757 -3.2025 8.3622
# 5 6.0642 36.7911 14.1829 -3.2025 49.3123 -18.4803
# 6 -20.4240 -13.3569 -19.2780 8.3622 -18.4803 59.4376
#
#
#
# Elastic Compliance Matrix: (Units=1/GPa)
#
#
# Indices 1 2 3 4 5 6 
#
# 1 0.008642 -0.003658 -0.000012 0.000379 0.002804 0.002962
# 2 -0.003658 0.008683 -0.002803 -0.002809 -0.006041 -0.001698
# 3 -0.000012 -0.002803 0.010241 0.001522 0.000196 0.002534
# 4 0.000379 -0.002809 0.001522 0.026157 0.002183 -0.003009
# 5 0.002804 -0.006041 0.000196 0.002183 0.027491 0.007910
# 6 0.002962 -0.001698 0.002534 -0.003009 0.007910 0.021165
#
#
# Mechanical properties :
#
#
# Convention : Reuss Voigt Hill
#
# Bulk Modulus (GPa) = 68.38902 84.22076 76.30489
# Shear Modulus (GPa) = 41.59828 50.49505 46.04667
#
# Velocity S-wave (km/s) = 4.01968 4.42871 4.22914
# Velocity P-wave (km/s) = 6.93597 7.67234 7.31343
#
# Compressibility (1/GPa) = 0.01462223
#
# Stress axis : x y z
#
# Youngs Moduli (GPa) = 115.71796 115.16257 97.64746
#
# Poissons Ratio (x) = 0.42123 0.00113
# Poissons Ratio (y) = 0.42326 0.27367
# Poissons Ratio (z) = 0.00134 0.32276
#
# Static dielectric constant tensor:
#      x y z
#    x 2.010120 0.042940 0.057210 
#    y 0.042940 2.004770 0.005030 
#    z 0.057210 0.005030 2.179150 
# 
# From -- ./inp_files/85488.got.cif
#   From: 2010.05.17/outbox.cif.g08.bks.cpg/sg2_43_cif.got.tgz:85488.got - 2010.06.03 11:33:40.
