data_PCOD9035712
_publ_section_title
;
Structure prediction by ZEFSAII (Michael W. Deem and Ramdas Pophale) SiO2 
 PCOD9035712
Probable space group: P -1
;
_chemical_formula_sum "Si O2"
_cell_formula_units_Z 15
_cell_length_a 22.397733
_cell_length_b 8.370739
_cell_length_c 19.069151
_cell_angle_alpha 137.797219
_cell_angle_beta 161.239498
_cell_angle_gamma 33.200455
_cell_volume 602.052414
_symmetry_space_group_name_H-M "P -1"
_symmetry_group_IT_number 2
_symmetry_cell_setting 'triclinic'
loop_
_space_group_symop_operation_xyz
x,y,z
-x,-y,-z
loop_
_atom_site_type_symbol
_atom_site_label
_atom_site_fract_x
_atom_site_fract_y
_atom_site_fract_z
Si Si1 0.000000 0.000000 0.500000
Si Si2 0.687450 0.885955 0.883830
Si Si3 0.530162 0.127180 0.002602
Si Si4 0.093599 0.878088 0.398263
Si Si5 0.890486 0.463993 0.162281
Si Si6 0.230254 0.251851 0.593227
Si Si7 0.066923 0.216937 0.133727
Si Si8 0.404730 0.788686 0.255542
O O1 0.968915 0.032810 0.561336
O O2 0.298070 0.788952 0.769309
O O3 0.866447 0.941353 0.130447
O O4 0.851058 0.519965 0.952013
O O5 0.449394 0.056421 0.719923
O O6 0.618876 0.017149 0.772588
O O7 0.683545 0.812830 0.026869
O O8 0.302298 0.354555 0.774030
O O9 0.500000 0.000000 0.000000
O O10 0.164509 0.056724 0.492899
O O11 0.329676 0.523110 0.540125
O O12 0.068582 0.316573 0.246989
O O13 0.013984 0.484296 0.374673
O O14 0.766361 0.307065 0.982257
O O15 0.297598 0.008818 0.275166
O O16 0.000000 0.000000 0.000000
#
# Coordination Sequence:
#
# PCOD9035712 Si02
#       8
#     1   2   2   2   2   2   2   2
#     4  12  24  44  74 102 132 188 232 282 346 416
#     4  12  25  44  71 107 140 183 236 286 348 420
#     4  12  24  46  70  99 143 182 229 293 347 410
#     4  12  25  48  71 101 144 180 235 292 349 414
#     4  11  23  46  71 102 142 187 232 287 355 412
#     4  12  24  44  71 100 142 184 223 289 351 411
#     4  10  22  46  71 101 144 186 232 287 348 412
#     4  11  24  45  72 103 139 185 237 290 346 414
#
# _framework density 24.914774999999999
#
# number of rings (size 3 to 8) (size 9 to 14) (size 15 to 20)
#    0.000    0.533    6.667    1.200    3.733    1.067 
#    2.400    3.333    0.000    0.000    0.000    0.000 
#    0.000    0.000    0.000    0.000    0.000    0.000 
#
# Total GULP energy -83775.989958 kJ/mol
# GULP energy per Si atom -5585.065997 kJ/mol
# Density = 2.485807 g / cm^3
# Si number density = 24.914775 Si / 1000 Ang^3
#
#
#
# Elastic Constant Matrix: (Units=GPa)
#
#
# Indices 1 2 3 4 5 6 
#
# 1 191.7436 29.8444 48.5883 -19.3943 10.1771 -18.6358
# 2 29.8444 69.4750 27.0821 -12.4873 5.6324 -3.9696
# 3 48.5883 27.0821 123.7100 -13.9711 19.9202 -6.6665
# 4 -19.3943 -12.4873 -13.9711 30.5923 3.4251 -2.2797
# 5 10.1771 5.6324 19.9202 3.4251 53.3123 -1.5832
# 6 -18.6358 -3.9696 -6.6665 -2.2797 -1.5832 35.2065
#
#
#
# Elastic Compliance Matrix: (Units=1/GPa)
#
#
# Indices 1 2 3 4 5 6 
#
# 1 0.006495 -0.001365 -0.001635 0.003114 -0.000591 0.003149
# 2 -0.001365 0.016973 -0.002391 0.005153 -0.000940 0.001030
# 3 -0.001635 -0.002391 0.010194 0.003088 -0.003417 0.000841
# 4 0.003114 0.005153 0.003088 0.039079 -0.004651 0.005135
# 5 -0.000591 -0.000940 -0.003417 -0.004651 0.020532 -0.000444
# 6 0.003149 0.001030 0.000841 0.005135 -0.000444 0.030659
#
#
# Mechanical properties :
#
#
# Convention : Reuss Voigt Hill
#
# Bulk Modulus (GPa) = 43.70813 66.21759 54.96286
# Shear Modulus (GPa) = 35.12718 42.44981 38.78850
#
# Velocity S-wave (km/s) = 3.75893 4.13219 3.94997
# Velocity P-wave (km/s) = 6.03494 7.02866 6.55067
#
# Compressibility (1/GPa) = 0.02287904
#
# Stress axis : x y z
#
# Youngs Moduli (GPa) = 153.97414 58.91656 98.10169
#
# Poissons Ratio (x) = 0.08041 0.16044
# Poissons Ratio (y) = 0.21014 0.23455
# Poissons Ratio (z) = 0.25182 0.14086
#
# Static dielectric constant tensor:
#      x y z
#    x 1.913210 -0.021850 0.012190 
#    y -0.021850 2.037520 0.051800 
#    z 0.012190 0.051800 1.990740 
# 
# From -- ./inp_files/577437.got.cif
#   From: 2010.05.17/outbox.cif.g08.bks.cpg/sg2_289_cif.got.tgz:577437.got - 2010.06.03 11:33:40.
