data_PCOD9035581
_publ_section_title
;
Structure prediction by ZEFSAII (Michael W. Deem and Ramdas Pophale) SiO2 
 PCOD9035581
Probable space group: P -1
;
_chemical_formula_sum "Si O2"
_cell_formula_units_Z 16
_cell_length_a 8.248653
_cell_length_b 6.387405
_cell_length_c 18.621759
_cell_angle_alpha 73.131022
_cell_angle_beta 51.263037
_cell_angle_gamma 59.757224
_cell_volume 660.696618
_symmetry_space_group_name_H-M "P -1"
_symmetry_group_IT_number 2
_symmetry_cell_setting 'triclinic'
loop_
_space_group_symop_operation_xyz
x,y,z
-x,-y,-z
loop_
_atom_site_type_symbol
_atom_site_label
_atom_site_fract_x
_atom_site_fract_y
_atom_site_fract_z
Si Si1 0.096320 0.309977 0.427366
Si Si2 0.089659 0.420876 0.194211
Si Si3 0.484459 0.051217 0.841994
Si Si4 0.159947 0.036681 0.806536
Si Si5 0.738536 0.333787 0.686089
Si Si6 0.204813 0.908089 0.539763
Si Si7 0.358677 0.671083 0.657814
Si Si8 0.113907 0.260301 0.040180
O O1 0.207074 0.440250 0.332344
O O2 0.000000 0.500000 0.500000
O O3 0.896412 0.264530 0.450096
O O4 0.257287 0.056797 0.447139
O O5 0.030515 0.701810 0.192257
O O6 0.860409 0.389917 0.282248
O O7 0.310842 0.214887 0.189578
O O8 0.134084 0.351138 0.104585
O O9 0.321490 0.084184 0.815078
O O10 0.596149 0.242082 0.786782
O O11 0.343212 0.094178 0.950250
O O12 0.290114 0.877429 0.717588
O O13 0.042782 0.883636 0.893532
O O14 0.573302 0.439090 0.651952
O O15 0.980036 0.108649 0.623337
O O16 0.392155 0.770091 0.561687
O O17 0.000000 0.500000 0.000000
#
# Coordination Sequence:
#
# PCOD9035581 Si02
#       8
#     2   2   2   2   2   2   2   2
#     4   9  22  44  71  98 133 173 212 269 329 393
#     4  11  24  43  63  96 131 177 227 271 326 390
#     4  12  23  43  67  95 134 176 222 276 327 390
#     4  11  25  44  64  95 134 178 219 274 329 383
#     4  11  23  42  67 100 133 173 217 271 331 385
#     4  10  22  46  68  98 135 170 218 267 328 399
#     4  11  24  41  66 100 134 171 223 274 320 391
#     4  11  23  46  66  92 138 172 222 282 327 387
#
# _framework density 24.216864000000001
#
# number of rings (size 3 to 8) (size 9 to 14) (size 15 to 20)
#    0.000    1.250    3.750    1.500    1.750    4.000 
#    4.500    5.625    0.000    0.000    0.000    0.000 
#    0.000    0.000    0.000    0.000    0.000    0.000 
#
# Total GULP energy -89601.181062 kJ/mol
# GULP energy per Si atom -5600.073816 kJ/mol
# Density = 2.416175 g / cm^3
# Si number density = 24.216864 Si / 1000 Ang^3
#
#
#
# Elastic Constant Matrix: (Units=GPa)
#
#
# Indices 1 2 3 4 5 6 
#
# 1 42.5578 40.7367 29.5149 -10.3016 1.7788 -3.5913
# 2 40.7367 121.1377 38.2598 -29.7789 -6.1114 0.2719
# 3 29.5149 38.2598 94.5940 -19.5169 -2.6075 21.4867
# 4 -10.3016 -29.7789 -19.5169 35.9707 1.7012 -4.3348
# 5 1.7788 -6.1114 -2.6075 1.7012 37.4731 -2.6027
# 6 -3.5913 0.2719 21.4867 -4.3348 -2.6027 54.4792
#
#
#
# Elastic Compliance Matrix: (Units=1/GPa)
#
#
# Indices 1 2 3 4 5 6 
#
# 1 0.042078 -0.011608 -0.010516 -0.002277 -0.004060 0.006604
# 2 -0.011608 0.014477 -0.000483 0.008296 0.002511 0.000133
# 3 -0.010516 -0.000483 0.016597 0.004730 0.000887 -0.006818
# 4 -0.002277 0.008296 0.004730 0.036679 0.000186 0.000870
# 5 -0.004060 0.002511 0.000887 0.000186 0.027390 0.000693
# 6 0.006604 0.000133 -0.006818 0.000870 0.000693 0.021582
#
#
# Mechanical properties :
#
#
# Convention : Reuss Voigt Hill
#
# Bulk Modulus (GPa) = 35.79347 52.81247 44.30297
# Shear Modulus (GPa) = 23.43816 35.56981 29.50399
#
# Velocity S-wave (km/s) = 3.11440 3.83665 3.49424
# Velocity P-wave (km/s) = 5.26736 6.44066 5.88333
#
# Compressibility (1/GPa) = 0.02793806
#
# Stress axis : x y z
#
# Youngs Moduli (GPa) = 23.76563 69.07534 60.25223
#
# Poissons Ratio (x) = 0.80185 0.63359
# Poissons Ratio (y) = 0.27588 0.02909
# Poissons Ratio (z) = 0.24991 0.03335
#
# Static dielectric constant tensor:
#      x y z
#    x 1.935320 -0.011460 -0.002810 
#    y -0.011460 1.918200 -0.008800 
#    z -0.002810 -0.008800 1.963480 
# 
# From -- ./inp_files/112368.got.cif
#   From: 2010.05.17/outbox.cif.g08.bks.cpg/sg2_57_cif.got.tgz:112368.got - 2010.06.03 11:33:40.
