data_PCOD9035046
_publ_section_title
;
Structure prediction by ZEFSAII (Michael W. Deem and Ramdas Pophale) SiO2 
 PCOD9035046
Probable space group: P -1
;
_chemical_formula_sum "Si O2"
_cell_formula_units_Z 12
_cell_length_a 10.733667
_cell_length_b 5.615224
_cell_length_c 9.366743
_cell_angle_alpha 86.506699
_cell_angle_beta 103.717817
_cell_angle_gamma 120.228658
_cell_volume 472.721345
_symmetry_space_group_name_H-M "P -1"
_symmetry_group_IT_number 2
_symmetry_cell_setting 'triclinic'
loop_
_space_group_symop_operation_xyz
x,y,z
-x,-y,-z
loop_
_atom_site_type_symbol
_atom_site_label
_atom_site_fract_x
_atom_site_fract_y
_atom_site_fract_z
Si Si1 0.556096 0.811771 0.941861
Si Si2 0.839803 0.600976 0.865295
Si Si3 0.841750 0.874846 0.125130
Si Si4 0.598663 0.694798 0.648604
Si Si5 0.846410 0.289196 0.641448
Si Si6 0.117920 0.295505 0.582947
O O1 0.531396 0.780382 0.763453
O O2 0.500000 0.500000 0.000000
O O3 0.730860 0.957890 0.022115
O O4 0.500000 0.000000 0.000000
O O5 0.691124 0.577687 0.761126
O O6 0.849456 0.355126 0.805709
O O7 0.835690 0.638708 0.030009
O O8 0.988143 0.876568 0.839451
O O9 0.789414 0.759703 0.273355
O O10 0.500000 0.500000 0.500000
O O11 0.724319 0.975258 0.597715
O O12 0.806699 0.482120 0.527778
O O13 0.012388 0.376048 0.639571
O O14 0.000000 0.000000 0.500000
#
# Coordination Sequence:
#
# PCOD9035046 Si02
#       6
#     2   2   2   2   2   2
#     4  11  29  55  79 116 159 215 270 322 405 479
#     4  10  22  45  70 113 138 197 263 312 399 457
#     4  10  22  46  77 103 157 192 251 335 378 474
#     4  11  26  51  76 108 161 206 269 328 391 478
#     4  11  23  41  76 106 153 201 257 317 396 470
#     4  11  22  43  67 117 157 184 253 320 393 463
#
# _framework density 25.384933
#
# number of rings (size 3 to 8) (size 9 to 14) (size 15 to 20)
#    0.000    1.333    3.333    0.000    4.667    5.333 
#    6.000    0.000    0.000    0.000    0.000    0.000 
#    0.000    0.000    0.000    0.000    0.000    0.000 
#
# Total GULP energy -67129.281090 kJ/mol
# GULP energy per Si atom -5594.106758 kJ/mol
# Density = 2.532716 g / cm^3
# Si number density = 25.384933 Si / 1000 Ang^3
#
#
#
# Elastic Constant Matrix: (Units=GPa)
#
#
# Indices 1 2 3 4 5 6 
#
# 1 95.2800 10.0728 45.2089 20.9794 -13.5762 -13.5616
# 2 10.0728 85.0236 35.8316 0.2184 1.0621 5.7612
# 3 45.2089 35.8316 183.5696 9.7899 0.6226 -2.5859
# 4 20.9794 0.2184 9.7899 50.1929 5.6252 -5.6173
# 5 -13.5762 1.0621 0.6226 5.6252 39.4899 9.0761
# 6 -13.5616 5.7612 -2.5859 -5.6173 9.0761 32.5533
#
#
#
# Elastic Compliance Matrix: (Units=1/GPa)
#
#
# Indices 1 2 3 4 5 6 
#
# 1 0.014501 -0.000699 -0.003102 -0.005621 0.005039 0.003544
# 2 -0.000699 0.013055 -0.002436 0.000403 0.000017 -0.002730
# 3 -0.003102 -0.002436 0.006684 0.000131 -0.001126 0.000006
# 4 -0.005621 0.000403 0.000131 0.023289 -0.006020 0.003294
# 5 0.005039 0.000017 -0.001126 -0.006020 0.029605 -0.007286
# 6 0.003544 -0.002730 0.000006 0.003294 -0.007286 0.035279
#
#
# Mechanical properties :
#
#
# Convention : Reuss Voigt Hill
#
# Bulk Modulus (GPa) = 45.94512 60.67773 53.31142
# Shear Modulus (GPa) = 35.17604 42.63123 38.90364
#
# Velocity S-wave (km/s) = 3.72654 4.10248 3.91902
# Velocity P-wave (km/s) = 6.05432 6.81142 6.44400
#
# Compressibility (1/GPa) = 0.02176510
#
# Stress axis : x y z
#
# Youngs Moduli (GPa) = 68.95870 76.60107 149.61150
#
# Poissons Ratio (x) = 0.05356 0.46413
# Poissons Ratio (y) = 0.04822 0.36445
# Poissons Ratio (z) = 0.21393 0.18660
#
# Static dielectric constant tensor:
#      x y z
#    x 2.125660 0.015640 0.001290 
#    y 0.015640 2.053160 -0.018560 
#    z 0.001290 -0.018560 2.012560 
# 
# From -- ./inp_files/229790.got.cif
#   From: 2010.05.17/outbox.cif.g08.bks.cpg/sg2_115_cif.got.tgz:229790.got - 2010.06.03 11:33:40.
