data_PCOD9035425
_publ_section_title
;
Structure prediction by ZEFSAII (Michael W. Deem and Ramdas Pophale) SiO2 
 PCOD9035425
Probable space group: P -1
;
_chemical_formula_sum "Si O2"
_cell_formula_units_Z 14
_cell_length_a 6.665375
_cell_length_b 11.523449
_cell_length_c 10.749923
_cell_angle_alpha 81.265863
_cell_angle_beta 91.924778
_cell_angle_gamma 40.426822
_cell_volume 514.691667
_symmetry_space_group_name_H-M "P -1"
_symmetry_group_IT_number 2
_symmetry_cell_setting 'triclinic'
loop_
_space_group_symop_operation_xyz
x,y,z
-x,-y,-z
loop_
_atom_site_type_symbol
_atom_site_label
_atom_site_fract_x
_atom_site_fract_y
_atom_site_fract_z
Si Si1 0.870366 0.029009 0.307403
Si Si2 0.598946 0.940157 0.796338
Si Si3 0.232182 0.818720 0.121235
Si Si4 0.951064 0.688698 0.170356
Si Si5 0.072146 0.146925 0.411006
Si Si6 0.168880 0.555936 0.479488
Si Si7 0.768474 0.473150 0.039546
O O1 0.608945 0.083253 0.212645
O O2 0.818026 0.186365 0.320216
O O3 0.107080 0.056047 0.552310
O O4 0.188377 0.877533 0.254811
O O5 0.624647 0.983577 0.651459
O O6 0.943031 0.735193 0.867564
O O7 0.572123 0.889940 0.143581
O O8 0.584639 0.643310 0.102362
O O9 0.087121 0.754696 0.128705
O O10 0.000000 0.000000 0.000000
O O11 0.101859 0.540066 0.089351
O O12 0.071589 0.616496 0.324475
O O13 0.985485 0.314349 0.424228
O O14 0.500000 0.500000 0.500000
O O15 0.000000 0.500000 0.500000
O O16 0.500000 0.500000 0.000000
#
# Coordination Sequence:
#
# PCOD9035425 Si02
#       7
#     2   2   2   2   2   2   2
#     4  10  24  46  78 119 161 216 285 355 444 532
#     4  11  23  46  81 112 163 219 285 359 436 532
#     4  10  22  45  77 115 163 215 281 359 436 526
#     4  10  24  52  75 123 172 222 298 355 446 523
#     4  11  25  45  82 113 169 220 284 356 448 520
#     4  12  30  53  86 131 185 231 299 372 442 537
#     4  10  24  45  79 114 163 224 285 361 442 521
#
# _framework density 27.200752999999999
#
# number of rings (size 3 to 8) (size 9 to 14) (size 15 to 20)
#    0.000    1.429    2.857    0.857   10.000    1.143 
#    2.571    2.857    0.000    0.000    0.000    0.000 
#    0.000    0.000    0.000    0.000    0.000    0.000 
#
# Total GULP energy -78039.358318 kJ/mol
# GULP energy per Si atom -5574.239880 kJ/mol
# Density = 2.713884 g / cm^3
# Si number density = 27.200753 Si / 1000 Ang^3
#
#
#
# Elastic Constant Matrix: (Units=GPa)
#
#
# Indices 1 2 3 4 5 6 
#
# 1 191.4665 70.2443 53.9097 6.4059 -11.1989 -9.3332
# 2 70.2443 164.8291 78.5706 45.2952 -1.0250 -15.4972
# 3 53.9097 78.5706 133.7110 23.8625 -24.3416 -19.3507
# 4 6.4059 45.2952 23.8625 58.4329 1.1872 1.3806
# 5 -11.1989 -1.0250 -24.3416 1.1872 64.4488 9.5838
# 6 -9.3332 -15.4972 -19.3507 1.3806 9.5838 60.9135
#
#
#
# Elastic Compliance Matrix: (Units=1/GPa)
#
#
# Indices 1 2 3 4 5 6 
#
# 1 0.006546 -0.002706 -0.001316 0.001911 0.000598 -0.000241
# 2 -0.002706 0.011342 -0.004558 -0.006627 -0.002113 0.001506
# 3 -0.001316 -0.004558 0.011904 -0.001307 0.003947 0.001829
# 4 0.001911 -0.006627 -0.001307 0.022636 -0.000347 -0.002267
# 5 0.000598 -0.002113 0.003947 -0.000347 0.017369 -0.001917
# 6 -0.000241 0.001506 0.001829 -0.002267 -0.001917 0.017697
#
#
# Mechanical properties :
#
#
# Convention : Reuss Voigt Hill
#
# Bulk Modulus (GPa) = 79.16502 99.49508 89.33005
# Shear Modulus (GPa) = 45.92874 55.91118 50.91996
#
# Velocity S-wave (km/s) = 4.11361 4.53868 4.33136
# Velocity P-wave (km/s) = 7.19232 8.00772 7.61095
#
# Compressibility (1/GPa) = 0.01263184
#
# Stress axis : x y z
#
# Youngs Moduli (GPa) = 152.77610 88.16435 84.00387
#
# Poissons Ratio (x) = 0.23861 0.11053
# Poissons Ratio (y) = 0.41347 0.38289
# Poissons Ratio (z) = 0.20102 0.40185
#
# Static dielectric constant tensor:
#      x y z
#    x 2.115130 -0.213340 -0.201080 
#    y -0.213340 2.080950 -0.200370 
#    z -0.201080 -0.200370 1.811390 
# 
# From -- ./inp_files/546648.got.cif
#   From: 2010.05.17/outbox.cif.g08.bks.cpg/sg2_274_cif.got.tgz:546648.got - 2010.06.03 11:33:40.
