data_PCOD9035976
_publ_section_title
;
Structure prediction by ZEFSAII (Michael W. Deem and Ramdas Pophale) SiO2 
 PCOD9035976
Probable space group: P -1
;
_chemical_formula_sum "Si O2"
_cell_formula_units_Z 16
_cell_length_a 9.647841
_cell_length_b 5.678788
_cell_length_c 13.510974
_cell_angle_alpha 83.025504
_cell_angle_beta 108.707192
_cell_angle_gamma 111.161511
_cell_volume 653.839795
_symmetry_space_group_name_H-M "P -1"
_symmetry_group_IT_number 2
_symmetry_cell_setting 'triclinic'
loop_
_space_group_symop_operation_xyz
x,y,z
-x,-y,-z
loop_
_atom_site_type_symbol
_atom_site_label
_atom_site_fract_x
_atom_site_fract_y
_atom_site_fract_z
Si Si1 0.513280 0.320345 0.923145
Si Si2 0.550900 0.027509 0.366885
Si Si3 0.026445 0.312526 0.165774
Si Si4 0.333226 0.262778 0.214222
Si Si5 0.085769 0.290120 0.535841
Si Si6 0.221454 0.047589 0.741414
Si Si7 0.801328 0.183154 0.947178
Si Si8 0.363257 0.616417 0.458867
O O1 0.589320 0.478556 0.836084
O O2 0.341148 0.163352 0.852755
O O3 0.654884 0.210837 0.976369
O O4 0.500000 0.500000 0.000000
O O5 0.467579 0.222091 0.309307
O O6 0.634206 0.147453 0.481471
O O7 0.674605 0.013421 0.316978
O O8 0.406924 0.764853 0.358089
O O9 0.176184 0.243190 0.234008
O O10 0.102385 0.592967 0.119863
O O11 0.907323 0.210031 0.234249
O O12 0.929206 0.164452 0.055951
O O13 0.279403 0.057868 0.125274
O O14 0.152689 0.248537 0.662356
O O15 0.217034 0.396293 0.476752
O O16 0.000000 0.500000 0.500000
O O17 0.000000 0.000000 0.500000
O O18 0.500000 0.500000 0.500000
#
# Coordination Sequence:
#
# PCOD9035976 Si02
#       8
#     2   2   2   2   2   2   2   2
#     4  11  25  42  72 106 145 193 249 308 367 443
#     4  11  25  44  77 104 140 194 251 315 380 454
#     4  10  25  41  69 101 147 189 242 300 373 443
#     4  11  23  42  69  99 138 188 244 292 369 444
#     4  12  29  51  76 113 158 200 253 325 397 459
#     4  12  25  49  72 113 144 192 261 309 374 457
#     4  10  22  47  65 100 147 195 237 304 373 443
#     4  11  25  49  76 100 145 190 246 314 388 461
#
# _framework density 24.470828000000001
#
# number of rings (size 3 to 8) (size 9 to 14) (size 15 to 20)
#    0.000    1.000    2.500    2.625    5.250    4.000 
#    2.250    0.000    0.000    0.000    0.000    0.000 
#    0.000    0.000    0.000    0.000    0.000    0.000 
#
# Total GULP energy -89260.595523 kJ/mol
# GULP energy per Si atom -5578.787220 kJ/mol
# Density = 2.441513 g / cm^3
# Si number density = 24.470828 Si / 1000 Ang^3
#
#
#
# Elastic Constant Matrix: (Units=GPa)
#
#
# Indices 1 2 3 4 5 6 
#
# 1 156.5943 53.2248 42.1423 -24.8097 -14.0557 17.1760
# 2 53.2248 89.7812 36.0805 -2.0510 -8.8294 15.1789
# 3 42.1423 36.0805 95.5991 -22.7721 -11.6209 -1.5661
# 4 -24.8097 -2.0510 -22.7721 27.3606 1.0851 -0.2897
# 5 -14.0557 -8.8294 -11.6209 1.0851 30.8895 -8.2552
# 6 17.1760 15.1789 -1.5661 -0.2897 -8.2552 39.2638
#
#
#
# Elastic Compliance Matrix: (Units=1/GPa)
#
#
# Indices 1 2 3 4 5 6 
#
# 1 0.009873 -0.005034 -0.000251 0.008260 0.002170 -0.001865
# 2 -0.005034 0.017338 -0.006600 -0.008778 -0.000848 -0.005007
# 3 -0.000251 -0.006600 0.016896 0.013186 0.005096 0.004504
# 4 0.008260 -0.008778 0.013186 0.054184 0.004763 0.001707
# 5 0.002170 -0.000848 0.005096 0.004763 0.036836 0.007362
# 6 -0.001865 -0.005007 0.004504 0.001707 0.007362 0.029960
#
#
# Mechanical properties :
#
#
# Convention : Reuss Voigt Hill
#
# Bulk Modulus (GPa) = 49.17661 67.20775 58.19218
# Shear Modulus (GPa) = 25.55748 33.53791 29.54769
#
# Velocity S-wave (km/s) = 3.23523 3.70608 3.47863
# Velocity P-wave (km/s) = 5.83912 6.77033 6.32189
#
# Compressibility (1/GPa) = 0.02033487
#
# Stress axis : x y z
#
# Youngs Moduli (GPa) = 101.28905 57.67775 59.18451
#
# Poissons Ratio (x) = 0.29037 0.01487
# Poissons Ratio (y) = 0.50993 0.39063
# Poissons Ratio (z) = 0.02545 0.38069
#
# Static dielectric constant tensor:
#      x y z
#    x 1.997510 -0.004500 -0.002900 
#    y -0.004500 1.948600 0.124490 
#    z -0.002900 0.124490 1.824740 
# 
# From -- ./inp_files/488303.got.cif
#   From: 2010.05.17/outbox.cif.g08.bks.cpg/sg2_245_cif.got.tgz:488303.got - 2010.06.03 11:33:40.
