data_PCOD9035022
_publ_section_title
;
Structure prediction by ZEFSAII (Michael W. Deem and Ramdas Pophale) SiO2 
 PCOD9035022
Probable space group: P -1
;
_chemical_formula_sum "Si O2"
_cell_formula_units_Z 14
_cell_length_a 11.860367
_cell_length_b 20.340574
_cell_length_c 13.041542
_cell_angle_alpha 25.730430
_cell_angle_beta 25.341402
_cell_angle_gamma 39.481907
_cell_volume 569.242603
_symmetry_space_group_name_H-M "P -1"
_symmetry_group_IT_number 2
_symmetry_cell_setting 'triclinic'
loop_
_space_group_symop_operation_xyz
x,y,z
-x,-y,-z
loop_
_atom_site_type_symbol
_atom_site_label
_atom_site_fract_x
_atom_site_fract_y
_atom_site_fract_z
Si Si1 0.327859 0.155573 0.687716
Si Si2 0.698786 0.906852 0.416487
Si Si3 0.242884 0.612243 0.853779
Si Si4 0.868241 0.840918 0.777792
Si Si5 0.626195 0.394336 0.464994
Si Si6 0.989222 0.811658 0.491887
Si Si7 0.831323 0.562559 0.638040
O O1 0.464141 0.160172 0.457654
O O2 0.516255 0.258213 0.473076
O O3 0.110560 0.255709 0.694059
O O4 0.209917 0.976522 0.063895
O O5 0.782792 0.796434 0.588401
O O6 0.500000 0.000000 0.500000
O O7 0.000000 0.000000 0.000000
O O8 0.339840 0.543452 0.766666
O O9 0.033876 0.711908 0.849049
O O10 0.106307 0.490965 0.224384
O O11 0.848551 0.844216 0.667159
O O12 0.573077 0.772360 0.157374
O O13 0.000000 0.000000 0.500000
O O14 0.500000 0.500000 0.500000
O O15 0.875082 0.334670 0.394618
O O16 0.000000 0.500000 0.500000
O O17 0.500000 0.500000 0.000000
#
# Coordination Sequence:
#
# PCOD9035022 Si02
#       7
#     2   2   2   2   2   2   2
#     4  10  22  45  70 103 146 182 246 316 384 444
#     4  10  24  41  66 102 140 188 234 300 379 446
#     4  10  24  43  67 106 139 189 251 309 377 459
#     4  11  24  39  76 102 138 193 244 314 375 443
#     4  11  26  47  70 104 150 201 248 315 382 451
#     4  10  24  43  67 106 139 189 251 309 377 459
#     4  10  24  41  66 102 140 188 234 300 379 446
#
# _framework density 24.594083999999999
#
# number of rings (size 3 to 8) (size 9 to 14) (size 15 to 20)
#    0.000    1.714    0.000    1.714   12.000   10.286 
#    0.000    0.000    0.000    0.000    0.000    0.000 
#    0.000    0.000    0.000    0.000    0.000    0.000 
#
# Total GULP energy -78145.128156 kJ/mol
# GULP energy per Si atom -5581.794868 kJ/mol
# Density = 2.453811 g / cm^3
# Si number density = 24.594084 Si / 1000 Ang^3
#
#
#
# Elastic Constant Matrix: (Units=GPa)
#
#
# Indices 1 2 3 4 5 6 
#
# 1 133.4139 38.9930 74.0290 5.1163 44.5782 21.6645
# 2 38.9930 150.1263 32.1981 8.9364 23.2631 26.1666
# 3 74.0290 32.1981 91.0036 1.8041 -2.7920 14.6970
# 4 5.1163 8.9364 1.8041 38.5290 5.6806 6.7976
# 5 44.5782 23.2631 -2.7920 5.6806 51.3483 -3.8044
# 6 21.6645 26.1666 14.6970 6.7976 -3.8044 34.9622
#
#
#
# Elastic Compliance Matrix: (Units=1/GPa)
#
#
# Indices 1 2 3 4 5 6 
#
# 1 0.045733 0.007450 -0.037467 0.005254 -0.047501 -0.024355
# 2 0.007450 0.010180 -0.008412 0.000661 -0.012364 -0.010173
# 3 -0.037467 -0.008412 0.043085 -0.003962 0.040346 0.016561
# 4 0.005254 0.000661 -0.003962 0.028089 -0.008814 -0.008506
# 5 -0.047501 -0.012364 0.040346 -0.008814 0.071799 0.031254
# 6 -0.024355 -0.010173 0.016561 -0.008506 0.031254 0.049401
#
#
# Mechanical properties :
#
#
# Convention : Reuss Voigt Hill
#
# Bulk Modulus (GPa) = 45.16521 73.88711 59.52616
# Shear Modulus (GPa) = 15.03656 40.25615 27.64635
#
# Velocity S-wave (km/s) = 2.47531 4.05016 3.35641
# Velocity P-wave (km/s) = 5.15497 7.20968 6.26711
#
# Compressibility (1/GPa) = 0.02214093
#
# Stress axis : x y z
#
# Youngs Moduli (GPa) = 21.86612 98.23400 23.21016
#
# Poissons Ratio (x) = -0.73185 0.86961
# Poissons Ratio (y) = -0.16290 0.19524
# Poissons Ratio (z) = 0.81925 0.82631
#
# Static dielectric constant tensor:
#      x y z
#    x 1.954210 -0.052810 0.058700 
#    y -0.052810 1.940830 0.051630 
#    z 0.058700 0.051630 1.975950 
# 
# From -- ./inp_files/437183.got.cif
#   From: 2010.05.17/outbox.cif.g08.bks.cpg/sg2_219_cif.got.tgz:437183.got - 2010.06.03 11:33:40.
