data_PCOD9035194
_publ_section_title
;
Structure prediction by ZEFSAII (Michael W. Deem and Ramdas Pophale) SiO2 
 PCOD9035194
Probable space group: P -1
;
_chemical_formula_sum "Si O2"
_cell_formula_units_Z 16
_cell_length_a 13.595511
_cell_length_b 8.281584
_cell_length_c 9.323659
_cell_angle_alpha 47.644695
_cell_angle_beta 72.368583
_cell_angle_gamma 80.082188
_cell_volume 738.565117
_symmetry_space_group_name_H-M "P -1"
_symmetry_group_IT_number 2
_symmetry_cell_setting 'triclinic'
loop_
_space_group_symop_operation_xyz
x,y,z
-x,-y,-z
loop_
_atom_site_type_symbol
_atom_site_label
_atom_site_fract_x
_atom_site_fract_y
_atom_site_fract_z
Si Si1 0.064222 0.721178 0.266626
Si Si2 0.394050 0.613480 0.948103
Si Si3 0.751460 0.799516 0.703283
Si Si4 0.779973 0.910328 0.957412
Si Si5 0.582979 0.131753 0.484596
Si Si6 0.438727 0.049484 0.851492
Si Si7 0.040531 0.418043 0.876540
Si Si8 0.980586 0.813242 0.508434
O O1 0.000000 0.500000 0.500000
O O2 0.044048 0.702308 0.119200
O O3 0.003318 0.888416 0.292449
O O4 0.177395 0.839522 0.172374
O O5 0.383296 0.667339 0.751921
O O6 0.402671 0.830565 0.910643
O O7 0.500000 0.500000 0.000000
O O8 0.306804 0.435115 0.133056
O O9 0.769451 0.883811 0.806881
O O10 0.859895 0.755222 0.607993
O O11 0.678674 0.977728 0.559728
O O12 0.861830 0.730647 0.071986
O O13 0.669506 0.853352 0.113561
O O14 0.500000 0.000000 0.500000
O O15 0.520484 0.174204 0.633306
O O16 0.500000 0.000000 0.000000
O O17 0.058641 0.638534 0.642725
O O18 0.000000 0.500000 0.000000
O O19 0.000000 0.000000 0.500000
#
# Coordination Sequence:
#
# PCOD9035194 Si02
#       8
#     2   2   2   2   2   2   2   2
#     4  10  24  43  65  98 140 182 240 290 349 432
#     4  11  23  45  74 101 142 185 242 294 354 440
#     4  12  23  43  74 104 140 190 235 290 372 424
#     4  12  24  43  70 103 142 187 234 302 364 420
#     4  10  22  45  72 100 140 182 232 288 360 424
#     4  11  23  43  71 101 146 184 232 302 357 427
#     4  11  23  43  69  97 137 184 240 291 362 415
#     4  11  23  44  69 101 143 185 237 301 352 432
#
# _framework density 21.663627999999999
#
# number of rings (size 3 to 8) (size 9 to 14) (size 15 to 20)
#    0.000    1.000    6.250    0.375    3.500    3.000 
#    2.250    2.500    0.000    0.000    0.000    0.000 
#    0.000    0.000    0.000    0.000    0.000    0.000 
#
# Total GULP energy -89074.865856 kJ/mol
# GULP energy per Si atom -5567.179116 kJ/mol
# Density = 2.161432 g / cm^3
# Si number density = 21.663628 Si / 1000 Ang^3
#
#
#
# Elastic Constant Matrix: (Units=GPa)
#
#
# Indices 1 2 3 4 5 6 
#
# 1 123.2233 22.2631 48.8654 -1.1869 1.8597 -18.5234
# 2 22.2631 81.6856 24.4696 20.9000 11.6643 6.7137
# 3 48.8654 24.4696 107.3366 7.9571 2.5722 -14.5768
# 4 -1.1869 20.9000 7.9571 45.9448 -0.6986 1.5059
# 5 1.8597 11.6643 2.5722 -0.6986 44.5743 3.1847
# 6 -18.5234 6.7137 -14.5768 1.5059 3.1847 47.4188
#
#
#
# Elastic Compliance Matrix: (Units=1/GPa)
#
#
# Indices 1 2 3 4 5 6 
#
# 1 0.010653 -0.002521 -0.003994 0.002012 0.000248 0.003210
# 2 -0.002521 0.016296 -0.002439 -0.006998 -0.003874 -0.003559
# 3 -0.003994 -0.002439 0.012128 -0.001179 -0.000096 0.002557
# 4 0.002012 -0.006998 -0.001179 0.025223 0.002177 0.000467
# 5 0.000248 -0.003874 -0.000096 0.002177 0.023551 -0.001035
# 6 0.003210 -0.003559 0.002557 0.000467 -0.001035 0.023687
#
#
# Mechanical properties :
#
#
# Convention : Reuss Voigt Hill
#
# Bulk Modulus (GPa) = 47.24084 55.93798 51.58941
# Shear Modulus (GPa) = 36.62923 42.03074 39.32999
#
# Velocity S-wave (km/s) = 4.11642 4.40949 4.26547
# Velocity P-wave (km/s) = 6.66686 7.19737 6.93719
#
# Compressibility (1/GPa) = 0.02116812
#
# Stress axis : x y z
#
# Youngs Moduli (GPa) = 93.87064 61.36485 82.45417
#
# Poissons Ratio (x) = 0.15470 0.32935
# Poissons Ratio (y) = 0.23665 0.20111
# Poissons Ratio (z) = 0.37495 0.14968
#
# Static dielectric constant tensor:
#      x y z
#    x 1.868100 0.020490 0.014570 
#    y 0.020490 2.066320 0.053300 
#    z 0.014570 0.053300 1.903320 
# 
# From -- ./inp_files/242040.got.cif
#   From: 2010.05.17/outbox.cif.g08.bks.cpg/sg2_122_cif.got.tgz:242040.got - 2010.06.03 11:33:40.
