data_PCOD9035740
_publ_section_title
;
Structure prediction by ZEFSAII (Michael W. Deem and Ramdas Pophale) SiO2 
 PCOD9035740
Probable space group: P -1
;
_chemical_formula_sum "Si O2"
_cell_formula_units_Z 12
_cell_length_a 9.810558
_cell_length_b 11.151722
_cell_length_c 9.004572
_cell_angle_alpha 51.484822
_cell_angle_beta 58.239694
_cell_angle_gamma 41.918186
_cell_volume 511.205392
_symmetry_space_group_name_H-M "P -1"
_symmetry_group_IT_number 2
_symmetry_cell_setting 'triclinic'
loop_
_space_group_symop_operation_xyz
x,y,z
-x,-y,-z
loop_
_atom_site_type_symbol
_atom_site_label
_atom_site_fract_x
_atom_site_fract_y
_atom_site_fract_z
Si Si1 0.216558 0.782600 0.538150
Si Si2 0.697199 0.764264 0.680224
Si Si3 0.336460 0.009981 0.184042
Si Si4 0.982097 0.614965 0.068340
Si Si5 0.504320 0.621305 0.772429
Si Si6 0.138707 0.559975 0.526158
O O1 0.182998 0.652769 0.560734
O O2 0.320734 0.697876 0.702902
O O3 0.364109 0.813948 0.342397
O O4 0.000000 0.000000 0.500000
O O5 0.664471 0.904406 0.722135
O O6 0.502516 0.803533 0.683266
O O7 0.893132 0.708282 0.516807
O O8 0.796395 0.549036 0.862198
O O9 0.121351 0.170227 0.096410
O O10 0.500000 0.000000 0.000000
O O11 0.836893 0.620731 0.270583
O O12 0.000000 0.500000 0.000000
O O13 0.713178 0.491597 0.653878
O O14 0.500000 0.500000 0.000000
#
# Coordination Sequence:
#
# PCOD9035740 Si02
#       6
#     2   2   2   2   2   2
#     4  12  25  45  67 102 136 172 223 276 336 395
#     4   9  22  43  66  93 133 173 223 264 336 387
#     4  11  22  38  69 100 134 171 217 275 337 398
#     4   8  17  37  70  90 119 175 225 254 316 397
#     4  12  28  41  69 101 136 175 228 279 326 390
#     4  10  22  46  71  94 132 186 227 262 324 419
#
# _framework density 23.473931
#
# number of rings (size 3 to 8) (size 9 to 14) (size 15 to 20)
#    1.000    0.667    1.667    2.000    9.333    0.667 
#    0.000    0.833    0.000    0.000    0.000    0.000 
#    0.000    0.000    0.000    0.000    0.000    0.000 
#
# Total GULP energy -66936.589644 kJ/mol
# GULP energy per Si atom -5578.049137 kJ/mol
# Density = 2.342050 g / cm^3
# Si number density = 23.473931 Si / 1000 Ang^3
#
#
#
# Elastic Constant Matrix: (Units=GPa)
#
#
# Indices 1 2 3 4 5 6 
#
# 1 121.8236 20.7698 43.0873 -0.3596 -2.8489 15.5016
# 2 20.7698 43.7193 23.3979 15.8839 4.1324 3.5090
# 3 43.0873 23.3979 155.8658 15.5614 7.8722 -0.2951
# 4 -0.3596 15.8839 15.5614 45.1149 -1.3183 -3.3028
# 5 -2.8489 4.1324 7.8722 -1.3183 45.6704 -5.4159
# 6 15.5016 3.5090 -0.2951 -3.3028 -5.4159 33.9757
#
#
#
# Elastic Compliance Matrix: (Units=1/GPa)
#
#
# Indices 1 2 3 4 5 6 
#
# 1 0.010332 -0.004126 -0.002511 0.002144 0.001046 -0.003934
# 2 -0.004126 0.030265 -0.002224 -0.010219 -0.003236 -0.002772
# 3 -0.002511 -0.002224 0.007691 -0.001847 -0.001208 0.001070
# 4 0.002144 -0.010219 -0.001847 0.026715 0.002510 0.003058
# 5 0.001046 -0.003236 -0.001208 0.002510 0.022980 0.003754
# 6 -0.003934 -0.002772 0.001070 0.003058 0.003754 0.032419
#
#
# Mechanical properties :
#
#
# Convention : Reuss Voigt Hill
#
# Bulk Modulus (GPa) = 32.71750 55.10208 43.90979
# Shear Modulus (GPa) = 31.58314 40.56243 36.07278
#
# Velocity S-wave (km/s) = 3.67202 4.16140 3.92435
# Velocity P-wave (km/s) = 5.65212 6.82747 6.26741
#
# Compressibility (1/GPa) = 0.03056469
#
# Stress axis : x y z
#
# Youngs Moduli (GPa) = 96.79047 33.04170 130.01946
#
# Poissons Ratio (x) = 0.13634 0.32647
# Poissons Ratio (y) = 0.39940 0.28918
# Poissons Ratio (z) = 0.24303 0.07349
#
# Static dielectric constant tensor:
#      x y z
#    x 2.040980 -0.073350 -0.009840 
#    y -0.073350 1.909440 0.023080 
#    z -0.009840 0.023080 1.916170 
# 
# From -- ./inp_files/164360.got.cif
#   From: 2010.05.17/outbox.cif.g08.bks.cpg/sg2_83_cif.got.tgz:164360.got - 2010.06.03 11:33:40.
