data_PCOD9035251
_publ_section_title
;
Structure prediction by ZEFSAII (Michael W. Deem and Ramdas Pophale) SiO2 
 PCOD9035251
Probable space group: P -1
;
_chemical_formula_sum "Si O2"
_cell_formula_units_Z 16
_cell_length_a 14.921834
_cell_length_b 6.280135
_cell_length_c 9.256135
_cell_angle_alpha 109.036919
_cell_angle_beta 76.191392
_cell_angle_gamma 67.177554
_cell_volume 686.180038
_symmetry_space_group_name_H-M "P -1"
_symmetry_group_IT_number 2
_symmetry_cell_setting 'triclinic'
loop_
_space_group_symop_operation_xyz
x,y,z
-x,-y,-z
loop_
_atom_site_type_symbol
_atom_site_label
_atom_site_fract_x
_atom_site_fract_y
_atom_site_fract_z
Si Si1 0.320951 0.340160 0.176872
Si Si2 0.093541 0.699715 0.386816
Si Si3 0.687721 0.022513 0.129934
Si Si4 0.153445 0.813868 0.820044
Si Si5 0.502042 0.451938 0.155717
Si Si6 0.773896 0.641985 0.507488
Si Si7 0.403567 0.935175 0.515790
Si Si8 0.952519 0.325064 0.923700
O O1 0.217283 0.634365 0.301165
O O2 0.433470 0.309730 0.159254
O O3 0.300335 0.208282 0.293896
O O4 0.312121 0.215084 0.004779
O O5 0.112233 0.518255 0.482615
O O6 0.073691 0.607273 0.219715
O O7 0.000000 0.000000 0.500000
O O8 0.799080 0.006200 0.111022
O O9 0.624666 0.271600 0.107791
O O10 0.619410 0.099705 0.318684
O O11 0.226660 0.601797 0.624838
O O12 0.041099 0.016698 0.834458
O O13 0.136157 0.662159 0.926772
O O14 0.448579 0.689528 0.338825
O O15 0.500000 0.500000 0.000000
O O16 0.716050 0.856795 0.453145
O O17 0.500000 0.000000 0.500000
O O18 0.000000 0.500000 0.000000
#
# Coordination Sequence:
#
# PCOD9035251 Si02
#       8
#     2   2   2   2   2   2   2   2
#     4  10  23  43  67 102 141 184 241 293 361 426
#     4  10  22  45  72  98 140 184 236 297 359 423
#     4  12  25  43  74  99 146 191 238 302 364 429
#     4  11  25  44  67 107 137 186 239 299 356 434
#     4  12  25  43  68 103 144 189 241 297 362 437
#     4  10  23  42  68  97 140 181 239 289 357 422
#     4  12  25  43  68 105 145 193 246 294 359 431
#     4  11  24  46  73 100 142 181 243 297 366 426
#
# _framework density 23.317494
#
# number of rings (size 3 to 8) (size 9 to 14) (size 15 to 20)
#    0.750    0.250    1.250    5.250    5.250    0.000 
#    0.000    0.625    0.000    0.000    0.000    0.000 
#    0.000    0.000    0.000    0.000    0.000    0.000 
#
# Total GULP energy -89082.055023 kJ/mol
# GULP energy per Si atom -5567.628439 kJ/mol
# Density = 2.326442 g / cm^3
# Si number density = 23.317494 Si / 1000 Ang^3
#
#
#
# Elastic Constant Matrix: (Units=GPa)
#
#
# Indices 1 2 3 4 5 6 
#
# 1 66.1703 9.9102 25.5311 -1.7449 17.6247 2.5049
# 2 9.9102 49.5944 26.9059 -1.1540 8.1954 -18.7799
# 3 25.5311 26.9059 139.1360 8.0990 22.4397 4.0486
# 4 -1.7449 -1.1540 8.0990 43.4022 -8.1806 4.2549
# 5 17.6247 8.1954 22.4397 -8.1806 37.3197 -0.1309
# 6 2.5049 -18.7799 4.0486 4.2549 -0.1309 48.4355
#
#
#
# Elastic Compliance Matrix: (Units=1/GPa)
#
#
# Indices 1 2 3 4 5 6 
#
# 1 0.018026 -0.002130 -0.001697 -0.000190 -0.007072 -0.001619
# 2 -0.002130 0.027953 -0.005019 0.000094 -0.002054 0.011354
# 3 -0.001697 -0.005019 0.009380 -0.002524 -0.004298 -0.002432
# 4 -0.000190 0.000094 -0.002524 0.025026 0.007065 -0.001922
# 5 -0.007072 -0.002054 -0.004298 0.007065 0.034718 -0.000598
# 6 -0.001619 0.011354 -0.002432 -0.001922 -0.000598 0.025503
#
#
# Mechanical properties :
#
#
# Convention : Reuss Voigt Hill
#
# Bulk Modulus (GPa) = 26.54860 42.17724 34.36292
# Shear Modulus (GPa) = 29.26456 38.66839 33.96648
#
# Velocity S-wave (km/s) = 3.54651 4.07669 3.82081
# Velocity P-wave (km/s) = 5.30855 6.34718 5.85096
#
# Compressibility (1/GPa) = 0.03766677
#
# Stress axis : x y z
#
# Youngs Moduli (GPa) = 55.47437 35.77375 106.60821
#
# Poissons Ratio (x) = 0.07620 0.18093
# Poissons Ratio (y) = 0.11817 0.53510
# Poissons Ratio (z) = 0.09415 0.17956
#
# Static dielectric constant tensor:
#      x y z
#    x 1.873070 -0.066100 -0.013750 
#    y -0.066100 1.926730 -0.004060 
#    z -0.013750 -0.004060 1.877970 
# 
# From -- ./inp_files/289150.got.cif
#   From: 2010.05.17/outbox.cif.g08.bks.cpg/sg2_145_cif.got.tgz:289150.got - 2010.06.03 11:33:40.
