data_PCOD9035513
_publ_section_title
;
Structure prediction by ZEFSAII (Michael W. Deem and Ramdas Pophale) SiO2 
 PCOD9035513
Probable space group: P -1
;
_chemical_formula_sum "Si O2"
_cell_formula_units_Z 13
_cell_length_a 7.879767
_cell_length_b 13.528320
_cell_length_c 6.781612
_cell_angle_alpha 103.220140
_cell_angle_beta 82.727025
_cell_angle_gamma 48.829053
_cell_volume 490.406785
_symmetry_space_group_name_H-M "P -1"
_symmetry_group_IT_number 2
_symmetry_cell_setting 'triclinic'
loop_
_space_group_symop_operation_xyz
x,y,z
-x,-y,-z
loop_
_atom_site_type_symbol
_atom_site_label
_atom_site_fract_x
_atom_site_fract_y
_atom_site_fract_z
Si Si1 0.109546 0.626081 0.667235
Si Si2 0.789816 0.667015 0.044313
Si Si3 0.947602 0.125340 0.681454
Si Si4 0.332547 0.851763 0.942893
Si Si5 0.500000 0.000000 0.000000
Si Si6 0.592895 0.310270 0.489931
Si Si7 0.255442 0.181734 0.517494
O O1 0.310027 0.456126 0.596830
O O2 0.261185 0.665132 0.643086
O O3 0.965711 0.672830 0.506505
O O4 0.912084 0.704668 0.907818
O O5 0.584253 0.709955 0.950397
O O6 0.673605 0.770408 0.298593
O O7 0.000000 0.500000 0.000000
O O8 0.881073 0.120915 0.909046
O O9 0.703993 0.267936 0.670920
O O10 0.145448 0.127944 0.614002
O O11 0.000000 0.000000 0.500000
O O12 0.358720 0.811523 0.694080
O O13 0.327119 0.972300 0.049416
O O14 0.569304 0.926709 0.733379
#
# Coordination Sequence:
#
# PCOD9035513 Si02
#       7
#     2   2   2   2   1   2   2
#     4  10  22  46  67 101 129 181 222 275 340 383
#     4  12  26  41  71 102 135 176 220 279 340 392
#     4  11  24  45  67  99 130 184 225 270 332 398
#     4  12  26  43  66 103 134 177 222 274 337 392
#     4  12  26  44  66 100 136 182 218 276 338 384
#     4  10  24  43  72  94 138 172 227 279 325 406
#     4  11  25  47  68  97 139 175 228 272 330 402
#
# _framework density 26.508607999999999
#
# number of rings (size 3 to 8) (size 9 to 14) (size 15 to 20)
#    0.000    0.923    3.077    2.769    4.308    3.692 
#    0.000    6.154    0.000    0.000    0.000    0.000 
#    0.000    0.000    0.000    0.000    0.000    0.000 
#
# Total GULP energy -72677.031234 kJ/mol
# GULP energy per Si atom -5590.540864 kJ/mol
# Density = 2.644827 g / cm^3
# Si number density = 26.508608 Si / 1000 Ang^3
#
#
#
# Elastic Constant Matrix: (Units=GPa)
#
#
# Indices 1 2 3 4 5 6 
#
# 1 79.2102 15.5377 43.3747 -10.2876 -10.5432 9.2643
# 2 15.5377 86.5450 -0.0217 -13.6819 5.6768 -14.8849
# 3 43.3747 -0.0217 170.7414 -5.3029 -16.3596 6.6356
# 4 -10.2876 -13.6819 -5.3029 30.2517 7.8807 -3.9352
# 5 -10.5432 5.6768 -16.3596 7.8807 56.7336 -11.5839
# 6 9.2643 -14.8849 6.6356 -3.9352 -11.5839 54.9171
#
#
#
# Elastic Compliance Matrix: (Units=1/GPa)
#
#
# Indices 1 2 3 4 5 6 
#
# 1 0.016121 -0.002984 -0.003785 0.002796 0.001284 -0.002600
# 2 -0.002984 0.013964 0.000621 0.006435 -0.001789 0.004297
# 3 -0.003785 0.000621 0.006930 -0.000098 0.001295 0.000236
# 4 0.002796 0.006435 -0.000098 0.038567 -0.004894 0.003015
# 5 0.001284 -0.001789 0.001295 -0.004894 0.019699 0.002946
# 6 -0.002600 0.004297 0.000236 0.003015 0.002946 0.020622
#
#
# Mechanical properties :
#
#
# Convention : Reuss Voigt Hill
#
# Bulk Modulus (GPa) = 40.45390 50.47534 45.46462
# Shear Modulus (GPa) = 36.64668 46.88754 41.76711
#
# Velocity S-wave (km/s) = 3.72216 4.21023 3.97370
# Velocity P-wave (km/s) = 5.81089 6.53584 6.18400
#
# Compressibility (1/GPa) = 0.02471949
#
# Stress axis : x y z
#
# Youngs Moduli (GPa) = 62.03212 71.61118 144.29602
#
# Poissons Ratio (x) = 0.21372 0.54612
# Poissons Ratio (y) = 0.18513 -0.08966
# Poissons Ratio (z) = 0.23478 -0.04450
#
# Static dielectric constant tensor:
#      x y z
#    x 1.995420 -0.059980 -0.054910 
#    y -0.059980 2.590250 -0.027910 
#    z -0.054910 -0.027910 1.961290 
# 
# From -- ./inp_files/21975.got.cif
#   From: 2010.05.17/outbox.cif.g08.bks.cpg/sg2_11_cif.got.tgz:21975.got - 2010.06.03 11:33:40.
