data_PCOD9035318
_publ_section_title
;
Structure prediction by ZEFSAII (Michael W. Deem and Ramdas Pophale) SiO2 
 PCOD9035318
Probable space group: P -1
;
_chemical_formula_sum "Si O2"
_cell_formula_units_Z 16
_cell_length_a 13.935368
_cell_length_b 5.284625
_cell_length_c 10.054542
_cell_angle_alpha 77.065981
_cell_angle_beta 79.138072
_cell_angle_gamma 108.824455
_cell_volume 655.225644
_symmetry_space_group_name_H-M "P -1"
_symmetry_group_IT_number 2
_symmetry_cell_setting 'triclinic'
loop_
_space_group_symop_operation_xyz
x,y,z
-x,-y,-z
loop_
_atom_site_type_symbol
_atom_site_label
_atom_site_fract_x
_atom_site_fract_y
_atom_site_fract_z
Si Si1 0.127069 0.750116 0.223800
Si Si2 0.608127 0.625599 0.265844
Si Si3 0.415637 0.750931 0.232071
Si Si4 0.193360 0.918875 0.902244
Si Si5 0.726813 0.459499 0.478333
Si Si6 0.121335 0.159628 0.403273
Si Si7 0.890160 0.592074 0.203811
Si Si8 0.419136 0.642844 0.962695
O O1 0.127100 0.451004 0.301923
O O2 0.008948 0.696246 0.210520
O O3 0.149117 0.962398 0.315984
O O4 0.198922 0.886130 0.062170
O O5 0.486379 0.582870 0.288339
O O6 0.638509 0.488165 0.400511
O O7 0.640411 0.510865 0.134349
O O8 0.689316 0.948446 0.206055
O O9 0.335405 0.756543 0.365599
O O10 0.504775 0.047955 0.137330
O O11 0.361178 0.636231 0.118046
O O12 0.129756 0.617925 0.889569
O O13 0.139397 0.139955 0.853841
O O14 0.795820 0.742453 0.508074
O O15 0.812847 0.420035 0.363549
O O16 0.000000 0.000000 0.500000
O O17 0.500000 0.500000 0.000000
#
# Coordination Sequence:
#
# PCOD9035318 Si02
#       8
#     2   2   2   2   2   2   2   2
#     4  12  25  46  76  99 145 193 245 296 364 422
#     4  10  24  43  68 103 141 184 232 300 351 425
#     4  10  22  45  73  98 141 183 235 289 359 426
#     4  11  25  43  74 108 142 185 245 296 364 426
#     4  11  26  44  70 105 141 190 237 292 361 431
#     4  12  27  47  69 104 146 193 241 301 355 427
#     4  11  24  46  70 107 145 184 238 304 357 432
#     4   9  21  43  66  99 134 177 233 294 345 415
#
# _framework density 24.419070000000001
#
# number of rings (size 3 to 8) (size 9 to 14) (size 15 to 20)
#    0.000    1.250    1.250    3.000    7.000    3.500 
#   11.250    0.000    0.000    0.000    0.000    0.000 
#    0.000    0.000    0.000    0.000    0.000    0.000 
#
# Total GULP energy -89579.700409 kJ/mol
# GULP energy per Si atom -5598.731276 kJ/mol
# Density = 2.436349 g / cm^3
# Si number density = 24.419070 Si / 1000 Ang^3
#
#
#
# Elastic Constant Matrix: (Units=GPa)
#
#
# Indices 1 2 3 4 5 6 
#
# 1 104.5438 16.1782 18.4045 0.5836 16.9022 -7.3443
# 2 16.1782 89.6578 16.1244 14.5067 20.0888 -11.2810
# 3 18.4045 16.1244 141.6178 6.2294 6.2826 -4.9321
# 4 0.5836 14.5067 6.2294 41.9220 10.8696 10.7847
# 5 16.9022 20.0888 6.2826 10.8696 31.3601 4.9614
# 6 -7.3443 -11.2810 -4.9321 10.7847 4.9614 31.7189
#
#
#
# Elastic Compliance Matrix: (Units=1/GPa)
#
#
# Indices 1 2 3 4 5 6 
#
# 1 0.011024 -0.000121 -0.001068 0.000941 -0.006456 0.003033
# 2 -0.000121 0.015216 -0.000803 -0.004927 -0.009137 0.008363
# 3 -0.001068 -0.000803 0.007379 -0.001007 -0.000195 0.000987
# 4 0.000941 -0.004927 -0.001007 0.030032 -0.005819 -0.010992
# 5 -0.006456 -0.009137 -0.000195 -0.005819 0.044828 -0.009808
# 6 0.003033 0.008363 0.000987 -0.010992 -0.009808 0.040629
#
#
# Mechanical properties :
#
#
# Convention : Reuss Voigt Hill
#
# Bulk Modulus (GPa) = 33.74552 48.58152 41.16352
# Shear Modulus (GPa) = 30.68034 40.00768 35.34401
#
# Velocity S-wave (km/s) = 3.54843 4.05208 3.80859
# Velocity P-wave (km/s) = 5.53514 6.46766 6.01948
#
# Compressibility (1/GPa) = 0.02963356
#
# Stress axis : x y z
#
# Youngs Moduli (GPa) = 90.71322 65.71820 135.52180
#
# Poissons Ratio (x) = 0.00796 0.14476
# Poissons Ratio (y) = 0.01099 0.10889
# Poissons Ratio (z) = 0.09690 0.05280
#
# Static dielectric constant tensor:
#      x y z
#    x 1.980870 -0.027600 0.001190 
#    y -0.027600 1.954090 0.015100 
#    z 0.001190 0.015100 1.951500 
# 
# From -- ./inp_files/288632.got.cif
#   From: 2010.05.17/outbox.cif.g08.bks.cpg/sg2_145_cif.got.tgz:288632.got - 2010.06.03 11:33:40.
