data_PCOD9035265
_publ_section_title
;
Structure prediction by ZEFSAII (Michael W. Deem and Ramdas Pophale) SiO2 
 PCOD9035265
Probable space group: P -1
;
_chemical_formula_sum "Si O2"
_cell_formula_units_Z 12
_cell_length_a 4.971861
_cell_length_b 5.822798
_cell_length_c 15.773937
_cell_angle_alpha 80.202737
_cell_angle_beta 81.407040
_cell_angle_gamma 97.211121
_cell_volume 439.574422
_symmetry_space_group_name_H-M "P -1"
_symmetry_group_IT_number 2
_symmetry_cell_setting 'triclinic'
loop_
_space_group_symop_operation_xyz
x,y,z
-x,-y,-z
loop_
_atom_site_type_symbol
_atom_site_label
_atom_site_fract_x
_atom_site_fract_y
_atom_site_fract_z
Si Si1 0.819711 0.297923 0.966884
Si Si2 0.717208 0.099210 0.162777
Si Si3 0.855164 0.686776 0.441663
Si Si4 0.626777 0.627056 0.148390
Si Si5 0.468929 0.296948 0.387659
Si Si6 0.008175 0.119683 0.307610
O O1 0.558852 0.359753 0.926647
O O2 0.047981 0.271660 0.887206
O O3 0.734269 0.115174 0.058138
O O4 0.000000 0.500000 0.000000
O O5 0.615261 0.346050 0.178628
O O6 0.990647 0.119861 0.207187
O O7 0.553820 0.833856 0.201547
O O8 0.635742 0.542467 0.397663
O O9 0.695628 0.808482 0.514603
O O10 0.000000 0.500000 0.500000
O O11 0.050032 0.876030 0.365298
O O12 0.703226 0.158609 0.349367
O O13 0.233129 0.313064 0.328463
#
# Coordination Sequence:
#
# PCOD9035265 Si02
#       6
#     2   2   2   2   2   2
#     4  10  22  45  73 101 137 189 244 283 343 424
#     4  11  26  46  69 107 143 186 228 303 353 415
#     4  11  25  46  77  99 135 185 241 283 352 428
#     4  11  25  44  74  98 141 189 243 280 349 422
#     4  11  26  45  71 100 136 184 233 283 354 431
#     4  12  28  43  69 104 146 176 234 294 366 411
#
# _framework density 27.299132
#
# number of rings (size 3 to 8) (size 9 to 14) (size 15 to 20)
#    0.000    1.000    1.667    4.000    7.000    8.000 
#    0.000    0.000    0.000    0.000    0.000    0.000 
#    0.000    0.000    0.000    0.000    0.000    0.000 
#
# Total GULP energy -67033.268445 kJ/mol
# GULP energy per Si atom -5586.105704 kJ/mol
# Density = 2.723700 g / cm^3
# Si number density = 27.299132 Si / 1000 Ang^3
#
#
#
# Elastic Constant Matrix: (Units=GPa)
#
#
# Indices 1 2 3 4 5 6 
#
# 1 130.3834 35.5597 54.2837 2.7366 25.2254 -3.2410
# 2 35.5597 182.4575 47.5866 12.2867 32.8927 -1.3037
# 3 54.2837 47.5866 130.5773 6.7902 32.1584 3.9214
# 4 2.7366 12.2867 6.7902 32.1565 13.0430 14.9846
# 5 25.2254 32.8927 32.1584 13.0430 64.7587 14.4494
# 6 -3.2410 -1.3037 3.9214 14.9846 14.4494 33.8549
#
#
#
# Elastic Compliance Matrix: (Units=1/GPa)
#
#
# Indices 1 2 3 4 5 6 
#
# 1 0.009724 -0.000588 -0.003317 -0.000023 -0.002352 0.002307
# 2 -0.000588 0.006604 -0.001511 -0.002293 -0.002457 0.002437
# 3 -0.003317 -0.001511 0.010337 0.000042 -0.003014 -0.000305
# 4 -0.000023 -0.002293 0.000042 0.041209 -0.003377 -0.016894
# 5 -0.002352 -0.002457 -0.003014 -0.003377 0.021489 -0.007648
# 6 0.002307 0.002437 -0.000305 -0.016894 -0.007648 0.040629
#
#
# Mechanical properties :
#
#
# Convention : Reuss Voigt Hill
#
# Bulk Modulus (GPa) = 63.15926 79.80866 71.48396
# Shear Modulus (GPa) = 34.22239 46.55324 40.38781
#
# Velocity S-wave (km/s) = 3.54447 4.13401 3.85054
# Velocity P-wave (km/s) = 6.31959 7.21700 6.78315
#
# Compressibility (1/GPa) = 0.01583299
#
# Stress axis : x y z
#
# Youngs Moduli (GPa) = 102.83952 151.41887 96.73737
#
# Poissons Ratio (x) = 0.08903 0.32088
# Poissons Ratio (y) = 0.06047 0.14619
# Poissons Ratio (z) = 0.34112 0.22883
#
# Static dielectric constant tensor:
#      x y z
#    x 2.158220 -0.079090 -0.138000 
#    y -0.079090 2.214640 -0.023910 
#    z -0.138000 -0.023910 2.183850 
# 
# From -- ./inp_files/478250.got.cif
#   From: 2010.05.17/outbox.cif.g08.bks.cpg/sg2_240_cif.got.tgz:478250.got - 2010.06.03 11:33:40.
