data_PCOD9035007
_publ_section_title
;
Structure prediction by ZEFSAII (Michael W. Deem and Ramdas Pophale) SiO2 
 PCOD9035007
Probable space group: P -1
;
_chemical_formula_sum "Si O2"
_cell_formula_units_Z 15
_cell_length_a 10.809390
_cell_length_b 12.641673
_cell_length_c 7.548606
_cell_angle_alpha 56.090725
_cell_angle_beta 140.238555
_cell_angle_gamma 108.210088
_cell_volume 534.221977
_symmetry_space_group_name_H-M "P -1"
_symmetry_group_IT_number 2
_symmetry_cell_setting 'triclinic'
loop_
_space_group_symop_operation_xyz
x,y,z
-x,-y,-z
loop_
_atom_site_type_symbol
_atom_site_label
_atom_site_fract_x
_atom_site_fract_y
_atom_site_fract_z
Si Si1 0.500000 0.000000 0.000000
Si Si2 0.822244 0.255030 0.942417
Si Si3 0.444255 0.662544 0.764604
Si Si4 0.743780 0.517674 0.024568
Si Si5 0.014482 0.975214 0.252785
Si Si6 0.915964 0.700504 0.520221
Si Si7 0.431148 0.299975 0.645989
Si Si8 0.435830 0.933300 0.661427
O O1 0.598474 0.944972 0.972643
O O2 0.441376 0.155756 0.712160
O O3 0.707801 0.329393 0.578042
O O4 0.666936 0.289417 0.902802
O O5 0.007856 0.300395 0.189265
O O6 0.895914 0.102910 0.108551
O O7 0.669290 0.643656 0.952402
O O8 0.389006 0.804025 0.655148
O O9 0.392303 0.566124 0.945676
O O10 0.667294 0.577881 0.696645
O O11 0.957834 0.425444 0.325568
O O12 0.247876 0.975372 0.552066
O O13 0.967209 0.833337 0.371366
O O14 0.000000 0.000000 0.000000
O O15 0.692037 0.685731 0.321187
O O16 0.500000 0.000000 0.500000
#
# Coordination Sequence:
#
# PCOD9035007 Si02
#       8
#     1   2   2   2   2   2   2   2
#     4  12  26  46  72 112 142 190 250 306 384 434
#     4  11  23  44  70 107 144 192 247 300 382 435
#     4  10  22  45  71 101 149 195 240 307 368 441
#     4  10  22  45  70 101 146 194 246 298 371 449
#     4  12  24  43  70 104 147 194 239 307 378 443
#     4  12  24  43  72 105 146 191 252 304 366 450
#     4  11  25  43  74 104 145 188 244 313 361 450
#     4  12  25  45  75 111 151 194 248 318 376 453
#
# _framework density 28.078216999999999
#
# number of rings (size 3 to 8) (size 9 to 14) (size 15 to 20)
#    0.000    0.800    2.667    4.800    1.867    2.133 
#    2.400    0.667    0.000    0.000    0.000    0.000 
#    0.000    0.000    0.000    0.000    0.000    0.000 
#
# Total GULP energy -83601.051484 kJ/mol
# GULP energy per Si atom -5573.403432 kJ/mol
# Density = 2.801431 g / cm^3
# Si number density = 28.078217 Si / 1000 Ang^3
#
#
#
# Elastic Constant Matrix: (Units=GPa)
#
#
# Indices 1 2 3 4 5 6 
#
# 1 186.1817 33.8073 56.6978 -23.5147 7.7120 -10.6756
# 2 33.8073 42.0291 10.9636 -7.1783 -5.2707 -2.5088
# 3 56.6978 10.9636 122.5828 -30.2503 -7.0307 12.0830
# 4 -23.5147 -7.1783 -30.2503 44.9305 -7.7922 -2.4211
# 5 7.7120 -5.2707 -7.0307 -7.7922 80.9679 -3.7533
# 6 -10.6756 -2.5088 12.0830 -2.4211 -3.7533 52.4966
#
#
#
# Elastic Compliance Matrix: (Units=1/GPa)
#
#
# Indices 1 2 3 4 5 6 
#
# 1 0.007501 -0.005102 -0.003027 0.000983 -0.001125 0.001943
# 2 -0.005102 0.028586 0.000596 0.002793 0.002691 0.000513
# 3 -0.003027 0.000596 0.011461 0.006390 0.001807 -0.002801
# 4 0.000983 0.002793 0.006390 0.028125 0.003368 0.000400
# 5 -0.001125 0.002691 0.001807 0.003368 0.013141 0.000579
# 6 0.001943 0.000513 -0.002801 0.000400 0.000579 0.020173
#
#
# Mechanical properties :
#
#
# Convention : Reuss Voigt Hill
#
# Bulk Modulus (GPa) = 30.78487 61.52569 46.15528
# Shear Modulus (GPa) = 37.06985 52.30066 44.68525
#
# Velocity S-wave (km/s) = 3.63745 4.32056 3.99363
# Velocity P-wave (km/s) = 5.35062 6.84466 6.14323
#
# Compressibility (1/GPa) = 0.03248349
#
# Stress axis : x y z
#
# Youngs Moduli (GPa) = 133.30949 34.98190 87.25152
#
# Poissons Ratio (x) = 0.17846 0.26410
# Poissons Ratio (y) = 0.68009 -0.05199
# Poissons Ratio (z) = 0.40351 -0.02084
#
# Static dielectric constant tensor:
#      x y z
#    x 2.251940 0.096820 0.152790 
#    y 0.096820 2.252980 -0.106250 
#    z 0.152790 -0.106250 2.441180 
# 
# From -- ./inp_files/271957.got.cif
#   From: 2010.05.17/outbox.cif.g08.bks.cpg/sg2_136_cif.got.tgz:271957.got - 2010.06.03 11:33:40.
