data_PCOD9035604
_publ_section_title
;
Structure prediction by ZEFSAII (Michael W. Deem and Ramdas Pophale) SiO2 
 PCOD9035604
Probable space group: P -1
;
_chemical_formula_sum "Si O2"
_cell_formula_units_Z 12
_cell_length_a 5.073164
_cell_length_b 14.022134
_cell_length_c 7.362763
_cell_angle_alpha 68.518945
_cell_angle_beta 68.222712
_cell_angle_gamma 77.982034
_cell_volume 451.008109
_symmetry_space_group_name_H-M "P -1"
_symmetry_group_IT_number 2
_symmetry_cell_setting 'triclinic'
loop_
_space_group_symop_operation_xyz
x,y,z
-x,-y,-z
loop_
_atom_site_type_symbol
_atom_site_label
_atom_site_fract_x
_atom_site_fract_y
_atom_site_fract_z
Si Si1 0.326223 0.075900 0.844538
Si Si2 0.771014 0.785325 0.684399
Si Si3 0.670232 0.412383 0.132494
Si Si4 0.234685 0.381157 0.888062
Si Si5 0.154563 0.901641 0.776423
Si Si6 0.650619 0.274090 0.567327
O O1 0.525458 0.164309 0.688484
O O2 0.228334 0.016635 0.732540
O O3 0.037737 0.122345 0.983086
O O4 0.500000 0.000000 0.000000
O O5 0.462157 0.844164 0.713089
O O6 0.956119 0.867088 0.689339
O O7 0.005135 0.743249 0.504080
O O8 0.716304 0.685103 0.892406
O O9 0.793110 0.494794 0.186426
O O10 0.573152 0.329621 0.355750
O O11 0.500000 0.500000 0.000000
O O12 0.902515 0.360269 0.969115
O O13 0.477614 0.341262 0.716360
#
# Coordination Sequence:
#
# PCOD9035604 Si02
#       6
#     2   2   2   2   2   2
#     4  11  23  46  75 104 145 197 243 302 359 428
#     4  11  25  45  74 106 150 191 243 302 362 431
#     4  10  24  44  73 103 144 186 235 307 368 431
#     4  10  22  46  69 104 146 184 241 301 363 437
#     4  11  23  47  68 105 151 192 237 305 358 427
#     4  11  24  46  72 110 138 196 245 296 365 439
#
# _framework density 26.607064000000001
#
# number of rings (size 3 to 8) (size 9 to 14) (size 15 to 20)
#    0.000    1.333    3.333    0.500    4.667    2.000 
#   12.000    0.000    0.000    0.000    0.000    0.000 
#    0.000    0.000    0.000    0.000    0.000    0.000 
#
# Total GULP energy -67039.843897 kJ/mol
# GULP energy per Si atom -5586.653658 kJ/mol
# Density = 2.654650 g / cm^3
# Si number density = 26.607064 Si / 1000 Ang^3
#
#
#
# Elastic Constant Matrix: (Units=GPa)
#
#
# Indices 1 2 3 4 5 6 
#
# 1 106.7320 41.1351 58.7921 -7.4870 -29.9660 -33.3368
# 2 41.1351 155.0416 99.6487 24.2758 -24.5168 -6.5817
# 3 58.7921 99.6487 200.0934 19.7736 -45.1554 -34.9091
# 4 -7.4870 24.2758 19.7736 65.1941 -10.6913 -17.9027
# 5 -29.9660 -24.5168 -45.1554 -10.6913 51.2323 5.7152
# 6 -33.3368 -6.5817 -34.9091 -17.9027 5.7152 51.1752
#
#
#
# Elastic Compliance Matrix: (Units=1/GPa)
#
#
# Indices 1 2 3 4 5 6 
#
# 1 0.018452 -0.004551 0.000492 0.009013 0.009382 0.013876
# 2 -0.004551 0.011394 -0.005567 -0.005377 -0.002468 -0.006902
# 3 0.000492 -0.005567 0.009911 0.001855 0.006039 0.006340
# 4 0.009013 -0.005377 0.001855 0.022782 0.007574 0.013569
# 5 0.009382 -0.002468 0.006039 0.007574 0.029697 0.009247
# 6 0.013876 -0.006902 0.006340 0.013569 0.009247 0.035731
#
#
# Mechanical properties :
#
#
# Convention : Reuss Voigt Hill
#
# Bulk Modulus (GPa) = 48.76574 95.66876 72.21725
# Shear Modulus (GPa) = 32.45617 51.00642 41.73130
#
# Velocity S-wave (km/s) = 3.49640 4.38313 3.96464
# Velocity P-wave (km/s) = 5.88792 7.85175 6.93966
#
# Compressibility (1/GPa) = 0.02050620
#
# Stress axis : x y z
#
# Youngs Moduli (GPa) = 54.19320 87.76696 100.89668
#
# Poissons Ratio (x) = 0.39938 -0.04962
# Poissons Ratio (y) = 0.24661 0.56168
# Poissons Ratio (z) = -0.02665 0.48859
#
# Static dielectric constant tensor:
#      x y z
#    x 2.538350 0.073880 0.035150 
#    y 0.073880 2.176280 -0.040820 
#    z 0.035150 -0.040820 2.101300 
# 
# From -- ./inp_files/136063.got.cif
#   From: 2010.05.17/outbox.cif.g08.bks.cpg/sg2_69_cif.got.tgz:136063.got - 2010.06.03 11:33:40.
