data_PCOD9035491
_publ_section_title
;
Structure prediction by ZEFSAII (Michael W. Deem and Ramdas Pophale) SiO2 
 PCOD9035491
Probable space group: P -1
;
_chemical_formula_sum "Si O2"
_cell_formula_units_Z 16
_cell_length_a 9.439242
_cell_length_b 12.162682
_cell_length_c 18.709060
_cell_angle_alpha 49.750501
_cell_angle_beta 29.673174
_cell_angle_gamma 50.251110
_cell_volume 794.078442
_symmetry_space_group_name_H-M "P -1"
_symmetry_group_IT_number 2
_symmetry_cell_setting 'triclinic'
loop_
_space_group_symop_operation_xyz
x,y,z
-x,-y,-z
loop_
_atom_site_type_symbol
_atom_site_label
_atom_site_fract_x
_atom_site_fract_y
_atom_site_fract_z
Si Si1 0.203117 0.302418 0.845589
Si Si2 0.824220 0.796349 0.656130
Si Si3 0.844165 0.952063 0.352625
Si Si4 0.311733 0.512264 0.825989
Si Si5 0.830142 0.524681 0.350862
Si Si6 0.734948 0.204416 0.194336
Si Si7 0.945105 0.388901 0.633141
Si Si8 0.242600 0.949042 0.313771
O O1 0.317487 0.436697 0.777991
O O2 0.126374 0.355133 0.776924
O O3 0.458355 0.158003 0.794889
O O4 0.935239 0.267274 0.023211
O O5 0.566428 0.801970 0.709716
O O6 0.950835 0.630531 0.694423
O O7 0.082376 0.855119 0.477696
O O8 0.719144 0.906607 0.721004
O O9 0.937809 0.778609 0.370640
O O10 0.033008 0.988796 0.320956
O O11 0.500000 0.000000 0.500000
O O12 0.889893 0.047219 0.223382
O O13 0.324947 0.682172 0.760132
O O14 0.592981 0.421434 0.782662
O O15 0.000000 0.500000 0.000000
O O16 0.500000 0.500000 0.500000
O O17 0.900540 0.574521 0.377988
O O18 0.000000 0.500000 0.500000
#
# Coordination Sequence:
#
# PCOD9035491 Si02
#       8
#     2   2   2   2   2   2   2   2
#     4  11  25  45  66  98 137 176 223 283 340 403
#     4  11  24  44  66  97 136 170 222 283 336 405
#     4  12  25  41  70  99 130 180 224 274 347 398
#     4  10  22  46  66  92 138 172 220 287 333 392
#     4  12  25  41  70  99 130 180 224 274 347 398
#     4  11  25  45  66  98 137 176 223 283 340 403
#     4  12  24  44  73  99 129 175 236 281 328 410
#     4  11  24  44  66  97 136 170 222 283 336 405
#
# _framework density 20.149142999999999
#
# number of rings (size 3 to 8) (size 9 to 14) (size 15 to 20)
#    0.000    0.750    5.000    2.250    5.250    1.500 
#    0.000    0.000    0.000    0.000    0.000    0.000 
#    0.000    0.000    0.000    0.000    0.000    0.000 
#
# Total GULP energy -89465.360802 kJ/mol
# GULP energy per Si atom -5591.585050 kJ/mol
# Density = 2.010328 g / cm^3
# Si number density = 20.149143 Si / 1000 Ang^3
#
#
#
# Elastic Constant Matrix: (Units=GPa)
#
#
# Indices 1 2 3 4 5 6 
#
# 1 121.6193 39.1628 8.6674 -6.3865 0.5081 6.5566
# 2 39.1628 126.1976 13.0870 1.5977 -5.3665 4.1491
# 3 8.6674 13.0870 45.8419 -2.0282 5.1856 -0.5765
# 4 -6.3865 1.5977 -2.0282 31.9602 -7.0192 3.4965
# 5 0.5081 -5.3665 5.1856 -7.0192 29.2188 -6.3336
# 6 6.5566 4.1491 -0.5765 3.4965 -6.3336 44.6026
#
#
#
# Elastic Compliance Matrix: (Units=1/GPa)
#
#
# Indices 1 2 3 4 5 6 
#
# 1 0.009370 -0.002815 -0.000858 0.002032 -0.000328 -0.001333
# 2 -0.002815 0.009135 -0.002329 -0.000727 0.001936 -0.000134
# 3 -0.000858 -0.002329 0.023161 0.000446 -0.004420 -0.000021
# 4 0.002032 -0.000727 0.000446 0.033589 0.007430 -0.001803
# 5 -0.000328 0.001936 -0.004420 0.007430 0.038163 0.004648
# 6 -0.001333 -0.000134 -0.000021 -0.001803 0.004648 0.023430
#
#
# Mechanical properties :
#
#
# Convention : Reuss Voigt Hill
#
# Bulk Modulus (GPa) = 33.71155 46.16592 39.93873
# Shear Modulus (GPa) = 31.49879 36.67243 34.08561
#
# Velocity S-wave (km/s) = 3.95813 4.27083 4.11745
# Velocity P-wave (km/s) = 6.13648 6.87618 6.51683
#
# Compressibility (1/GPa) = 0.02966342
#
# Stress axis : x y z
#
# Youngs Moduli (GPa) = 106.72606 109.46936 43.17678
#
# Poissons Ratio (x) = 0.30812 0.03703
# Poissons Ratio (y) = 0.30040 0.10054
# Poissons Ratio (z) = 0.09154 0.25491
#
# Static dielectric constant tensor:
#      x y z
#    x 1.694040 0.019370 0.004310 
#    y 0.019370 1.703510 -0.005390 
#    z 0.004310 -0.005390 1.729830 
# 
# From -- ./inp_files/271470.got.cif
#   From: 2010.05.17/outbox.cif.g08.bks.cpg/sg2_136_cif.got.tgz:271470.got - 2010.06.03 11:33:40.
