data_PCOD9035461
_publ_section_title
;
Structure prediction by ZEFSAII (Michael W. Deem and Ramdas Pophale) SiO2 
 PCOD9035461
Probable space group: P -1
;
_chemical_formula_sum "Si O2"
_cell_formula_units_Z 16
_cell_length_a 14.091723
_cell_length_b 13.841213
_cell_length_c 5.413998
_cell_angle_alpha 73.678010
_cell_angle_beta 87.816044
_cell_angle_gamma 39.833442
_cell_volume 621.442948
_symmetry_space_group_name_H-M "P -1"
_symmetry_group_IT_number 2
_symmetry_cell_setting 'triclinic'
loop_
_space_group_symop_operation_xyz
x,y,z
-x,-y,-z
loop_
_atom_site_type_symbol
_atom_site_label
_atom_site_fract_x
_atom_site_fract_y
_atom_site_fract_z
Si Si1 0.683071 0.849829 0.157044
Si Si2 0.237653 0.387791 0.020162
Si Si3 0.446005 0.758618 0.330907
Si Si4 0.224945 0.787007 0.524719
Si Si5 0.011249 0.309770 0.869566
Si Si6 0.953345 0.124109 0.114717
Si Si7 0.212744 0.571128 0.554985
Si Si8 0.424239 0.899683 0.707399
O O1 0.749103 0.686836 0.182635
O O2 0.810180 0.813537 0.036325
O O3 0.673625 0.917403 0.368265
O O4 0.500000 0.000000 0.000000
O O5 0.253816 0.491818 0.873817
O O6 0.394636 0.224170 0.256220
O O7 0.085685 0.521705 0.103553
O O8 0.365987 0.718128 0.414692
O O9 0.628779 0.588624 0.484364
O O10 0.382721 0.877254 0.479828
O O11 0.417015 0.836951 0.008839
O O12 0.187712 0.710813 0.456778
O O13 0.213067 0.764544 0.829968
O O14 0.093943 0.982542 0.391145
O O15 0.938986 0.362439 0.563403
O O16 0.974749 0.224524 0.002519
O O17 0.000000 0.000000 0.000000
#
# Coordination Sequence:
#
# PCOD9035461 Si02
#       8
#     2   2   2   2   2   2   2   2
#     4  10  24  45  70 101 136 179 238 296 357 417
#     4  10  22  46  64  96 137 178 234 291 345 421
#     4  11  24  42  72 102 145 186 234 289 347 419
#     4  11  24  40  64  98 140 181 232 288 345 418
#     4  12  22  42  73  93 136 184 231 293 352 421
#     4  11  24  40  64  97 134 181 232 282 345 424
#     4  11  23  42  64 102 133 183 232 282 354 417
#     4  10  23  46  68 104 141 185 234 290 352 414
#
# _framework density 25.74653
#
# number of rings (size 3 to 8) (size 9 to 14) (size 15 to 20)
#    0.000    1.250    3.750    1.500    3.500    0.500 
#    4.500    5.000    0.000    0.000    0.000    0.000 
#    0.000    0.000    0.000    0.000    0.000    0.000 
#
# Total GULP energy -89068.636746 kJ/mol
# GULP energy per Si atom -5566.789797 kJ/mol
# Density = 2.568793 g / cm^3
# Si number density = 25.746530 Si / 1000 Ang^3
#
#
#
# Elastic Constant Matrix: (Units=GPa)
#
#
# Indices 1 2 3 4 5 6 
#
# 1 137.0976 55.7219 36.3366 11.6447 -8.1831 -1.9285
# 2 55.7219 154.1072 29.9511 24.8811 3.5972 16.4949
# 3 36.3366 29.9511 66.8733 8.1772 -6.9635 7.1029
# 4 11.6447 24.8811 8.1772 35.5886 8.1063 -0.3521
# 5 -8.1831 3.5972 -6.9635 8.1063 23.6512 4.7027
# 6 -1.9285 16.4949 7.1029 -0.3521 4.7027 53.6916
#
#
#
# Elastic Compliance Matrix: (Units=1/GPa)
#
#
# Indices 1 2 3 4 5 6 
#
# 1 0.009711 -0.002853 -0.003762 -0.000921 0.002708 0.001480
# 2 -0.002853 0.008907 -0.001648 -0.004788 -0.000670 -0.002594
# 3 -0.003762 -0.001648 0.019107 -0.003471 0.006308 -0.002732
# 4 -0.000921 -0.004788 -0.003471 0.035651 -0.013490 0.003312
# 5 0.002708 -0.000670 0.006308 -0.013490 0.050809 -0.005070
# 6 0.001480 -0.002594 -0.002732 0.003312 -0.005070 0.020302
#
#
# Mechanical properties :
#
#
# Convention : Reuss Voigt Hill
#
# Bulk Modulus (GPa) = 47.16915 66.89970 57.03443
# Shear Modulus (GPa) = 29.74786 38.32417 34.03601
#
# Velocity S-wave (km/s) = 3.40282 3.86232 3.63983
# Velocity P-wave (km/s) = 5.81372 6.77719 6.31386
#
# Compressibility (1/GPa) = 0.02120030
#
# Stress axis : x y z
#
# Youngs Moduli (GPa) = 102.97200 112.26786 52.33696
#
# Poissons Ratio (x) = 0.32034 0.19687
# Poissons Ratio (y) = 0.29381 0.08624
# Poissons Ratio (z) = 0.38733 0.18500
#
# Static dielectric constant tensor:
#      x y z
#    x 2.087620 -0.035490 -0.033630 
#    y -0.035490 2.026760 0.067000 
#    z -0.033630 0.067000 2.372700 
# 
# From -- ./inp_files/97002.got.cif
#   From: 2010.05.17/outbox.cif.g08.bks.cpg/sg2_49_cif.got.tgz:97002.got - 2010.06.03 11:33:40.
