data_PCOD9035746
_publ_section_title
;
Structure prediction by ZEFSAII (Michael W. Deem and Ramdas Pophale) SiO2 
 PCOD9035746
Probable space group: P -1
;
_chemical_formula_sum "Si O2"
_cell_formula_units_Z 16
_cell_length_a 9.324809
_cell_length_b 14.747839
_cell_length_c 9.662098
_cell_angle_alpha 79.289848
_cell_angle_beta 139.653782
_cell_angle_gamma 115.540944
_cell_volume 752.630445
_symmetry_space_group_name_H-M "P -1"
_symmetry_group_IT_number 2
_symmetry_cell_setting 'triclinic'
loop_
_space_group_symop_operation_xyz
x,y,z
-x,-y,-z
loop_
_atom_site_type_symbol
_atom_site_label
_atom_site_fract_x
_atom_site_fract_y
_atom_site_fract_z
Si Si1 0.674448 0.145531 0.697115
Si Si2 0.391831 0.269334 0.554464
Si Si3 0.527287 0.921010 0.741360
Si Si4 0.214051 0.210234 0.955190
Si Si5 0.029609 0.444909 0.400669
Si Si6 0.437860 0.377424 0.277050
Si Si7 0.232112 0.535356 0.058441
Si Si8 0.984035 0.775795 0.491192
O O1 0.574300 0.217892 0.676835
O O2 0.530455 0.113008 0.452873
O O3 0.612436 0.042798 0.768577
O O4 0.964503 0.195518 0.855866
O O5 0.333852 0.304993 0.354537
O O6 0.538930 0.371267 0.726247
O O7 0.143722 0.200662 0.477269
O O8 0.729743 0.886964 0.955191
O O9 0.268673 0.858155 0.650065
O O10 0.436916 0.307064 0.167559
O O11 0.169553 0.226750 0.758883
O O12 0.292716 0.531787 0.510629
O O13 0.028666 0.336885 0.464826
O O14 0.000000 0.500000 0.500000
O O15 0.827393 0.428928 0.140804
O O16 0.283493 0.437440 0.103286
O O17 0.000000 0.500000 0.000000
#
# Coordination Sequence:
#
# PCOD9035746 Si02
#       8
#     2   2   2   2   2   2   2   2
#     4  10  23  44  72  98 126 173 227 272 333 396
#     4  12  24  44  63 101 139 175 214 275 335 396
#     4  10  22  46  71  95 130 172 223 282 323 393
#     4  11  23  43  71  98 128 173 226 274 325 393
#     4  12  26  41  65  95 134 181 221 267 318 386
#     4  12  24  42  65  95 131 179 222 258 321 397
#     4  12  24  41  64  89 134 175 216 264 320 386
#     4  11  26  41  65 101 140 167 219 277 334 389
#
# _framework density 21.258773000000001
#
# number of rings (size 3 to 8) (size 9 to 14) (size 15 to 20)
#    0.000    0.750    3.750    3.750    5.250    1.500 
#    0.000    0.625    0.000    0.000    0.000    0.000 
#    0.000    0.000    0.000    0.000    0.000    0.000 
#
# Total GULP energy -89536.098762 kJ/mol
# GULP energy per Si atom -5596.006173 kJ/mol
# Density = 2.121039 g / cm^3
# Si number density = 21.258773 Si / 1000 Ang^3
#
#
#
# Elastic Constant Matrix: (Units=GPa)
#
#
# Indices 1 2 3 4 5 6 
#
# 1 104.9054 29.1961 13.8031 -23.1877 2.0737 15.7889
# 2 29.1961 103.9140 28.6068 -35.1117 -0.8876 4.3446
# 3 13.8031 28.6068 92.2689 -39.6640 -15.9586 -0.6825
# 4 -23.1877 -35.1117 -39.6640 41.0071 1.4955 5.4790
# 5 2.0737 -0.8876 -15.9586 1.4955 25.3983 -5.7135
# 6 15.7889 4.3446 -0.6825 5.4790 -5.7135 18.8297
#
#
#
# Elastic Compliance Matrix: (Units=1/GPa)
#
#
# Indices 1 2 3 4 5 6 
#
# 1 0.014944 0.000539 0.002826 0.014206 -0.004310 -0.017994
# 2 0.000539 0.014699 0.001974 0.016020 -0.001213 -0.008802
# 3 0.002826 0.001974 0.022749 0.025691 0.011256 -0.006060
# 4 0.014206 0.016020 0.025691 0.075654 0.003042 -0.035768
# 5 -0.004310 -0.001213 0.011256 0.003042 0.050813 0.018835
# 6 -0.017994 -0.008802 -0.006060 -0.035768 0.018835 0.086130
#
#
# Mechanical properties :
#
#
# Convention : Reuss Voigt Hill
#
# Bulk Modulus (GPa) = 15.85553 49.36668 32.61110
# Shear Modulus (GPa) = 18.15964 32.34583 25.25273
#
# Velocity S-wave (km/s) = 2.92587 3.90491 3.45029
# Velocity P-wave (km/s) = 4.34613 6.60328 5.58982
#
# Compressibility (1/GPa) = 0.06306948
#
# Stress axis : x y z
#
# Youngs Moduli (GPa) = 66.91594 68.03058 43.95755
#
# Poissons Ratio (x) = -0.03668 -0.12421
# Poissons Ratio (y) = -0.03607 -0.08676
# Poissons Ratio (z) = -0.18908 -0.13427
#
# Static dielectric constant tensor:
#      x y z
#    x 1.775420 0.030920 0.034990 
#    y 0.030920 1.747350 0.018400 
#    z 0.034990 0.018400 1.753160 
# 
# From -- ./inp_files/39177.got.cif
#   From: 2010.05.17/outbox.cif.g08.bks.cpg/sg2_20_cif.got.tgz:39177.got - 2010.06.03 11:33:40.
