data_PCOD9035940
_publ_section_title
;
Structure prediction by ZEFSAII (Michael W. Deem and Ramdas Pophale) SiO2 
 PCOD9035940
Probable space group: P -1
;
_chemical_formula_sum "Si O2"
_cell_formula_units_Z 16
_cell_length_a 17.221752
_cell_length_b 29.077942
_cell_length_c 11.802267
_cell_angle_alpha 27.111613
_cell_angle_beta 19.050667
_cell_angle_gamma 20.668801
_cell_volume 680.074866
_symmetry_space_group_name_H-M "P -1"
_symmetry_group_IT_number 2
_symmetry_cell_setting 'triclinic'
loop_
_space_group_symop_operation_xyz
x,y,z
-x,-y,-z
loop_
_atom_site_type_symbol
_atom_site_label
_atom_site_fract_x
_atom_site_fract_y
_atom_site_fract_z
Si Si1 0.721402 0.849802 0.494445
Si Si2 0.691607 0.319076 0.820243
Si Si3 0.417082 0.304949 0.580315
Si Si4 0.201651 0.639787 0.647554
Si Si5 0.639789 0.218285 0.719557
Si Si6 0.313147 0.946072 0.393488
Si Si7 0.748445 0.488725 0.822772
Si Si8 0.693328 0.768885 0.467183
O O1 0.708640 0.829949 0.423582
O O2 0.064815 0.786710 0.193728
O O3 0.500000 0.000000 0.500000
O O4 0.609723 0.780729 0.869044
O O5 0.894855 0.286693 0.500876
O O6 0.505109 0.453745 0.854193
O O7 0.440170 0.305864 0.156039
O O8 0.526414 0.277083 0.620895
O O9 0.598218 0.167155 0.567255
O O10 0.406930 0.412070 0.287828
O O11 0.064396 0.361573 0.941530
O O12 0.500000 0.500000 0.500000
O O13 0.279441 0.704814 0.487058
O O14 0.954315 0.068531 0.610725
O O15 0.447063 0.876532 0.482337
O O16 0.500000 0.000000 0.000000
O O17 0.000000 0.500000 0.500000
O O18 0.966989 0.337057 0.821278
#
# Coordination Sequence:
#
# PCOD9035940 Si02
#       8
#     2   2   2   2   2   2   2   2
#     4  12  28  43  70 105 145 189 240 292 357 435
#     4  11  23  46  70 103 139 185 238 291 354 423
#     4  12  25  48  75 107 148 187 241 302 362 432
#     4  12  26  45  76 104 147 190 235 295 365 432
#     4  12  28  46  70 109 145 192 241 298 364 434
#     4  12  26  45  74 103 145 194 243 298 365 429
#     4  10  22  46  77 102 137 187 243 297 354 421
#     4  11  25  47  75 102 141 190 243 299 359 422
#
# _framework density 23.526820000000001
#
# number of rings (size 3 to 8) (size 9 to 14) (size 15 to 20)
#    0.000    0.500    6.250    2.625    3.500    4.000 
#    0.000    0.000    0.000    0.000    0.000    0.000 
#    0.000    0.000    0.000    0.000    0.000    0.000 
#
# Total GULP energy -89564.615682 kJ/mol
# GULP energy per Si atom -5597.788480 kJ/mol
# Density = 2.347327 g / cm^3
# Si number density = 23.526820 Si / 1000 Ang^3
#
#
#
# Elastic Constant Matrix: (Units=GPa)
#
#
# Indices 1 2 3 4 5 6 
#
# 1 204.7447 61.7727 23.0014 4.3170 6.4152 5.3514
# 2 61.7727 118.4746 12.8071 21.4010 -6.8204 11.0877
# 3 23.0014 12.8071 61.8685 -9.8613 -5.4037 11.2959
# 4 4.3170 21.4010 -9.8613 38.6806 -10.4513 8.7006
# 5 6.4152 -6.8204 -5.4037 -10.4513 34.3620 3.2826
# 6 5.3514 11.0877 11.2959 8.7006 3.2826 40.3238
#
#
#
# Elastic Compliance Matrix: (Units=1/GPa)
#
#
# Indices 1 2 3 4 5 6 
#
# 1 0.006108 -0.003128 -0.002016 -0.000262 -0.002239 0.000853
# 2 -0.003128 0.011517 -0.001946 -0.006086 0.000805 -0.000959
# 3 -0.002016 -0.001946 0.021052 0.010403 0.007222 -0.007927
# 4 -0.000262 -0.006086 0.010403 0.037741 0.012950 -0.010403
# 5 -0.002239 0.000805 0.007222 0.012950 0.035483 -0.007630
# 6 0.000853 -0.000959 -0.007927 -0.010403 -0.007630 0.030036
#
#
# Mechanical properties :
#
#
# Convention : Reuss Voigt Hill
#
# Bulk Modulus (GPa) = 40.82207 64.47225 52.64716
# Shear Modulus (GPa) = 30.43520 41.84040 36.13780
#
# Velocity S-wave (km/s) = 3.60062 4.22170 3.92347
# Velocity P-wave (km/s) = 5.88854 7.15729 6.55369
#
# Compressibility (1/GPa) = 0.02449655
#
# Stress axis : x y z
#
# Youngs Moduli (GPa) = 163.72481 86.82493 47.50110
#
# Poissons Ratio (x) = 0.27160 0.09578
# Poissons Ratio (y) = 0.51214 0.09243
# Poissons Ratio (z) = 0.33013 0.16896
#
# Static dielectric constant tensor:
#      x y z
#    x 1.998850 -0.124190 0.120560 
#    y -0.124190 1.985270 -0.114250 
#    z 0.120560 -0.114250 2.007020 
# 
# From -- ./inp_files/467682.got.cif
#   From: 2010.05.17/outbox.cif.g08.bks.cpg/sg2_234_cif.got.tgz:467682.got - 2010.06.03 11:33:40.
