data_PCOD9035541
_publ_section_title
;
Structure prediction by ZEFSAII (Michael W. Deem and Ramdas Pophale) SiO2 
 PCOD9035541
Probable space group: P -1
;
_chemical_formula_sum "Si O2"
_cell_formula_units_Z 14
_cell_length_a 5.363312
_cell_length_b 11.692279
_cell_length_c 11.560031
_cell_angle_alpha 51.987750
_cell_angle_beta 75.375153
_cell_angle_gamma 98.758274
_cell_volume 505.612133
_symmetry_space_group_name_H-M "P -1"
_symmetry_group_IT_number 2
_symmetry_cell_setting 'triclinic'
loop_
_space_group_symop_operation_xyz
x,y,z
-x,-y,-z
loop_
_atom_site_type_symbol
_atom_site_label
_atom_site_fract_x
_atom_site_fract_y
_atom_site_fract_z
Si Si1 0.081290 0.939503 0.147741
Si Si2 0.160391 0.009530 0.352318
Si Si3 0.709642 0.412377 0.520782
Si Si4 0.404988 0.767531 0.157789
Si Si5 0.476311 0.485404 0.199533
Si Si6 0.121453 0.328352 0.130554
Si Si7 0.641284 0.235424 0.417023
O O1 0.109166 0.781728 0.196862
O O2 0.997112 0.929777 0.299566
O O3 0.396890 0.082910 0.031747
O O4 0.000000 0.000000 0.000000
O O5 0.249258 0.194809 0.197166
O O6 0.368673 0.924519 0.419353
O O7 0.000000 0.000000 0.500000
O O8 0.500000 0.500000 0.500000
O O9 0.525033 0.240943 0.709315
O O10 0.790903 0.369624 0.413097
O O11 0.000000 0.500000 0.500000
O O12 0.420123 0.609448 0.208080
O O13 0.282529 0.455608 0.129440
O O14 0.416444 0.309620 0.362251
O O15 0.798487 0.579503 0.057156
O O16 0.808982 0.247639 0.269537
#
# Coordination Sequence:
#
# PCOD9035541 Si02
#       7
#     2   2   2   2   2   2   2
#     4  11  25  46  72 101 142 198 247 311 380 464
#     4  10  22  46  68 100 142 187 249 313 372 458
#     4  12  26  43  72 106 148 193 245 315 385 455
#     4  11  24  44  67 103 144 186 252 305 382 451
#     4  11  22  42  69  99 135 186 240 308 375 453
#     4  10  23  43  65  96 141 184 245 303 374 454
#     4  11  23  41  67  98 139 184 241 305 376 440
#
# _framework density 27.689211
#
# number of rings (size 3 to 8) (size 9 to 14) (size 15 to 20)
#    0.000    1.143    4.286    1.286    2.000    1.714 
#   12.857    0.000    0.000    0.000    0.000    0.000 
#    0.000    0.000    0.000    0.000    0.000    0.000 
#
# Total GULP energy -77987.299531 kJ/mol
# GULP energy per Si atom -5570.521395 kJ/mol
# Density = 2.762619 g / cm^3
# Si number density = 27.689211 Si / 1000 Ang^3
#
#
#
# Elastic Constant Matrix: (Units=GPa)
#
#
# Indices 1 2 3 4 5 6 
#
# 1 68.5505 56.9825 38.3471 -2.7842 16.4552 -21.8396
# 2 56.9825 184.8509 60.6655 21.7794 13.8366 -30.3899
# 3 38.3471 60.6655 195.8186 -3.1308 10.7054 -26.6801
# 4 -2.7842 21.7794 -3.1308 62.1557 -11.7727 16.2219
# 5 16.4552 13.8366 10.7054 -11.7727 47.7235 -10.7897
# 6 -21.8396 -30.3899 -26.6801 16.2219 -10.7897 44.8587
#
#
#
# Elastic Compliance Matrix: (Units=1/GPa)
#
#
# Indices 1 2 3 4 5 6 
#
# 1 0.022785 -0.005302 -0.001867 0.000588 -0.004609 0.005069
# 2 -0.005302 0.008668 -0.001126 -0.004521 -0.000619 0.004107
# 3 -0.001867 -0.001126 0.006080 0.000131 0.000071 0.001914
# 4 0.000588 -0.004521 0.000131 0.020907 0.004142 -0.009262
# 5 -0.004609 -0.000619 0.000071 0.004142 0.024108 0.001680
# 6 0.005069 0.004107 0.001914 -0.009262 0.001680 0.032435
#
#
# Mechanical properties :
#
#
# Convention : Reuss Voigt Hill
#
# Bulk Modulus (GPa) = 47.74954 84.57894 66.16424
# Shear Modulus (GPa) = 36.08699 50.49589 43.29144
#
# Velocity S-wave (km/s) = 3.61402 4.27507 3.95837
# Velocity P-wave (km/s) = 5.89043 7.41488 6.69618
#
# Compressibility (1/GPa) = 0.02094261
#
# Stress axis : x y z
#
# Youngs Moduli (GPa) = 43.88908 115.36989 164.46661
#
# Poissons Ratio (x) = 0.61166 0.30712
# Poissons Ratio (y) = 0.23269 0.18518
# Poissons Ratio (z) = 0.08196 0.12990
#
# Static dielectric constant tensor:
#      x y z
#    x 2.486120 -0.003980 -0.053430 
#    y -0.003980 2.115200 -0.008990 
#    z -0.053430 -0.008990 2.414220 
# 
# From -- ./inp_files/363657.got.cif
#   From: 2010.05.17/outbox.cif.g08.bks.cpg/sg2_182_cif.got.tgz:363657.got - 2010.06.03 11:33:40.
