data_PCOD9035913
_publ_section_title
;
Structure prediction by ZEFSAII (Michael W. Deem and Ramdas Pophale) SiO2 
 PCOD9035913
Probable space group: P -1
;
_chemical_formula_sum "Si O2"
_cell_formula_units_Z 16
_cell_length_a 17.740379
_cell_length_b 6.042504
_cell_length_c 8.995326
_cell_angle_alpha 84.498217
_cell_angle_beta 131.044828
_cell_angle_gamma 98.868226
_cell_volume 718.533037
_symmetry_space_group_name_H-M "P -1"
_symmetry_group_IT_number 2
_symmetry_cell_setting 'triclinic'
loop_
_space_group_symop_operation_xyz
x,y,z
-x,-y,-z
loop_
_atom_site_type_symbol
_atom_site_label
_atom_site_fract_x
_atom_site_fract_y
_atom_site_fract_z
Si Si1 0.614470 0.659579 0.480636
Si Si2 0.599008 0.296962 0.730270
Si Si3 0.758785 0.982627 0.855830
Si Si4 0.927238 0.991448 0.628995
Si Si5 0.233821 0.392119 0.548602
Si Si6 0.066058 0.698317 0.660222
Si Si7 0.765109 0.585311 0.095704
Si Si8 0.911771 0.314328 0.836901
O O1 0.592032 0.428348 0.557763
O O2 0.512681 0.775249 0.349282
O O3 0.656029 0.601460 0.378213
O O4 0.703083 0.810880 0.673972
O O5 0.670220 0.107198 0.805353
O O6 0.656256 0.480138 0.904442
O O7 0.844138 0.155615 0.876414
O O8 0.796586 0.824997 0.044092
O O9 0.905463 0.122678 0.443328
O O10 0.963134 0.158133 0.796910
O O11 0.824458 0.849012 0.551747
O O12 0.001041 0.813220 0.687971
O O13 0.230477 0.412002 0.720685
O O14 0.169912 0.566909 0.372545
O O15 0.158715 0.585268 0.849521
O O16 0.000000 0.500000 0.500000
O O17 0.000000 0.500000 0.000000
#
# Coordination Sequence:
#
# PCOD9035913 Si02
#       8
#     2   2   2   2   2   2   2   2
#     4  10  22  46  76 102 139 187 242 292 364 423
#     4  10  23  44  74 108 138 184 238 300 355 437
#     4  11  24  47  74 102 146 189 231 301 362 432
#     4  11  24  45  71  98 135 198 236 290 354 419
#     4  12  24  48  70 102 146 189 235 299 355 424
#     4  11  23  44  69 102 141 190 237 290 355 427
#     4  11  26  43  71 110 143 182 241 295 363 426
#     4  12  27  48  71 106 145 194 247 292 350 429
#
# _framework density 22.267592
#
# number of rings (size 3 to 8) (size 9 to 14) (size 15 to 20)
#    0.000    1.000    5.000    0.375    1.750    4.000 
#    2.250    1.250    0.000    0.000    0.000    0.000 
#    0.000    0.000    0.000    0.000    0.000    0.000 
#
# Total GULP energy -89556.010623 kJ/mol
# GULP energy per Si atom -5597.250664 kJ/mol
# Density = 2.221691 g / cm^3
# Si number density = 22.267592 Si / 1000 Ang^3
#
#
#
# Elastic Constant Matrix: (Units=GPa)
#
#
# Indices 1 2 3 4 5 6 
#
# 1 179.0156 62.6316 53.6123 -16.6246 -5.5232 -7.8660
# 2 62.6316 85.3482 28.2522 -18.8300 -10.7364 -5.0128
# 3 53.6123 28.2522 80.1971 -13.5696 -9.6202 6.2359
# 4 -16.6246 -18.8300 -13.5696 47.7010 -4.7406 -4.3443
# 5 -5.5232 -10.7364 -9.6202 -4.7406 29.3777 0.6377
# 6 -7.8660 -5.0128 6.2359 -4.3443 0.6377 42.3434
#
#
#
# Elastic Compliance Matrix: (Units=1/GPa)
#
#
# Indices 1 2 3 4 5 6 
#
# 1 0.008678 -0.005095 -0.004388 -0.000258 -0.001745 0.001655
# 2 -0.005095 0.018059 -0.001407 0.005728 0.006065 0.001895
# 3 -0.004388 -0.001407 0.017246 0.003006 0.004865 -0.003286
# 4 -0.000258 0.005728 0.003006 0.024926 0.006994 0.002640
# 5 -0.001745 0.006065 0.004865 0.006994 0.038653 -0.000187
# 6 0.001655 0.001895 -0.003286 0.002640 -0.000187 0.024906
#
#
# Mechanical properties :
#
#
# Convention : Reuss Voigt Hill
#
# Bulk Modulus (GPa) = 45.03697 70.39478 57.71587
# Shear Modulus (GPa) = 30.93155 37.22208 34.07682
#
# Velocity S-wave (km/s) = 3.73109 4.09293 3.91619
# Velocity P-wave (km/s) = 6.23142 7.34969 6.81353
#
# Compressibility (1/GPa) = 0.02220398
#
# Stress axis : x y z
#
# Youngs Moduli (GPa) = 115.23951 55.37406 57.98504
#
# Poissons Ratio (x) = 0.28211 0.25443
# Poissons Ratio (y) = 0.58710 0.08157
# Poissons Ratio (z) = 0.50566 0.07790
#
# Static dielectric constant tensor:
#      x y z
#    x 1.810270 -0.002460 -0.001180 
#    y -0.002460 1.849590 0.008730 
#    z -0.001180 0.008730 1.892450 
# 
# From -- ./inp_files/323610.got.cif
#   From: 2010.05.17/outbox.cif.g08.bks.cpg/sg2_162_cif.got.tgz:323610.got - 2010.06.03 11:33:40.
