data_PCOD9035536
_publ_section_title
;
Structure prediction by ZEFSAII (Michael W. Deem and Ramdas Pophale) SiO2 
 PCOD9035536
Probable space group: P -1
;
_chemical_formula_sum "Si O2"
_cell_formula_units_Z 16
_cell_length_a 22.724027
_cell_length_b 6.143746
_cell_length_c 14.063059
_cell_angle_alpha 96.568984
_cell_angle_beta 149.259923
_cell_angle_gamma 61.822635
_cell_volume 674.620263
_symmetry_space_group_name_H-M "P -1"
_symmetry_group_IT_number 2
_symmetry_cell_setting 'triclinic'
loop_
_space_group_symop_operation_xyz
x,y,z
-x,-y,-z
loop_
_atom_site_type_symbol
_atom_site_label
_atom_site_fract_x
_atom_site_fract_y
_atom_site_fract_z
Si Si1 0.121363 0.986959 0.227042
Si Si2 0.333948 0.973539 0.378129
Si Si3 0.885963 0.803962 0.585496
Si Si4 0.458565 0.935474 0.840739
Si Si5 0.439185 0.241557 0.643020
Si Si6 0.042874 0.209009 0.658339
Si Si7 0.671081 0.218662 0.841580
Si Si8 0.233561 0.767352 0.732299
O O1 0.198105 0.063693 0.267662
O O2 0.286875 0.621250 0.473999
O O3 0.032128 0.204964 0.208155
O O4 0.000000 0.000000 0.000000
O O5 0.519364 0.602287 0.633386
O O6 0.285742 0.965951 0.205222
O O7 0.361834 0.186234 0.453082
O O8 0.006711 0.490035 0.671325
O O9 0.738535 0.851424 0.422735
O O10 0.789860 0.111122 0.399770
O O11 0.492813 0.031688 0.800033
O O12 0.576777 0.554437 0.988096
O O13 0.500000 0.000000 0.000000
O O14 0.592915 0.154616 0.803876
O O15 0.871596 0.311884 0.409480
O O16 0.144525 0.063524 0.694037
O O17 0.163066 0.912117 0.885662
#
# Coordination Sequence:
#
# PCOD9035536 Si02
#       8
#     2   2   2   2   2   2   2   2
#     4  11  27  43  69 103 139 176 229 287 344 415
#     4  10  22  46  67  98 133 178 232 281 346 401
#     4  12  26  45  69 102 138 185 227 281 353 404
#     4  12  24  44  73 100 137 182 230 281 339 415
#     4  11  24  44  68  99 132 182 230 276 345 405
#     4  11  26  44  67 103 135 183 227 285 343 407
#     4  10  24  41  71  96 135 177 231 282 334 417
#     4  11  26  46  69  99 142 180 231 283 338 409
#
# _framework density 23.717044999999999
#
# number of rings (size 3 to 8) (size 9 to 14) (size 15 to 20)
#    0.000    1.000    2.500    2.625    7.000    3.500 
#    0.000    0.000    0.000    0.000    0.000    0.000 
#    0.000    0.000    0.000    0.000    0.000    0.000 
#
# Total GULP energy -89627.375131 kJ/mol
# GULP energy per Si atom -5601.710946 kJ/mol
# Density = 2.366306 g / cm^3
# Si number density = 23.717045 Si / 1000 Ang^3
#
#
#
# Elastic Constant Matrix: (Units=GPa)
#
#
# Indices 1 2 3 4 5 6 
#
# 1 87.3747 31.7340 5.1037 -9.8346 -22.6299 -28.9202
# 2 31.7340 89.1157 9.9992 6.1525 4.6113 -35.8075
# 3 5.1037 9.9992 78.8004 7.4774 -9.1357 -15.9060
# 4 -9.8346 6.1525 7.4774 40.0768 -7.8378 -7.2417
# 5 -22.6299 4.6113 -9.1357 -7.8378 27.8175 5.9419
# 6 -28.9202 -35.8075 -15.9060 -7.2417 5.9419 38.8483
#
#
#
# Elastic Compliance Matrix: (Units=1/GPa)
#
#
# Indices 1 2 3 4 5 6 
#
# 1 0.025945 -0.006295 0.003390 0.013934 0.024244 0.013789
# 2 -0.006295 0.020705 -0.000196 -0.004465 -0.013187 0.015502
# 3 0.003390 -0.000196 0.014668 0.000698 0.006196 0.007532
# 4 0.013934 -0.004465 0.000698 0.034623 0.019935 0.009948
# 5 0.024244 -0.013187 0.006196 0.019935 0.065039 0.002198
# 6 0.013789 0.015502 0.007532 0.009948 0.002198 0.054897
#
#
# Mechanical properties :
#
#
# Convention : Reuss Voigt Hill
#
# Bulk Modulus (GPa) = 18.14333 38.77385 28.45859
# Shear Modulus (GPa) = 20.79436 35.24544 28.01990
#
# Velocity S-wave (km/s) = 2.96424 3.85915 3.44091
# Velocity P-wave (km/s) = 4.40252 6.02009 5.27369
#
# Compressibility (1/GPa) = 0.05511666
#
# Stress axis : x y z
#
# Youngs Moduli (GPa) = 38.54311 48.29867 68.17620
#
# Poissons Ratio (x) = 0.30405 -0.23115
# Poissons Ratio (y) = 0.24264 0.01333
# Poissons Ratio (z) = -0.13068 0.00945
#
# Static dielectric constant tensor:
#      x y z
#    x 1.855280 -0.015310 -0.002730 
#    y -0.015310 1.924230 -0.018440 
#    z -0.002730 -0.018440 1.889280 
# 
# From -- ./inp_files/98526.got.cif
#   From: 2010.05.17/outbox.cif.g08.bks.cpg/sg2_50_cif.got.tgz:98526.got - 2010.06.03 11:33:40.
