data_PCOD9035614
_publ_section_title
;
Structure prediction by ZEFSAII (Michael W. Deem and Ramdas Pophale) SiO2 
 PCOD9035614
Probable space group: P -1
;
_chemical_formula_sum "Si O2"
_cell_formula_units_Z 12
_cell_length_a 7.387367
_cell_length_b 9.185447
_cell_length_c 15.834614
_cell_angle_alpha 148.601475
_cell_angle_beta 61.117504
_cell_angle_gamma 111.803314
_cell_volume 488.188226
_symmetry_space_group_name_H-M "P -1"
_symmetry_group_IT_number 2
_symmetry_cell_setting 'triclinic'
loop_
_space_group_symop_operation_xyz
x,y,z
-x,-y,-z
loop_
_atom_site_type_symbol
_atom_site_label
_atom_site_fract_x
_atom_site_fract_y
_atom_site_fract_z
Si Si1 0.095102 0.798792 0.115095
Si Si2 0.726459 0.789240 0.394309
Si Si3 0.169096 0.593628 0.267364
Si Si4 0.667898 0.031034 0.350725
Si Si5 0.529311 0.839998 0.104998
Si Si6 0.803158 0.978857 0.973176
O O1 0.285681 0.828025 0.148181
O O2 0.182729 0.834619 0.019191
O O3 0.913688 0.048233 0.295279
O O4 0.000000 0.500000 0.000000
O O5 0.515098 0.737794 0.465393
O O6 0.939532 0.619562 0.290762
O O7 0.775732 0.107163 0.565548
O O8 0.671673 0.806276 0.316141
O O9 0.339874 0.453019 0.094007
O O10 0.182702 0.353091 0.216860
O O11 0.604054 0.935152 0.225314
O O12 0.605513 0.031243 0.105249
O O13 0.000000 0.000000 0.000000
#
# Coordination Sequence:
#
# PCOD9035614 Si02
#       6
#     2   2   2   2   2   2
#     4  12  25  41  75 108 135 181 238 295 345 410
#     4  10  23  44  64 104 150 188 222 295 354 420
#     4   9  22  43  72  94 144 191 228 285 358 408
#     4  11  25  41  68 107 140 184 243 279 353 417
#     4  10  24  44  75 104 138 182 242 294 342 415
#     4  10  22  46  69 109 142 176 233 302 349 399
#
# _framework density 24.580684999999999
#
# number of rings (size 3 to 8) (size 9 to 14) (size 15 to 20)
#    1.000    0.667    1.667    1.500    9.333    1.333 
#    0.000    1.667    0.000    0.000    0.000    0.000 
#    0.000    0.000    0.000    0.000    0.000    0.000 
#
# Total GULP energy -67034.774248 kJ/mol
# GULP energy per Si atom -5586.231187 kJ/mol
# Density = 2.452474 g / cm^3
# Si number density = 24.580685 Si / 1000 Ang^3
#
#
#
# Elastic Constant Matrix: (Units=GPa)
#
#
# Indices 1 2 3 4 5 6 
#
# 1 211.1741 34.0034 39.8270 -19.2212 -22.4677 13.2376
# 2 34.0034 107.6434 25.6921 -18.1872 13.6660 -14.8354
# 3 39.8270 25.6921 82.0444 -13.3173 -6.4664 -5.3223
# 4 -19.2212 -18.1872 -13.3173 41.8001 -1.8933 -3.0622
# 5 -22.4677 13.6660 -6.4664 -1.8933 19.9243 -14.5811
# 6 13.2376 -14.8354 -5.3223 -3.0622 -14.5811 42.0686
#
#
#
# Elastic Compliance Matrix: (Units=1/GPa)
#
#
# Indices 1 2 3 4 5 6 
#
# 1 0.006508 -0.002530 -0.001356 0.001870 0.008889 0.000105
# 2 -0.002530 0.013007 -0.003199 0.003032 -0.011683 0.001149
# 3 -0.001356 -0.003199 0.015527 0.003724 0.009622 0.004869
# 4 0.001870 0.003032 0.003724 0.028086 0.008173 0.005829
# 5 0.008889 -0.011683 0.009622 0.008173 0.091634 0.026655
# 6 0.000105 0.001149 0.004869 0.005829 0.026655 0.034422
#
#
# Mechanical properties :
#
#
# Convention : Reuss Voigt Hill
#
# Bulk Modulus (GPa) = 47.91199 66.65633 57.28416
# Shear Modulus (GPa) = 23.77440 40.84788 32.31114
#
# Velocity S-wave (km/s) = 3.11336 4.08093 3.62953
# Velocity P-wave (km/s) = 5.69719 7.02720 6.39686
#
# Compressibility (1/GPa) = 0.02087160
#
# Stress axis : x y z
#
# Youngs Moduli (GPa) = 153.65986 76.88407 64.40355
#
# Poissons Ratio (x) = 0.19453 0.08732
# Poissons Ratio (y) = 0.38879 0.20602
# Poissons Ratio (z) = 0.20834 0.24595
#
# Static dielectric constant tensor:
#      x y z
#    x 1.957110 0.044870 -0.057010 
#    y 0.044870 2.039640 0.013500 
#    z -0.057010 0.013500 2.006240 
# 
# From -- ./inp_files/490163.got.cif
#   From: 2010.05.17/outbox.cif.g08.bks.cpg/sg2_246_cif.got.tgz:490163.got - 2010.06.03 11:33:40.
