data_PCOD9035085
_publ_section_title
;
Structure prediction by ZEFSAII (Michael W. Deem and Ramdas Pophale) SiO2 
 PCOD9035085
Probable space group: P -1
;
_chemical_formula_sum "Si O2"
_cell_formula_units_Z 12
_cell_length_a 12.652547
_cell_length_b 5.237571
_cell_length_c 8.954519
_cell_angle_alpha 90.972369
_cell_angle_beta 125.507722
_cell_angle_gamma 70.540534
_cell_volume 443.250475
_symmetry_space_group_name_H-M "P -1"
_symmetry_group_IT_number 2
_symmetry_cell_setting 'triclinic'
loop_
_space_group_symop_operation_xyz
x,y,z
-x,-y,-z
loop_
_atom_site_type_symbol
_atom_site_label
_atom_site_fract_x
_atom_site_fract_y
_atom_site_fract_z
Si Si1 0.614942 0.188631 0.558542
Si Si2 0.153567 0.267615 0.414952
Si Si3 0.569221 0.028829 0.816904
Si Si4 0.672909 0.628415 0.179337
Si Si5 0.907888 0.120376 0.280780
Si Si6 0.026064 0.729423 0.121068
O O1 0.500000 0.500000 0.500000
O O2 0.662931 0.089313 0.768128
O O3 0.761188 0.039395 0.585503
O O4 0.525416 0.066537 0.376416
O O5 0.216514 0.299294 0.626430
O O6 0.166753 0.504599 0.320003
O O7 0.991547 0.302489 0.289105
O O8 0.462232 0.295787 0.822917
O O9 0.634089 0.803379 0.996895
O O10 0.749214 0.308817 0.194486
O O11 0.000000 0.000000 0.500000
O O12 0.926882 0.878006 0.180201
O O13 0.000000 0.500000 0.000000
O O14 0.000000 0.000000 0.000000
#
# Coordination Sequence:
#
# PCOD9035085 Si02
#       6
#     2   2   2   2   2   2
#     4  10  23  42  72  98 142 190 244 308 369 442
#     4  11  25  45  69 111 149 196 249 311 375 448
#     4   9  22  45  67 100 138 188 247 301 367 435
#     4  10  22  45  70  99 146 189 245 307 369 448
#     4  12  26  44  75 107 154 195 244 306 386 447
#     4  12  27  48  73 110 153 200 249 304 372 452
#
# _framework density 27.072728000000001
#
# number of rings (size 3 to 8) (size 9 to 14) (size 15 to 20)
#    0.000    1.333    3.333    0.500    4.667    2.667 
#    3.000    2.500    0.000    0.000    0.000    0.000 
#    0.000    0.000    0.000    0.000    0.000    0.000 
#
# Total GULP energy -67034.848281 kJ/mol
# GULP energy per Si atom -5586.237357 kJ/mol
# Density = 2.701111 g / cm^3
# Si number density = 27.072728 Si / 1000 Ang^3
#
#
#
# Elastic Constant Matrix: (Units=GPa)
#
#
# Indices 1 2 3 4 5 6 
#
# 1 55.1710 57.1976 37.0029 8.6649 -11.7154 -17.7588
# 2 57.1976 229.6790 61.3321 1.7274 -23.4378 -37.3677
# 3 37.0029 61.3321 200.9833 5.3490 -37.5601 -6.3832
# 4 8.6649 1.7274 5.3490 42.4773 -7.7752 -10.0521
# 5 -11.7154 -23.4378 -37.5601 -7.7752 50.2378 3.9796
# 6 -17.7588 -37.3677 -6.3832 -10.0521 3.9796 57.7775
#
#
#
# Elastic Compliance Matrix: (Units=1/GPa)
#
#
# Indices 1 2 3 4 5 6 
#
# 1 0.027827 -0.005339 -0.003125 -0.003983 0.000728 0.004012
# 2 -0.005339 0.006420 -0.000698 0.001781 0.001294 0.002655
# 3 -0.003125 -0.000698 0.006454 0.000352 0.003897 -0.000906
# 4 -0.003983 0.001781 0.000352 0.025939 0.003846 0.004214
# 5 0.000728 0.001294 0.003897 0.003846 0.024149 0.000497
# 6 0.004012 0.002655 -0.000906 0.004214 0.000497 0.020857
#
#
# Mechanical properties :
#
#
# Convention : Reuss Voigt Hill
#
# Bulk Modulus (GPa) = 44.68247 88.54428 66.61337
# Shear Modulus (GPa) = 36.38271 52.11857 44.25064
#
# Velocity S-wave (km/s) = 3.66988 4.39239 4.04729
# Velocity P-wave (km/s) = 5.87349 7.64861 6.81906
#
# Compressibility (1/GPa) = 0.02238014
#
# Stress axis : x y z
#
# Youngs Moduli (GPa) = 35.93573 155.75615 154.94530
#
# Poissons Ratio (x) = 0.83151 0.48415
# Poissons Ratio (y) = 0.19184 0.10808
# Poissons Ratio (z) = 0.11229 0.10865
#
# Static dielectric constant tensor:
#      x y z
#    x 2.560580 0.200920 -0.059730 
#    y 0.200920 2.126230 -0.068550 
#    z -0.059730 -0.068550 2.193140 
# 
# From -- ./inp_files/99935.got.cif
#   From: 2010.05.17/outbox.cif.g08.bks.cpg/sg2_50_cif.got.tgz:99935.got - 2010.06.03 11:33:40.
