data_PCOD9035871
_publ_section_title
;
Structure prediction by ZEFSAII (Michael W. Deem and Ramdas Pophale) SiO2 
 PCOD9035871
Probable space group: P -1
;
_chemical_formula_sum "Si O2"
_cell_formula_units_Z 14
_cell_length_a 8.227993
_cell_length_b 17.290479
_cell_length_c 9.894910
_cell_angle_alpha 139.996147
_cell_angle_beta 64.393591
_cell_angle_gamma 139.180052
_cell_volume 553.900454
_symmetry_space_group_name_H-M "P -1"
_symmetry_group_IT_number 2
_symmetry_cell_setting 'triclinic'
loop_
_space_group_symop_operation_xyz
x,y,z
-x,-y,-z
loop_
_atom_site_type_symbol
_atom_site_label
_atom_site_fract_x
_atom_site_fract_y
_atom_site_fract_z
Si Si1 0.434931 0.164173 0.534966
Si Si2 0.739843 0.541841 0.907570
Si Si3 0.188291 0.339558 0.506049
Si Si4 0.032270 0.973873 0.671157
Si Si5 0.007343 0.359457 0.318374
Si Si6 0.586999 0.727180 0.874170
Si Si7 0.668246 0.140966 0.911294
O O1 0.681747 0.374195 0.734363
O O2 0.265630 0.090943 0.634152
O O3 0.236629 0.114798 0.422723
O O4 0.489642 0.053180 0.335192
O O5 0.758949 0.563287 0.766783
O O6 0.038775 0.724366 0.085014
O O7 0.500000 0.500000 0.000000
O O8 0.949112 0.668658 0.586884
O O9 0.365577 0.533670 0.763052
O O10 0.009457 0.179299 0.459715
O O11 0.135416 0.116370 0.939362
O O12 0.641021 0.685123 0.657813
O O13 0.000000 0.500000 0.500000
O O14 0.748983 0.185280 0.099337
O O15 0.469540 0.801921 0.997531
#
# Coordination Sequence:
#
# PCOD9035871 Si02
#       7
#     2   2   2   2   2   2   2
#     4  11  25  46  72  99 140 192 248 289 352 439
#     4  10  23  43  77 103 137 192 247 291 348 430
#     4  11  24  45  71 103 147 184 239 296 358 431
#     4  11  26  44  70 102 138 188 242 291 359 427
#     4  10  22  46  74 105 141 186 242 289 355 428
#     4  11  25  43  69 105 145 181 231 304 364 417
#     4  10  24  45  70 106 141 186 241 296 358 426
#
# _framework density 25.275296999999998
#
# number of rings (size 3 to 8) (size 9 to 14) (size 15 to 20)
#    0.857    0.571    1.429    3.000    6.000    4.000 
#    0.000    4.286    0.000    0.000    0.000    0.000 
#    0.000    0.000    0.000    0.000    0.000    0.000 
#
# Total GULP energy -78414.855262 kJ/mol
# GULP energy per Si atom -5601.061090 kJ/mol
# Density = 2.521777 g / cm^3
# Si number density = 25.275297 Si / 1000 Ang^3
#
#
#
# Elastic Constant Matrix: (Units=GPa)
#
#
# Indices 1 2 3 4 5 6 
#
# 1 118.0638 45.4664 22.9538 -0.0883 -31.5370 -6.9428
# 2 45.4664 106.9198 30.3134 24.2512 0.9508 -10.2469
# 3 22.9538 30.3134 118.5451 18.9853 -24.4529 -12.3503
# 4 -0.0883 24.2512 18.9853 41.4124 -4.0889 -10.1657
# 5 -31.5370 0.9508 -24.4529 -4.0889 39.9792 4.4299
# 6 -6.9428 -10.2469 -12.3503 -10.1657 4.4299 41.5061
#
#
#
# Elastic Compliance Matrix: (Units=1/GPa)
#
#
# Indices 1 2 3 4 5 6 
#
# 1 0.014861 -0.007936 0.001011 0.005706 0.013021 0.000835
# 2 -0.007936 0.015660 -0.002967 -0.008620 -0.009390 0.000547
# 3 0.001011 -0.002967 0.010989 -0.002246 0.007206 0.001387
# 4 0.005706 -0.008620 -0.002246 0.032155 0.006024 0.005391
# 5 0.013021 -0.009390 0.007206 0.006024 0.040626 -0.000857
# 6 0.000835 0.000547 0.001387 0.005391 -0.000857 0.026192
#
#
# Mechanical properties :
#
#
# Convention : Reuss Voigt Hill
#
# Bulk Modulus (GPa) = 46.02898 60.11066 53.06982
# Shear Modulus (GPa) = 29.84876 40.89921 35.37398
#
# Velocity S-wave (km/s) = 3.44022 4.02699 3.74511
# Velocity P-wave (km/s) = 5.83359 6.74212 6.30424
#
# Compressibility (1/GPa) = 0.02172544
#
# Stress axis : x y z
#
# Youngs Moduli (GPa) = 67.28873 63.85731 90.99774
#
# Poissons Ratio (x) = 0.50679 -0.09199
# Poissons Ratio (y) = 0.53402 0.27000
# Poissons Ratio (z) = -0.06802 0.18947
#
# Static dielectric constant tensor:
#      x y z
#    x 1.998890 0.022690 0.020460 
#    y 0.022690 2.024880 -0.001020 
#    z 0.020460 -0.001020 1.978360 
# 
# From -- ./inp_files/267015.got.cif
#   From: 2010.05.17/outbox.cif.g08.bks.cpg/sg2_134_cif.got.tgz:267015.got - 2010.06.03 11:33:40.
