data_PCOD9035741
_publ_section_title
;
Structure prediction by ZEFSAII (Michael W. Deem and Ramdas Pophale) SiO2 
 PCOD9035741
Probable space group: P -1
;
_chemical_formula_sum "Si O2"
_cell_formula_units_Z 14
_cell_length_a 9.521151
_cell_length_b 9.261903
_cell_length_c 15.437292
_cell_angle_alpha 118.823008
_cell_angle_beta 46.357160
_cell_angle_gamma 135.600522
_cell_volume 689.089364
_symmetry_space_group_name_H-M "P -1"
_symmetry_group_IT_number 2
_symmetry_cell_setting 'triclinic'
loop_
_space_group_symop_operation_xyz
x,y,z
-x,-y,-z
loop_
_atom_site_type_symbol
_atom_site_label
_atom_site_fract_x
_atom_site_fract_y
_atom_site_fract_z
Si Si1 0.791095 0.703381 0.834019
Si Si2 0.447243 0.230188 0.894349
Si Si3 0.144460 0.720764 0.456040
Si Si4 0.422989 0.607500 0.628827
Si Si5 0.652679 0.062805 0.302862
Si Si6 0.801806 0.837217 0.682996
Si Si7 0.888766 0.260776 0.732135
O O1 0.601402 0.454842 0.847406
O O2 0.737798 0.781232 0.794012
O O3 0.073377 0.791357 0.736321
O O4 0.742177 0.784022 0.964467
O O5 0.653969 0.235301 0.860048
O O6 0.339468 0.045509 0.818593
O O7 0.108394 0.698544 0.360624
O O8 0.000000 0.500000 0.500000
O O9 0.025738 0.830633 0.567626
O O10 0.433552 0.866915 0.393758
O O11 0.500000 0.500000 0.500000
O O12 0.444127 0.802727 0.637419
O O13 0.585791 0.675330 0.664059
O O14 0.137901 0.445089 0.721315
O O15 0.866126 0.055700 0.695310
#
# Coordination Sequence:
#
# PCOD9035741 Si02
#       7
#     2   2   2   2   2   2   2
#     4  11  25  43  72  99 128 175 225 273 325 387
#     4  10  22  46  71  94 134 173 221 276 324 386
#     4  11  23  40  66  95 134 168 216 274 322 393
#     4  12  23  40  67  93 134 177 212 261 337 393
#     4  11  23  44  68  96 131 178 217 268 332 392
#     4  12  24  41  64 100 133 169 221 271 328 390
#     4  11  22  42  64  94 132 176 215 270 332 384
#
# _framework density 20.316669000000001
#
# number of rings (size 3 to 8) (size 9 to 14) (size 15 to 20)
#    0.000    0.857    5.714    3.429    0.000    3.429 
#    0.000    0.714    0.000    0.000    0.000    0.000 
#    0.000    0.000    0.000    0.000    0.000    0.000 
#
# Total GULP energy -78243.037402 kJ/mol
# GULP energy per Si atom -5588.788386 kJ/mol
# Density = 2.027043 g / cm^3
# Si number density = 20.316669 Si / 1000 Ang^3
#
#
#
# Elastic Constant Matrix: (Units=GPa)
#
#
# Indices 1 2 3 4 5 6 
#
# 1 91.5879 47.5868 36.0823 -18.9058 2.9788 -3.0721
# 2 47.5868 110.8908 44.4286 -0.2438 6.7037 -9.6581
# 3 36.0823 44.4286 69.9663 -11.6171 -6.7073 -14.0968
# 4 -18.9058 -0.2438 -11.6171 31.9456 3.2522 -10.5171
# 5 2.9788 6.7037 -6.7073 3.2522 32.9871 0.3889
# 6 -3.0721 -9.6581 -14.0968 -10.5171 0.3889 43.3366
#
#
#
# Elastic Compliance Matrix: (Units=1/GPa)
#
#
# Indices 1 2 3 4 5 6 
#
# 1 0.017443 -0.005732 -0.003776 0.009467 -0.002124 0.001047
# 2 -0.005732 0.014799 -0.008060 -0.006255 -0.003498 -0.001217
# 3 -0.003776 -0.008060 0.025072 0.008898 0.006103 0.008196
# 4 0.009467 -0.006255 0.008898 0.044617 -0.002327 0.013020
# 5 -0.002124 -0.003498 0.006103 -0.002327 0.032686 0.000197
# 6 0.001047 -0.001217 0.008196 0.013020 0.000197 0.028702
#
#
# Mechanical properties :
#
#
# Convention : Reuss Voigt Hill
#
# Bulk Modulus (GPa) = 45.09226 58.73784 51.91505
# Shear Modulus (GPa) = 24.28978 31.27702 27.78340
#
# Velocity S-wave (km/s) = 3.46144 3.92787 3.70201
# Velocity P-wave (km/s) = 6.18209 7.03881 6.62432
#
# Compressibility (1/GPa) = 0.02217676
#
# Stress axis : x y z
#
# Youngs Moduli (GPa) = 57.33069 67.57395 39.88461
#
# Poissons Ratio (x) = 0.38732 0.15062
# Poissons Ratio (y) = 0.32860 0.32148
# Poissons Ratio (z) = 0.21651 0.54466
#
# Static dielectric constant tensor:
#      x y z
#    x 1.711910 0.014590 -0.006910 
#    y 0.014590 1.748550 0.002770 
#    z -0.006910 0.002770 1.741030 
# 
# From -- ./inp_files/200660.got.cif
#   From: 2010.05.17/outbox.cif.g08.bks.cpg/sg2_101_cif.got.tgz:200660.got - 2010.06.03 11:33:40.
