data_PCOD9035359
_publ_section_title
;
Structure prediction by ZEFSAII (Michael W. Deem and Ramdas Pophale) SiO2 
 PCOD9035359
Probable space group: P -1
;
_chemical_formula_sum "Si O2"
_cell_formula_units_Z 12
_cell_length_a 8.890162
_cell_length_b 7.849629
_cell_length_c 13.118273
_cell_angle_alpha 133.662594
_cell_angle_beta 42.921158
_cell_angle_gamma 129.826768
_cell_volume 433.755173
_symmetry_space_group_name_H-M "P -1"
_symmetry_group_IT_number 2
_symmetry_cell_setting 'triclinic'
loop_
_space_group_symop_operation_xyz
x,y,z
-x,-y,-z
loop_
_atom_site_type_symbol
_atom_site_label
_atom_site_fract_x
_atom_site_fract_y
_atom_site_fract_z
Si Si1 0.096365 0.231431 0.218260
Si Si2 0.716517 0.887929 0.469370
Si Si3 0.265093 0.747388 0.931589
Si Si4 0.347990 0.671937 0.418386
Si Si5 0.238646 0.038382 0.305483
Si Si6 0.121111 0.495552 0.113194
O O1 0.253854 0.426556 0.299396
O O2 0.165817 0.310346 0.098600
O O3 0.846677 0.275720 0.386736
O O4 0.129426 0.959265 0.097475
O O5 0.599204 0.106170 0.596586
O O6 0.707752 0.801439 0.553349
O O7 0.576431 0.692231 0.378024
O O8 0.988253 0.025801 0.379677
O O9 0.471545 0.113546 0.159217
O O10 0.232199 0.579750 0.980830
O O11 0.141328 0.604337 0.834209
O O12 0.189783 0.754345 0.243230
#
# Coordination Sequence:
#
# PCOD9035359 Si02
#       6
#     2   2   2   2   2   2
#     4  11  23  47  77 111 150 194 251 310 376 447
#     4  10  22  45  75 106 151 195 251 306 373 447
#     4  11  26  47  73 114 151 194 252 309 376 447
#     4  10  22  45  74 110 147 199 246 309 374 445
#     4  11  23  47  74 111 147 195 250 311 371 446
#     4  11  24  47  73 111 148 198 247 305 381 440
#
# _framework density 27.665375999999998
#
# number of rings (size 3 to 8) (size 9 to 14) (size 15 to 20)
#    0.000    1.333    1.667    3.000    0.000    0.667 
#   21.000    2.500    0.000    1.000    0.000    0.000 
#    0.000    0.000    0.000    0.000    0.000    0.000 
#
# Total GULP energy -67107.296068 kJ/mol
# GULP energy per Si atom -5592.274672 kJ/mol
# Density = 2.760241 g / cm^3
# Si number density = 27.665376 Si / 1000 Ang^3
#
#
#
# Elastic Constant Matrix: (Units=GPa)
#
#
# Indices 1 2 3 4 5 6 
#
# 1 200.2310 72.2678 80.3598 -13.6738 27.4421 33.7807
# 2 72.2678 124.3884 44.7530 0.2129 6.2639 16.3146
# 3 80.3598 44.7530 107.1989 -22.0134 17.5155 2.7857
# 4 -13.6738 0.2129 -22.0134 25.3118 -0.2944 9.8934
# 5 27.4421 6.2639 17.5155 -0.2944 46.1561 11.0687
# 6 33.7807 16.3146 2.7857 9.8934 11.0687 56.2511
#
#
#
# Elastic Compliance Matrix: (Units=1/GPa)
#
#
# Indices 1 2 3 4 5 6 
#
# 1 0.009142 -0.002974 -0.004584 0.002686 -0.002211 -0.004438
# 2 -0.002974 0.011083 -0.003590 -0.004482 0.001793 -0.000815
# 3 -0.004584 -0.003590 0.017264 0.011917 -0.003637 0.001559
# 4 0.002686 -0.004482 0.011917 0.055270 -0.002740 -0.010085
# 5 -0.002211 0.001793 -0.003637 -0.002740 0.024923 -0.003434
# 6 -0.004438 -0.000815 0.001559 -0.010085 -0.003434 0.023052
#
#
# Mechanical properties :
#
#
# Convention : Reuss Voigt Hill
#
# Bulk Modulus (GPa) = 65.81170 91.84216 78.82693
# Shear Modulus (GPa) = 29.74528 41.17298 35.45913
#
# Velocity S-wave (km/s) = 3.28255 3.86197 3.58399
# Velocity P-wave (km/s) = 6.18118 7.29081 6.75881
#
# Compressibility (1/GPa) = 0.01519487
#
# Stress axis : x y z
#
# Youngs Moduli (GPa) = 109.38136 90.22945 57.92339
#
# Poissons Ratio (x) = 0.26830 0.26550
# Poissons Ratio (y) = 0.32525 0.20794
# Poissons Ratio (z) = 0.50137 0.32392
#
# Static dielectric constant tensor:
#      x y z
#    x 2.199600 -0.080320 0.029740 
#    y -0.080320 2.178920 -0.018930 
#    z 0.029740 -0.018930 2.211820 
# 
# From -- ./inp_files/162882.got.cif
#   From: 2010.05.17/outbox.cif.g08.bks.cpg/sg2_82_cif.got.tgz:162882.got - 2010.06.03 11:33:40.
