data_PCOD9035631
_publ_section_title
;
Structure prediction by ZEFSAII (Michael W. Deem and Ramdas Pophale) SiO2 
 PCOD9035631
Probable space group: P -1
;
_chemical_formula_sum "Si O2"
_cell_formula_units_Z 16
_cell_length_a 8.137688
_cell_length_b 16.129324
_cell_length_c 11.597211
_cell_angle_alpha 128.910959
_cell_angle_beta 56.369855
_cell_angle_gamma 145.217324
_cell_volume 673.217535
_symmetry_space_group_name_H-M "P -1"
_symmetry_group_IT_number 2
_symmetry_cell_setting 'triclinic'
loop_
_space_group_symop_operation_xyz
x,y,z
-x,-y,-z
loop_
_atom_site_type_symbol
_atom_site_label
_atom_site_fract_x
_atom_site_fract_y
_atom_site_fract_z
Si Si1 0.011239 0.915608 0.599010
Si Si2 0.811512 0.738197 0.757350
Si Si3 0.884369 0.537371 0.669289
Si Si4 0.279785 0.536411 0.921792
Si Si5 0.515422 0.163995 0.223122
Si Si6 0.464466 0.718349 0.234596
Si Si7 0.840595 0.225407 0.723842
Si Si8 0.645916 0.976190 0.081051
O O1 0.145916 0.888260 0.429691
O O2 0.926589 0.806418 0.645004
O O3 0.706946 0.852064 0.631773
O O4 0.241152 0.098461 0.702265
O O5 0.484601 0.640597 0.825370
O O6 0.823430 0.621930 0.697630
O O7 0.027800 0.889101 0.886295
O O8 0.157533 0.666003 0.759571
O O9 0.000000 0.500000 0.500000
O O10 0.626565 0.385883 0.710535
O O11 0.129569 0.363644 0.805167
O O12 0.453538 0.632115 0.054581
O O13 0.000000 0.500000 0.000000
O O14 0.540567 0.055390 0.168162
O O15 0.384136 0.099133 0.090645
O O16 0.216801 0.711209 0.300377
O O17 0.566679 0.142758 0.839126
#
# Coordination Sequence:
#
# PCOD9035631 Si02
#       8
#     2   2   2   2   2   2   2   2
#     4  12  26  41  74 107 139 179 239 293 346 413
#     4  11  25  44  72 100 139 186 230 282 356 412
#     4  11  26  45  69  96 144 183 229 285 354 417
#     4  10  25  43  67 103 139 183 230 292 343 421
#     4  10  25  42  69 102 136 185 231 286 346 418
#     4  11  24  44  69 100 138 185 233 284 350 415
#     4  11  24  41  69 103 143 179 233 292 349 404
#     4  10  22  46  69  98 142 183 230 282 347 422
#
# _framework density 23.766465
#
# number of rings (size 3 to 8) (size 9 to 14) (size 15 to 20)
#    0.000    1.250    1.250    2.625   12.250    3.500 
#    0.000    0.000    0.000    0.000    0.000    0.000 
#    0.000    0.000    0.000    0.000    0.000    0.000 
#
# Total GULP energy -89513.769900 kJ/mol
# GULP energy per Si atom -5594.610619 kJ/mol
# Density = 2.371237 g / cm^3
# Si number density = 23.766465 Si / 1000 Ang^3
#
#
#
# Elastic Constant Matrix: (Units=GPa)
#
#
# Indices 1 2 3 4 5 6 
#
# 1 58.1237 27.1281 1.4646 7.2667 -17.7986 -9.0242
# 2 27.1281 162.2233 36.8481 -4.7156 1.7126 -8.8803
# 3 1.4646 36.8481 68.1143 4.9953 0.3587 -3.2275
# 4 7.2667 -4.7156 4.9953 31.5906 -3.4440 -2.4274
# 5 -17.7986 1.7126 0.3587 -3.4440 25.5743 -3.4648
# 6 -9.0242 -8.8803 -3.2275 -2.4274 -3.4648 40.0730
#
#
#
# Elastic Compliance Matrix: (Units=1/GPa)
#
#
# Indices 1 2 3 4 5 6 
#
# 1 0.027103 -0.005145 0.002763 -0.004818 0.019410 0.006572
# 2 -0.005145 0.008168 -0.004482 0.002721 -0.003680 0.000137
# 3 0.002763 -0.004482 0.017361 -0.003804 0.001594 0.000935
# 4 -0.004818 0.002721 -0.003804 0.034018 0.001286 0.001383
# 5 0.019410 -0.003680 0.001594 0.001286 0.054151 0.008444
# 6 0.006572 0.000137 0.000935 0.001383 0.008444 0.027354
#
#
# Mechanical properties :
#
#
# Convention : Reuss Voigt Hill
#
# Bulk Modulus (GPa) = 25.70381 46.59366 36.14873
# Shear Modulus (GPa) = 25.66061 34.31562 29.98811
#
# Velocity S-wave (km/s) = 3.28944 3.80395 3.55601
# Velocity P-wave (km/s) = 5.02652 6.24025 5.66598
#
# Compressibility (1/GPa) = 0.03890475
#
# Stress axis : x y z
#
# Youngs Moduli (GPa) = 36.89643 122.42553 57.59952
#
# Poissons Ratio (x) = 0.62990 -0.15916
# Poissons Ratio (y) = 0.18984 0.25815
# Poissons Ratio (z) = -0.10195 0.54869
#
# Static dielectric constant tensor:
#      x y z
#    x 1.957220 -0.020250 -0.005610 
#    y -0.020250 1.925500 0.041300 
#    z -0.005610 0.041300 1.891580 
# 
# From -- ./inp_files/403196.got.cif
#   From: 2010.05.17/outbox.cif.g08.bks.cpg/sg2_202_cif.got.tgz:403196.got - 2010.06.03 11:33:40.
