data_PCOD9035299
_publ_section_title
;
Structure prediction by ZEFSAII (Michael W. Deem and Ramdas Pophale) SiO2 
 PCOD9035299
Probable space group: P -1
;
_chemical_formula_sum "Si O2"
_cell_formula_units_Z 16
_cell_length_a 14.862003
_cell_length_b 5.330063
_cell_length_c 15.348737
_cell_angle_alpha 124.075461
_cell_angle_beta 41.208755
_cell_angle_gamma 120.428506
_cell_volume 655.388775
_symmetry_space_group_name_H-M "P -1"
_symmetry_group_IT_number 2
_symmetry_cell_setting 'triclinic'
loop_
_space_group_symop_operation_xyz
x,y,z
-x,-y,-z
loop_
_atom_site_type_symbol
_atom_site_label
_atom_site_fract_x
_atom_site_fract_y
_atom_site_fract_z
Si Si1 0.921889 0.908044 0.655141
Si Si2 0.271998 0.913539 0.636555
Si Si3 0.338244 0.512339 0.927115
Si Si4 0.159620 0.341750 0.511179
Si Si5 0.463388 0.945208 0.650411
Si Si6 0.248485 0.560596 0.186669
Si Si7 0.908313 0.702016 0.052989
Si Si8 0.563122 0.915929 0.760491
O O1 0.915702 0.687518 0.532373
O O2 0.849916 0.713750 0.748488
O O3 0.835004 0.178901 0.742157
O O4 0.079045 0.075358 0.579144
O O5 0.166093 0.657305 0.616732
O O6 0.397188 0.021586 0.500605
O O7 0.343081 0.778554 0.643140
O O8 0.193987 0.176285 0.780050
O O9 0.413546 0.266610 0.773117
O O10 0.188706 0.489923 0.986328
O O11 0.442808 0.826157 0.900657
O O12 0.320086 0.436891 0.026863
O O13 0.313466 0.285212 0.366292
O O14 0.492758 0.831782 0.702200
O O15 0.357159 0.741825 0.211773
O O16 0.000000 0.500000 0.000000
O O17 0.000000 0.000000 0.000000
#
# Coordination Sequence:
#
# PCOD9035299 Si02
#       8
#     2   2   2   2   2   2   2   2
#     4  10  25  46  72 109 150 196 250 299 365 441
#     4  10  22  46  74 109 143 194 242 308 370 439
#     4  11  26  48  70 107 150 190 252 305 362 441
#     4  10  22  45  73 108 149 192 252 306 365 437
#     4  10  23  43  71 108 147 184 248 305 374 429
#     4  11  26  45  73 106 150 202 240 302 372 436
#     4  11  29  52  75 107 149 197 244 301 370 445
#     4  11  24  43  74 105 145 196 247 311 365 433
#
# _framework density 24.412991000000002
#
# number of rings (size 3 to 8) (size 9 to 14) (size 15 to 20)
#    0.000    1.500    1.250    1.125    8.750    7.500 
#    0.000    0.000    0.000    0.000    0.000    0.000 
#    0.000    0.000    0.000    0.000    0.000    0.000 
#
# Total GULP energy -89591.477961 kJ/mol
# GULP energy per Si atom -5599.467373 kJ/mol
# Density = 2.435743 g / cm^3
# Si number density = 24.412991 Si / 1000 Ang^3
#
#
#
# Elastic Constant Matrix: (Units=GPa)
#
#
# Indices 1 2 3 4 5 6 
#
# 1 67.6145 32.7384 44.5540 -4.5761 0.8542 -16.5988
# 2 32.7384 88.4638 48.7784 -25.8100 4.2639 -9.4119
# 3 44.5540 48.7784 135.6833 -22.6254 14.8002 -7.3539
# 4 -4.5761 -25.8100 -22.6254 46.9065 0.9279 7.9108
# 5 0.8542 4.2639 14.8002 0.9279 36.1830 -0.0416
# 6 -16.5988 -9.4119 -7.3539 7.9108 -0.0416 31.9398
#
#
#
# Elastic Compliance Matrix: (Units=1/GPa)
#
#
# Indices 1 2 3 4 5 6 
#
# 1 0.024252 -0.006146 -0.006500 -0.006030 0.002977 0.010794
# 2 -0.006146 0.017393 -0.002884 0.007707 -0.000923 -0.000643
# 3 -0.006500 -0.002884 0.011516 0.003847 -0.004319 -0.002534
# 4 -0.006030 0.007707 0.003847 0.028056 -0.003067 -0.006930
# 5 0.002977 -0.000923 -0.004319 -0.003067 0.029522 0.001079
# 6 0.010794 -0.000643 -0.002534 -0.006930 0.001079 0.037863
#
#
# Mechanical properties :
#
#
# Convention : Reuss Voigt Hill
#
# Bulk Modulus (GPa) = 45.24183 60.43369 52.83776
# Shear Modulus (GPa) = 26.73372 34.05193 30.39282
#
# Velocity S-wave (km/s) = 3.31276 3.73879 3.53221
# Velocity P-wave (km/s) = 5.76234 6.59140 6.19077
#
# Compressibility (1/GPa) = 0.02210344
#
# Stress axis : x y z
#
# Youngs Moduli (GPa) = 41.23308 57.49367 86.83360
#
# Poissons Ratio (x) = 0.35335 0.56438
# Poissons Ratio (y) = 0.25341 0.25041
# Poissons Ratio (z) = 0.26799 0.16580
#
# Static dielectric constant tensor:
#      x y z
#    x 1.977530 -0.041140 -0.020150 
#    y -0.041140 1.979810 0.008740 
#    z -0.020150 0.008740 1.935460 
# 
# From -- ./inp_files/525995.got.cif
#   From: 2010.05.17/outbox.cif.g08.bks.cpg/sg2_263_cif.got.tgz:525995.got - 2010.06.03 11:33:40.
