data_PCOD9035539
_publ_section_title
;
Structure prediction by ZEFSAII (Michael W. Deem and Ramdas Pophale) SiO2 
 PCOD9035539
Probable space group: P -1
;
_chemical_formula_sum "Si O2"
_cell_formula_units_Z 16
_cell_length_a 6.072314
_cell_length_b 12.446584
_cell_length_c 11.318724
_cell_angle_alpha 112.202981
_cell_angle_beta 65.263395
_cell_angle_gamma 106.412090
_cell_volume 711.438805
_symmetry_space_group_name_H-M "P -1"
_symmetry_group_IT_number 2
_symmetry_cell_setting 'triclinic'
loop_
_space_group_symop_operation_xyz
x,y,z
-x,-y,-z
loop_
_atom_site_type_symbol
_atom_site_label
_atom_site_fract_x
_atom_site_fract_y
_atom_site_fract_z
Si Si1 0.582650 0.170117 0.462708
Si Si2 0.290076 0.163310 0.889640
Si Si3 0.137378 0.041108 0.637531
Si Si4 0.616796 0.970872 0.763604
Si Si5 0.217620 0.593663 0.837769
Si Si6 0.704159 0.775090 0.835384
Si Si7 0.314760 0.414370 0.923613
Si Si8 0.090136 0.615817 0.601114
O O1 0.321449 0.139728 0.570984
O O2 0.552381 0.124602 0.316188
O O3 0.698959 0.303541 0.485798
O O4 0.750760 0.080462 0.443022
O O5 0.135393 0.087272 0.793018
O O6 0.396387 0.286472 0.856140
O O7 0.486313 0.083291 0.857087
O O8 0.174979 0.198502 0.052271
O O9 0.858288 0.016783 0.652732
O O10 0.691030 0.898082 0.826569
O O11 0.431920 0.699797 0.869691
O O12 0.302104 0.476514 0.826026
O O13 0.176382 0.590670 0.704715
O O14 0.959230 0.601258 0.964748
O O15 0.873474 0.695728 0.695582
O O16 0.500000 0.500000 0.000000
O O17 0.000000 0.500000 0.500000
#
# Coordination Sequence:
#
# PCOD9035539 Si02
#       8
#     2   2   2   2   2   2   2   2
#     4  10  22  46  67  99 144 182 239 299 343 421
#     4  11  25  41  68 109 140 181 237 284 360 428
#     4  10  23  42  69 104 138 186 235 291 356 418
#     4  11  23  42  73 105 141 189 232 292 366 422
#     4  11  24  44  73  95 139 189 232 290 364 402
#     4  12  24  46  68 104 148 180 233 297 353 431
#     4  11  23  45  69  98 143 188 234 292 347 422
#     4  12  26  47  73 105 141 192 242 293 359 427
#
# _framework density 22.489637999999999
#
# number of rings (size 3 to 8) (size 9 to 14) (size 15 to 20)
#    0.000    1.000    5.000    0.750    1.750    3.000 
#    2.250    0.000    0.000    0.000    0.000    0.000 
#    0.000    0.000    0.000    0.000    0.000    0.000 
#
# Total GULP energy -89432.456118 kJ/mol
# GULP energy per Si atom -5589.528507 kJ/mol
# Density = 2.243845 g / cm^3
# Si number density = 22.489638 Si / 1000 Ang^3
#
#
#
# Elastic Constant Matrix: (Units=GPa)
#
#
# Indices 1 2 3 4 5 6 
#
# 1 63.7607 51.1095 19.4241 -2.5519 7.4880 -2.9731
# 2 51.1095 196.0222 49.4365 -5.3513 10.3646 -9.2607
# 3 19.4241 49.4365 66.9471 -2.0608 10.7146 4.3533
# 4 -2.5519 -5.3513 -2.0608 35.9874 -2.7558 -1.3239
# 5 7.4880 10.3646 10.7146 -2.7558 35.1517 -8.5438
# 6 -2.9731 -9.2607 4.3533 -1.3239 -8.5438 44.9874
#
#
#
# Elastic Compliance Matrix: (Units=1/GPa)
#
#
# Indices 1 2 3 4 5 6 
#
# 1 0.020328 -0.004625 -0.002122 0.000468 -0.002238 0.000185
# 2 -0.004625 0.007481 -0.004375 0.000646 0.000599 0.001790
# 3 -0.002122 -0.004375 0.019884 -0.000215 -0.005303 -0.003978
# 4 0.000468 0.000646 -0.000215 0.028137 0.002335 0.001456
# 5 -0.002238 0.000599 -0.005303 0.002335 0.032168 0.006666
# 6 0.000185 0.001790 -0.003978 0.001456 0.006666 0.024303
#
#
# Mechanical properties :
#
#
# Convention : Reuss Voigt Hill
#
# Bulk Modulus (GPa) = 39.29411 62.96338 51.12874
# Shear Modulus (GPa) = 30.66953 37.00930 33.83941
#
# Velocity S-wave (km/s) = 3.69686 4.06102 3.88321
# Velocity P-wave (km/s) = 5.97766 7.07436 6.54901
#
# Compressibility (1/GPa) = 0.02544911
#
# Stress axis : x y z
#
# Youngs Moduli (GPa) = 49.19406 133.66705 50.29106
#
# Poissons Ratio (x) = 0.61822 0.10672
# Poissons Ratio (y) = 0.22753 0.22002
# Poissons Ratio (z) = 0.10439 0.58478
#
# Static dielectric constant tensor:
#      x y z
#    x 1.826630 -0.014000 -0.005830 
#    y -0.014000 1.822920 -0.028160 
#    z -0.005830 -0.028160 1.898920 
# 
# From -- ./inp_files/364987.got.cif
#   From: 2010.05.17/outbox.cif.g08.bks.cpg/sg2_183_cif.got.tgz:364987.got - 2010.06.03 11:33:40.
