data_PCOD9035253
_publ_section_title
;
Structure prediction by ZEFSAII (Michael W. Deem and Ramdas Pophale) SiO2 
 PCOD9035253
Probable space group: P -1
;
_chemical_formula_sum "Si O2"
_cell_formula_units_Z 16
_cell_length_a 11.486245
_cell_length_b 21.014582
_cell_length_c 8.537731
_cell_angle_alpha 48.292209
_cell_angle_beta 137.460019
_cell_angle_gamma 153.707257
_cell_volume 617.110027
_symmetry_space_group_name_H-M "P -1"
_symmetry_group_IT_number 2
_symmetry_cell_setting 'triclinic'
loop_
_space_group_symop_operation_xyz
x,y,z
-x,-y,-z
loop_
_atom_site_type_symbol
_atom_site_label
_atom_site_fract_x
_atom_site_fract_y
_atom_site_fract_z
Si Si1 0.981139 0.975830 0.200005
Si Si2 0.837619 0.696170 0.817550
Si Si3 0.833886 0.689829 0.179188
Si Si4 0.197081 0.678155 0.236435
Si Si5 0.368791 0.802201 0.525522
Si Si6 0.085967 0.453064 0.341463
Si Si7 0.807561 0.003824 0.239490
Si Si8 0.592732 0.666089 0.301595
O O1 0.293962 0.057257 0.406549
O O2 0.921753 0.042360 0.112576
O O3 0.718121 0.807513 0.244226
O O4 0.000000 0.000000 0.000000
O O5 0.717221 0.660075 0.580499
O O6 0.098420 0.870556 0.797209
O O7 0.931470 0.635877 0.020445
O O8 0.717444 0.663735 0.932253
O O9 0.775912 0.568257 0.379565
O O10 0.712689 0.693066 0.203508
O O11 0.187639 0.817955 0.309954
O O12 0.252523 0.693527 0.451784
O O13 0.158187 0.571606 0.296423
O O14 0.477248 0.843642 0.185642
O O15 0.251896 0.709357 0.719426
O O16 0.248120 0.520442 0.225764
O O17 0.000000 0.000000 0.500000
#
# Coordination Sequence:
#
# PCOD9035253 Si02
#       8
#     2   2   2   2   2   2   2   2
#     4  12  25  42  70  99 135 186 234 286 351 413
#     4  11  24  40  71 108 136 185 231 292 348 413
#     4   9  24  44  68 103 145 181 232 288 349 410
#     4  11  20  42  70 104 137 185 234 282 349 423
#     4   9  22  41  67  99 142 179 221 295 340 405
#     4  10  22  45  72  98 147 186 225 289 350 410
#     4  12  21  41  67  97 138 174 231 290 343 404
#     4  12  23  46  71 103 140 184 236 290 342 418
#
# _framework density 25.927305
#
# number of rings (size 3 to 8) (size 9 to 14) (size 15 to 20)
#    0.750    0.500    3.750    1.875    0.000    3.000 
#    0.000    3.750    0.000    0.000    0.000    0.000 
#    0.000    0.000    0.000    0.000    0.000    0.000 
#
# Total GULP energy -89257.113551 kJ/mol
# GULP energy per Si atom -5578.569597 kJ/mol
# Density = 2.586829 g / cm^3
# Si number density = 25.927305 Si / 1000 Ang^3
#
#
#
# Elastic Constant Matrix: (Units=GPa)
#
#
# Indices 1 2 3 4 5 6 
#
# 1 149.6053 32.9999 11.1814 1.1227 -17.3204 -2.5503
# 2 32.9999 75.6267 10.5771 -16.7474 -1.8866 9.6410
# 3 11.1814 10.5771 71.4834 2.6387 -14.5631 -6.5184
# 4 1.1227 -16.7474 2.6387 31.8489 -7.2797 -1.7267
# 5 -17.3204 -1.8866 -14.5631 -7.2797 36.7993 -15.8027
# 6 -2.5503 9.6410 -6.5184 -1.7267 -15.8027 49.2194
#
#
#
# Elastic Compliance Matrix: (Units=1/GPa)
#
#
# Indices 1 2 3 4 5 6 
#
# 1 0.008179 -0.004181 0.000634 -0.001276 0.004854 0.002840
# 2 -0.004181 0.018053 -0.003305 0.009071 -0.002574 -0.004699
# 3 0.000634 -0.003305 0.016794 -0.000752 0.009120 0.005806
# 4 -0.001276 0.009071 -0.000752 0.038202 0.007963 0.001954
# 5 0.004854 -0.002574 0.009120 0.007963 0.041148 0.015454
# 6 0.002840 -0.004699 0.005806 0.001954 0.015454 0.027184
#
#
# Mechanical properties :
#
#
# Convention : Reuss Voigt Hill
#
# Bulk Modulus (GPa) = 34.10324 45.13691 39.62008
# Shear Modulus (GPa) = 28.89543 39.70398 34.29971
#
# Velocity S-wave (km/s) = 3.34200 3.91750 3.64114
# Velocity P-wave (km/s) = 5.29848 6.15705 5.74383
#
# Compressibility (1/GPa) = 0.02932272
#
# Stress axis : x y z
#
# Youngs Moduli (GPa) = 122.26334 55.39198 59.54435
#
# Poissons Ratio (x) = 0.23161 -0.03777
# Poissons Ratio (y) = 0.51122 0.19678
# Poissons Ratio (z) = -0.07754 0.18306
#
# Static dielectric constant tensor:
#      x y z
#    x 2.360410 0.133770 0.054370 
#    y 0.133770 2.203020 0.102850 
#    z 0.054370 0.102850 2.219490 
# 
# From -- ./inp_files/282932.got.cif
#   From: 2010.05.17/outbox.cif.g08.bks.cpg/sg2_142_cif.got.tgz:282932.got - 2010.06.03 11:33:40.
