data_PCOD9035444
_publ_section_title
;
Structure prediction by ZEFSAII (Michael W. Deem and Ramdas Pophale) SiO2 
 PCOD9035444
Probable space group: P -1
;
_chemical_formula_sum "Si O2"
_cell_formula_units_Z 15
_cell_length_a 14.898206
_cell_length_b 5.380860
_cell_length_c 13.079996
_cell_angle_alpha 107.532107
_cell_angle_beta 140.148428
_cell_angle_gamma 62.763602
_cell_volume 595.104703
_symmetry_space_group_name_H-M "P -1"
_symmetry_group_IT_number 2
_symmetry_cell_setting 'triclinic'
loop_
_space_group_symop_operation_xyz
x,y,z
-x,-y,-z
loop_
_atom_site_type_symbol
_atom_site_label
_atom_site_fract_x
_atom_site_fract_y
_atom_site_fract_z
Si Si1 0.784687 0.786107 0.865119
Si Si2 0.612469 0.247087 0.999084
Si Si3 0.100736 0.790902 0.646220
Si Si4 0.656501 0.175894 0.499061
Si Si5 0.500000 0.000000 0.500000
Si Si6 0.596209 0.653879 0.850112
Si Si7 0.876612 0.615865 0.555073
Si Si8 0.944941 0.331439 0.788513
O O1 0.725505 0.605044 0.870862
O O2 0.887224 0.618068 0.839455
O O3 0.633703 0.988697 0.703594
O O4 0.901576 0.866937 0.048167
O O5 0.634646 0.415336 0.939654
O O6 0.571398 0.973018 0.906700
O O7 0.500000 0.500000 0.000000
O O8 0.766097 0.132890 0.183592
O O9 0.165463 0.507520 0.600136
O O10 0.993251 0.753818 0.635830
O O11 0.000000 0.000000 0.500000
O O12 0.545168 0.213653 0.498627
O O13 0.562002 0.324018 0.336656
O O14 0.800176 0.247285 0.657983
O O15 0.726268 0.840449 0.499348
O O16 0.955932 0.399882 0.687807
#
# Coordination Sequence:
#
# PCOD9035444 Si02
#       8
#     2   2   2   2   1   2   2   2
#     4  10  24  45  71 108 145 193 241 308 366 454
#     4  12  28  49  75 109 150 199 251 312 374 453
#     4  11  27  44  76 104 147 194 251 311 379 434
#     4  11  25  42  76 103 147 197 244 310 367 453
#     4  10  22  46  62 106 142 182 238 290 372 430
#     4  11  28  47  76 110 154 196 250 306 384 446
#     4  11  24  45  71 106 147 186 253 311 371 441
#     4  11  24  45  72 104 144 189 252 299 376 437
#
# _framework density 25.205648
#
# number of rings (size 3 to 8) (size 9 to 14) (size 15 to 20)
#    0.000    1.067    1.333    2.800   13.067    4.800 
#    0.000    0.000    0.000    0.000    0.000    0.000 
#    0.000    0.000    0.000    0.000    0.000    0.000 
#
# Total GULP energy -83676.463966 kJ/mol
# GULP energy per Si atom -5578.430931 kJ/mol
# Density = 2.514828 g / cm^3
# Si number density = 25.205648 Si / 1000 Ang^3
#
#
#
# Elastic Constant Matrix: (Units=GPa)
#
#
# Indices 1 2 3 4 5 6 
#
# 1 57.5862 31.6166 37.4263 1.9713 -11.5931 12.2175
# 2 31.6166 86.2328 34.3479 -9.9916 0.9331 1.3423
# 3 37.4263 34.3479 224.5208 -8.7379 19.6770 15.9289
# 4 1.9713 -9.9916 -8.7379 32.1515 5.5075 1.9789
# 5 -11.5931 0.9331 19.6770 5.5075 38.7718 5.4595
# 6 12.2175 1.3423 15.9289 1.9789 5.4595 28.8548
#
#
#
# Elastic Compliance Matrix: (Units=1/GPa)
#
#
# Indices 1 2 3 4 5 6 
#
# 1 0.032494 -0.011078 -0.004462 -0.008462 0.015293 -0.013093
# 2 -0.011078 0.016497 -0.000313 0.006309 -0.005099 0.004628
# 3 -0.004462 -0.000313 0.005787 0.002564 -0.004542 -0.000607
# 4 -0.008462 0.006309 0.002564 0.035789 -0.009231 0.001166
# 5 0.015293 -0.005099 -0.004542 -0.009231 0.035485 -0.009811
# 6 -0.013093 0.004628 -0.000607 0.001166 -0.009811 0.042096
#
#
# Mechanical properties :
#
#
# Convention : Reuss Voigt Hill
#
# Bulk Modulus (GPa) = 43.34603 63.90238 53.62421
# Shear Modulus (GPa) = 24.09110 37.61889 30.85500
#
# Velocity S-wave (km/s) = 3.09493 3.86745 3.50255
# Velocity P-wave (km/s) = 5.47775 6.73427 6.13824
#
# Compressibility (1/GPa) = 0.02307016
#
# Stress axis : x y z
#
# Youngs Moduli (GPa) = 30.77502 60.61648 172.81222
#
# Poissons Ratio (x) = 0.67153 0.77116
# Poissons Ratio (y) = 0.34093 0.05410
# Poissons Ratio (z) = 0.13733 0.01898
#
# Static dielectric constant tensor:
#      x y z
#    x 2.010270 -0.124120 -0.003140 
#    y -0.124120 2.130710 0.062000 
#    z -0.003140 0.062000 1.971410 
# 
# From -- ./inp_files/97364.got.cif
#   From: 2010.05.17/outbox.cif.g08.bks.cpg/sg2_49_cif.got.tgz:97364.got - 2010.06.03 11:33:40.
