data_PCOD9035758
_publ_section_title
;
Structure prediction by ZEFSAII (Michael W. Deem and Ramdas Pophale) SiO2 
 PCOD9035758
Probable space group: P -1
;
_chemical_formula_sum "Si O2"
_cell_formula_units_Z 15
_cell_length_a 8.817470
_cell_length_b 8.485130
_cell_length_c 15.442140
_cell_angle_alpha 107.858849
_cell_angle_beta 45.053055
_cell_angle_gamma 77.497616
_cell_volume 596.107689
_symmetry_space_group_name_H-M "P -1"
_symmetry_group_IT_number 2
_symmetry_cell_setting 'triclinic'
loop_
_space_group_symop_operation_xyz
x,y,z
-x,-y,-z
loop_
_atom_site_type_symbol
_atom_site_label
_atom_site_fract_x
_atom_site_fract_y
_atom_site_fract_z
Si Si1 0.211952 0.768628 0.923182
Si Si2 0.050871 0.334267 0.258041
Si Si3 0.000000 0.500000 0.500000
Si Si4 0.581299 0.565770 0.350907
Si Si5 0.773684 0.777655 0.200334
Si Si6 0.170642 0.086690 0.451096
Si Si7 0.402519 0.822309 0.034599
Si Si8 0.887319 0.944124 0.341840
O O1 0.424300 0.591363 0.736063
O O2 0.362186 0.785215 0.944619
O O3 0.037013 0.705538 0.026113
O O4 0.000000 0.000000 0.000000
O O5 0.990518 0.453656 0.391770
O O6 0.770547 0.434543 0.335412
O O7 0.238620 0.077053 0.153101
O O8 0.268490 0.330983 0.109815
O O9 0.940330 0.721745 0.535031
O O10 0.751386 0.622055 0.238371
O O11 0.288429 0.799565 0.528943
O O12 0.501683 0.904510 0.270535
O O13 0.759674 0.926561 0.304686
O O14 0.153055 0.139470 0.569032
O O15 0.000000 0.000000 0.500000
O O16 0.216567 0.800005 0.167280
#
# Coordination Sequence:
#
# PCOD9035758 Si02
#       8
#     2   2   1   2   2   2   2   2
#     4  11  23  42  66 103 142 183 239 291 363 433
#     4  11  24  43  68 102 145 186 238 299 362 425
#     4  12  26  42  72 108 142 192 242 288 366 438
#     4  11  22  43  72 100 133 187 241 290 357 434
#     4  10  23  44  69  97 143 184 233 303 357 431
#     4  11  24  44  69 104 146 182 237 304 358 423
#     4  10  24  44  65 102 148 186 228 306 366 420
#     4  10  22  46  71  98 139 189 238 295 359 431
#
# _framework density 25.163239000000001
#
# number of rings (size 3 to 8) (size 9 to 14) (size 15 to 20)
#    0.000    1.333    1.333    4.400    1.867    4.800 
#    0.000    6.000    0.000    0.800    0.000    0.000 
#    0.000    0.000    0.000    0.000    0.000    0.000 
#
# Total GULP energy -83746.591215 kJ/mol
# GULP energy per Si atom -5583.106081 kJ/mol
# Density = 2.510597 g / cm^3
# Si number density = 25.163239 Si / 1000 Ang^3
#
#
#
# Elastic Constant Matrix: (Units=GPa)
#
#
# Indices 1 2 3 4 5 6 
#
# 1 78.4144 -6.9595 54.2389 14.2622 0.1651 -1.3651
# 2 -6.9595 85.5411 8.8205 0.1149 -3.7365 -14.1945
# 3 54.2389 8.8205 118.0828 4.5943 17.2954 -2.3423
# 4 14.2622 0.1149 4.5943 36.6899 19.9624 6.3529
# 5 0.1651 -3.7365 17.2954 19.9624 50.1298 6.2362
# 6 -1.3651 -14.1945 -2.3423 6.3529 6.2362 35.5485
#
#
#
# Elastic Compliance Matrix: (Units=1/GPa)
#
#
# Indices 1 2 3 4 5 6 
#
# 1 0.023933 0.004033 -0.012104 -0.013345 0.009405 0.002467
# 2 0.004033 0.013363 -0.003011 -0.003713 0.002821 0.005461
# 3 -0.012104 -0.003011 0.015171 0.007429 -0.008310 -0.000537
# 4 -0.013345 -0.003713 0.007429 0.042969 -0.019183 -0.005819
# 5 0.009405 0.002821 -0.008310 -0.019183 0.030761 -0.001028
# 6 0.002467 0.005461 -0.000537 -0.005819 -0.001028 0.031591
#
#
# Mechanical properties :
#
#
# Convention : Reuss Voigt Hill
#
# Bulk Modulus (GPa) = 32.99921 43.80423 38.40172
# Shear Modulus (GPa) = 26.30845 39.53621 32.92233
#
# Velocity S-wave (km/s) = 3.23694 3.96812 3.62104
# Velocity P-wave (km/s) = 5.20701 6.20004 5.72509
#
# Compressibility (1/GPa) = 0.03030376
#
# Stress axis : x y z
#
# Youngs Moduli (GPa) = 41.78296 74.83160 65.91662
#
# Poissons Ratio (x) = -0.30182 0.79785
# Poissons Ratio (y) = -0.16852 0.19849
# Poissons Ratio (z) = 0.50574 0.22533
#
# Static dielectric constant tensor:
#      x y z
#    x 1.990080 0.066180 -0.025910 
#    y 0.066180 1.977080 -0.013080 
#    z -0.025910 -0.013080 2.007210 
# 
# From -- ./inp_files/493301.got.cif
#   From: 2010.05.17/outbox.cif.g08.bks.cpg/sg2_247_cif.got.tgz:493301.got - 2010.06.03 11:33:40.
