data_PCOD9035592
_publ_section_title
;
Structure prediction by ZEFSAII (Michael W. Deem and Ramdas Pophale) SiO2 
 PCOD9035592
Probable space group: P -1
;
_chemical_formula_sum "Si O2"
_cell_formula_units_Z 16
_cell_length_a 21.609631
_cell_length_b 18.954826
_cell_length_c 12.715813
_cell_angle_alpha 151.801700
_cell_angle_beta 27.478303
_cell_angle_gamma 162.639908
_cell_volume 694.135508
_symmetry_space_group_name_H-M "P -1"
_symmetry_group_IT_number 2
_symmetry_cell_setting 'triclinic'
loop_
_space_group_symop_operation_xyz
x,y,z
-x,-y,-z
loop_
_atom_site_type_symbol
_atom_site_label
_atom_site_fract_x
_atom_site_fract_y
_atom_site_fract_z
Si Si1 0.220627 0.907831 0.238372
Si Si2 0.891466 0.751418 0.876682
Si Si3 0.588901 0.713407 0.715950
Si Si4 0.779696 0.568194 0.578086
Si Si5 0.234817 0.656678 0.217543
Si Si6 0.805980 0.162281 0.302930
Si Si7 0.485246 0.101512 0.287702
Si Si8 0.599734 0.693719 0.906694
O O1 0.981416 0.695334 0.368785
O O2 0.242499 0.041300 0.284925
O O3 0.387581 0.101697 0.335456
O O4 0.316704 0.832505 0.959473
O O5 0.840569 0.613370 0.666888
O O6 0.047551 0.801368 0.786122
O O7 0.657172 0.570307 0.046152
O O8 0.000000 0.000000 0.000000
O O9 0.500000 0.500000 0.500000
O O10 0.678078 0.742737 0.733263
O O11 0.387780 0.648598 0.959479
O O12 0.570556 0.285687 0.490804
O O13 0.723128 0.688366 0.790610
O O14 0.290924 0.789411 0.417384
O O15 0.981900 0.386150 0.250501
O O16 0.298648 0.828028 0.254931
O O17 0.647596 0.904001 0.148706
#
# Coordination Sequence:
#
# PCOD9035592 Si02
#       8
#     2   2   2   2   2   2   2   2
#     4  10  24  45  67 101 136 187 224 291 337 401
#     4  12  26  44  71 101 142 173 225 294 346 406
#     4  11  25  46  71  96 145 183 233 285 341 411
#     4  12  25  40  73 103 134 179 232 285 345 413
#     4  10  23  46  71 100 140 184 221 295 343 407
#     4  11  24  47  71 104 140 180 233 280 357 411
#     4  10  22  46  69 100 140 179 236 275 347 413
#     4  12  27  45  70 105 136 184 231 284 347 418
#
# _framework density 23.050255
#
# number of rings (size 3 to 8) (size 9 to 14) (size 15 to 20)
#    0.000    1.000    2.500    3.000    7.000    1.000 
#   20.250    0.000    0.000    0.000    0.000    0.000 
#    0.000    0.000    0.000    0.000    0.000    0.000 
#
# Total GULP energy -89627.904835 kJ/mol
# GULP energy per Si atom -5601.744052 kJ/mol
# Density = 2.299779 g / cm^3
# Si number density = 23.050255 Si / 1000 Ang^3
#
#
#
# Elastic Constant Matrix: (Units=GPa)
#
#
# Indices 1 2 3 4 5 6 
#
# 1 98.6927 33.4495 12.0009 -3.1203 3.8909 -6.0128
# 2 33.4495 89.0822 29.9615 8.4800 -0.6669 -19.2377
# 3 12.0009 29.9615 91.8903 11.3170 2.4265 4.9834
# 4 -3.1203 8.4800 11.3170 40.4117 5.8092 12.0758
# 5 3.8909 -0.6669 2.4265 5.8092 33.3866 -0.6780
# 6 -6.0128 -19.2377 4.9834 12.0758 -0.6780 32.1633
#
#
#
# Elastic Compliance Matrix: (Units=1/GPa)
#
#
# Indices 1 2 3 4 5 6 
#
# 1 0.011951 -0.005191 -0.000066 0.002921 -0.002041 -0.002000
# 2 -0.005191 0.018692 -0.005336 -0.007397 0.002935 0.013875
# 3 -0.000066 -0.005336 0.013037 -0.000932 -0.000984 -0.004894
# 4 0.002921 -0.007397 -0.000932 0.032508 -0.006403 -0.016074
# 5 -0.002041 0.002935 -0.000984 -0.006403 0.031528 0.004595
# 6 -0.002000 0.013875 -0.004894 -0.016074 0.004595 0.045907
#
#
# Mechanical properties :
#
#
# Convention : Reuss Voigt Hill
#
# Bulk Modulus (GPa) = 44.45334 47.83211 46.14273
# Shear Modulus (GPa) = 27.42670 34.80921 31.11795
#
# Velocity S-wave (km/s) = 3.45318 3.89027 3.67823
# Velocity P-wave (km/s) = 5.93520 6.40119 6.17259
#
# Compressibility (1/GPa) = 0.02249550
#
# Stress axis : x y z
#
# Youngs Moduli (GPa) = 83.67772 53.49960 76.70408
#
# Poissons Ratio (x) = 0.27769 0.00505
# Poissons Ratio (y) = 0.43433 0.40927
# Poissons Ratio (z) = 0.00550 0.28546
#
# Static dielectric constant tensor:
#      x y z
#    x 1.846890 -0.010170 0.000380 
#    y -0.010170 1.829300 0.002760 
#    z 0.000380 0.002760 1.864480 
# 
# From -- ./inp_files/472471.got.cif
#   From: 2010.05.17/outbox.cif.g08.bks.cpg/sg2_237_cif.got.tgz:472471.got - 2010.06.03 11:33:40.
