data_PCOD9035229
_publ_section_title
;
Structure prediction by ZEFSAII (Michael W. Deem and Ramdas Pophale) SiO2 
 PCOD9035229
Probable space group: P -1
;
_chemical_formula_sum "Si O2"
_cell_formula_units_Z 16
_cell_length_a 8.481573
_cell_length_b 18.880325
_cell_length_c 5.513192
_cell_angle_alpha 87.540683
_cell_angle_beta 83.311230
_cell_angle_gamma 128.173387
_cell_volume 681.822175
_symmetry_space_group_name_H-M "P -1"
_symmetry_group_IT_number 2
_symmetry_cell_setting 'triclinic'
loop_
_space_group_symop_operation_xyz
x,y,z
-x,-y,-z
loop_
_atom_site_type_symbol
_atom_site_label
_atom_site_fract_x
_atom_site_fract_y
_atom_site_fract_z
Si Si1 0.838372 0.274421 0.715166
Si Si2 0.397187 0.754234 0.741924
Si Si3 0.102706 0.232066 0.842676
Si Si4 0.863162 0.033060 0.046256
Si Si5 0.282266 0.405621 0.114306
Si Si6 0.133974 0.468842 0.459605
Si Si7 0.233861 0.038526 0.426050
Si Si8 0.538110 0.651556 0.549228
O O1 0.722629 0.258958 0.484530
O O2 0.927618 0.219876 0.713637
O O3 0.028587 0.382528 0.666020
O O4 0.708659 0.252011 0.986340
O O5 0.612476 0.854567 0.666841
O O6 0.435389 0.680212 0.739785
O O7 0.302488 0.261648 0.660104
O O8 0.187154 0.321601 0.967805
O O9 0.007187 0.141859 0.025912
O O10 0.726176 0.986063 0.316488
O O11 0.754155 0.006888 0.808329
O O12 0.000000 0.000000 0.000000
O O13 0.138867 0.430715 0.206614
O O14 0.327211 0.370633 0.346746
O O15 0.500000 0.500000 0.000000
O O16 0.361006 0.558570 0.461944
O O17 0.000000 0.500000 0.500000
O O18 0.000000 0.000000 0.500000
#
# Coordination Sequence:
#
# PCOD9035229 Si02
#       8
#     2   2   2   2   2   2   2   2
#     4  12  28  50  70 112 157 204 254 308 388 461
#     4  12  28  48  78 111 150 201 252 315 384 466
#     4  12  27  47  77 106 156 200 254 319 382 445
#     4  10  23  42  75 110 143 186 246 314 376 442
#     4  12  26  45  72 112 149 202 262 317 370 448
#     4  12  25  49  69 109 159 206 254 312 380 449
#     4  10  22  45  72 108 146 180 249 311 371 448
#     4  12  26  43  75 106 148 203 262 313 374 444
#
# _framework density 23.466529000000001
#
# number of rings (size 3 to 8) (size 9 to 14) (size 15 to 20)
#    0.000    0.500    3.750    4.125    8.750    0.500 
#    0.000    3.750    0.000    0.000    0.000    0.000 
#    0.000    0.000    0.000    0.000    0.000    0.000 
#
# Total GULP energy -89453.693709 kJ/mol
# GULP energy per Si atom -5590.855857 kJ/mol
# Density = 2.341312 g / cm^3
# Si number density = 23.466529 Si / 1000 Ang^3
#
#
#
# Elastic Constant Matrix: (Units=GPa)
#
#
# Indices 1 2 3 4 5 6 
#
# 1 77.6819 12.5001 18.7354 6.4623 -9.0207 -9.2205
# 2 12.5001 132.1314 35.6931 -12.1798 -12.4068 -6.0519
# 3 18.7354 35.6931 144.3014 2.6570 -13.7373 8.5916
# 4 6.4623 -12.1798 2.6570 45.8300 5.4768 4.5697
# 5 -9.0207 -12.4068 -13.7373 5.4768 23.8184 -8.4607
# 6 -9.2205 -6.0519 8.5916 4.5697 -8.4607 24.0950
#
#
#
# Elastic Compliance Matrix: (Units=1/GPa)
#
#
# Indices 1 2 3 4 5 6 
#
# 1 0.016176 -0.000016 -0.001714 -0.004518 0.010153 0.011219
# 2 -0.000016 0.008890 -0.002040 0.001502 0.004628 0.004294
# 3 -0.001714 -0.002040 0.008046 -0.000676 0.001938 -0.003229
# 4 -0.004518 0.001502 -0.000676 0.025100 -0.010483 -0.009552
# 5 0.010153 0.004628 0.001938 -0.010483 0.061721 0.028018
# 6 0.011219 0.004294 -0.003229 -0.009552 0.028018 0.059675
#
#
# Mechanical properties :
#
#
# Convention : Reuss Voigt Hill
#
# Bulk Modulus (GPa) = 39.10622 54.21910 46.66266
# Shear Modulus (GPa) = 25.55279 37.89442 31.72360
#
# Velocity S-wave (km/s) = 3.30343 4.02285 3.68076
# Velocity P-wave (km/s) = 5.59027 6.68826 6.16376
#
# Compressibility (1/GPa) = 0.02557138
#
# Stress axis : x y z
#
# Youngs Moduli (GPa) = 61.82166 112.47965 124.28262
#
# Poissons Ratio (x) = 0.00185 0.21306
# Poissons Ratio (y) = 0.00102 0.25349
# Poissons Ratio (z) = 0.10598 0.22942
#
# Static dielectric constant tensor:
#      x y z
#    x 5.476880 10.357590 -0.137090 
#    y 10.357590 31.433530 -0.469140 
#    z -0.137090 -0.469140 1.968620 
# 
# From -- ./inp_files/37933.got.cif
#   From: 2010.05.17/outbox.cif.g08.bks.cpg/sg2_19_cif.got.tgz:37933.got - 2010.06.03 11:33:40.
