data_PCOD9035945
_publ_section_title
;
Structure prediction by ZEFSAII (Michael W. Deem and Ramdas Pophale) SiO2 
 PCOD9035945
Probable space group: P -1
;
_chemical_formula_sum "Si O2"
_cell_formula_units_Z 16
_cell_length_a 21.710686
_cell_length_b 9.034492
_cell_length_c 5.573621
_cell_angle_alpha 124.929302
_cell_angle_beta 68.381892
_cell_angle_gamma 130.562431
_cell_volume 680.904697
_symmetry_space_group_name_H-M "P -1"
_symmetry_group_IT_number 2
_symmetry_cell_setting 'triclinic'
loop_
_space_group_symop_operation_xyz
x,y,z
-x,-y,-z
loop_
_atom_site_type_symbol
_atom_site_label
_atom_site_fract_x
_atom_site_fract_y
_atom_site_fract_z
Si Si1 0.770897 0.519665 0.145486
Si Si2 0.101159 0.734410 0.831657
Si Si3 0.648547 0.245446 0.424597
Si Si4 0.532272 0.856855 0.887368
Si Si5 0.690050 0.060026 0.614475
Si Si6 0.427179 0.516399 0.043368
Si Si7 0.915055 0.510769 0.874241
Si Si8 0.748281 0.816425 0.112916
O O1 0.719330 0.482938 0.421911
O O2 0.752428 0.631964 0.067040
O O3 0.727311 0.257619 0.931525
O O4 0.864923 0.616130 0.088841
O O5 0.107829 0.614972 0.471051
O O6 0.012123 0.682651 0.888833
O O7 0.172373 0.994583 0.963733
O O8 0.103294 0.635866 0.994283
O O9 0.696115 0.192475 0.492604
O O10 0.585881 0.302615 0.659356
O O11 0.590165 0.004074 0.161262
O O12 0.455480 0.612918 0.823290
O O13 0.500000 0.000000 0.000000
O O14 0.595169 0.880031 0.627852
O O15 0.738451 0.952959 0.459260
O O16 0.500000 0.500000 0.000000
O O17 0.338660 0.292838 0.989969
#
# Coordination Sequence:
#
# PCOD9035945 Si02
#       8
#     2   2   2   2   2   2   2   2
#     4  11  24  42  69 102 139 179 230 290 356 423
#     4  10  23  45  78 109 147 187 237 285 362 432
#     4  11  23  44  64  89 135 183 231 293 357 420
#     4  11  23  41  63  85 121 179 232 290 353 418
#     4  11  23  44  64  91 131 181 229 285 354 415
#     4  12  26  40  62 100 132 180 239 299 355 422
#     4  10  22  46  77 111 144 190 232 290 353 441
#     4  12  25  43  68 103 138 183 234 296 357 429
#
# _framework density 23.498149000000002
#
# number of rings (size 3 to 8) (size 9 to 14) (size 15 to 20)
#    0.000    1.000    3.750    2.625    3.500    3.000 
#    0.000    0.000    0.000    5.250    0.000    0.000 
#    0.000    0.000    0.000    0.000    0.000    0.000 
#
# Total GULP energy -89164.217080 kJ/mol
# GULP energy per Si atom -5572.763567 kJ/mol
# Density = 2.344467 g / cm^3
# Si number density = 23.498149 Si / 1000 Ang^3
#
#
#
# Elastic Constant Matrix: (Units=GPa)
#
#
# Indices 1 2 3 4 5 6 
#
# 1 125.0556 33.1808 23.9643 -4.4142 -18.7868 18.9455
# 2 33.1808 130.8103 33.9809 -5.5418 -7.1870 29.3640
# 3 23.9643 33.9809 39.7565 -12.0950 -7.8272 0.5503
# 4 -4.4142 -5.5418 -12.0950 36.9674 1.9032 -7.3399
# 5 -18.7868 -7.1870 -7.8272 1.9032 38.0508 0.2738
# 6 18.9455 29.3640 0.5503 -7.3399 0.2738 35.1603
#
#
#
# Elastic Compliance Matrix: (Units=1/GPa)
#
#
# Indices 1 2 3 4 5 6 
#
# 1 0.010696 0.000734 -0.006901 -0.002437 0.004171 -0.006810
# 2 0.000734 0.013489 -0.013118 -0.004679 0.000535 -0.012436
# 3 -0.006901 -0.013118 0.045467 0.015358 0.002576 0.017148
# 4 -0.002437 -0.004679 0.015358 0.033497 -0.000690 0.011979
# 5 0.004171 0.000535 0.002576 -0.000690 0.029028 -0.003105
# 6 -0.006810 -0.012436 0.017148 0.011979 -0.003105 0.044753
#
#
# Mechanical properties :
#
#
# Convention : Reuss Voigt Hill
#
# Bulk Modulus (GPa) = 32.17200 53.09716 42.63458
# Shear Modulus (GPa) = 22.13748 35.66877 28.90313
#
# Velocity S-wave (km/s) = 3.07269 3.90030 3.51096
# Velocity P-wave (km/s) = 5.12928 6.55198 5.88379
#
# Compressibility (1/GPa) = 0.03108293
#
# Stress axis : x y z
#
# Youngs Moduli (GPa) = 93.48970 74.13447 21.99390
#
# Poissons Ratio (x) = -0.05442 0.15178
# Poissons Ratio (y) = -0.06863 0.28851
# Poissons Ratio (z) = 0.64518 0.97248
#
# Static dielectric constant tensor:
#      x y z
#    x 2.008270 -0.210270 0.105210 
#    y -0.210270 2.665720 -0.296670 
#    z 0.105210 -0.296670 2.261480 
# 
# From -- ./inp_files/53206.got.cif
#   From: 2010.05.17/outbox.cif.g08.bks.cpg/sg2_27_cif.got.tgz:53206.got - 2010.06.03 11:33:40.
