data_PCOD9035054
_publ_section_title
;
Structure prediction by ZEFSAII (Michael W. Deem and Ramdas Pophale) SiO2 
 PCOD9035054
Probable space group: P -1
;
_chemical_formula_sum "Si O2"
_cell_formula_units_Z 15
_cell_length_a 9.245578
_cell_length_b 18.382303
_cell_length_c 10.716328
_cell_angle_alpha 47.613951
_cell_angle_beta 76.624651
_cell_angle_gamma 38.079610
_cell_volume 625.470005
_symmetry_space_group_name_H-M "P -1"
_symmetry_group_IT_number 2
_symmetry_cell_setting 'triclinic'
loop_
_space_group_symop_operation_xyz
x,y,z
-x,-y,-z
loop_
_atom_site_type_symbol
_atom_site_label
_atom_site_fract_x
_atom_site_fract_y
_atom_site_fract_z
Si Si1 0.951718 0.635637 0.605023
Si Si2 0.000000 0.500000 0.500000
Si Si3 0.353304 0.817177 0.941393
Si Si4 0.161407 0.822969 0.754165
Si Si5 0.012686 0.812368 0.290888
Si Si6 0.836340 0.396205 0.002364
Si Si7 0.364049 0.185397 0.281656
Si Si8 0.320936 0.519160 0.354214
O O1 0.869970 0.796633 0.400154
O O2 0.875464 0.608286 0.538294
O O3 0.786147 0.697242 0.692932
O O4 0.322336 0.418483 0.809396
O O5 0.789900 0.520974 0.524513
O O6 0.139117 0.864054 0.857071
O O7 0.416956 0.861212 0.769391
O O8 0.212308 0.963289 0.912865
O O9 0.529559 0.598344 0.909916
O O10 0.037411 0.787483 0.784273
O O11 0.000000 0.000000 0.500000
O O12 0.117877 0.717323 0.242773
O O13 0.323030 0.663155 0.475600
O O14 0.742022 0.446473 0.819217
O O15 0.100865 0.318105 0.076596
O O16 0.500000 0.000000 0.500000
#
# Coordination Sequence:
#
# PCOD9035054 Si02
#       8
#     2   1   2   2   2   2   2   2
#     4  11  23  45  65  94 134 174 220 274 328 392
#     4  10  24  44  70  96 128 178 222 274 328 390
#     4  12  23  41  68  97 130 177 221 270 332 400
#     4  11  24  40  67 102 134 171 220 275 333 400
#     4  10  23  45  67  94 133 177 221 270 332 396
#     4  11  24  44  65  99 137 173 218 279 334 394
#     4  12  24  42  66  96 138 176 218 275 341 387
#     4  10  22  45  70  94 137 177 219 282 330 392
#
# _framework density 23.981966
#
# number of rings (size 3 to 8) (size 9 to 14) (size 15 to 20)
#    0.000    1.067    2.667    3.600    3.733    0.000 
#    4.800   12.667    0.000    0.000    0.000    0.000 
#    0.000    0.000    0.000    0.000    0.000    0.000 
#
# Total GULP energy -83756.814110 kJ/mol
# GULP energy per Si atom -5583.787607 kJ/mol
# Density = 2.392738 g / cm^3
# Si number density = 23.981966 Si / 1000 Ang^3
#
#
#
# Elastic Constant Matrix: (Units=GPa)
#
#
# Indices 1 2 3 4 5 6 
#
# 1 109.4276 32.0786 17.3418 8.2364 -4.4646 19.7886
# 2 32.0786 83.0779 3.5164 8.3733 7.1992 34.1320
# 3 17.3418 3.5164 51.5477 0.5396 -22.3830 14.6813
# 4 8.2364 8.3733 0.5396 34.9756 9.9211 -5.2556
# 5 -4.4646 7.1992 -22.3830 9.9211 32.5339 5.1975
# 6 19.7886 34.1320 14.6813 -5.2556 5.1975 48.1348
#
#
#
# Elastic Compliance Matrix: (Units=1/GPa)
#
#
# Indices 1 2 3 4 5 6 
#
# 1 0.011073 -0.003183 -0.001943 -0.002740 0.002078 -0.002226
# 2 -0.003183 0.020047 0.006326 -0.007841 0.004454 -0.016173
# 3 -0.001943 0.006326 0.040736 -0.014612 0.034235 -0.021403
# 4 -0.002740 -0.007841 -0.014612 0.040905 -0.024077 0.018209
# 5 0.002078 0.004454 0.034235 -0.024077 0.064779 -0.024078
# 6 -0.002226 -0.016173 -0.021403 0.018209 -0.024078 0.044275
#
#
# Mechanical properties :
#
#
# Convention : Reuss Voigt Hill
#
# Bulk Modulus (GPa) = 13.46691 38.88075 26.17383
# Shear Modulus (GPa) = 20.47783 35.86995 28.17389
#
# Velocity S-wave (km/s) = 2.92530 3.87163 3.43125
# Velocity P-wave (km/s) = 4.12765 6.01945 5.16097
#
# Compressibility (1/GPa) = 0.07425606
#
# Stress axis : x y z
#
# Youngs Moduli (GPa) = 90.31017 49.88272 24.54832
#
# Poissons Ratio (x) = 0.15876 0.04769
# Poissons Ratio (y) = 0.28742 -0.15528
# Poissons Ratio (z) = 0.17546 -0.31553
#
# Static dielectric constant tensor:
#      x y z
#    x 1.917490 -0.009820 -0.038640 
#    y -0.009820 1.930350 -0.001720 
#    z -0.038640 -0.001720 1.930570 
# 
# From -- ./inp_files/177036.got.cif
#   From: 2010.05.17/outbox.cif.g08.bks.cpg/sg2_89_cif.got.tgz:177036.got - 2010.06.03 11:33:40.
