data_PCOD9035285
_publ_section_title
;
Structure prediction by ZEFSAII (Michael W. Deem and Ramdas Pophale) SiO2 
 PCOD9035285
Probable space group: P -1
;
_chemical_formula_sum "Si O2"
_cell_formula_units_Z 14
_cell_length_a 14.708620
_cell_length_b 5.224586
_cell_length_c 9.362172
_cell_angle_alpha 97.293953
_cell_angle_beta 57.575159
_cell_angle_gamma 111.851135
_cell_volume 561.227414
_symmetry_space_group_name_H-M "P -1"
_symmetry_group_IT_number 2
_symmetry_cell_setting 'triclinic'
loop_
_space_group_symop_operation_xyz
x,y,z
-x,-y,-z
loop_
_atom_site_type_symbol
_atom_site_label
_atom_site_fract_x
_atom_site_fract_y
_atom_site_fract_z
Si Si1 0.537669 0.295392 0.557879
Si Si2 0.188544 0.862201 0.870861
Si Si3 0.452600 0.175924 0.153877
Si Si4 0.725885 0.830500 0.466154
Si Si5 0.954242 0.594950 0.879236
Si Si6 0.984479 0.918930 0.342168
Si Si7 0.626977 0.712072 0.065252
O O1 0.500000 0.500000 0.500000
O O2 0.669060 0.497278 0.479384
O O3 0.475754 0.228709 0.759377
O O4 0.500000 0.000000 0.500000
O O5 0.056695 0.778260 0.913518
O O6 0.261677 0.004694 0.680754
O O7 0.255968 0.079217 0.952271
O O8 0.162871 0.561779 0.943894
O O9 0.357752 0.083749 0.351015
O O10 0.575203 0.388516 0.126402
O O11 0.385057 0.286789 0.095436
O O12 0.500000 0.000000 0.000000
O O13 0.853269 0.885263 0.417389
O O14 0.988420 0.351947 0.753201
O O15 0.942229 0.808698 0.789946
O O16 0.000000 0.000000 0.500000
#
# Coordination Sequence:
#
# PCOD9035285 Si02
#       7
#     2   2   2   2   2   2   2
#     4  11  24  41  68 105 138 179 235 297 359 433
#     4  10  22  45  73 105 144 192 246 303 374 423
#     4  10  24  46  66 104 148 191 243 301 362 451
#     4  10  24  44  73 106 146 190 250 301 369 439
#     4  10  25  47  72 108 149 186 250 308 357 441
#     4  11  25  49  75 109 150 193 243 303 373 437
#     4  10  23  42  66 100 141 189 237 296 369 433
#
# _framework density 24.945323999999999
#
# number of rings (size 3 to 8) (size 9 to 14) (size 15 to 20)
#    0.000    1.714    1.429    0.429    8.000    5.143 
#   15.429    0.000    0.000    0.000    0.000    0.000 
#    0.000    0.000    0.000    0.000    0.000    0.000 
#
# Total GULP energy -78060.194192 kJ/mol
# GULP energy per Si atom -5575.728157 kJ/mol
# Density = 2.488855 g / cm^3
# Si number density = 24.945324 Si / 1000 Ang^3
#
#
#
# Elastic Constant Matrix: (Units=GPa)
#
#
# Indices 1 2 3 4 5 6 
#
# 1 94.9346 52.0587 53.7173 -12.8462 7.7660 17.7805
# 2 52.0587 174.9964 84.5095 -12.5912 -10.8407 18.9951
# 3 53.7173 84.5095 151.3441 -30.8878 8.6179 25.0547
# 4 -12.8462 -12.5912 -30.8878 52.8104 1.4993 -2.0355
# 5 7.7660 -10.8407 8.6179 1.4993 45.4127 4.4587
# 6 17.7805 18.9951 25.0547 -2.0355 4.4587 44.0259
#
#
#
# Elastic Compliance Matrix: (Units=1/GPa)
#
#
# Indices 1 2 3 4 5 6 
#
# 1 0.014477 -0.002723 -0.002773 0.001210 -0.002365 -0.002798
# 2 -0.002723 0.008790 -0.004272 -0.001190 0.003480 -0.000669
# 3 -0.002773 -0.004272 0.011695 0.005099 -0.002620 -0.003192
# 4 0.001210 -0.001190 0.005099 0.021922 -0.002019 -0.001659
# 5 -0.002365 0.003480 -0.002620 -0.002019 0.023974 -0.001577
# 6 -0.002798 -0.000669 -0.003192 -0.001659 -0.001577 0.026032
#
#
# Mechanical properties :
#
#
# Convention : Reuss Voigt Hill
#
# Bulk Modulus (GPa) = 64.82546 89.09402 76.95974
# Shear Modulus (GPa) = 38.00289 43.84910 40.92599
#
# Velocity S-wave (km/s) = 3.90737 4.19717 4.05486
# Velocity P-wave (km/s) = 6.81177 7.69945 7.26917
#
# Compressibility (1/GPa) = 0.01542604
#
# Stress axis : x y z
#
# Youngs Moduli (GPa) = 69.07397 113.76366 85.50467
#
# Poissons Ratio (x) = 0.30982 0.23710
# Poissons Ratio (y) = 0.18811 0.36528
# Poissons Ratio (z) = 0.19154 0.48600
#
# Static dielectric constant tensor:
#      x y z
#    x 2.143950 -0.220170 -0.112190 
#    y -0.220170 2.554710 0.358960 
#    z -0.112190 0.358960 2.296810 
# 
# From -- ./inp_files/323843.got.cif
#   From: 2010.05.17/outbox.cif.g08.bks.cpg/sg2_162_cif.got.tgz:323843.got - 2010.06.03 11:33:40.
