data_PCOD9035873
_publ_section_title
;
Structure prediction by ZEFSAII (Michael W. Deem and Ramdas Pophale) SiO2 
 PCOD9035873
Probable space group: P -1
;
_chemical_formula_sum "Si O2"
_cell_formula_units_Z 15
_cell_length_a 16.822576
_cell_length_b 10.547952
_cell_length_c 8.346592
_cell_angle_alpha 80.957450
_cell_angle_beta 51.699434
_cell_angle_gamma 42.503666
_cell_volume 647.741214
_symmetry_space_group_name_H-M "P -1"
_symmetry_group_IT_number 2
_symmetry_cell_setting 'triclinic'
loop_
_space_group_symop_operation_xyz
x,y,z
-x,-y,-z
loop_
_atom_site_type_symbol
_atom_site_label
_atom_site_fract_x
_atom_site_fract_y
_atom_site_fract_z
Si Si1 0.833567 0.826305 0.036570
Si Si2 0.309586 0.854173 0.118003
Si Si3 0.587616 0.028059 0.794417
Si Si4 0.722343 0.376231 0.690416
Si Si5 0.806657 0.451527 0.259859
Si Si6 0.245736 0.530351 0.016205
Si Si7 0.023843 0.416961 0.662596
Si Si8 0.500000 0.000000 0.500000
O O1 0.990012 0.708072 0.982725
O O2 0.924574 0.619008 0.860757
O O3 0.791454 0.990653 0.941321
O O4 0.647656 0.959937 0.297073
O O5 0.343865 0.940111 0.170697
O O6 0.216860 0.835329 0.333744
O O7 0.509442 0.599401 0.872847
O O8 0.764610 0.805554 0.522420
O O9 0.427961 0.254155 0.845907
O O10 0.500000 0.000000 0.000000
O O11 0.800715 0.383128 0.450976
O O12 0.745788 0.402045 0.839799
O O13 0.667515 0.716229 0.380797
O O14 0.763838 0.406988 0.166170
O O15 0.077148 0.611970 0.219898
O O16 0.000000 0.500000 0.500000
#
# Coordination Sequence:
#
# PCOD9035873 Si02
#       8
#     2   2   2   2   2   2   2   1
#     4  12  25  43  72 108 148 192 242 306 376 440
#     4  10  22  46  74 106 137 206 244 293 373 428
#     4  11  23  40  70 107 148 187 238 303 367 438
#     4  10  24  49  77  97 150 195 251 302 353 441
#     4  12  27  44  73 108 147 194 243 303 372 440
#     4  11  25  44  67 106 140 192 239 298 365 430
#     4  12  22  38  66 111 144 176 245 294 367 443
#     4  12  26  46  68 108 154 190 242 308 378 436
#
# _framework density 23.157395999999999
#
# number of rings (size 3 to 8) (size 9 to 14) (size 15 to 20)
#    0.000    0.800    5.333    1.200    3.733    0.533 
#    0.000    6.667    0.000    0.000    0.000    0.000 
#    0.000    0.000    0.000    0.000    0.000    0.000 
#
# Total GULP energy -83604.446415 kJ/mol
# GULP energy per Si atom -5573.629761 kJ/mol
# Density = 2.310469 g / cm^3
# Si number density = 23.157396 Si / 1000 Ang^3
#
#
#
# Elastic Constant Matrix: (Units=GPa)
#
#
# Indices 1 2 3 4 5 6 
#
# 1 99.4992 64.0933 31.9756 -4.6522 -2.8607 -22.5540
# 2 64.0933 123.9416 44.0436 -11.4499 -4.9685 -8.9032
# 3 31.9756 44.0436 119.7976 15.6350 -26.4079 -16.4629
# 4 -4.6522 -11.4499 15.6350 33.8582 -11.4659 -4.3413
# 5 -2.8607 -4.9685 -26.4079 -11.4659 28.1220 -2.2801
# 6 -22.5540 -8.9032 -16.4629 -4.3413 -2.2801 37.7183
#
#
#
# Elastic Compliance Matrix: (Units=1/GPa)
#
#
# Indices 1 2 3 4 5 6 
#
# 1 0.017423 -0.008072 -0.000419 0.001362 0.001202 0.008559
# 2 -0.008072 0.013945 -0.004090 0.005013 -0.000379 -0.002766
# 3 -0.000419 -0.004090 0.013491 -0.003329 0.010948 0.004951
# 4 0.001362 0.005013 -0.003329 0.038459 0.014051 0.005821
# 5 0.001202 -0.000379 0.010948 0.014051 0.052451 0.010196
# 6 0.008559 -0.002766 0.004951 0.005821 0.010196 0.034425
#
#
# Mechanical properties :
#
#
# Convention : Reuss Voigt Hill
#
# Bulk Modulus (GPa) = 50.77116 69.27371 60.02243
# Shear Modulus (GPa) = 24.76187 33.48145 29.12166
#
# Velocity S-wave (km/s) = 3.27354 3.80652 3.55005
# Velocity P-wave (km/s) = 6.02163 7.02130 6.54059
#
# Compressibility (1/GPa) = 0.01969622
#
# Stress axis : x y z
#
# Youngs Moduli (GPa) = 57.39453 71.70883 74.12187
#
# Poissons Ratio (x) = 0.57884 0.03109
# Poissons Ratio (y) = 0.46329 0.30318
# Poissons Ratio (z) = 0.02407 0.29331
#
# Static dielectric constant tensor:
#      x y z
#    x 1.939330 -0.036550 0.081750 
#    y -0.036550 1.908820 -0.018690 
#    z 0.081750 -0.018690 1.978230 
# 
# From -- ./inp_files/331892.got.cif
#   From: 2010.05.17/outbox.cif.g08.bks.cpg/sg2_166_cif.got.tgz:331892.got - 2010.06.03 11:33:40.
