data_PCOD9035676
_publ_section_title
;
Structure prediction by ZEFSAII (Michael W. Deem and Ramdas Pophale) SiO2 
 PCOD9035676
Probable space group: P -1
;
_chemical_formula_sum "Si O2"
_cell_formula_units_Z 15
_cell_length_a 15.663108
_cell_length_b 5.189914
_cell_length_c 12.649914
_cell_angle_alpha 71.849974
_cell_angle_beta 142.499678
_cell_angle_gamma 93.866764
_cell_volume 565.426512
_symmetry_space_group_name_H-M "P -1"
_symmetry_group_IT_number 2
_symmetry_cell_setting 'triclinic'
loop_
_space_group_symop_operation_xyz
x,y,z
-x,-y,-z
loop_
_atom_site_type_symbol
_atom_site_label
_atom_site_fract_x
_atom_site_fract_y
_atom_site_fract_z
Si Si1 0.355681 0.466433 0.420173
Si Si2 0.864724 0.933669 0.439024
Si Si3 0.500000 0.500000 0.000000
Si Si4 0.245363 0.432640 0.786295
Si Si5 0.132075 0.955741 0.016254
Si Si6 0.174375 0.078740 0.350680
Si Si7 0.538251 0.456044 0.280650
Si Si8 0.221183 0.484273 0.994602
O O1 0.500000 0.500000 0.500000
O O2 0.248136 0.273421 0.330735
O O3 0.428116 0.352443 0.619059
O O4 0.237798 0.765476 0.232142
O O5 0.828470 0.701787 0.358040
O O6 0.878095 0.840533 0.587229
O O7 0.739716 0.253215 0.272303
O O8 0.000000 0.000000 0.500000
O O9 0.584162 0.732958 0.013377
O O10 0.507855 0.592916 0.120332
O O11 0.176556 0.483541 0.827669
O O12 0.190411 0.789292 0.982466
O O13 0.965228 0.954845 0.844669
O O14 0.143438 0.271251 0.994656
O O15 0.307015 0.791044 0.533325
O O16 0.398617 0.358927 0.191767
#
# Coordination Sequence:
#
# PCOD9035676 Si02
#       8
#     2   2   1   2   2   2   2   2
#     4  12  27  51  79 111 156 211 270 324 389 462
#     4  12  25  45  73 109 154 201 248 313 391 468
#     4  10  22  46  70 112 144 198 244 324 378 468
#     4  11  23  43  70 106 147 198 248 309 377 459
#     4  12  28  49  77 111 156 202 264 324 393 457
#     4  12  28  46  77 118 153 209 259 334 390 467
#     4  11  25  47  79 108 158 199 269 317 398 460
#     4  11  25  48  76 112 153 208 259 324 388 469
#
# _framework density 26.528649999999999
#
# number of rings (size 3 to 8) (size 9 to 14) (size 15 to 20)
#    0.000    0.533    2.667    4.800    3.733    2.133 
#    2.400    0.000    0.000    0.000    0.000    0.000 
#    0.000    0.000    0.000    0.000    0.000    0.000 
#
# Total GULP energy -83555.359859 kJ/mol
# GULP energy per Si atom -5570.357324 kJ/mol
# Density = 2.646827 g / cm^3
# Si number density = 26.528650 Si / 1000 Ang^3
#
#
#
# Elastic Constant Matrix: (Units=GPa)
#
#
# Indices 1 2 3 4 5 6 
#
# 1 129.7654 22.7677 34.4042 22.3834 15.8200 10.5507
# 2 22.7677 59.3042 13.1647 -3.6343 -3.0348 3.4854
# 3 34.4042 13.1647 113.9805 9.4818 1.8954 5.0894
# 4 22.3834 -3.6343 9.4818 34.2244 3.2448 -4.5669
# 5 15.8200 -3.0348 1.8954 3.2448 60.6889 7.9456
# 6 10.5507 3.4854 5.0894 -4.5669 7.9456 37.5450
#
#
#
# Elastic Compliance Matrix: (Units=1/GPa)
#
#
# Indices 1 2 3 4 5 6 
#
# 1 0.010636 -0.004017 -0.002007 -0.006984 -0.002179 -0.002732
# 2 -0.004017 0.019124 -0.001419 0.004845 0.001821 -0.000251
# 3 -0.002007 -0.001419 0.009718 -0.001684 0.000357 -0.000902
# 4 -0.006984 0.004845 -0.001684 0.035653 -0.000603 0.006206
# 5 -0.002179 0.001821 0.000357 -0.000603 0.017603 -0.003404
# 6 -0.002732 -0.000251 -0.000902 0.006206 -0.003404 0.029023
#
#
# Mechanical properties :
#
#
# Convention : Reuss Voigt Hill
#
# Bulk Modulus (GPa) = 40.66261 49.30259 44.98260
# Shear Modulus (GPa) = 34.52106 42.00588 38.26347
#
# Velocity S-wave (km/s) = 3.61123 3.98353 3.80194
# Velocity P-wave (km/s) = 5.72268 6.30738 6.02213
#
# Compressibility (1/GPa) = 0.02459262
#
# Stress axis : x y z
#
# Youngs Moduli (GPa) = 94.02333 52.29044 102.90638
#
# Poissons Ratio (x) = 0.21003 0.20655
# Poissons Ratio (y) = 0.37765 0.14598
# Poissons Ratio (z) = 0.18872 0.07418
#
# Static dielectric constant tensor:
#      x y z
#    x 2.142090 -0.020360 -0.168180 
#    y -0.020360 2.140400 0.114840 
#    z -0.168180 0.114840 1.717300 
# 
# From -- ./inp_files/441776.got.cif
#   From: 2010.05.17/outbox.cif.g08.bks.cpg/sg2_221_cif.got.tgz:441776.got - 2010.06.03 11:33:40.
