data_PCOD9035619
_publ_section_title
;
Structure prediction by ZEFSAII (Michael W. Deem and Ramdas Pophale) SiO2 
 PCOD9035619
Probable space group: P -1
;
_chemical_formula_sum "Si O2"
_cell_formula_units_Z 16
_cell_length_a 11.937938
_cell_length_b 10.928148
_cell_length_c 12.401825
_cell_angle_alpha 140.556685
_cell_angle_beta 57.218890
_cell_angle_gamma 142.354195
_cell_volume 617.506294
_symmetry_space_group_name_H-M "P -1"
_symmetry_group_IT_number 2
_symmetry_cell_setting 'triclinic'
loop_
_space_group_symop_operation_xyz
x,y,z
-x,-y,-z
loop_
_atom_site_type_symbol
_atom_site_label
_atom_site_fract_x
_atom_site_fract_y
_atom_site_fract_z
Si Si1 0.855252 0.184700 0.377312
Si Si2 0.873330 0.092664 0.750994
Si Si3 0.264099 0.539069 0.112638
Si Si4 0.905860 0.397462 0.141674
Si Si5 0.156490 0.229547 0.158153
Si Si6 0.587917 0.574026 0.655852
Si Si7 0.771422 0.787850 0.282326
Si Si8 0.395052 0.862753 0.696437
O O1 0.702013 0.085547 0.301976
O O2 0.000000 0.500000 0.500000
O O3 0.009440 0.175551 0.277823
O O4 0.762023 0.008382 0.413542
O O5 0.032962 0.105117 0.712842
O O6 0.968124 0.286015 0.729776
O O7 0.852282 0.246478 0.952914
O O8 0.680094 0.782150 0.650310
O O9 0.051616 0.398186 0.120487
O O10 0.285476 0.496006 0.196632
O O11 0.398169 0.842043 0.205369
O O12 0.289695 0.384697 0.913606
O O13 0.728638 0.251981 0.209526
O O14 0.291559 0.246641 0.176760
O O15 0.000000 0.000000 0.000000
O O16 0.378189 0.413106 0.685057
O O17 0.608976 0.364000 0.492099
#
# Coordination Sequence:
#
# PCOD9035619 Si02
#       8
#     2   2   2   2   2   2   2   2
#     4  12  23  40  65  92 130 170 205 255 318 378
#     4  10  22  46  69  92 120 166 214 268 314 365
#     4  11  24  40  65  96 125 166 212 260 312 374
#     4  10  23  44  71  91 122 163 217 266 312 370
#     4  12  22  40  67  93 125 167 211 256 315 374
#     4  12  26  41  63  95 132 167 206 258 319 378
#     4  11  24  41  65  94 128 167 210 259 315 377
#     4  12  26  40  63  96 130 169 206 259 318 375
#
# _framework density 25.91067
#
# number of rings (size 3 to 8) (size 9 to 14) (size 15 to 20)
#    0.000    0.750    5.000    2.250    3.500    4.500 
#    0.000    5.000    0.000    0.000    0.000    0.000 
#    0.000    0.000    0.000    0.000    0.000    0.000 
#
# Total GULP energy -89440.672598 kJ/mol
# GULP energy per Si atom -5590.042037 kJ/mol
# Density = 2.585170 g / cm^3
# Si number density = 25.910670 Si / 1000 Ang^3
#
#
#
# Elastic Constant Matrix: (Units=GPa)
#
#
# Indices 1 2 3 4 5 6 
#
# 1 37.7486 4.4261 9.4873 -4.7392 -5.7248 -13.5901
# 2 4.4261 192.1624 49.1805 17.8349 -11.4317 -2.0746
# 3 9.4873 49.1805 57.5727 9.7636 -1.2174 -1.6667
# 4 -4.7392 17.8349 9.7636 44.8773 -1.6325 -10.5763
# 5 -5.7248 -11.4317 -1.2174 -1.6325 24.5286 3.5171
# 6 -13.5901 -2.0746 -1.6667 -10.5763 3.5171 52.4836
#
#
#
# Elastic Compliance Matrix: (Units=1/GPa)
#
#
# Indices 1 2 3 4 5 6 
#
# 1 0.033554 0.000892 -0.007093 0.007222 0.007016 0.009484
# 2 0.000892 0.006981 -0.005822 -0.001337 0.003106 -0.000156
# 3 -0.007093 -0.005822 0.024110 -0.004255 -0.003176 -0.001946
# 4 0.007222 -0.001337 -0.004255 0.026175 0.001611 0.006849
# 5 0.007016 0.003106 -0.003176 0.001611 0.043915 -0.000780
# 6 0.009484 -0.000156 -0.001946 0.006849 -0.000780 0.022874
#
#
# Mechanical properties :
#
#
# Convention : Reuss Voigt Hill
#
# Bulk Modulus (GPa) = 24.63191 45.96351 35.29771
# Shear Modulus (GPa) = 25.61630 39.33724 32.47677
#
# Velocity S-wave (km/s) = 3.14767 3.90062 3.54420
# Velocity P-wave (km/s) = 4.76839 6.16962 5.51370
#
# Compressibility (1/GPa) = 0.04059775
#
# Stress axis : x y z
#
# Youngs Moduli (GPa) = 29.80249 143.25330 41.47701
#
# Poissons Ratio (x) = -0.12778 0.29421
# Poissons Ratio (y) = -0.02658 0.24149
# Poissons Ratio (z) = 0.21140 0.83404
#
# Static dielectric constant tensor:
#      x y z
#    x 2.086380 -0.133980 0.019050 
#    y -0.133980 1.999210 0.019140 
#    z 0.019050 0.019140 2.155740 
# 
# From -- ./inp_files/314868.got.cif
#   From: 2010.05.17/outbox.cif.g08.bks.cpg/sg2_158_cif.got.tgz:314868.got - 2010.06.03 11:33:40.
