data_PCOD9035061
_publ_section_title
;
Structure prediction by ZEFSAII (Michael W. Deem and Ramdas Pophale) SiO2 
 PCOD9035061
Probable space group: P -1
;
_chemical_formula_sum "Si O2"
_cell_formula_units_Z 16
_cell_length_a 6.677094
_cell_length_b 15.793148
_cell_length_c 8.721249
_cell_angle_alpha 59.380641
_cell_angle_beta 72.840399
_cell_angle_gamma 75.021750
_cell_volume 749.642234
_symmetry_space_group_name_H-M "P -1"
_symmetry_group_IT_number 2
_symmetry_cell_setting 'triclinic'
loop_
_space_group_symop_operation_xyz
x,y,z
-x,-y,-z
loop_
_atom_site_type_symbol
_atom_site_label
_atom_site_fract_x
_atom_site_fract_y
_atom_site_fract_z
Si Si1 0.616204 0.140642 0.542040
Si Si2 0.308423 0.434403 0.602640
Si Si3 0.739738 0.324274 0.950996
Si Si4 0.408419 0.763836 0.206959
Si Si5 0.420488 0.051404 0.127415
Si Si6 0.116211 0.467982 0.279258
Si Si7 0.018808 0.160458 0.234830
Si Si8 0.675564 0.724070 0.746685
O O1 0.655646 0.186359 0.659960
O O2 0.528947 0.035025 0.679230
O O3 0.449124 0.219309 0.419387
O O4 0.830676 0.124218 0.409133
O O5 0.500000 0.500000 0.500000
O O6 0.395104 0.321753 0.730724
O O7 0.199762 0.435388 0.460104
O O8 0.129744 0.489152 0.702911
O O9 0.757031 0.293825 0.795412
O O10 0.769256 0.436821 0.871652
O O11 0.507133 0.309015 0.074225
O O12 0.908377 0.250088 0.073939
O O13 0.468031 0.849528 0.999466
O O14 0.167828 0.082460 0.168926
O O15 0.500000 0.000000 0.000000
O O16 0.174622 0.374215 0.245927
O O17 0.185076 0.201828 0.272228
#
# Coordination Sequence:
#
# PCOD9035061 Si02
#       8
#     2   2   2   2   2   2   2   2
#     4  10  24  43  70  96 131 169 224 271 327 394
#     4  11  23  39  65  95 133 170 220 272 319 387
#     4  11  24  42  67  97 135 172 220 269 322 393
#     4  11  21  45  68  94 134 173 214 279 322 376
#     4  10  22  45  70  96 127 170 219 274 329 387
#     4  11  24  38  65  98 127 179 219 261 328 385
#     4  11  24  44  66  97 134 173 214 270 335 387
#     4  11  24  43  66  96 137 173 214 275 324 391
#
# _framework density 21.343513999999999
#
# number of rings (size 3 to 8) (size 9 to 14) (size 15 to 20)
#    0.000    1.250    3.750    1.500    1.750    1.000 
#    6.750    1.250    0.000    0.000    0.000    0.000 
#    0.000    0.000    0.000    0.000    0.000    0.000 
#
# Total GULP energy -89384.497878 kJ/mol
# GULP energy per Si atom -5586.531117 kJ/mol
# Density = 2.129493 g / cm^3
# Si number density = 21.343514 Si / 1000 Ang^3
#
#
#
# Elastic Constant Matrix: (Units=GPa)
#
#
# Indices 1 2 3 4 5 6 
#
# 1 49.7940 6.7438 22.8952 7.6893 -15.8045 0.0389
# 2 6.7438 116.6405 43.0375 2.1827 -22.4041 -17.3280
# 3 22.8952 43.0375 82.2927 -1.6910 -6.7708 -4.4739
# 4 7.6893 2.1827 -1.6910 37.9591 1.5834 -8.1494
# 5 -15.8045 -22.4041 -6.7708 1.5834 25.5017 2.8633
# 6 0.0389 -17.3280 -4.4739 -8.1494 2.8633 21.8957
#
#
#
# Elastic Compliance Matrix: (Units=1/GPa)
#
#
# Indices 1 2 3 4 5 6 
#
# 1 0.033610 0.006475 -0.011126 -0.009558 0.024605 -0.003984
# 2 0.006475 0.015171 -0.008152 -0.001449 0.014378 0.007909
# 3 -0.011126 -0.008152 0.018832 0.003974 -0.009317 0.000114
# 4 -0.009558 -0.001449 0.003974 0.031668 -0.009535 0.012716
# 5 0.024605 0.014378 -0.009317 -0.009535 0.065514 -0.002685
# 6 -0.003984 0.007909 0.000114 0.012716 -0.002685 0.057045
#
#
# Mechanical properties :
#
#
# Convention : Reuss Voigt Hill
#
# Bulk Modulus (GPa) = 23.80573 43.78669 33.79621
# Shear Modulus (GPa) = 19.12426 28.80799 23.96613
#
# Velocity S-wave (km/s) = 2.99661 3.67785 3.35457
# Velocity P-wave (km/s) = 4.81152 6.21251 5.55635
#
# Compressibility (1/GPa) = 0.04200669
#
# Stress axis : x y z
#
# Youngs Moduli (GPa) = 29.75301 65.91582 53.10134
#
# Poissons Ratio (x) = -0.42680 0.59079
# Poissons Ratio (y) = -0.19265 0.43290
# Poissons Ratio (z) = 0.33102 0.53736
#
# Static dielectric constant tensor:
#      x y z
#    x 1.743540 0.009660 -0.006550 
#    y 0.009660 1.783400 0.003410 
#    z -0.006550 0.003410 1.802340 
# 
# From -- ./inp_files/137471.got.cif
#   From: 2010.05.17/outbox.cif.g08.bks.cpg/sg2_69_cif.got.tgz:137471.got - 2010.06.03 11:33:40.
