data_PCOD9035735
_publ_section_title
;
Structure prediction by ZEFSAII (Michael W. Deem and Ramdas Pophale) SiO2 
 PCOD9035735
Probable space group: P -1
;
_chemical_formula_sum "Si O2"
_cell_formula_units_Z 10
_cell_length_a 9.391091
_cell_length_b 13.519910
_cell_length_c 20.183162
_cell_angle_alpha 20.321840
_cell_angle_beta 150.598186
_cell_angle_gamma 138.724056
_cell_volume 403.459922
_symmetry_space_group_name_H-M "P -1"
_symmetry_group_IT_number 2
_symmetry_cell_setting 'triclinic'
loop_
_space_group_symop_operation_xyz
x,y,z
-x,-y,-z
loop_
_atom_site_type_symbol
_atom_site_label
_atom_site_fract_x
_atom_site_fract_y
_atom_site_fract_z
Si Si1 0.297406 0.680300 0.123055
Si Si2 0.618791 0.283620 0.618770
Si Si3 0.796328 0.717599 0.221820
Si Si4 0.266003 0.312113 0.175275
Si Si5 0.340802 0.779424 0.810181
O O1 0.420301 0.392207 0.401853
O O2 0.490402 0.632854 0.162292
O O3 0.929090 0.799325 0.887647
O O4 0.346164 0.931672 0.032343
O O5 0.500000 0.500000 0.500000
O O6 0.960053 0.289428 0.733119
O O7 0.554606 0.970674 0.797587
O O8 0.000000 0.500000 0.500000
O O9 0.500000 0.000000 0.500000
O O10 0.340817 0.575965 0.002293
O O11 0.000000 0.500000 0.000000
O O12 0.500000 0.500000 0.000000
O O13 0.000000 0.000000 0.500000
#
# Coordination Sequence:
#
# PCOD9035735 Si02
#       5
#     2   2   2   2   2
#     4  10  22  46  71 109 154 205 266 332 396 472
#     4  11  25  46  78 118 156 206 269 333 408 480
#     4   9  21  41  75 101 153 201 254 325 408 467
#     4  12  28  48  78 114 153 213 275 325 394 486
#     4  12  26  52  83 112 163 216 264 336 408 475
#
# _framework density 24.785608
#
# number of rings (size 3 to 8) (size 9 to 14) (size 15 to 20)
#    0.000    1.200    2.000    2.400    5.600    5.600 
#    3.600    0.000    0.000    0.000    0.000    0.000 
#    0.000    0.000    0.000    0.000    0.000    0.000 
#
# Total GULP energy -55688.540536 kJ/mol
# GULP energy per Si atom -5568.854054 kJ/mol
# Density = 2.472920 g / cm^3
# Si number density = 24.785608 Si / 1000 Ang^3
#
#
#
# Elastic Constant Matrix: (Units=GPa)
#
#
# Indices 1 2 3 4 5 6 
#
# 1 246.8652 78.5782 74.4943 -24.9130 0.1456 29.0244
# 2 78.5782 132.1472 66.2620 -8.6189 -18.9073 31.2481
# 3 74.4943 66.2620 190.2479 3.0293 -16.2860 18.6762
# 4 -24.9130 -8.6189 3.0293 51.4076 -5.6183 -8.7781
# 5 0.1456 -18.9073 -16.2860 -5.6183 51.1664 -12.2298
# 6 29.0244 31.2481 18.6762 -8.7781 -12.2298 48.9931
#
#
#
# Elastic Compliance Matrix: (Units=1/GPa)
#
#
# Indices 1 2 3 4 5 6 
#
# 1 0.005583 -0.002406 -0.001380 0.002017 -0.001419 -0.001240
# 2 -0.002406 0.011667 -0.002484 0.000471 0.002539 -0.004350
# 3 -0.001380 -0.002484 0.006791 -0.001400 0.001052 -0.000175
# 4 0.002017 0.000471 -0.001400 0.021535 0.002956 0.003635
# 5 -0.001419 0.002539 0.001052 0.002956 0.022322 0.004922
# 6 -0.001240 -0.004350 -0.000175 0.003635 0.004922 0.025867
#
#
# Mechanical properties :
#
#
# Convention : Reuss Voigt Hill
#
# Bulk Modulus (GPa) = 86.95566 111.99214 99.47390
# Shear Modulus (GPa) = 45.39678 53.64180 49.51929
#
# Velocity S-wave (km/s) = 4.28434 4.65718 4.47464
# Velocity P-wave (km/s) = 7.72226 8.61403 8.18031
#
# Compressibility (1/GPa) = 0.01150011
#
# Stress axis : x y z
#
# Youngs Moduli (GPa) = 179.10500 85.71519 147.24403
#
# Poissons Ratio (x) = 0.20626 0.20320
# Poissons Ratio (y) = 0.43100 0.36578
# Poissons Ratio (z) = 0.24717 0.21293
#
# Static dielectric constant tensor:
#      x y z
#    x 1.936790 0.125340 -0.049330 
#    y 0.125340 2.235810 -0.124780 
#    z -0.049330 -0.124780 2.361850 
# 
# From -- ./inp_files/286441.got.cif
#   From: 2010.05.17/outbox.cif.g08.bks.cpg/sg2_144_cif.got.tgz:286441.got - 2010.06.03 11:33:40.
