data_PCOD9035549
_publ_section_title
;
Structure prediction by ZEFSAII (Michael W. Deem and Ramdas Pophale) SiO2 
 PCOD9035549
Probable space group: P -1
;
_chemical_formula_sum "Si O2"
_cell_formula_units_Z 14
_cell_length_a 9.760751
_cell_length_b 7.765534
_cell_length_c 8.668131
_cell_angle_alpha 127.744739
_cell_angle_beta 76.428503
_cell_angle_gamma 100.950576
_cell_volume 504.113233
_symmetry_space_group_name_H-M "P -1"
_symmetry_group_IT_number 2
_symmetry_cell_setting 'triclinic'
loop_
_space_group_symop_operation_xyz
x,y,z
-x,-y,-z
loop_
_atom_site_type_symbol
_atom_site_label
_atom_site_fract_x
_atom_site_fract_y
_atom_site_fract_z
Si Si1 0.175798 0.806932 0.295213
Si Si2 0.653111 0.078125 0.070114
Si Si3 0.948795 0.945608 0.776501
Si Si4 0.176528 0.341289 0.948080
Si Si5 0.829106 0.520831 0.647705
Si Si6 0.693461 0.579470 0.377802
Si Si7 0.522488 0.978073 0.659147
O O1 0.098321 0.013732 0.366158
O O2 0.119084 0.589531 0.099316
O O3 0.155536 0.726501 0.432829
O O4 0.341926 0.861568 0.248586
O O5 0.655160 0.336212 0.203047
O O6 0.625921 0.997342 0.207351
O O7 0.798883 0.008037 0.925889
O O8 0.500000 0.000000 0.000000
O O9 0.962511 0.699309 0.699453
O O10 0.068558 0.131557 0.883815
O O11 0.252142 0.392905 0.127822
O O12 0.239571 0.320410 0.746555
O O13 0.766284 0.547933 0.509508
O O14 0.570319 0.734984 0.537845
O O15 0.500000 0.000000 0.500000
#
# Coordination Sequence:
#
# PCOD9035549 Si02
#       7
#     2   2   2   2   2   2   2
#     4  10  22  46  68 103 144 184 240 290 351 423
#     4  12  24  44  73  99 140 193 230 287 359 416
#     4  12  22  48  73 103 149 184 238 298 352 423
#     4  10  25  45  75 105 143 188 236 297 359 420
#     4  10  24  44  72 107 142 183 238 287 364 422
#     4  12  24  48  72 104 145 184 237 305 351 421
#     4  12  26  44  68 104 143 185 240 293 354 426
#
# _framework density 27.771539000000001
#
# number of rings (size 3 to 8) (size 9 to 14) (size 15 to 20)
#    0.857    0.000    4.286    2.143    2.000    1.714 
#    0.000    5.000    0.000    0.000    0.000    0.000 
#    0.000    0.000    0.000    0.000    0.000    0.000 
#
# Total GULP energy -78112.239263 kJ/mol
# GULP energy per Si atom -5579.445662 kJ/mol
# Density = 2.770833 g / cm^3
# Si number density = 27.771539 Si / 1000 Ang^3
#
#
#
# Elastic Constant Matrix: (Units=GPa)
#
#
# Indices 1 2 3 4 5 6 
#
# 1 97.9042 46.0211 41.1267 -14.2456 9.3564 0.1033
# 2 46.0211 206.0738 44.7955 -9.8538 1.3560 -3.5164
# 3 41.1267 44.7955 129.5786 -38.0058 19.8891 8.9553
# 4 -14.2456 -9.8538 -38.0058 78.4328 6.7541 -3.3721
# 5 9.3564 1.3560 19.8891 6.7541 52.0886 -5.1395
# 6 0.1033 -3.5164 8.9553 -3.3721 -5.1395 53.6565
#
#
#
# Elastic Compliance Matrix: (Units=1/GPa)
#
#
# Indices 1 2 3 4 5 6 
#
# 1 0.012661 -0.002151 -0.002893 0.000740 -0.001185 0.000251
# 2 -0.002151 0.005669 -0.001634 -0.000526 0.001001 0.000711
# 3 -0.002893 -0.001634 0.011609 0.005211 -0.004760 -0.002168
# 4 0.000740 -0.000526 0.005211 0.015689 -0.004175 -0.000320
# 5 -0.001185 0.001001 -0.004760 -0.004175 0.022011 0.002708
# 6 0.000251 0.000711 -0.002168 -0.000320 0.002708 0.019284
#
#
# Mechanical properties :
#
#
# Convention : Reuss Voigt Hill
#
# Bulk Modulus (GPa) = 60.30396 77.49368 68.89882
# Shear Modulus (GPa) = 47.25531 56.94314 52.09923
#
# Velocity S-wave (km/s) = 4.12949 4.53306 4.33597
# Velocity P-wave (km/s) = 6.67071 7.44062 7.06616
#
# Compressibility (1/GPa) = 0.01658266
#
# Stress axis : x y z
#
# Youngs Moduli (GPa) = 78.98087 176.40966 86.13662
#
# Poissons Ratio (x) = 0.37949 0.24921
# Poissons Ratio (y) = 0.16990 0.14074
# Poissons Ratio (z) = 0.22851 0.28825
#
# Static dielectric constant tensor:
#      x y z
#    x 2.273220 -0.074820 -0.008280 
#    y -0.074820 2.231120 -0.064110 
#    z -0.008280 -0.064110 2.407910 
# 
# From -- ./inp_files/240905.got.cif
#   From: 2010.05.17/outbox.cif.g08.bks.cpg/sg2_121_cif.got.tgz:240905.got - 2010.06.03 11:33:40.
