data_PCOD9035158
_publ_section_title
;
Structure prediction by ZEFSAII (Michael W. Deem and Ramdas Pophale) SiO2 
 PCOD9035158
Probable space group: P -1
;
_chemical_formula_sum "Si O2"
_cell_formula_units_Z 14
_cell_length_a 7.274794
_cell_length_b 7.588893
_cell_length_c 15.592800
_cell_angle_alpha 86.171416
_cell_angle_beta 126.841601
_cell_angle_gamma 121.832577
_cell_volume 544.483154
_symmetry_space_group_name_H-M "P -1"
_symmetry_group_IT_number 2
_symmetry_cell_setting 'triclinic'
loop_
_space_group_symop_operation_xyz
x,y,z
-x,-y,-z
loop_
_atom_site_type_symbol
_atom_site_label
_atom_site_fract_x
_atom_site_fract_y
_atom_site_fract_z
Si Si1 0.089745 0.442385 0.234784
Si Si2 0.252103 0.885464 0.335970
Si Si3 0.927891 0.830510 0.411192
Si Si4 0.504713 0.332977 0.322488
Si Si5 0.386835 0.737135 0.158671
Si Si6 0.312315 0.250257 0.921771
Si Si7 0.567839 0.850310 0.872525
O O1 0.256110 0.677566 0.325791
O O2 0.244145 0.325616 0.291172
O O3 0.131318 0.515530 0.143942
O O4 0.761310 0.282867 0.179568
O O5 0.181176 0.905487 0.412734
O O6 0.966777 0.813223 0.204577
O O7 0.499633 0.131457 0.361621
O O8 0.788965 0.581067 0.411662
O O9 0.668605 0.803464 0.287139
O O10 0.000000 0.000000 0.500000
O O11 0.456285 0.300040 0.206934
O O12 0.480058 0.749824 0.087135
O O13 0.333123 0.918495 0.145916
O O14 0.500000 0.500000 0.000000
O O15 0.244234 0.109206 0.992970
#
# Coordination Sequence:
#
# PCOD9035158 Si02
#       7
#     2   2   2   2   2   2   2
#     4  11  21  40  65  91 128 175 211 262 321 376
#     4  11  22  43  65  93 135 169 214 271 319 380
#     4  10  22  45  71  96 129 165 215 275 326 389
#     4  11  24  42  68  95 130 172 215 267 326 382
#     4  10  23  40  63  96 129 170 218 266 325 383
#     4  11  21  39  62  96 133 176 218 263 315 379
#     4  12  22  42  65  92 136 174 216 264 316 382
#
# _framework density 25.712457000000001
#
# number of rings (size 3 to 8) (size 9 to 14) (size 15 to 20)
#    0.000    1.143    4.286    3.857    0.000    1.714 
#    2.571    3.571    0.000    0.000    0.000    0.000 
#    0.000    0.000    0.000    0.000    0.000    0.000 
#
# Total GULP energy -78503.334016 kJ/mol
# GULP energy per Si atom -5607.381001 kJ/mol
# Density = 2.565393 g / cm^3
# Si number density = 25.712457 Si / 1000 Ang^3
#
#
#
# Elastic Constant Matrix: (Units=GPa)
#
#
# Indices 1 2 3 4 5 6 
#
# 1 133.1787 0.7133 41.9818 6.5856 -34.4195 -3.3903
# 2 0.7133 98.3549 31.0841 4.9608 -8.8250 -9.0075
# 3 41.9818 31.0841 101.5056 7.6209 -15.2979 -1.8807
# 4 6.5856 4.9608 7.6209 33.8081 -7.9201 -4.3106
# 5 -34.4195 -8.8250 -15.2979 -7.9201 44.0496 1.2548
# 6 -3.3903 -9.0075 -1.8807 -4.3106 1.2548 45.6764
#
#
#
# Elastic Compliance Matrix: (Units=1/GPa)
#
#
# Indices 1 2 3 4 5 6 
#
# 1 0.010627 0.001864 -0.003866 0.000361 0.007376 0.000829
# 2 0.001864 0.011840 -0.003978 -0.000379 0.002316 0.002210
# 3 -0.003866 -0.003978 0.012830 -0.001556 0.000378 -0.000700
# 4 0.000361 -0.000379 -0.001556 0.031491 0.005251 0.002716
# 5 0.007376 0.002316 0.000378 0.005251 0.029985 0.000692
# 6 0.000829 0.002210 -0.000700 0.002716 0.000692 0.022599
#
#
# Mechanical properties :
#
#
# Convention : Reuss Voigt Hill
#
# Bulk Modulus (GPa) = 42.85166 53.39974 48.12570
# Shear Modulus (GPa) = 35.94236 41.99082 38.96659
#
# Velocity S-wave (km/s) = 3.74285 4.04554 3.89713
# Velocity P-wave (km/s) = 5.94815 6.52955 6.24562
#
# Compressibility (1/GPa) = 0.02333632
#
# Stress axis : x y z
#
# Youngs Moduli (GPa) = 94.10006 84.45624 77.94328
#
# Poissons Ratio (x) = -0.15745 0.30135
# Poissons Ratio (y) = -0.17543 0.31010
# Poissons Ratio (z) = 0.36382 0.33601
#
# Static dielectric constant tensor:
#      x y z
#    x 2.030640 0.029820 0.002650 
#    y 0.029820 2.016590 -0.015180 
#    z 0.002650 -0.015180 2.103450 
# 
# From -- ./inp_files/346700.got.cif
#   From: 2010.05.17/outbox.cif.g08.bks.cpg/sg2_174_cif.got.tgz:346700.got - 2010.06.03 11:33:40.
