data_PCOD9035211
_publ_section_title
;
Structure prediction by ZEFSAII (Michael W. Deem and Ramdas Pophale) SiO2 
 PCOD9035211
Probable space group: P -1
;
_chemical_formula_sum "Si O2"
_cell_formula_units_Z 12
_cell_length_a 14.604574
_cell_length_b 9.049237
_cell_length_c 23.846914
_cell_angle_alpha 29.003242
_cell_angle_beta 159.757220
_cell_angle_gamma 152.863497
_cell_volume 481.427118
_symmetry_space_group_name_H-M "P -1"
_symmetry_group_IT_number 2
_symmetry_cell_setting 'triclinic'
loop_
_space_group_symop_operation_xyz
x,y,z
-x,-y,-z
loop_
_atom_site_type_symbol
_atom_site_label
_atom_site_fract_x
_atom_site_fract_y
_atom_site_fract_z
Si Si1 0.187871 0.414271 0.880161
Si Si2 0.620781 0.480397 0.514943
Si Si3 0.318875 0.688830 0.594304
Si Si4 0.131168 0.961446 0.908383
Si Si5 0.516970 0.357944 0.913458
Si Si6 0.456901 0.628214 0.261545
O O1 0.965596 0.578873 0.682603
O O2 0.029607 0.055524 0.877232
O O3 0.500000 0.500000 0.000000
O O4 0.234043 0.447190 0.962494
O O5 0.500000 0.500000 0.500000
O O6 0.555539 0.705247 0.356277
O O7 0.441010 0.088309 0.525432
O O8 0.506521 0.584721 0.781649
O O9 0.348292 0.527657 0.605834
O O10 0.000000 0.500000 0.500000
O O11 0.876026 0.646277 0.839376
O O12 0.227173 0.248606 0.821726
O O13 0.419414 0.903209 0.109114
O O14 0.500000 0.000000 0.000000
#
# Coordination Sequence:
#
# PCOD9035211 Si02
#       6
#     2   2   2   2   2   2
#     4  10  25  44  72 101 141 190 239 294 353 420
#     4  12  29  47  71 108 148 191 242 299 358 430
#     4  12  27  44  73 106 141 190 234 297 363 431
#     4  10  22  45  72 103 133 192 229 301 352 430
#     4  11  24  44  69 102 143 179 241 290 359 426
#     4  11  24  45  74  98 144 183 243 289 367 421
#
# _framework density 24.925891
#
# number of rings (size 3 to 8) (size 9 to 14) (size 15 to 20)
#    0.000    1.000    3.333    1.500   11.667    0.667 
#    0.000    4.167    0.000    0.000    0.000    0.000 
#    0.000    0.000    0.000    0.000    0.000    0.000 
#
# Total GULP energy -67014.371914 kJ/mol
# GULP energy per Si atom -5584.530993 kJ/mol
# Density = 2.486916 g / cm^3
# Si number density = 24.925891 Si / 1000 Ang^3
#
#
#
# Elastic Constant Matrix: (Units=GPa)
#
#
# Indices 1 2 3 4 5 6 
#
# 1 139.3144 15.3671 45.5219 8.5177 -11.2719 -9.9393
# 2 15.3671 37.6930 5.3491 4.5720 1.6419 8.8707
# 3 45.5219 5.3491 116.5290 23.4243 -6.1518 4.1935
# 4 8.5177 4.5720 23.4243 36.7596 1.3092 4.6843
# 5 -11.2719 1.6419 -6.1518 1.3092 52.1869 4.6613
# 6 -9.9393 8.8707 4.1935 4.6843 4.6613 56.1483
#
#
#
# Elastic Compliance Matrix: (Units=1/GPa)
#
#
# Indices 1 2 3 4 5 6 
#
# 1 0.008971 -0.003808 -0.003377 0.000201 0.001448 0.002305
# 2 -0.003808 0.029534 0.000777 -0.002597 -0.001141 -0.005087
# 3 -0.003377 0.000777 0.011226 -0.006357 0.000827 -0.001097
# 4 0.000201 -0.002597 -0.006357 0.031784 -0.001276 -0.001625
# 5 0.001448 -0.001141 0.000827 -0.001276 0.019744 -0.001158
# 6 0.002305 -0.005087 -0.001097 -0.001625 -0.001158 0.019335
#
#
# Mechanical properties :
#
#
# Convention : Reuss Voigt Hill
#
# Bulk Modulus (GPa) = 27.08896 47.33473 37.21184
# Shear Modulus (GPa) = 34.31375 44.17217 39.24296
#
# Velocity S-wave (km/s) = 3.71432 4.21425 3.97216
# Velocity P-wave (km/s) = 5.41168 6.53538 5.99990
#
# Compressibility (1/GPa) = 0.03691541
#
# Stress axis : x y z
#
# Youngs Moduli (GPa) = 111.47448 33.85900 89.07868
#
# Poissons Ratio (x) = 0.12894 0.30078
# Poissons Ratio (y) = 0.42450 -0.06919
# Poissons Ratio (z) = 0.37640 -0.02630
#
# Static dielectric constant tensor:
#      x y z
#    x 1.915260 -0.070860 0.030010 
#    y -0.070860 2.174150 0.033260 
#    z 0.030010 0.033260 1.994560 
# 
# From -- ./inp_files/232216.got.cif
#   From: 2010.05.17/outbox.cif.g08.bks.cpg/sg2_117_cif.got.tgz:232216.got - 2010.06.03 11:33:40.
