data_PCOD9035930
_publ_section_title
;
Structure prediction by ZEFSAII (Michael W. Deem and Ramdas Pophale) SiO2 
 PCOD9035930
Probable space group: P -1
;
_chemical_formula_sum "Si O2"
_cell_formula_units_Z 16
_cell_length_a 9.160450
_cell_length_b 12.055332
_cell_length_c 9.983575
_cell_angle_alpha 116.626604
_cell_angle_beta 90.711350
_cell_angle_gamma 135.831758
_cell_volume 579.723211
_symmetry_space_group_name_H-M "P -1"
_symmetry_group_IT_number 2
_symmetry_cell_setting 'triclinic'
loop_
_space_group_symop_operation_xyz
x,y,z
-x,-y,-z
loop_
_atom_site_type_symbol
_atom_site_label
_atom_site_fract_x
_atom_site_fract_y
_atom_site_fract_z
Si Si1 0.240081 0.823235 0.823951
Si Si2 0.842089 0.746873 0.736312
Si Si3 0.433328 0.076810 0.291101
Si Si4 0.392559 0.569759 0.666517
Si Si5 0.112666 0.080012 0.695137
Si Si6 0.860594 0.630446 0.037403
Si Si7 0.978328 0.563722 0.240463
Si Si8 0.455199 0.758797 0.326428
O O1 0.336120 0.859341 0.693232
O O2 0.082905 0.601317 0.764355
O O3 0.083444 0.841318 0.840532
O O4 0.500000 0.000000 0.000000
O O5 0.928967 0.910805 0.719148
O O6 0.630202 0.662823 0.780973
O O7 0.692113 0.546102 0.536738
O O8 0.504361 0.226436 0.261322
O O9 0.156873 0.839306 0.132128
O O10 0.139119 0.406082 0.657892
O O11 0.201547 0.279542 0.847620
O O12 0.326388 0.122951 0.709488
O O13 0.562432 0.854925 0.527530
O O14 0.000000 0.000000 0.500000
O O15 0.707119 0.478682 0.826064
O O16 0.831494 0.492604 0.063661
O O17 0.265680 0.744354 0.303755
#
# Coordination Sequence:
#
# PCOD9035930 Si02
#       8
#     2   2   2   2   2   2   2   2
#     4  11  26  47  75 110 156 203 256 312 375 458
#     4  11  23  43  79 109 149 201 253 311 383 457
#     4  11  24  47  75 110 153 196 255 314 381 453
#     4  10  22  46  76 109 148 193 257 316 377 454
#     4  12  25  47  75 117 152 199 252 315 387 457
#     4  12  26  47  74 112 153 196 254 313 380 458
#     4  11  26  45  72 113 148 198 252 315 378 448
#     4  12  26  45  76 109 154 200 246 315 384 448
#
# _framework density 27.599374999999998
#
# number of rings (size 3 to 8) (size 9 to 14) (size 15 to 20)
#    0.000    0.750    2.500    3.750    3.500    5.500 
#    0.000    3.750    0.000    0.000    0.000    0.000 
#    0.000    0.000    0.000    0.000    0.000    0.000 
#
# Total GULP energy -89509.507699 kJ/mol
# GULP energy per Si atom -5594.344231 kJ/mol
# Density = 2.753656 g / cm^3
# Si number density = 27.599375 Si / 1000 Ang^3
#
#
#
# Elastic Constant Matrix: (Units=GPa)
#
#
# Indices 1 2 3 4 5 6 
#
# 1 162.5760 54.7754 32.4341 -0.1707 16.0328 36.5383
# 2 54.7754 102.4182 18.1856 3.3662 1.4527 45.0217
# 3 32.4341 18.1856 131.9681 3.9507 -10.0964 4.8811
# 4 -0.1707 3.3662 3.9507 35.7871 8.8395 -0.9793
# 5 16.0328 1.4527 -10.0964 8.8395 45.3720 7.3909
# 6 36.5383 45.0217 4.8811 -0.9793 7.3909 63.6523
#
#
#
# Elastic Compliance Matrix: (Units=1/GPa)
#
#
# Indices 1 2 3 4 5 6 
#
# 1 0.008379 -0.003301 -0.001815 0.001286 -0.003193 -0.001945
# 2 -0.003301 0.015950 -0.000768 -0.002315 0.002508 -0.009655
# 3 -0.001815 -0.000768 0.008361 -0.001515 0.002723 0.000605
# 4 0.001286 -0.002315 -0.001515 0.030115 -0.006957 0.002286
# 5 -0.003193 0.002508 0.002723 -0.006957 0.025575 -0.003227
# 6 -0.001945 -0.009655 0.000605 0.002286 -0.003227 0.024020
#
#
# Mechanical properties :
#
#
# Convention : Reuss Voigt Hill
#
# Bulk Modulus (GPa) = 47.79813 67.52806 57.66309
# Shear Modulus (GPa) = 38.12665 48.40007 43.26336
#
# Velocity S-wave (km/s) = 3.72079 4.19222 3.96352
# Velocity P-wave (km/s) = 5.98458 6.92483 6.47181
#
# Compressibility (1/GPa) = 0.02092132
#
# Stress axis : x y z
#
# Youngs Moduli (GPa) = 119.35268 62.69474 119.60358
#
# Poissons Ratio (x) = 0.20693 0.21710
# Poissons Ratio (y) = 0.39393 0.09191
# Poissons Ratio (z) = 0.21665 0.04818
#
# Static dielectric constant tensor:
#      x y z
#    x 2.221860 0.056580 -0.010930 
#    y 0.056580 2.250600 -0.057340 
#    z -0.010930 -0.057340 2.145940 
# 
# From -- ./inp_files/562228.got.cif
#   From: 2010.05.17/outbox.cif.g08.bks.cpg/sg2_282_cif.got.tgz:562228.got - 2010.06.03 11:33:40.
