data_PCOD9035856
_publ_section_title
;
Structure prediction by ZEFSAII (Michael W. Deem and Ramdas Pophale) SiO2 
 PCOD9035856
Probable space group: P -1
;
_chemical_formula_sum "Si O2"
_cell_formula_units_Z 14
_cell_length_a 9.024756
_cell_length_b 8.628628
_cell_length_c 9.750314
_cell_angle_alpha 73.375012
_cell_angle_beta 120.091598
_cell_angle_gamma 110.648494
_cell_volume 609.110393
_symmetry_space_group_name_H-M "P -1"
_symmetry_group_IT_number 2
_symmetry_cell_setting 'triclinic'
loop_
_space_group_symop_operation_xyz
x,y,z
-x,-y,-z
loop_
_atom_site_type_symbol
_atom_site_label
_atom_site_fract_x
_atom_site_fract_y
_atom_site_fract_z
Si Si1 0.323646 0.888467 0.876016
Si Si2 0.689609 0.765870 0.753930
Si Si3 0.018330 0.625792 0.350513
Si Si4 0.306819 0.506220 0.966632
Si Si5 0.596393 0.357355 0.550000
Si Si6 0.020103 0.000321 0.345571
Si Si7 0.490311 0.996774 0.329064
O O1 0.302693 0.695217 0.949974
O O2 0.353838 0.907026 0.720087
O O3 0.154488 0.958821 0.810129
O O4 0.500000 0.000000 0.000000
O O5 0.487268 0.694512 0.626490
O O6 0.673111 0.922711 0.800001
O O7 0.738586 0.617508 0.893420
O O8 0.816626 0.849374 0.668195
O O9 0.842533 0.567633 0.195055
O O10 0.043738 0.820018 0.354820
O O11 0.000000 0.500000 0.500000
O O12 0.194170 0.603059 0.362585
O O13 0.500000 0.500000 0.000000
O O14 0.500000 0.500000 0.500000
O O15 0.536381 0.198499 0.662067
O O16 0.000000 0.000000 0.500000
O O17 0.500000 0.000000 0.500000
#
# Coordination Sequence:
#
# PCOD9035856 Si02
#       7
#     2   2   2   2   2   2   2
#     4  12  28  46  74 108 151 192 248 315 379 443
#     4  11  25  47  76 102 149 197 242 306 372 441
#     4  12  28  45  75 108 146 196 247 306 371 448
#     4  12  26  49  75 105 150 192 250 309 379 440
#     4  11  26  44  73 108 142 189 255 303 365 443
#     4  12  27  48  73 110 151 193 252 304 372 446
#     4  10  22  46  74 101 141 201 246 298 372 444
#
# _framework density 22.984338999999999
#
# number of rings (size 3 to 8) (size 9 to 14) (size 15 to 20)
#    0.000    0.571    2.857    4.286   12.000    2.286 
#    0.000    0.000    0.000    0.000    0.000    0.000 
#    0.000    0.000    0.000    0.000    0.000    0.000 
#
# Total GULP energy -78236.708727 kJ/mol
# GULP energy per Si atom -5588.336338 kJ/mol
# Density = 2.293203 g / cm^3
# Si number density = 22.984339 Si / 1000 Ang^3
#
#
#
# Elastic Constant Matrix: (Units=GPa)
#
#
# Indices 1 2 3 4 5 6 
#
# 1 115.4337 45.2283 38.4553 -14.4642 25.9714 4.7172
# 2 45.2283 149.0402 65.2725 -40.2737 7.6859 -6.3835
# 3 38.4553 65.2725 118.2329 -8.5896 19.5746 12.4593
# 4 -14.4642 -40.2737 -8.5896 64.5556 6.2962 7.1199
# 5 25.9714 7.6859 19.5746 6.2962 46.8224 -7.1687
# 6 4.7172 -6.3835 12.4593 7.1199 -7.1687 43.0516
#
#
#
# Elastic Compliance Matrix: (Units=1/GPa)
#
#
# Indices 1 2 3 4 5 6 
#
# 1 0.011717 -0.002377 -0.001020 0.001927 -0.006358 -0.002719
# 2 -0.002377 0.011432 -0.005724 0.005355 0.001573 0.002988
# 3 -0.001020 -0.005724 0.013192 -0.001020 -0.004663 -0.005162
# 4 0.001927 0.005355 -0.001020 0.019938 -0.004692 -0.003201
# 5 -0.006358 0.001573 -0.004663 -0.004692 0.028398 0.007784
# 6 -0.002719 0.002988 -0.005162 -0.003201 0.007784 0.027288
#
#
# Mechanical properties :
#
#
# Convention : Reuss Voigt Hill
#
# Bulk Modulus (GPa) = 55.25310 75.62431 65.43871
# Shear Modulus (GPa) = 36.70030 46.46929 41.58479
#
# Velocity S-wave (km/s) = 4.00027 4.50130 4.25816
# Velocity P-wave (km/s) = 6.74002 7.74529 7.26008
#
# Compressibility (1/GPa) = 0.01809853
#
# Stress axis : x y z
#
# Youngs Moduli (GPa) = 85.34599 87.47607 75.80622
#
# Poissons Ratio (x) = 0.20794 0.07729
# Poissons Ratio (y) = 0.20288 0.43393
# Poissons Ratio (z) = 0.08701 0.50073
#
# Static dielectric constant tensor:
#      x y z
#    x 2.060990 -0.203790 -0.010450 
#    y -0.203790 2.160290 0.032310 
#    z -0.010450 0.032310 1.909100 
# 
# From -- ./inp_files/381546.got.cif
#   From: 2010.05.17/outbox.cif.g08.bks.cpg/sg2_191_cif.got.tgz:381546.got - 2010.06.03 11:33:40.
