data_PCOD9035078
_publ_section_title
;
Structure prediction by ZEFSAII (Michael W. Deem and Ramdas Pophale) SiO2 
 PCOD9035078
Probable space group: P -1
;
_chemical_formula_sum "Si O2"
_cell_formula_units_Z 13
_cell_length_a 11.693055
_cell_length_b 6.917945
_cell_length_c 7.443506
_cell_angle_alpha 117.918358
_cell_angle_beta 82.104520
_cell_angle_gamma 101.310224
_cell_volume 520.988629
_symmetry_space_group_name_H-M "P -1"
_symmetry_group_IT_number 2
_symmetry_cell_setting 'triclinic'
loop_
_space_group_symop_operation_xyz
x,y,z
-x,-y,-z
loop_
_atom_site_type_symbol
_atom_site_label
_atom_site_fract_x
_atom_site_fract_y
_atom_site_fract_z
Si Si1 0.360655 0.918958 0.004560
Si Si2 0.219180 0.737483 0.302210
Si Si3 0.380198 0.466949 0.708819
Si Si4 0.357919 0.384964 0.272127
Si Si5 0.000000 0.000000 0.000000
Si Si6 0.975719 0.494666 0.288550
Si Si7 0.169926 0.171537 0.711298
O O1 0.308702 0.146411 0.095724
O O2 0.308838 0.816008 0.157848
O O3 0.500000 0.000000 0.000000
O O4 0.341007 0.707081 0.788407
O O5 0.275122 0.563752 0.334275
O O6 0.095139 0.603961 0.211127
O O7 0.191998 0.952386 0.506527
O O8 0.376019 0.348243 0.465323
O O9 0.511494 0.515978 0.775298
O O10 0.294673 0.314963 0.792942
O O11 0.052990 0.760501 0.868280
O O12 0.916997 0.898760 0.140167
O O13 0.000000 0.500000 0.500000
O O14 0.884730 0.659480 0.334658
#
# Coordination Sequence:
#
# PCOD9035078 Si02
#       7
#     2   2   2   2   1   2   2
#     4  10  23  44  68 101 135 179 222 280 340 405
#     4  12  25  45  72  99 138 183 221 287 344 406
#     4  10  22  45  70  98 139 179 224 288 329 414
#     4  10  23  45  68 102 137 176 229 274 347 404
#     4  12  28  46  74 104 134 188 230 290 342 404
#     4  12  27  48  73 102 138 182 234 288 340 410
#     4  12  26  48  70 105 139 182 234 280 349 405
#
# _framework density 24.952559000000001
#
# number of rings (size 3 to 8) (size 9 to 14) (size 15 to 20)
#    0.000    0.923    3.077    2.769    0.000    4.308 
#    2.769    0.000    0.000    0.000    0.000    0.000 
#    0.000    0.000    0.000    0.000    0.000    0.000 
#
# Total GULP energy -72555.325501 kJ/mol
# GULP energy per Si atom -5581.178885 kJ/mol
# Density = 2.489577 g / cm^3
# Si number density = 24.952559 Si / 1000 Ang^3
#
#
#
# Elastic Constant Matrix: (Units=GPa)
#
#
# Indices 1 2 3 4 5 6 
#
# 1 49.0014 38.0652 15.5890 8.2654 -11.1341 0.8134
# 2 38.0652 151.9518 45.7271 24.2056 -5.7599 11.0573
# 3 15.5890 45.7271 97.1314 19.0001 -21.3450 -2.8888
# 4 8.2654 24.2056 19.0001 77.7288 3.5796 -23.1331
# 5 -11.1341 -5.7599 -21.3450 3.5796 29.5525 1.4177
# 6 0.8134 11.0573 -2.8888 -23.1331 1.4177 40.9487
#
#
#
# Elastic Compliance Matrix: (Units=1/GPa)
#
#
# Indices 1 2 3 4 5 6 
#
# 1 0.027827 -0.006709 0.001276 -0.001635 0.010293 0.000069
# 2 -0.006709 0.010046 -0.003905 -0.002582 -0.002875 -0.004214
# 3 0.001276 -0.003905 0.014918 -0.003077 0.010869 -0.000033
# 4 -0.001635 -0.002582 -0.003077 0.018140 -0.006065 0.010970
# 5 0.010293 -0.002875 0.010869 -0.006065 0.045917 -0.003677
# 6 0.000069 -0.004214 -0.000033 0.010970 -0.003677 0.031880
#
#
# Mechanical properties :
#
#
# Convention : Reuss Voigt Hill
#
# Bulk Modulus (GPa) = 29.31194 55.20524 42.25859
# Shear Modulus (GPa) = 27.96823 42.89289 35.43056
#
# Velocity S-wave (km/s) = 3.35155 4.15055 3.77227
# Velocity P-wave (km/s) = 5.17202 6.71875 5.99547
#
# Compressibility (1/GPa) = 0.03411578
#
# Stress axis : x y z
#
# Youngs Moduli (GPa) = 35.93636 99.54399 67.03307
#
# Poissons Ratio (x) = 0.66788 -0.08556
# Poissons Ratio (y) = 0.24111 0.26173
# Poissons Ratio (z) = -0.04587 0.38867
#
# Static dielectric constant tensor:
#      x y z
#    x 2.037290 -0.003200 -0.026000 
#    y -0.003200 1.925510 0.005310 
#    z -0.026000 0.005310 1.984100 
# 
# From -- ./inp_files/25308.got.cif
#   From: 2010.05.17/outbox.cif.g08.bks.cpg/sg2_13_cif.got.tgz:25308.got - 2010.06.03 11:33:40.
