data_PCOD9035139
_publ_section_title
;
Structure prediction by ZEFSAII (Michael W. Deem and Ramdas Pophale) SiO2 
 PCOD9035139
Probable space group: P -1
;
_chemical_formula_sum "Si O2"
_cell_formula_units_Z 14
_cell_length_a 8.957227
_cell_length_b 11.898550
_cell_length_c 14.454903
_cell_angle_alpha 148.246275
_cell_angle_beta 128.624452
_cell_angle_gamma 62.596037
_cell_volume 624.021200
_symmetry_space_group_name_H-M "P -1"
_symmetry_group_IT_number 2
_symmetry_cell_setting 'triclinic'
loop_
_space_group_symop_operation_xyz
x,y,z
-x,-y,-z
loop_
_atom_site_type_symbol
_atom_site_label
_atom_site_fract_x
_atom_site_fract_y
_atom_site_fract_z
Si Si1 0.462349 0.311905 0.779709
Si Si2 0.665172 0.706576 0.829768
Si Si3 0.852890 0.587548 0.415917
Si Si4 0.780141 0.046368 0.440556
Si Si5 0.940804 0.125223 0.155650
Si Si6 0.222094 0.560544 0.155203
Si Si7 0.723473 0.308737 0.436846
O O1 0.303368 0.347571 0.667793
O O2 0.656921 0.327277 0.806025
O O3 0.372793 0.112699 0.669376
O O4 0.500000 0.500000 0.000000
O O5 0.687332 0.626069 0.887290
O O6 0.711864 0.522087 0.645114
O O7 0.447714 0.723408 0.726707
O O8 0.812067 0.931296 0.027377
O O9 0.826945 0.326647 0.233682
O O10 0.873030 0.740033 0.622247
O O11 0.065602 0.650230 0.497753
O O12 0.782004 0.269968 0.647829
O O13 0.712251 0.093625 0.344808
O O14 0.000000 0.000000 0.500000
O O15 0.000000 0.000000 0.000000
O O16 0.000000 0.500000 0.000000
#
# Coordination Sequence:
#
# PCOD9035139 Si02
#       7
#     2   2   2   2   2   2   2
#     4  12  28  47  72 105 150 198 251 303 374 441
#     4  10  24  44  73 102 144 195 240 306 374 432
#     4  11  26  45  71 111 147 190 252 303 367 454
#     4  11  23  46  74 106 146 191 239 307 370 443
#     4  11  25  44  73 104 149 192 240 305 373 433
#     4  11  27  47  72 103 145 194 251 305 370 444
#     4  10  22  45  71 108 145 187 246 301 369 449
#
# _framework density 22.435136
#
# number of rings (size 3 to 8) (size 9 to 14) (size 15 to 20)
#    0.000    1.143    2.857    1.286   10.000    2.857 
#    0.000    0.000    0.000    0.000    0.000    0.000 
#    0.000    0.000    0.000    0.000    0.000    0.000 
#
# Total GULP energy -78209.645565 kJ/mol
# GULP energy per Si atom -5586.403255 kJ/mol
# Density = 2.238407 g / cm^3
# Si number density = 22.435136 Si / 1000 Ang^3
#
#
#
# Elastic Constant Matrix: (Units=GPa)
#
#
# Indices 1 2 3 4 5 6 
#
# 1 127.3474 47.3324 22.1095 0.3161 14.4252 4.5160
# 2 47.3324 134.3946 55.0323 5.6538 26.0491 15.9307
# 3 22.1095 55.0323 121.0188 3.0318 -0.1295 1.2600
# 4 0.3161 5.6538 3.0318 36.8986 4.5584 10.1759
# 5 14.4252 26.0491 -0.1295 4.5584 47.5266 4.1032
# 6 4.5160 15.9307 1.2600 10.1759 4.1032 31.2350
#
#
#
# Elastic Compliance Matrix: (Units=1/GPa)
#
#
# Indices 1 2 3 4 5 6 
#
# 1 0.009114 -0.002844 -0.000387 0.000505 -0.001270 0.000151
# 2 -0.002844 0.012086 -0.004946 0.000639 -0.005400 -0.005053
# 3 -0.000387 -0.004946 0.010590 -0.001038 0.002773 0.002125
# 4 0.000505 0.000639 -0.001038 0.030110 -0.002545 -0.009832
# 5 -0.001270 -0.005400 0.002773 -0.002545 0.024601 0.000423
# 6 0.000151 -0.005053 0.002125 -0.009832 0.000423 0.037632
#
#
# Mechanical properties :
#
#
# Convention : Reuss Voigt Hill
#
# Bulk Modulus (GPa) = 64.78484 70.18989 67.48737
# Shear Modulus (GPa) = 34.33269 40.35113 37.34191
#
# Velocity S-wave (km/s) = 3.91616 4.24555 4.08418
# Velocity P-wave (km/s) = 7.02763 7.44222 7.23789
#
# Compressibility (1/GPa) = 0.01543571
#
# Stress axis : x y z
#
# Youngs Moduli (GPa) = 109.71903 82.73816 94.43063
#
# Poissons Ratio (x) = 0.23534 0.03657
# Poissons Ratio (y) = 0.31208 0.46703
# Poissons Ratio (z) = 0.04249 0.40920
#
# Static dielectric constant tensor:
#      x y z
#    x 1.838820 0.073250 -0.009060 
#    y 0.073250 1.999700 0.031520 
#    z -0.009060 0.031520 1.794540 
# 
# From -- ./inp_files/501303.got.cif
#   From: 2010.05.17/outbox.cif.g08.bks.cpg/sg2_251_cif.got.tgz:501303.got - 2010.06.03 11:33:40.
