data_PCOD9035731
_publ_section_title
;
Structure prediction by ZEFSAII (Michael W. Deem and Ramdas Pophale) SiO2 
 PCOD9035731
Probable space group: P -1
;
_chemical_formula_sum "Si O2"
_cell_formula_units_Z 10
_cell_length_a 5.248426
_cell_length_b 11.319199
_cell_length_c 15.507708
_cell_angle_alpha 29.914037
_cell_angle_beta 69.721640
_cell_angle_gamma 60.211715
_cell_volume 391.148427
_symmetry_space_group_name_H-M "P -1"
_symmetry_group_IT_number 2
_symmetry_cell_setting 'triclinic'
loop_
_space_group_symop_operation_xyz
x,y,z
-x,-y,-z
loop_
_atom_site_type_symbol
_atom_site_label
_atom_site_fract_x
_atom_site_fract_y
_atom_site_fract_z
Si Si1 0.789372 0.383619 0.197052
Si Si2 0.799432 0.807092 0.329431
Si Si3 0.396694 0.905349 0.481171
Si Si4 0.203109 0.158676 0.883429
Si Si5 0.146836 0.659625 0.033800
O O1 0.634838 0.357343 0.321811
O O2 0.502759 0.474269 0.110006
O O3 0.935774 0.586775 0.042388
O O4 0.082471 0.109238 0.346101
O O5 0.622324 0.858332 0.406812
O O6 0.677234 0.819739 0.238432
O O7 0.000000 0.500000 0.500000
O O8 0.904446 0.043856 0.164125
O O9 0.500000 0.000000 0.500000
O O10 0.986218 0.382618 0.831263
O O11 0.500000 0.000000 0.000000
O O12 0.000000 0.000000 0.000000
#
# Coordination Sequence:
#
# PCOD9035731 Si02
#       5
#     2   2   2   2   2
#     4  11  24  48  79 103 156 196 253 313 386 448
#     4  11  26  48  78 117 153 203 262 317 380 458
#     4  11  25  51  76 114 154 202 252 320 385 456
#     4  10  22  46  71 106 150 193 243 312 378 445
#     4  11  23  47  77 111 147 199 254 316 380 451
#
# _framework density 25.565740000000002
#
# number of rings (size 3 to 8) (size 9 to 14) (size 15 to 20)
#    0.000    1.200    2.000    3.600    0.000    3.200 
#   21.600   10.000    0.000    0.000    0.000    0.000 
#    0.000    0.000    0.000    0.000    0.000    0.000 
#
# Total GULP energy -55697.404874 kJ/mol
# GULP energy per Si atom -5569.740487 kJ/mol
# Density = 2.550755 g / cm^3
# Si number density = 25.565740 Si / 1000 Ang^3
#
#
#
# Elastic Constant Matrix: (Units=GPa)
#
#
# Indices 1 2 3 4 5 6 
#
# 1 184.5921 68.5215 74.4656 7.4523 17.7330 -12.4825
# 2 68.5215 163.2207 67.5319 44.7190 13.5827 -8.2821
# 3 74.4656 67.5319 171.5362 8.4815 0.3542 3.7681
# 4 7.4523 44.7190 8.4815 55.5238 3.7494 8.6317
# 5 17.7330 13.5827 0.3542 3.7494 45.5238 -0.2576
# 6 -12.4825 -8.2821 3.7681 8.6317 -0.2576 34.4134
#
#
#
# Elastic Compliance Matrix: (Units=1/GPa)
#
#
# Indices 1 2 3 4 5 6 
#
# 1 0.007555 -0.002010 -0.002574 0.000797 -0.002376 0.002321
# 2 -0.002010 0.011018 -0.003129 -0.008698 -0.001739 0.004434
# 3 -0.002574 -0.003129 0.008145 0.001983 0.001692 -0.003063
# 4 0.000797 -0.008698 0.001983 0.025925 0.000086 -0.008523
# 5 -0.002376 -0.001739 0.001692 0.000086 0.023383 -0.001312
# 6 0.002321 0.004434 -0.003063 -0.008523 -0.001312 0.033431
#
#
# Mechanical properties :
#
#
# Convention : Reuss Voigt Hill
#
# Bulk Modulus (GPa) = 88.55784 104.48744 96.52264
# Shear Modulus (GPa) = 38.86708 47.68088 43.27398
#
# Velocity S-wave (km/s) = 3.90331 4.32328 4.11865
# Velocity P-wave (km/s) = 7.41814 8.11664 7.77524
#
# Compressibility (1/GPa) = 0.01129205
#
# Stress axis : x y z
#
# Youngs Moduli (GPa) = 132.37001 90.76459 122.78166
#
# Poissons Ratio (x) = 0.18240 0.31602
# Poissons Ratio (y) = 0.26601 0.38417
# Poissons Ratio (z) = 0.34070 0.28399
#
# Static dielectric constant tensor:
#      x y z
#    x 2.061250 0.059610 0.026790 
#    y 0.059610 2.194180 -0.004920 
#    z 0.026790 -0.004920 1.915840 
# 
# From -- ./inp_files/481896.got.cif
#   From: 2010.05.17/outbox.cif.g08.bks.cpg/sg2_241_cif.got.tgz:481896.got - 2010.06.03 11:33:40.
