data_PCOD9035935
_publ_section_title
;
Structure prediction by ZEFSAII (Michael W. Deem and Ramdas Pophale) SiO2 
 PCOD9035935
Probable space group: P -1
;
_chemical_formula_sum "Si O2"
_cell_formula_units_Z 15
_cell_length_a 12.593185
_cell_length_b 4.926371
_cell_length_c 21.080332
_cell_angle_alpha 90.578511
_cell_angle_beta 24.626203
_cell_angle_gamma 90.028979
_cell_volume 544.808454
_symmetry_space_group_name_H-M "P -1"
_symmetry_group_IT_number 2
_symmetry_cell_setting 'triclinic'
loop_
_space_group_symop_operation_xyz
x,y,z
-x,-y,-z
loop_
_atom_site_type_symbol
_atom_site_label
_atom_site_fract_x
_atom_site_fract_y
_atom_site_fract_z
Si Si1 0.241668 0.579313 0.265262
Si Si2 0.000000 0.500000 0.500000
Si Si3 0.561686 0.267248 0.387055
Si Si4 0.819126 0.875569 0.150320
Si Si5 0.598146 0.023004 0.718224
Si Si6 0.759177 0.256387 0.416434
Si Si7 0.234869 0.728562 0.011817
Si Si8 0.205709 0.943485 0.165280
O O1 0.036506 0.378125 0.404607
O O2 0.535354 0.485405 0.098778
O O3 0.168481 0.757731 0.246170
O O4 0.229408 0.742008 0.342559
O O5 0.251126 0.249140 0.384184
O O6 0.743425 0.114933 0.239898
O O7 0.713525 0.336236 0.368344
O O8 0.411222 0.538144 0.450375
O O9 0.349941 0.044204 0.517875
O O10 0.564429 0.829411 0.248212
O O11 0.000000 0.000000 0.000000
O O12 0.995900 0.667354 0.095355
O O13 0.400704 0.944008 0.881833
O O14 0.058895 0.223776 0.260473
O O15 0.132131 0.831573 0.135764
O O16 0.500000 0.000000 0.000000
#
# Coordination Sequence:
#
# PCOD9035935 Si02
#       8
#     2   1   2   2   2   2   2   2
#     4  10  23  43  72 107 146 207 257 318 394 464
#     4   8  20  48  64 100 150 210 260 308 382 488
#     4  10  22  51  73 112 151 203 253 333 387 478
#     4  10  22  46  76 113 154 199 260 323 406 467
#     4   9  21  46  69 107 150 205 255 317 398 459
#     4  10  24  46  78 108 152 201 262 320 403 457
#     4  11  22  43  73 112 152 193 267 329 393 469
#     4  12  23  46  74 111 152 200 260 331 393 476
#
# _framework density 27.532612
#
# number of rings (size 3 to 8) (size 9 to 14) (size 15 to 20)
#    0.800    1.067    2.667    0.400    0.000    3.200 
#   21.600    0.000    0.000    1.600    0.000    0.000 
#    0.000    1.067    0.000    0.000    0.000    0.000 
#
# Total GULP energy -83808.712394 kJ/mol
# GULP energy per Si atom -5587.247493 kJ/mol
# Density = 2.746995 g / cm^3
# Si number density = 27.532612 Si / 1000 Ang^3
#
#
#
# Elastic Constant Matrix: (Units=GPa)
#
#
# Indices 1 2 3 4 5 6 
#
# 1 155.1254 29.5690 50.5082 -1.4657 1.7216 -41.6974
# 2 29.5690 93.7391 24.4512 2.3839 -13.2153 -7.8373
# 3 50.5082 24.4512 176.8061 22.0350 7.1962 -23.7574
# 4 -1.4657 2.3839 22.0350 43.4412 -6.3769 -2.9742
# 5 1.7216 -13.2153 7.1962 -6.3769 62.3578 4.6631
# 6 -41.6974 -7.8373 -23.7574 -2.9742 4.6631 37.7365
#
#
#
# Elastic Compliance Matrix: (Units=1/GPa)
#
#
# Indices 1 2 3 4 5 6 
#
# 1 0.010039 -0.002173 -0.001379 0.001675 -0.001159 0.010049
# 2 -0.002173 0.012009 -0.001339 0.000294 0.002871 -0.001081
# 3 -0.001379 -0.001339 0.007102 -0.003638 -0.001631 0.002584
# 4 0.001675 0.000294 -0.003638 0.025423 0.002941 0.001262
# 5 -0.001159 0.002871 -0.001631 0.002941 0.017438 -0.003634
# 6 0.010049 -0.001081 0.002584 0.001262 -0.003634 0.039554
#
#
# Mechanical properties :
#
#
# Convention : Reuss Voigt Hill
#
# Bulk Modulus (GPa) = 51.62754 70.52525 61.07640
# Shear Modulus (GPa) = 39.12259 50.11659 44.61959
#
# Velocity S-wave (km/s) = 3.77364 4.27108 4.03005
# Velocity P-wave (km/s) = 6.14649 7.07062 6.62469
#
# Compressibility (1/GPa) = 0.01936951
#
# Stress axis : x y z
#
# Youngs Moduli (GPa) = 99.60811 83.26831 140.80668
#
# Poissons Ratio (x) = 0.18094 0.19414
# Poissons Ratio (y) = 0.21644 0.18852
# Poissons Ratio (z) = 0.13734 0.11148
#
# Static dielectric constant tensor:
#      x y z
#    x 2.388810 0.057650 -0.182880 
#    y 0.057650 2.242320 -0.038800 
#    z -0.182880 -0.038800 2.233420 
# 
# From -- ./inp_files/592552.got.cif
#   From: 2010.05.17/outbox.cif.g08.bks.cpg/sg2_297_cif.got.tgz:592552.got - 2010.06.03 11:33:40.
