data_PCOD9035181
_publ_section_title
;
Structure prediction by ZEFSAII (Michael W. Deem and Ramdas Pophale) SiO2 
 PCOD9035181
Probable space group: P -1
;
_chemical_formula_sum "Si O2"
_cell_formula_units_Z 16
_cell_length_a 6.621208
_cell_length_b 9.214270
_cell_length_c 17.814332
_cell_angle_alpha 126.848969
_cell_angle_beta 48.164882
_cell_angle_gamma 112.165230
_cell_volume 647.525079
_symmetry_space_group_name_H-M "P -1"
_symmetry_group_IT_number 2
_symmetry_cell_setting 'triclinic'
loop_
_space_group_symop_operation_xyz
x,y,z
-x,-y,-z
loop_
_atom_site_type_symbol
_atom_site_label
_atom_site_fract_x
_atom_site_fract_y
_atom_site_fract_z
Si Si1 0.228810 0.888524 0.028600
Si Si2 0.934403 0.066087 0.451349
Si Si3 0.275928 0.855550 0.716471
Si Si4 0.148703 0.663157 0.831581
Si Si5 0.440766 0.605588 0.295387
Si Si6 0.947577 0.665790 0.619292
Si Si7 0.648558 0.164978 0.752828
Si Si8 0.529204 0.683805 0.006249
O O1 0.296254 0.722058 0.015722
O O2 0.182431 0.812273 0.934311
O O3 0.984075 0.013819 0.158705
O O4 0.500000 0.000000 0.000000
O O5 0.102647 0.176166 0.380346
O O6 0.683852 0.214670 0.573136
O O7 0.024955 0.868703 0.331865
O O8 0.000000 0.000000 0.500000
O O9 0.311854 0.719142 0.734947
O O10 0.197997 0.737395 0.627550
O O11 0.511712 0.995679 0.691780
O O12 0.266586 0.471635 0.774315
O O13 0.830596 0.676802 0.896547
O O14 0.262667 0.425926 0.299633
O O15 0.420991 0.666068 0.232323
O O16 0.000000 0.500000 0.500000
O O17 0.512653 0.173229 0.870753
O O18 0.500000 0.500000 0.000000
#
# Coordination Sequence:
#
# PCOD9035181 Si02
#       8
#     2   2   2   2   2   2   2   2
#     4  12  23  42  68  99 144 188 236 289 352 420
#     4   9  20  45  72  98 132 181 232 290 350 416
#     4  12  24  42  71 105 141 186 237 298 349 421
#     4  12  25  44  67 108 145 185 247 284 354 436
#     4  10  23  43  71  97 145 183 229 298 348 421
#     4  10  22  45  71  99 137 184 232 286 360 418
#     4  11  23  43  69 104 140 185 244 290 352 423
#     4  12  27  42  69 103 147 193 231 295 361 416
#
# _framework density 24.709468999999999
#
# number of rings (size 3 to 8) (size 9 to 14) (size 15 to 20)
#    0.000    1.000    2.500    4.125    3.500    1.000 
#    0.000   15.625    0.000    0.000    0.000    0.000 
#    0.000    0.000    0.000    0.000    0.000    0.000 
#
# Total GULP energy -89183.363578 kJ/mol
# GULP energy per Si atom -5573.960224 kJ/mol
# Density = 2.465323 g / cm^3
# Si number density = 24.709469 Si / 1000 Ang^3
#
#
#
# Elastic Constant Matrix: (Units=GPa)
#
#
# Indices 1 2 3 4 5 6 
#
# 1 82.1421 36.3979 38.1802 9.4578 15.5668 -8.4161
# 2 36.3979 108.1203 7.5598 -10.3585 16.0671 -31.2553
# 3 38.1802 7.5598 93.6337 5.9146 -1.0680 -8.6263
# 4 9.4578 -10.3585 5.9146 49.4961 -7.0787 -4.0322
# 5 15.5668 16.0671 -1.0680 -7.0787 42.4431 14.9479
# 6 -8.4161 -31.2553 -8.6263 -4.0322 14.9479 49.4690
#
#
#
# Elastic Compliance Matrix: (Units=1/GPa)
#
#
# Indices 1 2 3 4 5 6 
#
# 1 0.019904 -0.005801 -0.007414 -0.005012 -0.006076 -0.000145
# 2 -0.005801 0.016079 0.001833 0.004170 -0.007476 0.012091
# 3 -0.007414 0.001833 0.013704 0.000570 0.001840 0.001777
# 4 -0.005012 0.004170 0.000570 0.022632 0.003062 0.002801
# 5 -0.006076 -0.007476 0.001840 0.003062 0.034695 -0.015670
# 6 -0.000145 0.012091 0.001777 0.002801 -0.015670 0.033102
#
#
# Mechanical properties :
#
#
# Convention : Reuss Voigt Hill
#
# Bulk Modulus (GPa) = 37.14418 49.79687 43.47052
# Shear Modulus (GPa) = 29.09402 41.73218 35.41310
#
# Velocity S-wave (km/s) = 3.43511 4.11410 3.78984
# Velocity P-wave (km/s) = 5.54962 6.53945 6.06477
#
# Compressibility (1/GPa) = 0.02692212
#
# Stress axis : x y z
#
# Youngs Moduli (GPa) = 50.24014 62.19124 72.97306
#
# Poissons Ratio (x) = 0.36080 0.54101
# Poissons Ratio (y) = 0.29146 -0.13373
# Poissons Ratio (z) = 0.37247 -0.11397
#
# Static dielectric constant tensor:
#      x y z
#    x 2.031190 -0.005180 -0.096040 
#    y -0.005180 1.912650 -0.110090 
#    z -0.096040 -0.110090 2.034690 
# 
# From -- ./inp_files/357019.got.cif
#   From: 2010.05.17/outbox.cif.g08.bks.cpg/sg2_179_cif.got.tgz:357019.got - 2010.06.03 11:33:40.
