data_PCOD9035685
_publ_section_title
;
Structure prediction by ZEFSAII (Michael W. Deem and Ramdas Pophale) SiO2 
 PCOD9035685
Probable space group: P -1
;
_chemical_formula_sum "Si O2"
_cell_formula_units_Z 15
_cell_length_a 19.305473
_cell_length_b 7.197507
_cell_length_c 9.568711
_cell_angle_alpha 128.571358
_cell_angle_beta 44.562435
_cell_angle_gamma 116.047928
_cell_volume 729.379612
_symmetry_space_group_name_H-M "P -1"
_symmetry_group_IT_number 2
_symmetry_cell_setting 'triclinic'
loop_
_space_group_symop_operation_xyz
x,y,z
-x,-y,-z
loop_
_atom_site_type_symbol
_atom_site_label
_atom_site_fract_x
_atom_site_fract_y
_atom_site_fract_z
Si Si1 0.349888 0.905033 0.111352
Si Si2 0.947792 0.665581 0.337218
Si Si3 0.500000 0.000000 0.500000
Si Si4 0.783489 0.715455 0.390307
Si Si5 0.517688 0.225327 0.882253
Si Si6 0.928691 0.785958 0.963186
Si Si7 0.881418 0.995048 0.838357
Si Si8 0.677901 0.285315 0.230682
O O1 0.399056 0.797230 0.128824
O O2 0.253770 0.049468 0.367029
O O3 0.333708 0.716044 0.922045
O O4 0.422594 0.100909 0.030963
O O5 0.862285 0.585609 0.317538
O O6 0.897789 0.829842 0.603052
O O7 0.027091 0.822437 0.212219
O O8 0.008042 0.454473 0.224123
O O9 0.461262 0.908379 0.355904
O O10 0.413968 0.842976 0.627547
O O11 0.840516 0.777295 0.196388
O O12 0.694990 0.543249 0.393663
O O13 0.500000 0.500000 0.000000
O O14 0.888358 0.834720 0.890271
O O15 0.000000 0.000000 0.000000
O O16 0.778178 0.134549 0.043314
#
# Coordination Sequence:
#
# PCOD9035685 Si02
#       8
#     2   2   1   2   2   2   2   2
#     4  10  24  44  65  97 131 173 220 273 336 404
#     4  11  23  45  68  95 141 183 225 286 342 398
#     4  10  24  42  72 102 128 170 226 278 334 402
#     4  12  23  43  69  97 137 183 222 279 341 402
#     4  10  22  46  70  94 131 169 220 278 337 394
#     4  12  24  40  63  99 134 178 232 275 333 405
#     4  11  23  43  69  97 138 178 233 284 337 407
#     4  11  23  45  68  99 138 177 226 283 341 399
#
# _framework density 20.565424
#
# number of rings (size 3 to 8) (size 9 to 14) (size 15 to 20)
#    0.000    1.067    4.000    2.400    1.867    1.067 
#    7.200    4.000    0.000    0.000    0.000    0.000 
#    0.000    0.000    0.000    0.000    0.000    0.000 
#
# Total GULP energy -83605.007620 kJ/mol
# GULP energy per Si atom -5573.667175 kJ/mol
# Density = 2.051862 g / cm^3
# Si number density = 20.565424 Si / 1000 Ang^3
#
#
#
# Elastic Constant Matrix: (Units=GPa)
#
#
# Indices 1 2 3 4 5 6 
#
# 1 118.4624 24.7813 10.9826 -7.4463 32.7528 -12.2942
# 2 24.7813 46.7034 -0.9683 1.7505 3.8615 -7.9636
# 3 10.9826 -0.9683 34.6473 4.0435 16.0268 -0.6453
# 4 -7.4463 1.7505 4.0435 14.7540 4.1498 -0.8289
# 5 32.7528 3.8615 16.0268 4.1498 26.5464 -0.7277
# 6 -12.2942 -7.9636 -0.6453 -0.8289 -0.7277 45.6506
#
#
#
# Elastic Compliance Matrix: (Units=1/GPa)
#
#
# Indices 1 2 3 4 5 6 
#
# 1 0.018463 -0.007490 0.004508 0.016749 -0.026932 0.003604
# 2 -0.007490 0.025645 0.001312 -0.008778 0.006157 0.002414
# 3 0.004508 0.001312 0.041854 -0.000577 -0.030890 0.001532
# 4 0.016749 -0.008778 -0.000577 0.086798 -0.032498 0.004029
# 5 -0.026932 0.006157 -0.030890 -0.032498 0.093575 -0.005714
# 6 0.003604 0.002414 0.001532 0.004029 -0.005714 0.023301
#
#
# Mechanical properties :
#
#
# Convention : Reuss Voigt Hill
#
# Bulk Modulus (GPa) = 12.10293 29.93380 21.01836
# Shear Modulus (GPa) = 15.59985 28.39138 21.99561
#
# Velocity S-wave (km/s) = 2.75716 3.71959 3.27394
# Velocity P-wave (km/s) = 4.00422 5.74753 4.95318
#
# Compressibility (1/GPa) = 0.08262461
#
# Stress axis : x y z
#
# Youngs Moduli (GPa) = 54.16133 38.99447 23.89230
#
# Poissons Ratio (x) = 0.29206 -0.10772
# Poissons Ratio (y) = 0.40566 -0.03136
# Poissons Ratio (z) = -0.24418 -0.05118
#
# Static dielectric constant tensor:
#      x y z
#    x 1.756930 0.006420 -0.002620 
#    y 0.006420 1.713950 0.027530 
#    z -0.002620 0.027530 1.723590 
# 
# From -- ./inp_files/36402.got.cif
#   From: 2010.05.17/outbox.cif.g08.bks.cpg/sg2_19_cif.got.tgz:36402.got - 2010.06.03 11:33:40.
