data_PCOD9035877
_publ_section_title
;
Structure prediction by ZEFSAII (Michael W. Deem and Ramdas Pophale) SiO2 
 PCOD9035877
Probable space group: P -1
;
_chemical_formula_sum "Si O2"
_cell_formula_units_Z 11
_cell_length_a 17.262384
_cell_length_b 9.477406
_cell_length_c 5.049903
_cell_angle_alpha 59.651352
_cell_angle_beta 68.833559
_cell_angle_gamma 38.159634
_cell_volume 439.491222
_symmetry_space_group_name_H-M "P -1"
_symmetry_group_IT_number 2
_symmetry_cell_setting 'triclinic'
loop_
_space_group_symop_operation_xyz
x,y,z
-x,-y,-z
loop_
_atom_site_type_symbol
_atom_site_label
_atom_site_fract_x
_atom_site_fract_y
_atom_site_fract_z
Si Si1 0.578213 0.332232 0.815386
Si Si2 0.817722 0.381864 0.910983
Si Si3 0.476751 0.145592 0.141974
Si Si4 0.000000 0.000000 0.500000
Si Si5 0.830866 0.046190 0.590072
Si Si6 0.911351 0.596299 0.762670
O O1 0.500000 0.500000 0.500000
O O2 0.708444 0.233211 0.735830
O O3 0.500000 0.500000 0.000000
O O4 0.580162 0.135284 0.011620
O O5 0.666479 0.576092 0.920425
O O6 0.836162 0.539692 0.849378
O O7 0.891511 0.247216 0.671774
O O8 0.864566 0.170620 0.273468
O O9 0.500000 0.000000 0.500000
O O10 0.500000 0.000000 0.000000
O O11 0.954898 0.885827 0.760489
O O12 0.820799 0.892946 0.594783
O O13 0.000000 0.500000 0.500000
O O14 0.000000 0.500000 0.000000
#
# Coordination Sequence:
#
# PCOD9035877 Si02
#       6
#     2   2   2   1   2   2
#     4  12  25  48  76 105 148 200 260 316 380 456
#     4  10  22  47  75 106 155 191 257 315 382 461
#     4  12  27  48  73 110 151 202 259 321 386 452
#     4   8  18  44  76 104 144 194 240 310 388 434
#     4  10  22  46  74 106 148 193 249 309 381 454
#     4  12  25  45  71 109 150 192 245 307 384 463
#
# _framework density 25.028943999999999
#
# number of rings (size 3 to 8) (size 9 to 14) (size 15 to 20)
#    1.091    0.000    3.636    2.182    0.000    5.091 
#    3.273    0.000    0.000    0.000    0.000    0.000 
#    0.000    0.000    0.000    0.000    0.000    0.000 
#
# Total GULP energy -61266.678218 kJ/mol
# GULP energy per Si atom -5569.698020 kJ/mol
# Density = 2.497198 g / cm^3
# Si number density = 25.028944 Si / 1000 Ang^3
#
#
#
# Elastic Constant Matrix: (Units=GPa)
#
#
# Indices 1 2 3 4 5 6 
#
# 1 155.0048 53.9046 59.8801 12.4175 -53.4014 12.7616
# 2 53.9046 131.3071 37.2536 28.5432 -11.8000 3.5253
# 3 59.8801 37.2536 146.2618 22.8005 -4.7194 5.6238
# 4 12.4175 28.5432 22.8005 49.5547 5.4303 -12.1816
# 5 -53.4014 -11.8000 -4.7194 5.4303 66.1511 2.2732
# 6 12.7616 3.5253 5.6238 -12.1816 2.2732 73.1796
#
#
#
# Elastic Compliance Matrix: (Units=1/GPa)
#
#
# Indices 1 2 3 4 5 6 
#
# 1 0.012449 -0.002838 -0.003772 -0.001342 0.009462 -0.002262
# 2 -0.002838 0.010042 -0.000594 -0.004977 -0.000107 -0.000768
# 3 -0.003772 -0.000594 0.008884 -0.002639 -0.002288 -0.000364
# 4 -0.001342 -0.004977 -0.002639 0.026370 -0.004503 0.005206
# 5 0.009462 -0.000107 -0.002288 -0.004503 0.023044 -0.002935
# 6 -0.002262 -0.000768 -0.000364 0.005206 -0.002935 0.015082
#
#
# Mechanical properties :
#
#
# Convention : Reuss Voigt Hill
#
# Bulk Modulus (GPa) = 58.93629 81.62782 70.28206
# Shear Modulus (GPa) = 43.12712 56.54609 49.83660
#
# Velocity S-wave (km/s) = 4.15551 4.75829 4.46708
# Velocity P-wave (km/s) = 6.82809 7.92922 7.39917
#
# Compressibility (1/GPa) = 0.01696747
#
# Stress axis : x y z
#
# Youngs Moduli (GPa) = 80.32610 99.58085 112.55636
#
# Poissons Ratio (x) = 0.28256 0.42462
# Poissons Ratio (y) = 0.22793 0.06687
# Poissons Ratio (z) = 0.30303 0.05916
#
# Static dielectric constant tensor:
#      x y z
#    x 2.090940 -0.051180 -0.062930 
#    y -0.051180 1.926220 -0.314020 
#    z -0.062930 -0.314020 1.828690 
# 
# From -- ./inp_files/103615.got.cif
#   From: 2010.05.17/outbox.cif.g08.bks.cpg/sg2_52_cif.got.tgz:103615.got - 2010.06.03 11:33:40.
