data_PCOD9035793
_publ_section_title
;
Structure prediction by ZEFSAII (Michael W. Deem and Ramdas Pophale) SiO2 
 PCOD9035793
Probable space group: P -1
;
_chemical_formula_sum "Si O2"
_cell_formula_units_Z 16
_cell_length_a 13.502360
_cell_length_b 12.424377
_cell_length_c 8.577319
_cell_angle_alpha 69.156669
_cell_angle_beta 147.977351
_cell_angle_gamma 112.422558
_cell_volume 703.762705
_symmetry_space_group_name_H-M "P -1"
_symmetry_group_IT_number 2
_symmetry_cell_setting 'triclinic'
loop_
_space_group_symop_operation_xyz
x,y,z
-x,-y,-z
loop_
_atom_site_type_symbol
_atom_site_label
_atom_site_fract_x
_atom_site_fract_y
_atom_site_fract_z
Si Si1 0.516728 0.467108 0.794600
Si Si2 0.128799 0.489893 0.531439
Si Si3 0.864475 0.700961 0.554068
Si Si4 0.904998 0.085183 0.719763
Si Si5 0.458412 0.318292 0.491669
Si Si6 0.162547 0.078530 0.765694
Si Si7 0.509039 0.954157 0.356109
Si Si8 0.005117 0.307923 0.937296
O O1 0.309409 0.402924 0.595563
O O2 0.559010 0.388060 0.741040
O O3 0.497066 0.595588 0.639764
O O4 0.663503 0.477056 0.128348
O O5 0.050535 0.356424 0.447595
O O6 0.000000 0.500000 0.500000
O O7 0.072068 0.576260 0.277684
O O8 0.778612 0.809995 0.322486
O O9 0.004437 0.720347 0.876648
O O10 0.055169 0.107448 0.766044
O O11 0.901312 0.204480 0.745809
O O12 0.689107 0.016962 0.462050
O O13 0.000000 0.000000 0.000000
O O14 0.495167 0.185931 0.586555
O O15 0.231096 0.314418 0.208731
O O16 0.000000 0.000000 0.500000
O O17 0.325210 0.000983 0.028169
O O18 0.500000 0.000000 0.500000
#
# Coordination Sequence:
#
# PCOD9035793 Si02
#       8
#     2   2   2   2   2   2   2   2
#     4  10  24  45  71 104 144 197 239 317 366 443
#     4  12  24  42  72 107 139 191 248 307 385 438
#     4  11  27  48  68 103 152 191 251 307 375 458
#     4  12  24  48  76 109 152 197 251 318 371 453
#     4  10  22  46  72 106 154 185 252 306 378 454
#     4  12  29  51  73 112 154 199 255 316 380 455
#     4  12  27  45  81 114 146 206 251 304 394 448
#     4  11  23  45  72 103 149 197 246 311 381 444
#
# _framework density 22.734936999999999
#
# number of rings (size 3 to 8) (size 9 to 14) (size 15 to 20)
#    0.000    0.750    3.750    2.250    5.250    3.500 
#    0.000    0.000    0.000    0.000    0.000    0.000 
#    0.000    0.000    0.000    0.000    0.000    0.000 
#
# Total GULP energy -89275.920823 kJ/mol
# GULP energy per Si atom -5579.745051 kJ/mol
# Density = 2.268319 g / cm^3
# Si number density = 22.734937 Si / 1000 Ang^3
#
#
#
# Elastic Constant Matrix: (Units=GPa)
#
#
# Indices 1 2 3 4 5 6 
#
# 1 48.3641 9.7711 32.0774 -2.6083 4.8853 -1.1624
# 2 9.7711 156.5242 63.2811 -26.7786 0.7641 -4.6617
# 3 32.0774 63.2811 153.6184 -26.9447 3.6822 -7.4396
# 4 -2.6083 -26.7786 -26.9447 36.8178 1.6076 0.6904
# 5 4.8853 0.7641 3.6822 1.6076 35.8168 2.6752
# 6 -1.1624 -4.6617 -7.4396 0.6904 2.6752 33.8298
#
#
#
# Elastic Compliance Matrix: (Units=1/GPa)
#
#
# Indices 1 2 3 4 5 6 
#
# 1 0.024438 0.000398 -0.005542 -0.001917 -0.002680 -0.000073
# 2 0.000398 0.008158 -0.002721 0.003969 -0.000162 0.000471
# 3 -0.005542 -0.002721 0.009701 0.004722 -0.000508 0.001512
# 4 -0.001917 0.003969 0.004722 0.033431 -0.001883 0.000986
# 5 -0.002680 -0.000162 -0.000508 -0.001883 0.028609 -0.002450
# 6 -0.000073 0.000471 0.001512 0.000986 -0.002450 0.030128
#
#
# Mechanical properties :
#
#
# Convention : Reuss Voigt Hill
#
# Bulk Modulus (GPa) = 37.64118 63.19623 50.41870
# Shear Modulus (GPa) = 31.43655 38.18468 34.81062
#
# Velocity S-wave (km/s) = 3.72256 4.10269 3.91724
# Velocity P-wave (km/s) = 5.92191 7.09225 6.53334
#
# Compressibility (1/GPa) = 0.02656665
#
# Stress axis : x y z
#
# Youngs Moduli (GPa) = 40.92045 122.58345 103.07745
#
# Poissons Ratio (x) = -0.04881 0.57130
# Poissons Ratio (y) = -0.01629 0.28045
# Poissons Ratio (z) = 0.22680 0.33353
#
# Static dielectric constant tensor:
#      x y z
#    x 2.108400 -0.047000 -0.091440 
#    y -0.047000 0.675030 1.137500 
#    z -0.091440 1.137500 0.850620 
# 
# From -- ./inp_files/307227.got.cif
#   From: 2010.05.17/outbox.cif.g08.bks.cpg/sg2_154_cif.got.tgz:307227.got - 2010.06.03 11:33:40.
