data_PCOD9035020
_publ_section_title
;
Structure prediction by ZEFSAII (Michael W. Deem and Ramdas Pophale) SiO2 
 PCOD9035020
Probable space group: P -1
;
_chemical_formula_sum "Si O2"
_cell_formula_units_Z 16
_cell_length_a 25.742662
_cell_length_b 13.005998
_cell_length_c 6.163442
_cell_angle_alpha 44.062505
_cell_angle_beta 54.473716
_cell_angle_gamma 27.344566
_cell_volume 648.541064
_symmetry_space_group_name_H-M "P -1"
_symmetry_group_IT_number 2
_symmetry_cell_setting 'triclinic'
loop_
_space_group_symop_operation_xyz
x,y,z
-x,-y,-z
loop_
_atom_site_type_symbol
_atom_site_label
_atom_site_fract_x
_atom_site_fract_y
_atom_site_fract_z
Si Si1 0.282620 0.540630 0.166951
Si Si2 0.190868 0.210561 0.297735
Si Si3 0.098151 0.099523 0.545874
Si Si4 0.930300 0.278664 0.969539
Si Si5 0.293602 0.198344 0.704745
Si Si6 0.495181 0.876482 0.027659
Si Si7 0.148446 0.855362 0.401487
Si Si8 0.580761 0.225006 0.335408
O O1 0.235512 0.463501 0.370831
O O2 0.265581 0.619000 0.340576
O O3 0.208732 0.802519 0.822277
O O4 0.406551 0.300896 0.121774
O O5 0.100869 0.252301 0.421010
O O6 0.309428 0.931110 0.551965
O O7 0.142399 0.440797 0.202153
O O8 0.217646 0.223931 0.973060
O O9 0.122561 0.051371 0.304376
O O10 0.987030 0.215818 0.698236
O O11 0.862424 0.262622 0.230040
O O12 0.046205 0.042030 0.193067
O O13 0.364847 0.986450 0.660337
O O14 0.377634 0.095424 0.846662
O O15 0.496690 0.722584 0.393406
O O16 0.500000 0.000000 0.000000
O O17 0.500000 0.500000 0.000000
#
# Coordination Sequence:
#
# PCOD9035020 Si02
#       8
#     2   2   2   2   2   2   2   2
#     4  11  24  41  68 102 137 178 233 284 346 412
#     4  11  26  46  70 103 143 185 235 284 351 422
#     4  11  26  40  72 106 141 182 236 291 339 419
#     4  10  22  45  70 103 141 179 237 284 354 416
#     4  11  25  43  67 100 136 190 229 285 353 413
#     4  11  25  42  69 100 130 177 240 290 334 417
#     4  10  23  43  71 104 141 182 228 294 345 415
#     4  11  28  46  70  99 143 188 228 290 354 411
#
# _framework density 24.670760000000001
#
# number of rings (size 3 to 8) (size 9 to 14) (size 15 to 20)
#    0.000    1.250    2.500    1.125    7.000    4.500 
#    0.000    0.000    0.000    0.000    0.000    0.000 
#    0.000    0.000    0.000    0.000    0.000    0.000 
#
# Total GULP energy -89555.646147 kJ/mol
# GULP energy per Si atom -5597.227884 kJ/mol
# Density = 2.461461 g / cm^3
# Si number density = 24.670760 Si / 1000 Ang^3
#
#
#
# Elastic Constant Matrix: (Units=GPa)
#
#
# Indices 1 2 3 4 5 6 
#
# 1 73.6110 20.2358 11.9378 10.5116 -8.9351 7.1886
# 2 20.2358 121.2413 29.6461 22.7144 -5.7863 12.8303
# 3 11.9378 29.6461 96.9442 1.3051 2.7967 -9.4302
# 4 10.5116 22.7144 1.3051 42.8951 4.4578 0.1245
# 5 -8.9351 -5.7863 2.7967 4.4578 20.4224 4.1424
# 6 7.1886 12.8303 -9.4302 0.1245 4.1424 37.0462
#
#
#
# Elastic Compliance Matrix: (Units=1/GPa)
#
#
# Indices 1 2 3 4 5 6 
#
# 1 0.016377 -0.000236 -0.002621 -0.004779 0.009475 -0.004807
# 2 -0.000236 0.011396 -0.004095 -0.006485 0.006242 -0.005620
# 3 -0.002621 -0.004095 0.012580 0.003020 -0.005860 0.005774
# 4 -0.004779 -0.006485 0.003020 0.029029 -0.011724 0.005155
# 5 0.009475 0.006242 -0.005860 -0.011724 0.060725 -0.012243
# 6 -0.004807 -0.005620 0.005774 0.005155 -0.012243 0.032694
#
#
# Mechanical properties :
#
#
# Convention : Reuss Voigt Hill
#
# Bulk Modulus (GPa) = 37.80943 46.15952 41.98447
# Shear Modulus (GPa) = 26.95087 35.40453 31.17770
#
# Velocity S-wave (km/s) = 3.30877 3.79236 3.55878
# Velocity P-wave (km/s) = 5.47322 6.15847 5.82593
#
# Compressibility (1/GPa) = 0.02644843
#
# Stress axis : x y z
#
# Youngs Moduli (GPa) = 61.06156 87.74756 79.48831
#
# Poissons Ratio (x) = 0.02073 0.20834
# Poissons Ratio (y) = 0.01443 0.32554
# Poissons Ratio (z) = 0.16004 0.35936
#
# Static dielectric constant tensor:
#      x y z
#    x 1.976500 -0.005580 0.027860 
#    y -0.005580 1.941220 0.015660 
#    z 0.027860 0.015660 2.014960 
# 
# From -- ./inp_files/126808.got.cif
#   From: 2010.05.17/outbox.cif.g08.bks.cpg/sg2_64_cif.got.tgz:126808.got - 2010.06.03 11:33:40.
