data_PCOD9035132
_publ_section_title
;
Structure prediction by ZEFSAII (Michael W. Deem and Ramdas Pophale) SiO2 
 PCOD9035132
Probable space group: P -1
;
_chemical_formula_sum "Si O2"
_cell_formula_units_Z 16
_cell_length_a 8.836135
_cell_length_b 22.939933
_cell_length_c 6.927449
_cell_angle_alpha 48.481932
_cell_angle_beta 52.075599
_cell_angle_gamma 44.620911
_cell_volume 710.756475
_symmetry_space_group_name_H-M "P -1"
_symmetry_group_IT_number 2
_symmetry_cell_setting 'triclinic'
loop_
_space_group_symop_operation_xyz
x,y,z
-x,-y,-z
loop_
_atom_site_type_symbol
_atom_site_label
_atom_site_fract_x
_atom_site_fract_y
_atom_site_fract_z
Si Si1 0.234759 0.776691 0.354779
Si Si2 0.446886 0.149864 0.171834
Si Si3 0.278607 0.086002 0.082376
Si Si4 0.615861 0.487455 0.641590
Si Si5 0.121704 0.031057 0.671842
Si Si6 0.455264 0.624476 0.797301
Si Si7 0.921331 0.751338 0.426284
Si Si8 0.064343 0.434558 0.278527
O O1 0.334568 0.724739 0.590075
O O2 0.998229 0.866826 0.383787
O O3 0.164601 0.724378 0.376766
O O4 0.411892 0.801201 0.082355
O O5 0.355800 0.131326 0.086736
O O6 0.260912 0.207259 0.349240
O O7 0.624529 0.048947 0.328436
O O8 0.129202 0.050877 0.388751
O O9 0.149502 0.166696 0.851155
O O10 0.500000 0.000000 0.000000
O O11 0.500000 0.500000 0.500000
O O12 0.457332 0.564414 0.747632
O O13 0.841214 0.489970 0.457326
O O14 0.671528 0.391924 0.896512
O O15 0.000000 0.000000 0.000000
O O16 0.704289 0.587597 0.760115
O O17 0.919559 0.661553 0.561461
O O18 0.000000 0.500000 0.000000
#
# Coordination Sequence:
#
# PCOD9035132 Si02
#       8
#     2   2   2   2   2   2   2   2
#     4  11  25  45  72 102 147 193 241 300 363 440
#     4  11  24  48  72 103 154 192 242 307 367 433
#     4  12  23  45  78 107 147 195 245 306 370 444
#     4  11  24  47  73 104 139 182 242 300 371 442
#     4  10  22  45  71 105 148 193 237 296 372 441
#     4  11  26  46  72 103 143 189 236 306 371 432
#     4  12  27  45  72 109 145 197 253 305 367 447
#     4  12  27  47  74 106 145 193 250 305 374 439
#
# _framework density 22.511226000000001
#
# number of rings (size 3 to 8) (size 9 to 14) (size 15 to 20)
#    0.000    0.750    3.750    3.000    5.250    2.000 
#    4.500    3.750    0.000    0.000    0.000    0.000 
#    0.000    0.000    0.000    0.000    0.000    0.000 
#
# Total GULP energy -89187.544719 kJ/mol
# GULP energy per Si atom -5574.221545 kJ/mol
# Density = 2.245999 g / cm^3
# Si number density = 22.511226 Si / 1000 Ang^3
#
#
#
# Elastic Constant Matrix: (Units=GPa)
#
#
# Indices 1 2 3 4 5 6 
#
# 1 106.7251 7.2396 49.1984 -11.9020 7.1997 7.9556
# 2 7.2396 64.1132 37.8934 -1.9366 10.6063 11.1756
# 3 49.1984 37.8934 176.4953 -14.5850 -1.0241 4.4502
# 4 -11.9020 -1.9366 -14.5850 47.8319 -10.3246 12.2053
# 5 7.1997 10.6063 -1.0241 -10.3246 43.1698 -3.5297
# 6 7.9556 11.1756 4.4502 12.2053 -3.5297 16.3772
#
#
#
# Elastic Compliance Matrix: (Units=1/GPa)
#
#
# Indices 1 2 3 4 5 6 
#
# 1 0.012245 0.003177 -0.003477 0.004321 -0.002770 -0.010989
# 2 0.003177 0.023035 -0.005044 0.003836 -0.007049 -0.020269
# 3 -0.003477 -0.005044 0.007759 0.001145 0.002498 0.002708
# 4 0.004321 0.003836 0.001145 0.030019 0.003362 -0.026675
# 5 -0.002770 -0.007049 0.002498 0.003362 0.026939 0.008777
# 6 -0.010989 -0.020269 0.002708 -0.026675 0.008777 0.101266
#
#
# Mechanical properties :
#
#
# Convention : Reuss Voigt Hill
#
# Bulk Modulus (GPa) = 30.91173 59.55516 45.23344
# Shear Modulus (GPa) = 22.44820 38.34259 30.39540
#
# Velocity S-wave (km/s) = 3.16127 4.13154 3.67854
# Velocity P-wave (km/s) = 5.20446 7.01945 6.17896
#
# Compressibility (1/GPa) = 0.03235018
#
# Stress axis : x y z
#
# Youngs Moduli (GPa) = 81.66376 43.41229 128.88369
#
# Poissons Ratio (x) = -0.13791 0.44818
# Poissons Ratio (y) = -0.25943 0.65009
# Poissons Ratio (z) = 0.28397 0.21897
#
# Static dielectric constant tensor:
#      x y z
#    x 1.829940 0.038430 -0.018400 
#    y 0.038430 1.911440 0.034110 
#    z -0.018400 0.034110 1.935700 
# 
# From -- ./inp_files/55258.got.cif
#   From: 2010.05.17/outbox.cif.g08.bks.cpg/sg2_28_cif.got.tgz:55258.got - 2010.06.03 11:33:40.
