data_PCOD9035199
_publ_section_title
;
Structure prediction by ZEFSAII (Michael W. Deem and Ramdas Pophale) SiO2 
 PCOD9035199
Probable space group: P -1
;
_chemical_formula_sum "Si O2"
_cell_formula_units_Z 16
_cell_length_a 8.242432
_cell_length_b 16.821652
_cell_length_c 6.891023
_cell_angle_alpha 104.745690
_cell_angle_beta 123.621908
_cell_angle_gamma 64.161477
_cell_volume 715.960249
_symmetry_space_group_name_H-M "P -1"
_symmetry_group_IT_number 2
_symmetry_cell_setting 'triclinic'
loop_
_space_group_symop_operation_xyz
x,y,z
-x,-y,-z
loop_
_atom_site_type_symbol
_atom_site_label
_atom_site_fract_x
_atom_site_fract_y
_atom_site_fract_z
Si Si1 0.588728 0.251952 0.103783
Si Si2 0.265174 0.629979 0.477966
Si Si3 0.773612 0.495349 0.338367
Si Si4 0.303558 0.903548 0.635152
Si Si5 0.333779 0.091307 0.363410
Si Si6 0.102747 0.079478 0.839411
Si Si7 0.171987 0.220102 0.697234
Si Si8 0.659311 0.360660 0.915312
O O1 0.574889 0.334891 0.281681
O O2 0.711512 0.166493 0.260621
O O3 0.369367 0.245337 0.899827
O O4 0.700455 0.268573 0.994027
O O5 0.289206 0.534272 0.513711
O O6 0.278573 0.642844 0.267708
O O7 0.032832 0.694776 0.426191
O O8 0.591207 0.585312 0.209434
O O9 0.000000 0.500000 0.500000
O O10 0.763941 0.419512 0.138093
O O11 0.526920 0.871285 0.659222
O O12 0.125280 0.919561 0.365308
O O13 0.262198 0.994170 0.779088
O O14 0.231935 0.156600 0.511181
O O15 0.500000 0.000000 0.500000
O O16 0.165465 0.074613 0.101451
O O17 0.123478 0.165002 0.806050
#
# Coordination Sequence:
#
# PCOD9035199 Si02
#       8
#     2   2   2   2   2   2   2   2
#     4  11  24  42  65  96 137 171 222 274 326 397
#     4  11  25  44  65 102 138 173 217 271 329 396
#     4  10  22  45  72 101 134 168 220 263 325 403
#     4  11  23  45  64  93 132 176 223 285 334 391
#     4  12  25  42  68  94 128 180 229 284 336 387
#     4  11  24  44  64  91 131 172 233 279 335 394
#     4  12  25  41  64  99 132 176 229 273 330 396
#     4  10  24  43  70 100 134 175 213 269 330 392
#
# _framework density 22.347612000000002
#
# number of rings (size 3 to 8) (size 9 to 14) (size 15 to 20)
#    0.000    1.000    3.750    2.250    1.750    5.000 
#    0.000    0.000    0.000    0.000    0.000    0.000 
#    0.000    0.000    0.000    0.000    0.000    0.000 
#
# Total GULP energy -89579.194204 kJ/mol
# GULP energy per Si atom -5598.699638 kJ/mol
# Density = 2.229675 g / cm^3
# Si number density = 22.347612 Si / 1000 Ang^3
#
#
#
# Elastic Constant Matrix: (Units=GPa)
#
#
# Indices 1 2 3 4 5 6 
#
# 1 58.5588 9.6151 50.8778 5.8987 10.9168 2.8630
# 2 9.6151 61.3649 23.3345 -20.8698 0.9961 6.4582
# 3 50.8778 23.3345 160.9558 -8.6157 13.1342 -5.6900
# 4 5.8987 -20.8698 -8.6157 29.1175 8.4923 -6.5847
# 5 10.9168 0.9961 13.1342 8.4923 45.9387 -7.8144
# 6 2.8630 6.4582 -5.6900 -6.5847 -7.8144 35.5315
#
#
#
# Elastic Compliance Matrix: (Units=1/GPa)
#
#
# Indices 1 2 3 4 5 6 
#
# 1 0.027159 -0.004318 -0.008553 -0.011584 -0.002712 -0.005516
# 2 -0.004318 0.023654 -0.000917 0.018064 -0.002796 -0.001366
# 3 -0.008553 -0.000917 0.009504 0.004883 -0.001049 0.003052
# 4 -0.011584 0.018064 0.004883 0.054975 -0.008032 0.006854
# 5 -0.002712 -0.002796 -0.001049 -0.008032 0.025036 0.004577
# 6 -0.005516 -0.001366 0.003052 0.006854 0.004577 0.031602
#
#
# Mechanical properties :
#
#
# Convention : Reuss Voigt Hill
#
# Bulk Modulus (GPa) = 30.54344 49.83713 40.19029
# Shear Modulus (GPa) = 23.76193 35.25435 29.50814
#
# Velocity S-wave (km/s) = 3.26435 3.97614 3.63769
# Velocity P-wave (km/s) = 5.28252 6.59006 5.97218
#
# Compressibility (1/GPa) = 0.03274025
#
# Stress axis : x y z
#
# Youngs Moduli (GPa) = 36.82041 42.27624 105.21662
#
# Poissons Ratio (x) = 0.18257 0.89987
# Poissons Ratio (y) = 0.15901 0.09652
# Poissons Ratio (z) = 0.31491 0.03878
#
# Static dielectric constant tensor:
#      x y z
#    x 1.818440 0.013190 -0.017630 
#    y 0.013190 1.818710 -0.019990 
#    z -0.017630 -0.019990 1.810950 
# 
# From -- ./inp_files/48753.got.cif
#   From: 2010.05.17/outbox.cif.g08.bks.cpg/sg2_25_cif.got.tgz:48753.got - 2010.06.03 11:33:40.
