data_PCOD9035825
_publ_section_title
;
Structure prediction by ZEFSAII (Michael W. Deem and Ramdas Pophale) SiO2 
 PCOD9035825
Probable space group: P -1
;
_chemical_formula_sum "Si O2"
_cell_formula_units_Z 16
_cell_length_a 7.120249
_cell_length_b 15.697721
_cell_length_c 8.137841
_cell_angle_alpha 111.241434
_cell_angle_beta 67.271576
_cell_angle_gamma 133.161441
_cell_volume 605.425739
_symmetry_space_group_name_H-M "P -1"
_symmetry_group_IT_number 2
_symmetry_cell_setting 'triclinic'
loop_
_space_group_symop_operation_xyz
x,y,z
-x,-y,-z
loop_
_atom_site_type_symbol
_atom_site_label
_atom_site_fract_x
_atom_site_fract_y
_atom_site_fract_z
Si Si1 0.378722 0.530485 0.699857
Si Si2 0.431954 0.161108 0.848896
Si Si3 0.832057 0.580129 0.769066
Si Si4 0.252359 0.915489 0.711572
Si Si5 0.834252 0.365535 0.632390
Si Si6 0.862804 0.193853 0.965866
Si Si7 0.782988 0.991383 0.665207
Si Si8 0.704202 0.790370 0.757111
O O1 0.500000 0.500000 0.500000
O O2 0.558593 0.554445 0.807637
O O3 0.070459 0.426741 0.729076
O O4 0.456055 0.655516 0.709996
O O5 0.579088 0.241742 0.697539
O O6 0.653766 0.181558 0.907660
O O7 0.294156 0.195714 0.036421
O O8 0.244838 0.022996 0.784312
O O9 0.041324 0.637216 0.582390
O O10 0.773808 0.456088 0.712781
O O11 0.952604 0.670997 0.942208
O O12 0.237381 0.876770 0.877583
O O13 0.978682 0.815665 0.641308
O O14 0.453892 0.037291 0.389273
O O15 0.924001 0.117980 0.792534
O O16 0.682195 0.882264 0.744241
O O17 0.000000 0.000000 0.500000
#
# Coordination Sequence:
#
# PCOD9035825 Si02
#       8
#     2   2   2   2   2   2   2   2
#     4  10  23  42  69  96 137 189 239 293 356 418
#     4  11  23  44  74 103 147 185 238 301 359 435
#     4  10  22  46  73 101 146 190 242 301 357 424
#     4  11  23  46  73 104 144 185 232 294 364 428
#     4  10  24  46  69 107 143 193 243 297 358 423
#     4  11  21  46  76 102 148 190 233 299 361 426
#     4  11  26  46  68 109 148 188 236 297 367 429
#     4  12  23  43  76  99 141 193 237 293 365 433
#
# _framework density 26.427683999999999
#
# number of rings (size 3 to 8) (size 9 to 14) (size 15 to 20)
#    0.000    1.250    3.750    1.875    0.000    6.500 
#    4.500    1.250    0.000    0.000    0.000    0.000 
#    0.000    0.000    0.000    0.000    0.000    0.000 
#
# Total GULP energy -89557.062049 kJ/mol
# GULP energy per Si atom -5597.316378 kJ/mol
# Density = 2.636753 g / cm^3
# Si number density = 26.427684 Si / 1000 Ang^3
#
#
#
# Elastic Constant Matrix: (Units=GPa)
#
#
# Indices 1 2 3 4 5 6 
#
# 1 123.5003 17.1181 21.5156 9.9604 -12.2078 -6.6131
# 2 17.1181 124.9945 32.7006 12.3856 -7.7091 -13.9499
# 3 21.5156 32.7006 89.4083 23.7578 -6.2372 -5.3148
# 4 9.9604 12.3856 23.7578 48.8573 -3.1636 -3.6032
# 5 -12.2078 -7.7091 -6.2372 -3.1636 35.4362 1.4209
# 6 -6.6131 -13.9499 -5.3148 -3.6032 1.4209 39.2683
#
#
#
# Elastic Compliance Matrix: (Units=1/GPa)
#
#
# Indices 1 2 3 4 5 6 
#
# 1 0.008788 -0.000473 -0.001522 -0.000696 0.002556 0.000950
# 2 -0.000473 0.009250 -0.002872 -0.000574 0.001184 0.002722
# 3 -0.001522 -0.002872 0.014208 -0.005811 0.000829 0.000083
# 4 -0.000696 -0.000574 -0.005811 0.023702 0.000687 0.001042
# 5 0.002556 0.001184 0.000829 0.000687 0.029567 -0.000044
# 6 0.000950 0.002722 0.000083 0.001042 -0.000044 0.026701
#
#
# Mechanical properties :
#
#
# Convention : Reuss Voigt Hill
#
# Bulk Modulus (GPa) = 44.42121 53.39684 48.90903
# Shear Modulus (GPa) = 38.62349 42.48361 40.55355
#
# Velocity S-wave (km/s) = 3.82708 4.01377 3.92153
# Velocity P-wave (km/s) = 6.03107 6.45981 6.24912
#
# Compressibility (1/GPa) = 0.02251177
#
# Stress axis : x y z
#
# Youngs Moduli (GPa) = 113.79797 108.10466 70.38104
#
# Poissons Ratio (x) = 0.05110 0.10713
# Poissons Ratio (y) = 0.05379 0.20217
# Poissons Ratio (z) = 0.17321 0.31053
#
# Static dielectric constant tensor:
#      x y z
#    x 2.109380 0.016970 0.014970 
#    y 0.016970 2.123600 -0.064900 
#    z 0.014970 -0.064900 2.085000 
# 
# From -- ./inp_files/215484.got.cif
#   From: 2010.05.17/outbox.cif.g08.bks.cpg/sg2_108_cif.got.tgz:215484.got - 2010.06.03 11:33:40.
