data_PCOD9035748
_publ_section_title
;
Structure prediction by ZEFSAII (Michael W. Deem and Ramdas Pophale) SiO2 
 PCOD9035748
Probable space group: P -1
;
_chemical_formula_sum "Si O2"
_cell_formula_units_Z 16
_cell_length_a 12.386030
_cell_length_b 16.019244
_cell_length_c 19.136943
_cell_angle_alpha 26.936082
_cell_angle_beta 43.325004
_cell_angle_gamma 26.663281
_cell_volume 725.718753
_symmetry_space_group_name_H-M "P -1"
_symmetry_group_IT_number 2
_symmetry_cell_setting 'triclinic'
loop_
_space_group_symop_operation_xyz
x,y,z
-x,-y,-z
loop_
_atom_site_type_symbol
_atom_site_label
_atom_site_fract_x
_atom_site_fract_y
_atom_site_fract_z
Si Si1 0.136192 0.806142 0.284873
Si Si2 0.716398 0.925843 0.985803
Si Si3 0.647295 0.366638 0.182374
Si Si4 0.830409 0.180761 0.014092
Si Si5 0.170006 0.420139 0.043088
Si Si6 0.011264 0.412516 0.758513
Si Si7 0.360223 0.200574 0.637546
Si Si8 0.551632 0.061657 0.501896
O O1 0.295543 0.476078 0.468929
O O2 0.309998 0.829101 0.185708
O O3 0.914151 0.042827 0.269696
O O4 0.973049 0.950054 0.182372
O O5 0.754556 0.828545 0.119796
O O6 0.975579 0.646398 0.029047
O O7 0.500000 0.000000 0.000000
O O8 0.458794 0.601356 0.032566
O O9 0.516700 0.313006 0.321735
O O10 0.702177 0.502592 0.096536
O O11 0.839857 0.390664 0.868139
O O12 0.000000 0.000000 0.000000
O O13 0.388135 0.089478 0.220894
O O14 0.000000 0.500000 0.000000
O O15 0.119278 0.323032 0.696168
O O16 0.849486 0.738413 0.613699
O O17 0.399951 0.127829 0.590958
O O18 0.500000 0.000000 0.500000
#
# Coordination Sequence:
#
# PCOD9035748 Si02
#       8
#     2   2   2   2   2   2   2   2
#     4  10  24  41  67 100 133 180 229 280 344 403
#     4  10  22  46  71  96 136 179 228 289 346 404
#     4  11  23  45  67  94 141 181 225 281 340 408
#     4  11  22  39  64  97 134 183 225 267 341 413
#     4  11  25  47  72 101 133 183 233 283 345 411
#     4  11  23  43  65  99 142 177 224 282 337 401
#     4  12  25  45  70 102 137 180 234 278 339 407
#     4  12  25  43  67 103 142 180 225 281 336 402
#
# _framework density 22.047108999999999
#
# number of rings (size 3 to 8) (size 9 to 14) (size 15 to 20)
#    0.000    1.000    3.750    2.625    0.000    5.500 
#    2.250    3.125    0.000    0.000    0.000    0.000 
#    0.000    0.000    0.000    0.000    0.000    0.000 
#
# Total GULP energy -89480.255583 kJ/mol
# GULP energy per Si atom -5592.515974 kJ/mol
# Density = 2.199693 g / cm^3
# Si number density = 22.047109 Si / 1000 Ang^3
#
#
#
# Elastic Constant Matrix: (Units=GPa)
#
#
# Indices 1 2 3 4 5 6 
#
# 1 123.9915 9.0664 45.3780 8.4921 -10.1794 -9.4325
# 2 9.0664 92.4833 28.1387 6.1037 -4.4241 14.1309
# 3 45.3780 28.1387 141.6150 -9.1215 -16.2846 0.2590
# 4 8.4921 6.1037 -9.1215 40.9710 5.7090 2.0706
# 5 -10.1794 -4.4241 -16.2846 5.7090 20.0003 5.1152
# 6 -9.4325 14.1309 0.2590 2.0706 5.1152 36.1626
#
#
#
# Elastic Compliance Matrix: (Units=1/GPa)
#
#
# Indices 1 2 3 4 5 6 
#
# 1 0.009807 -0.000061 -0.003016 -0.003210 0.002828 0.002387
# 2 -0.000061 0.012622 -0.002304 -0.002527 0.002937 -0.005202
# 3 -0.003016 -0.002304 0.009213 0.002365 0.004984 -0.000793
# 4 -0.003210 -0.002527 0.002365 0.027095 -0.007925 -0.000297
# 5 0.002828 0.002937 0.004984 -0.007925 0.060598 -0.008564
# 6 0.002387 -0.005202 -0.000793 -0.000297 -0.008564 0.031543
#
#
# Mechanical properties :
#
#
# Convention : Reuss Voigt Hill
#
# Bulk Modulus (GPa) = 47.89605 58.13957 53.01781
# Shear Modulus (GPa) = 29.65601 37.79389 33.72495
#
# Velocity S-wave (km/s) = 3.67157 4.14482 3.91535
# Velocity P-wave (km/s) = 6.30440 7.02381 6.67381
#
# Compressibility (1/GPa) = 0.02087855
#
# Stress axis : x y z
#
# Youngs Moduli (GPa) = 101.96766 79.22764 108.54739
#
# Poissons Ratio (x) = 0.00486 0.32741
# Poissons Ratio (y) = 0.00626 0.25007
# Poissons Ratio (z) = 0.30756 0.18253
#
# Static dielectric constant tensor:
#      x y z
#    x 1.803630 -0.001390 0.005620 
#    y -0.001390 1.855620 0.010710 
#    z 0.005620 0.010710 1.848130 
# 
# From -- ./inp_files/188930.got.cif
#   From: 2010.05.17/outbox.cif.g08.bks.cpg/sg2_95_cif.got.tgz:188930.got - 2010.06.03 11:33:40.
