data_PCOD9035540
_publ_section_title
;
Structure prediction by ZEFSAII (Michael W. Deem and Ramdas Pophale) SiO2 
 PCOD9035540
Probable space group: P -1
;
_chemical_formula_sum "Si O2"
_cell_formula_units_Z 16
_cell_length_a 14.727209
_cell_length_b 8.333665
_cell_length_c 8.927087
_cell_angle_alpha 114.309628
_cell_angle_beta 128.344935
_cell_angle_gamma 99.196604
_cell_volume 637.412750
_symmetry_space_group_name_H-M "P -1"
_symmetry_group_IT_number 2
_symmetry_cell_setting 'triclinic'
loop_
_space_group_symop_operation_xyz
x,y,z
-x,-y,-z
loop_
_atom_site_type_symbol
_atom_site_label
_atom_site_fract_x
_atom_site_fract_y
_atom_site_fract_z
Si Si1 0.007801 0.888575 0.108411
Si Si2 0.128328 0.568697 0.776867
Si Si3 0.265130 0.948615 0.311205
Si Si4 0.221612 0.567029 0.293688
Si Si5 0.327286 0.686025 0.762926
Si Si6 0.497455 0.696858 0.520771
Si Si7 0.627587 0.881280 0.041261
Si Si8 0.859660 0.794056 0.205870
O O1 0.895270 0.872039 0.100031
O O2 0.176343 0.016442 0.337774
O O3 0.942477 0.632953 0.943964
O O4 0.000000 0.000000 0.000000
O O5 0.250628 0.595772 0.805643
O O6 0.106775 0.382531 0.791602
O O7 0.000000 0.500000 0.500000
O O8 0.181069 0.779097 0.017415
O O9 0.268484 0.802127 0.384622
O O10 0.409388 0.153465 0.465632
O O11 0.268449 0.544288 0.498135
O O12 0.328027 0.569279 0.283178
O O13 0.294904 0.864045 0.763116
O O14 0.491484 0.774956 0.969511
O O15 0.500000 0.500000 0.500000
O O16 0.561056 0.845843 0.791397
O O17 0.723567 0.791445 0.114733
O O18 0.000000 0.000000 0.500000
#
# Coordination Sequence:
#
# PCOD9035540 Si02
#       8
#     2   2   2   2   2   2   2   2
#     4  12  27  45  69 104 142 185 235 298 360 418
#     4  12  26  45  73 103 142 193 239 293 362 421
#     4  12  25  45  72 104 141 185 244 294 349 434
#     4  11  24  44  70 102 139 185 240 289 355 429
#     4  10  23  43  75  98 136 189 229 287 358 426
#     4  11  23  44  72 102 142 186 228 300 364 422
#     4  10  22  46  68 100 138 181 233 290 351 429
#     4  12  28  44  70 102 143 186 238 297 356 427
#
# _framework density 25.101475000000001
#
# number of rings (size 3 to 8) (size 9 to 14) (size 15 to 20)
#    0.000    0.750    2.500    4.500    7.000    0.500 
#    0.000    0.000    0.000    0.000    0.000    0.000 
#    0.000    0.000    0.000    0.000    0.000    0.000 
#
# Total GULP energy -89074.896869 kJ/mol
# GULP energy per Si atom -5567.181054 kJ/mol
# Density = 2.504434 g / cm^3
# Si number density = 25.101475 Si / 1000 Ang^3
#
#
#
# Elastic Constant Matrix: (Units=GPa)
#
#
# Indices 1 2 3 4 5 6 
#
# 1 133.2433 42.9488 6.5686 3.4398 27.5864 21.9114
# 2 42.9488 118.3868 12.2497 -8.3057 0.8908 20.8960
# 3 6.5686 12.2497 53.8246 -2.9725 -0.4522 16.0358
# 4 3.4398 -8.3057 -2.9725 27.9844 -4.4678 13.2521
# 5 27.5864 0.8908 -0.4522 -4.4678 22.6851 -1.8348
# 6 21.9114 20.8960 16.0358 13.2521 -1.8348 59.1838
#
#
#
# Elastic Compliance Matrix: (Units=1/GPa)
#
#
# Indices 1 2 3 4 5 6 
#
# 1 0.012917 -0.004354 -0.000131 -0.004229 -0.016597 -0.002777
# 2 -0.004354 0.011079 -0.000591 0.006283 0.005813 -0.003366
# 3 -0.000131 -0.000591 0.021003 0.005378 0.001126 -0.006603
# 4 -0.004229 0.006283 0.005378 0.046535 0.013187 -0.012121
# 5 -0.016597 0.005813 0.001126 0.013187 0.066892 0.002908
# 6 -0.002777 -0.003366 -0.006603 -0.012121 0.002908 0.023706
#
#
# Mechanical properties :
#
#
# Convention : Reuss Voigt Hill
#
# Bulk Modulus (GPa) = 28.69791 47.66542 38.18167
# Shear Modulus (GPa) = 24.52179 38.21651 31.36915
#
# Velocity S-wave (km/s) = 3.12894 3.90613 3.53894
# Velocity P-wave (km/s) = 4.95089 6.27488 5.65179
#
# Compressibility (1/GPa) = 0.03484574
#
# Stress axis : x y z
#
# Youngs Moduli (GPa) = 77.41679 90.26232 47.61211
#
# Poissons Ratio (x) = 0.39302 0.00624
# Poissons Ratio (y) = 0.33709 0.02816
# Poissons Ratio (z) = 0.01014 0.05338
#
# Static dielectric constant tensor:
#      x y z
#    x -1.344760 2.309410 1.292970 
#    y 2.309410 0.320150 -0.934360 
#    z 1.292970 -0.934360 1.659090 
# 
# From -- ./inp_files/299354.got.cif
#   From: 2010.05.17/outbox.cif.g08.bks.cpg/sg2_150_cif.got.tgz:299354.got - 2010.06.03 11:33:40.
