data_PCOD9035337
_publ_section_title
;
Structure prediction by ZEFSAII (Michael W. Deem and Ramdas Pophale) SiO2 
 PCOD9035337
Probable space group: P -1
;
_chemical_formula_sum "Si O2"
_cell_formula_units_Z 10
_cell_length_a 11.778496
_cell_length_b 11.129254
_cell_length_c 11.886237
_cell_angle_alpha 24.485792
_cell_angle_beta 35.745344
_cell_angle_gamma 39.070207
_cell_volume 372.646928
_symmetry_space_group_name_H-M "P -1"
_symmetry_group_IT_number 2
_symmetry_cell_setting 'triclinic'
loop_
_space_group_symop_operation_xyz
x,y,z
-x,-y,-z
loop_
_atom_site_type_symbol
_atom_site_label
_atom_site_fract_x
_atom_site_fract_y
_atom_site_fract_z
Si Si1 0.859464 0.832713 0.678603
Si Si2 0.398461 0.407551 0.319973
Si Si3 0.768258 0.186466 0.070892
Si Si4 0.980504 0.825660 0.922646
Si Si5 0.455457 0.248143 0.666891
O O1 0.914695 0.486477 0.946233
O O2 0.634960 0.979655 0.752455
O O3 0.000000 0.000000 0.500000
O O4 0.920098 0.917819 0.431495
O O5 0.609283 0.391409 0.103390
O O6 0.428305 0.386416 0.446363
O O7 0.305300 0.123770 0.601322
O O8 0.259919 0.680245 0.144044
O O9 0.970878 0.186896 0.972877
O O10 0.752561 0.851497 0.053744
O O11 0.500000 0.500000 0.500000
#
# Coordination Sequence:
#
# PCOD9035337 Si02
#       5
#     2   2   2   2   2
#     4  12  27  49  73 108 155 197 245 302 367 441
#     4  10  23  43  74 105 144 192 243 301 362 440
#     4  10  22  45  74 103 144 194 241 301 370 423
#     4  12  27  48  78 110 147 196 247 306 373 435
#     4  12  28  49  76 115 149 196 250 302 371 446
#
# _framework density 26.835052000000001
#
# number of rings (size 3 to 8) (size 9 to 14) (size 15 to 20)
#    0.000    0.800    4.000    1.800    5.600    5.600 
#    0.000    0.000    0.000    0.000    0.000    0.000 
#    0.000    0.000    0.000    0.000    0.000    0.000 
#
# Total GULP energy -56210.066050 kJ/mol
# GULP energy per Si atom -5621.006605 kJ/mol
# Density = 2.677397 g / cm^3
# Si number density = 26.835052 Si / 1000 Ang^3
#
#
#
# Elastic Constant Matrix: (Units=GPa)
#
#
# Indices 1 2 3 4 5 6 
#
# 1 169.4221 51.5680 15.7615 -6.4990 -10.0056 -15.4398
# 2 51.5680 159.7121 35.8169 -0.9295 -2.9821 -48.8504
# 3 15.7615 35.8169 92.8340 -19.1638 7.6381 -15.4376
# 4 -6.4990 -0.9295 -19.1638 35.4189 -1.1849 3.2580
# 5 -10.0056 -2.9821 7.6381 -1.1849 41.9957 3.2388
# 6 -15.4398 -48.8504 -15.4376 3.2580 3.2388 53.4529
#
#
#
# Elastic Compliance Matrix: (Units=1/GPa)
#
#
# Indices 1 2 3 4 5 6 
#
# 1 0.006689 -0.002150 -0.000247 0.001113 0.001538 -0.000265
# 2 -0.002150 0.009928 -0.002634 -0.002279 0.000004 0.007830
# 3 -0.000247 -0.002634 0.013715 0.007107 -0.002633 0.001209
# 4 0.001113 -0.002279 0.007107 0.032372 -0.000147 -0.001673
# 5 0.001538 0.000004 -0.002633 -0.000147 0.024793 -0.001806
# 6 -0.000265 0.007830 0.001209 -0.001673 -0.001806 0.026348
#
#
# Mechanical properties :
#
#
# Convention : Reuss Voigt Hill
#
# Bulk Modulus (GPa) = 49.33557 69.80678 59.57118
# Shear Modulus (GPa) = 38.26608 47.42829 42.84718
#
# Velocity S-wave (km/s) = 3.78030 4.20861 4.00019
# Velocity P-wave (km/s) = 6.12200 7.04885 6.60171
#
# Compressibility (1/GPa) = 0.02026935
#
# Stress axis : x y z
#
# Youngs Moduli (GPa) = 149.49311 100.72460 72.91391
#
# Poissons Ratio (x) = 0.21661 0.01800
# Poissons Ratio (y) = 0.32148 0.19206
# Poissons Ratio (z) = 0.03691 0.26531
#
# Static dielectric constant tensor:
#      x y z
#    x 2.080850 0.030470 0.036610 
#    y 0.030470 2.167810 0.029140 
#    z 0.036610 0.029140 2.001010 
# 
# From -- ./inp_files/71371.got.cif
#   From: 2010.05.17/outbox.cif.g08.bks.cpg/sg2_36_cif.got.tgz:71371.got - 2010.06.03 11:33:40.
