data_PCOD9035543
_publ_section_title
;
Structure prediction by ZEFSAII (Michael W. Deem and Ramdas Pophale) SiO2 
 PCOD9035543
Probable space group: P -1
;
_chemical_formula_sum "Si O2"
_cell_formula_units_Z 13
_cell_length_a 6.066575
_cell_length_b 8.784211
_cell_length_c 11.404464
_cell_angle_alpha 103.285574
_cell_angle_beta 125.231686
_cell_angle_gamma 81.577259
_cell_volume 483.061937
_symmetry_space_group_name_H-M "P -1"
_symmetry_group_IT_number 2
_symmetry_cell_setting 'triclinic'
loop_
_space_group_symop_operation_xyz
x,y,z
-x,-y,-z
loop_
_atom_site_type_symbol
_atom_site_label
_atom_site_fract_x
_atom_site_fract_y
_atom_site_fract_z
Si Si1 0.572952 0.907133 0.703939
Si Si2 0.500000 0.500000 0.500000
Si Si3 0.074559 0.308634 0.358826
Si Si4 0.495031 0.751974 0.904594
Si Si5 0.856600 0.816904 0.391951
Si Si6 0.002105 0.156331 0.812111
Si Si7 0.610584 0.421773 0.794627
O O1 0.629814 0.758720 0.608402
O O2 0.550903 0.837101 0.813379
O O3 0.325879 0.024323 0.621565
O O4 0.839802 0.010297 0.785917
O O5 0.164687 0.485766 0.423230
O O6 0.566306 0.474463 0.656562
O O7 0.022976 0.228854 0.453152
O O8 0.827506 0.269681 0.191644
O O9 0.604798 0.574439 0.898717
O O10 0.677090 0.845460 0.068078
O O11 0.041241 0.835607 0.338640
O O12 0.639891 0.686167 0.271191
O O13 0.868885 0.307777 0.858693
#
# Coordination Sequence:
#
# PCOD9035543 Si02
#       7
#     2   1   2   2   2   2   2
#     4  11  24  46  69 101 138 185 229 284 336 408
#     4  10  22  46  68 102 132 176 222 292 336 398
#     4  11  25  43  75 102 138 173 239 282 345 403
#     4  12  26  43  72 106 133 188 228 282 337 413
#     4  10  25  44  69 102 135 185 224 288 344 404
#     4  11  26  46  68  99 149 180 226 277 347 409
#     4  10  24  43  70 100 138 179 229 283 343 401
#
# _framework density 26.911663000000001
#
# number of rings (size 3 to 8) (size 9 to 14) (size 15 to 20)
#    0.000    1.231    1.538    2.308    4.308   10.462 
#    0.000    0.000    0.000    0.000    0.000    0.000 
#    0.000    0.000    0.000    0.000    0.000    0.000 
#
# Total GULP energy -72665.113033 kJ/mol
# GULP energy per Si atom -5589.624079 kJ/mol
# Density = 2.685041 g / cm^3
# Si number density = 26.911663 Si / 1000 Ang^3
#
#
#
# Elastic Constant Matrix: (Units=GPa)
#
#
# Indices 1 2 3 4 5 6 
#
# 1 93.0227 21.4268 15.2565 -1.1042 20.6368 7.6208
# 2 21.4268 70.2887 -9.8322 0.7441 -2.0314 -13.7210
# 3 15.2565 -9.8322 69.3294 -2.5006 28.4168 6.7711
# 4 -1.1042 0.7441 -2.5006 16.9078 0.9190 -3.6489
# 5 20.6368 -2.0314 28.4168 0.9190 52.2547 1.7982
# 6 7.6208 -13.7210 6.7711 -3.6489 1.7982 69.2415
#
#
#
# Elastic Compliance Matrix: (Units=1/GPa)
#
#
# Indices 1 2 3 4 5 6 
#
# 1 0.013300 -0.004818 -0.001512 0.000647 -0.004556 -0.002118
# 2 -0.004818 0.016798 0.002701 0.000064 0.000963 0.003573
# 3 -0.001512 0.002701 0.019363 0.003014 -0.009854 -0.000777
# 4 0.000647 0.000064 0.003014 0.060424 -0.003055 0.002910
# 5 -0.004556 0.000963 -0.009854 -0.003055 0.026358 0.000810
# 6 -0.002118 0.003573 -0.000777 0.002910 0.000810 0.015592
#
#
# Mechanical properties :
#
#
# Convention : Reuss Voigt Hill
#
# Bulk Modulus (GPa) = 23.69479 31.81586 27.75533
# Shear Modulus (GPa) = 28.87491 41.40013 35.13752
#
# Velocity S-wave (km/s) = 3.27915 3.92646 3.61731
# Velocity P-wave (km/s) = 4.81257 5.69246 5.27091
#
# Compressibility (1/GPa) = 0.04220337
#
# Stress axis : x y z
#
# Youngs Moduli (GPa) = 75.18937 59.52999 51.64382
#
# Poissons Ratio (x) = 0.28681 0.07811
# Poissons Ratio (y) = 0.36225 -0.13951
# Poissons Ratio (z) = 0.11372 -0.16081
#
# Static dielectric constant tensor:
#      x y z
#    x 2.009360 -0.264910 -0.047670 
#    y -0.264910 1.322770 -0.362850 
#    z -0.047670 -0.362850 1.840710 
# 
# From -- ./inp_files/25489.got.cif
#   From: 2010.05.17/outbox.cif.g08.bks.cpg/sg2_13_cif.got.tgz:25489.got - 2010.06.03 11:33:40.
