data_PCOD9035322
_publ_section_title
;
Structure prediction by ZEFSAII (Michael W. Deem and Ramdas Pophale) SiO2 
 PCOD9035322
Probable space group: P -1
;
_chemical_formula_sum "Si O2"
_cell_formula_units_Z 12
_cell_length_a 7.047696
_cell_length_b 10.573364
_cell_length_c 12.947901
_cell_angle_alpha 31.417087
_cell_angle_beta 114.940913
_cell_angle_gamma 104.097278
_cell_volume 442.019530
_symmetry_space_group_name_H-M "P -1"
_symmetry_group_IT_number 2
_symmetry_cell_setting 'triclinic'
loop_
_space_group_symop_operation_xyz
x,y,z
-x,-y,-z
loop_
_atom_site_type_symbol
_atom_site_label
_atom_site_fract_x
_atom_site_fract_y
_atom_site_fract_z
Si Si1 0.947206 0.810189 0.704803
Si Si2 0.400621 0.875059 0.288571
Si Si3 0.284457 0.899712 0.024255
Si Si4 0.790203 0.541842 0.136850
Si Si5 0.907338 0.813321 0.389734
Si Si6 0.552929 0.601587 0.712946
O O1 0.109640 0.551810 0.886003
O O2 0.999187 0.952742 0.715815
O O3 0.710420 0.774768 0.657691
O O4 0.000000 0.000000 0.500000
O O5 0.657171 0.848294 0.344007
O O6 0.287119 0.805342 0.207918
O O7 0.398351 0.718516 0.500558
O O8 0.286896 0.163654 0.079019
O O9 0.317390 0.663115 0.120570
O O10 0.108989 0.137408 0.771689
O O11 0.500000 0.000000 0.000000
O O12 0.585139 0.437273 0.193267
O O13 0.960024 0.423874 0.349382
#
# Coordination Sequence:
#
# PCOD9035322 Si02
#       6
#     2   2   2   2   2   2
#     4  10  23  45  69 105 144 174 235 291 335 421
#     4  11  23  47  69 105 142 179 236 290 338 419
#     4  10  22  45  73  99 143 183 229 296 339 405
#     4  11  24  44  73 106 136 186 231 283 352 412
#     4  10  22  47  67  99 149 175 224 300 332 402
#     4  12  23  45  75 104 137 190 225 285 365 396
#
# _framework density 27.148121
#
# number of rings (size 3 to 8) (size 9 to 14) (size 15 to 20)
#    0.000    1.333    6.667    0.500    0.000    6.000 
#    0.000    1.667    0.000    1.000    0.000    0.000 
#    0.000    0.000    0.000    0.000    0.000    0.000 
#
# Total GULP energy -67239.663580 kJ/mol
# GULP energy per Si atom -5603.305298 kJ/mol
# Density = 2.708633 g / cm^3
# Si number density = 27.148121 Si / 1000 Ang^3
#
#
#
# Elastic Constant Matrix: (Units=GPa)
#
#
# Indices 1 2 3 4 5 6 
#
# 1 103.6613 18.3386 -4.4429 -2.6471 -10.3973 -14.3166
# 2 18.3386 46.6196 -12.7234 6.5398 -13.6774 11.9126
# 3 -4.4429 -12.7234 148.1528 21.6114 16.1113 1.6213
# 4 -2.6471 6.5398 21.6114 58.2538 -4.0301 -2.6992
# 5 -10.3973 -13.6774 16.1113 -4.0301 36.8659 -5.3942
# 6 -14.3166 11.9126 1.6213 -2.6992 -5.3942 31.6947
#
#
#
# Elastic Compliance Matrix: (Units=1/GPa)
#
#
# Indices 1 2 3 4 5 6 
#
# 1 0.012415 -0.006902 -0.000975 0.002318 0.002930 0.008948
# 2 -0.006902 0.030960 0.002730 -0.005074 0.005691 -0.014357
# 3 -0.000975 0.002730 0.007902 -0.003655 -0.003522 -0.002781
# 4 0.002318 -0.005074 -0.003655 0.019675 0.003306 0.005379
# 5 0.002930 0.005691 -0.003522 0.003306 0.032727 0.005216
# 6 0.008948 -0.014357 -0.002781 0.005379 0.005216 0.042477
#
#
# Mechanical properties :
#
#
# Convention : Reuss Voigt Hill
#
# Bulk Modulus (GPa) = 24.40002 33.41984 28.90993
# Shear Modulus (GPa) = 29.39274 45.18029 37.28652
#
# Velocity S-wave (km/s) = 3.29398 4.08390 3.71003
# Velocity P-wave (km/s) = 4.84503 5.88002 5.38744
#
# Compressibility (1/GPa) = 0.04098357
#
# Stress axis : x y z
#
# Youngs Moduli (GPa) = 80.54908 32.29935 126.55726
#
# Poissons Ratio (x) = 0.22292 0.12340
# Poissons Ratio (y) = 0.55593 -0.34553
# Poissons Ratio (z) = 0.07854 -0.08818
#
# Static dielectric constant tensor:
#      x y z
#    x 2.200920 -0.102020 0.004070 
#    y -0.102020 2.191350 0.042820 
#    z 0.004070 0.042820 2.151620 
# 
# From -- ./inp_files/497340.got.cif
#   From: 2010.05.17/outbox.cif.g08.bks.cpg/sg2_249_cif.got.tgz:497340.got - 2010.06.03 11:33:40.
