data_PCOD9035714
_publ_section_title
;
Structure prediction by ZEFSAII (Michael W. Deem and Ramdas Pophale) SiO2 
 PCOD9035714
Probable space group: P -1
;
_chemical_formula_sum "Si O2"
_cell_formula_units_Z 14
_cell_length_a 5.947149
_cell_length_b 7.992241
_cell_length_c 17.451815
_cell_angle_alpha 63.023106
_cell_angle_beta 54.605125
_cell_angle_gamma 85.831336
_cell_volume 581.630089
_symmetry_space_group_name_H-M "P -1"
_symmetry_group_IT_number 2
_symmetry_cell_setting 'triclinic'
loop_
_space_group_symop_operation_xyz
x,y,z
-x,-y,-z
loop_
_atom_site_type_symbol
_atom_site_label
_atom_site_fract_x
_atom_site_fract_y
_atom_site_fract_z
Si Si1 0.610314 0.301114 0.720814
Si Si2 0.314541 0.102140 0.454407
Si Si3 0.829782 0.693960 0.929483
Si Si4 0.411600 0.929639 0.946707
Si Si5 0.221817 0.339886 0.560793
Si Si6 0.681368 0.982157 0.287680
Si Si7 0.856094 0.606825 0.114932
O O1 0.395045 0.421113 0.768468
O O2 0.942476 0.405952 0.626562
O O3 0.531087 0.118908 0.832973
O O4 0.530080 0.193634 0.678402
O O5 0.267221 0.280746 0.476867
O O6 0.516145 0.115348 0.337639
O O7 0.500000 0.000000 0.500000
O O8 0.000000 0.000000 0.500000
O O9 0.577732 0.767095 0.926304
O O10 0.092980 0.887460 0.841780
O O11 0.957850 0.548215 0.885115
O O12 0.749720 0.606371 0.047979
O O13 0.080327 0.816312 0.036968
O O14 0.500000 0.000000 0.000000
O O15 0.500000 0.500000 0.500000
O O16 0.171500 0.132635 0.657804
#
# Coordination Sequence:
#
# PCOD9035714 Si02
#       7
#     2   2   2   2   2   2   2
#     4  12  23  42  71 101 135 186 241 293 363 437
#     4  10  22  46  71 102 140 187 245 310 377 442
#     4  11  23  43  64  98 142 182 224 283 353 437
#     4  12  22  41  70  96 143 185 227 286 356 434
#     4  11  26  47  71 104 140 187 247 313 372 434
#     4  11  23  44  73  95 137 190 240 294 373 440
#     4  11  25  40  63 106 139 175 228 288 350 428
#
# _framework density 24.070283
#
# number of rings (size 3 to 8) (size 9 to 14) (size 15 to 20)
#    0.000    0.857    5.714    1.714    0.000    1.714 
#    5.143    0.000    0.000    0.000    0.000    0.000 
#    0.000    0.000    0.000    0.000    0.000    0.000 
#
# Total GULP energy -78207.001877 kJ/mol
# GULP energy per Si atom -5586.214420 kJ/mol
# Density = 2.401550 g / cm^3
# Si number density = 24.070283 Si / 1000 Ang^3
#
#
#
# Elastic Constant Matrix: (Units=GPa)
#
#
# Indices 1 2 3 4 5 6 
#
# 1 84.6378 40.5614 40.1719 9.6019 -24.9383 6.3678
# 2 40.5614 141.2563 39.6706 28.7836 -16.4142 -8.8064
# 3 40.1719 39.6706 119.1593 27.3313 -24.4378 1.8312
# 4 9.6019 28.7836 27.3313 44.1945 -5.3137 3.1612
# 5 -24.9383 -16.4142 -24.4378 -5.3137 54.1661 -3.5434
# 6 6.3678 -8.8064 1.8312 3.1612 -3.5434 49.2547
#
#
#
# Elastic Compliance Matrix: (Units=1/GPa)
#
#
# Indices 1 2 3 4 5 6 
#
# 1 0.016838 -0.003731 -0.003824 0.001905 0.004922 -0.002470
# 2 -0.003731 0.009620 -0.000691 -0.005147 0.000550 0.002598
# 3 -0.003824 -0.000691 0.011792 -0.005708 0.002823 0.000502
# 4 0.001905 -0.005147 -0.005708 0.029231 -0.000578 -0.002872
# 5 0.004922 0.000550 0.002823 -0.000578 0.022176 0.000990
# 6 -0.002470 0.002598 0.000502 -0.002872 0.000990 0.021323
#
#
# Mechanical properties :
#
#
# Convention : Reuss Voigt Hill
#
# Bulk Modulus (GPa) = 45.96359 65.09569 55.52964
# Shear Modulus (GPa) = 37.11251 44.49970 40.80610
#
# Velocity S-wave (km/s) = 3.93089 4.30436 4.12186
# Velocity P-wave (km/s) = 6.30393 7.19765 6.76556
#
# Compressibility (1/GPa) = 0.02175635
#
# Stress axis : x y z
#
# Youngs Moduli (GPa) = 59.38905 103.95511 84.80421
#
# Poissons Ratio (x) = 0.38790 0.32429
# Poissons Ratio (y) = 0.22160 0.05861
# Poissons Ratio (z) = 0.22711 0.07185
#
# Static dielectric constant tensor:
#      x y z
#    x 2.037680 -0.060520 0.045500 
#    y -0.060520 1.966150 -0.038600 
#    z 0.045500 -0.038600 1.939800 
# 
# From -- ./inp_files/38339.got.cif
#   From: 2010.05.17/outbox.cif.g08.bks.cpg/sg2_20_cif.got.tgz:38339.got - 2010.06.03 11:33:40.
