data_PCOD9035317
_publ_section_title
;
Structure prediction by ZEFSAII (Michael W. Deem and Ramdas Pophale) SiO2 
 PCOD9035317
Probable space group: P -1
;
_chemical_formula_sum "Si O2"
_cell_formula_units_Z 16
_cell_length_a 10.055037
_cell_length_b 11.474077
_cell_length_c 11.298662
_cell_angle_alpha 46.626296
_cell_angle_beta 134.111643
_cell_angle_gamma 123.365988
_cell_volume 673.820017
_symmetry_space_group_name_H-M "P -1"
_symmetry_group_IT_number 2
_symmetry_cell_setting 'triclinic'
loop_
_space_group_symop_operation_xyz
x,y,z
-x,-y,-z
loop_
_atom_site_type_symbol
_atom_site_label
_atom_site_fract_x
_atom_site_fract_y
_atom_site_fract_z
Si Si1 0.310279 0.928869 0.667807
Si Si2 0.525780 0.404602 0.962861
Si Si3 0.694840 0.608686 0.520365
Si Si4 0.798110 0.470895 0.454249
Si Si5 0.298114 0.048201 0.821865
Si Si6 0.846442 0.611228 0.864946
Si Si7 0.631231 0.096974 0.615641
Si Si8 0.933392 0.963590 0.772895
O O1 0.492607 0.063954 0.663946
O O2 0.153290 0.017341 0.860467
O O3 0.161849 0.948228 0.458146
O O4 0.400476 0.762835 0.841544
O O5 0.331439 0.409612 0.770392
O O6 0.681725 0.501754 0.907734
O O7 0.500000 0.500000 0.000000
O O8 0.500000 0.500000 0.500000
O O9 0.813888 0.507392 0.578926
O O10 0.672458 0.767003 0.324294
O O11 0.779599 0.664589 0.659130
O O12 0.000000 0.500000 0.500000
O O13 0.692350 0.287557 0.500227
O O14 0.219956 0.949056 0.725570
O O15 0.500000 0.000000 0.000000
O O16 0.902449 0.771773 0.864604
O O17 0.000000 0.500000 0.000000
O O18 0.820629 0.015456 0.780034
O O19 0.500000 0.000000 0.500000
#
# Coordination Sequence:
#
# PCOD9035317 Si02
#       8
#     2   2   2   2   2   2   2   2
#     4  11  22  42  69  97 135 180 234 289 344 414
#     4  12  25  44  69 108 143 186 247 295 351 432
#     4  12  26  47  70 100 150 186 232 296 365 427
#     4  12  26  47  73 106 147 191 236 296 370 425
#     4  12  26  43  68 102 140 182 231 291 358 424
#     4  12  27  45  74 107 140 188 242 297 361 429
#     4  10  22  45  73  98 135 187 233 283 352 425
#     4  11  23  46  71  99 136 183 238 287 351 424
#
# _framework density 23.745215000000002
#
# number of rings (size 3 to 8) (size 9 to 14) (size 15 to 20)
#    0.000    0.500    2.500    7.125    5.250    0.000 
#    0.000    1.250    0.000    0.000    0.000    0.000 
#    0.000    0.000    0.000    0.000    0.000    0.000 
#
# Total GULP energy -89579.237142 kJ/mol
# GULP energy per Si atom -5598.702321 kJ/mol
# Density = 2.369117 g / cm^3
# Si number density = 23.745215 Si / 1000 Ang^3
#
#
#
# Elastic Constant Matrix: (Units=GPa)
#
#
# Indices 1 2 3 4 5 6 
#
# 1 163.2612 13.5921 25.9805 0.5780 29.0221 4.5264
# 2 13.5921 73.4773 25.0580 -29.2342 3.2588 1.2411
# 3 25.9805 25.0580 95.1473 -21.2613 22.7811 14.6148
# 4 0.5780 -29.2342 -21.2613 35.1593 -6.8937 0.9250
# 5 29.0221 3.2588 22.7811 -6.8937 38.1085 2.8081
# 6 4.5264 1.2411 14.6148 0.9250 2.8081 50.7859
#
#
#
# Elastic Compliance Matrix: (Units=1/GPa)
#
#
# Indices 1 2 3 4 5 6 
#
# 1 0.007472 -0.002284 -0.000923 -0.003681 -0.005612 0.000033
# 2 -0.002284 0.021543 -0.002139 0.017519 0.004365 -0.000268
# 3 -0.000923 -0.002139 0.014852 0.006022 -0.006617 -0.003883
# 4 -0.003681 0.017519 0.006022 0.048092 0.006631 -0.003076
# 5 -0.005612 0.004365 -0.006617 0.006631 0.035280 0.000226
# 6 0.000033 -0.000268 -0.003883 -0.003076 0.000226 0.020855
#
#
# Mechanical properties :
#
#
# Convention : Reuss Voigt Hill
#
# Bulk Modulus (GPa) = 30.14245 51.23856 40.69051
# Shear Modulus (GPa) = 29.43892 42.62775 36.03334
#
# Velocity S-wave (km/s) = 3.52488 4.24159 3.89973
# Velocity P-wave (km/s) = 5.41184 6.75378 6.11970
#
# Compressibility (1/GPa) = 0.03317580
#
# Stress axis : x y z
#
# Youngs Moduli (GPa) = 133.83690 46.41921 67.33149
#
# Poissons Ratio (x) = 0.10600 0.06213
# Poissons Ratio (y) = 0.30563 0.14402
# Poissons Ratio (z) = 0.12350 0.09929
#
# Static dielectric constant tensor:
#      x y z
#    x 1.895300 -0.047200 -0.004740 
#    y -0.047200 1.941590 0.036150 
#    z -0.004740 0.036150 1.945730 
# 
# From -- ./inp_files/392230.got.cif
#   From: 2010.05.17/outbox.cif.g08.bks.cpg/sg2_197_cif.got.tgz:392230.got - 2010.06.03 11:33:40.
