data_PCOD9035454
_publ_section_title
;
Structure prediction by ZEFSAII (Michael W. Deem and Ramdas Pophale) SiO2 
 PCOD9035454
Probable space group: P -1
;
_chemical_formula_sum "Si O2"
_cell_formula_units_Z 15
_cell_length_a 7.791250
_cell_length_b 16.909369
_cell_length_c 6.450727
_cell_angle_alpha 117.110270
_cell_angle_beta 91.326841
_cell_angle_gamma 58.555100
_cell_volume 619.085746
_symmetry_space_group_name_H-M "P -1"
_symmetry_group_IT_number 2
_symmetry_cell_setting 'triclinic'
loop_
_space_group_symop_operation_xyz
x,y,z
-x,-y,-z
loop_
_atom_site_type_symbol
_atom_site_label
_atom_site_fract_x
_atom_site_fract_y
_atom_site_fract_z
Si Si1 0.971029 0.192378 0.828347
Si Si2 0.000000 0.500000 0.500000
Si Si3 0.703398 0.554075 0.172826
Si Si4 0.786799 0.108795 0.042631
Si Si5 0.666712 0.022083 0.602586
Si Si6 0.522552 0.791157 0.498094
Si Si7 0.246588 0.622036 0.296284
Si Si8 0.128465 0.264173 0.271178
O O1 0.842351 0.166900 0.946483
O O2 0.833499 0.297704 0.807396
O O3 0.107860 0.088075 0.561928
O O4 0.123115 0.205781 0.997090
O O5 0.127391 0.498720 0.705808
O O6 0.141167 0.365063 0.346622
O O7 0.645476 0.672429 0.260268
O O8 0.489935 0.571522 0.271277
O O9 0.773376 0.476141 0.882693
O O10 0.658976 0.066476 0.881506
O O11 0.641836 0.192922 0.315636
O O12 0.000000 0.000000 0.000000
O O13 0.618773 0.116360 0.558404
O O14 0.500000 0.000000 0.500000
O O15 0.691428 0.804433 0.633470
O O16 0.095055 0.683717 0.558077
#
# Coordination Sequence:
#
# PCOD9035454 Si02
#       8
#     2   1   2   2   2   2   2   2
#     4  12  25  44  74 103 140 181 240 283 354 412
#     4  10  22  46  64 104 142 178 228 272 356 402
#     4  10  23  46  69 103 141 179 234 288 342 422
#     4  12  27  45  72 102 141 184 232 296 344 415
#     4  12  27  45  70 103 141 185 235 288 348 420
#     4  11  25  46  68 103 142 186 233 283 358 407
#     4  11  24  45  72 105 137 185 234 288 349 411
#     4  11  25  45  73 103 145 184 229 296 340 424
#
# _framework density 24.229275999999999
#
# number of rings (size 3 to 8) (size 9 to 14) (size 15 to 20)
#    0.000    0.800    2.667    3.600    5.600    3.733 
#   16.800    0.000    0.000    0.000    0.000    0.000 
#    0.000    0.000    0.000    0.000    0.000    0.000 
#
# Total GULP energy -83814.571521 kJ/mol
# GULP energy per Si atom -5587.638101 kJ/mol
# Density = 2.417413 g / cm^3
# Si number density = 24.229276 Si / 1000 Ang^3
#
#
#
# Elastic Constant Matrix: (Units=GPa)
#
#
# Indices 1 2 3 4 5 6 
#
# 1 56.6693 9.2867 4.1658 -4.9321 10.6795 -11.9553
# 2 9.2867 79.0477 21.1755 15.2039 2.1548 4.7844
# 3 4.1658 21.1755 82.8105 14.3569 17.0426 0.9586
# 4 -4.9321 15.2039 14.3569 19.6486 -4.3050 2.6781
# 5 10.6795 2.1548 17.0426 -4.3050 47.6686 0.2029
# 6 -11.9553 4.7844 0.9586 2.6781 0.2029 30.0494
#
#
#
# Elastic Compliance Matrix: (Units=1/GPa)
#
#
# Indices 1 2 3 4 5 6 
#
# 1 0.021522 -0.004145 -0.000542 0.006985 -0.003846 0.008643
# 2 -0.004145 0.016078 -0.001775 -0.011810 -0.000217 -0.003098
# 3 -0.000542 -0.001775 0.015984 -0.011978 -0.006597 0.000669
# 4 0.006985 -0.011810 -0.011978 0.072902 0.009842 -0.001522
# 5 -0.003846 -0.000217 -0.006597 0.009842 0.025107 -0.002332
# 6 0.008643 -0.003098 0.000669 -0.001522 -0.002332 0.037341
#
#
# Mechanical properties :
#
#
# Convention : Reuss Voigt Hill
#
# Bulk Modulus (GPa) = 24.59460 31.97594 28.28527
# Shear Modulus (GPa) = 23.21158 31.73328 27.47243
#
# Velocity S-wave (km/s) = 3.09851 3.62292 3.37093
# Velocity P-wave (km/s) = 4.79310 5.54316 5.18172
#
# Compressibility (1/GPa) = 0.04065933
#
# Stress axis : x y z
#
# Youngs Moduli (GPa) = 46.46514 62.19714 62.56421
#
# Poissons Ratio (x) = 0.25780 0.03392
# Poissons Ratio (y) = 0.19259 0.11104
# Poissons Ratio (z) = 0.02519 0.11039
#
# Static dielectric constant tensor:
#      x y z
#    x 1.983110 0.037530 0.014410 
#    y 0.037530 1.872210 0.028000 
#    z 0.014410 0.028000 1.869140 
# 
# From -- ./inp_files/49011.got.cif
#   From: 2010.05.17/outbox.cif.g08.bks.cpg/sg2_25_cif.got.tgz:49011.got - 2010.06.03 11:33:40.
