data_PCOD9035422
_publ_section_title
;
Structure prediction by ZEFSAII (Michael W. Deem and Ramdas Pophale) SiO2 
 PCOD9035422
Probable space group: P -1
;
_chemical_formula_sum "Si O2"
_cell_formula_units_Z 16
_cell_length_a 7.723495
_cell_length_b 7.319362
_cell_length_c 12.317055
_cell_angle_alpha 73.136235
_cell_angle_beta 89.174968
_cell_angle_gamma 60.663697
_cell_volume 574.050951
_symmetry_space_group_name_H-M "P -1"
_symmetry_group_IT_number 2
_symmetry_cell_setting 'triclinic'
loop_
_space_group_symop_operation_xyz
x,y,z
-x,-y,-z
loop_
_atom_site_type_symbol
_atom_site_label
_atom_site_fract_x
_atom_site_fract_y
_atom_site_fract_z
Si Si1 0.091628 0.864092 0.300889
Si Si2 0.172849 0.880232 0.928485
Si Si3 0.464733 0.268992 0.709096
Si Si4 0.901643 0.579889 0.605293
Si Si5 0.747566 0.559684 0.902883
Si Si6 0.223767 0.267431 0.909431
Si Si7 0.810332 0.254470 0.430269
Si Si8 0.513586 0.142864 0.339046
O O1 0.302158 0.821184 0.260341
O O2 0.067349 0.652507 0.310835
O O3 0.115647 0.855937 0.432837
O O4 0.706044 0.139683 0.387006
O O5 0.278157 0.628145 0.004993
O O6 0.278073 0.268847 0.033578
O O7 0.278267 0.023365 0.914729
O O8 0.000000 0.000000 0.000000
O O9 0.345327 0.327883 0.813132
O O10 0.373893 0.492585 0.601421
O O11 0.439823 0.087473 0.673896
O O12 0.667494 0.761257 0.588120
O O13 0.000000 0.500000 0.500000
O O14 0.021533 0.696015 0.629836
O O15 0.591442 0.677396 0.787649
O O16 0.981657 0.441500 0.882770
O O17 0.075670 0.930152 0.801344
#
# Coordination Sequence:
#
# PCOD9035422 Si02
#       8
#     2   2   2   2   2   2   2   2
#     4  11  24  49  79 111 157 205 256 323 390 460
#     4  10  22  45  77 106 145 204 262 317 381 457
#     4  12  27  45  77 116 163 199 254 328 392 468
#     4  10  23  50  82 106 157 213 256 320 388 457
#     4  10  24  48  80 108 155 206 263 324 384 466
#     4  10  24  47  76 109 152 204 264 318 390 462
#     4  11  26  52  80 112 163 205 256 328 388 467
#     4  12  27  49  79 123 157 204 262 321 397 471
#
# _framework density 27.872093
#
# number of rings (size 3 to 8) (size 9 to 14) (size 15 to 20)
#    0.000    1.250    1.250    3.375    7.000    2.000 
#    4.500    2.500   11.000    0.000    0.000    0.000 
#    0.000    0.000    0.000    0.000    0.000    0.000 
#
# Total GULP energy -89827.699634 kJ/mol
# GULP energy per Si atom -5614.231227 kJ/mol
# Density = 2.780865 g / cm^3
# Si number density = 27.872093 Si / 1000 Ang^3
#
#
#
# Elastic Constant Matrix: (Units=GPa)
#
#
# Indices 1 2 3 4 5 6 
#
# 1 179.6310 60.4888 92.0278 9.7110 -1.6463 -2.1472
# 2 60.4888 109.6564 43.4391 -11.8552 4.6302 15.3102
# 3 92.0278 43.4391 190.5482 11.7180 4.1490 4.0642
# 4 9.7110 -11.8552 11.7180 47.7118 -4.2495 -5.0929
# 5 -1.6463 4.6302 4.1490 -4.2495 54.5332 4.3232
# 6 -2.1472 15.3102 4.0642 -5.0929 4.3232 53.6408
#
#
#
# Elastic Compliance Matrix: (Units=1/GPa)
#
#
# Indices 1 2 3 4 5 6 
#
# 1 0.008656 -0.003918 -0.003225 -0.001731 0.000586 0.001498
# 2 -0.003918 0.012623 -0.001139 0.003816 -0.000547 -0.003267
# 3 -0.003225 -0.001139 0.007180 -0.001493 -0.000628 -0.000439
# 4 -0.001731 0.003816 -0.001493 0.022862 0.001439 0.001009
# 5 0.000586 -0.000547 -0.000628 0.001439 0.018652 -0.001139
# 6 0.001498 -0.003267 -0.000439 0.001009 -0.001139 0.019856
#
#
# Mechanical properties :
#
#
# Convention : Reuss Voigt Hill
#
# Bulk Modulus (GPa) = 84.06629 96.86078 90.46354
# Shear Modulus (GPa) = 45.30703 50.10248 47.70476
#
# Velocity S-wave (km/s) = 4.03617 4.24439 4.14159
# Velocity P-wave (km/s) = 7.20748 7.67119 7.44295
#
# Compressibility (1/GPa) = 0.01189537
#
# Stress axis : x y z
#
# Youngs Moduli (GPa) = 115.53304 79.21761 139.27177
#
# Poissons Ratio (x) = 0.31036 0.44921
# Poissons Ratio (y) = 0.45264 0.15858
# Poissons Ratio (z) = 0.37264 0.09020
#
# Static dielectric constant tensor:
#      x y z
#    x 2.175350 -0.023720 -0.004350 
#    y -0.023720 2.215240 -0.001490 
#    z -0.004350 -0.001490 2.178220 
# 
# From -- ./inp_files/551987.got.cif
#   From: 2010.05.17/outbox.cif.g08.bks.cpg/sg2_276_cif.got.tgz:551987.got - 2010.06.03 11:33:40.
