data_PCOD9035384
_publ_section_title
;
Structure prediction by ZEFSAII (Michael W. Deem and Ramdas Pophale) SiO2 
 PCOD9035384
Probable space group: P -1
;
_chemical_formula_sum "Si O2"
_cell_formula_units_Z 14
_cell_length_a 4.983125
_cell_length_b 16.814536
_cell_length_c 17.325485
_cell_angle_alpha 154.732216
_cell_angle_beta 100.516014
_cell_angle_gamma 85.710210
_cell_volume 594.989966
_symmetry_space_group_name_H-M "P -1"
_symmetry_group_IT_number 2
_symmetry_cell_setting 'triclinic'
loop_
_space_group_symop_operation_xyz
x,y,z
-x,-y,-z
loop_
_atom_site_type_symbol
_atom_site_label
_atom_site_fract_x
_atom_site_fract_y
_atom_site_fract_z
Si Si1 0.769256 0.394254 0.497926
Si Si2 0.181541 0.017597 0.913143
Si Si3 0.702202 0.909237 0.321463
Si Si4 0.255285 0.240791 0.256176
Si Si5 0.360188 0.280297 0.011367
Si Si6 0.055736 0.475891 0.744324
Si Si7 0.697715 0.838971 0.430135
O O1 0.786747 0.199529 0.284658
O O2 0.437007 0.369345 0.445371
O O3 0.898655 0.600436 0.649807
O O4 0.879217 0.386055 0.582233
O O5 0.873147 0.959803 0.883774
O O6 0.356011 0.160292 0.110066
O O7 0.219221 0.115140 0.918147
O O8 0.625790 0.797874 0.300274
O O9 0.554138 0.089796 0.479103
O O10 0.611975 0.793949 0.138317
O O11 0.035648 0.983407 0.400353
O O12 0.673167 0.369943 0.134186
O O13 0.155816 0.428619 0.133588
O O14 0.193803 0.327835 0.668539
#
# Coordination Sequence:
#
# PCOD9035384 Si02
#       7
#     2   2   2   2   2   2   2
#     4  11  24  42  71  95 138 187 241 304 354 428
#     4  11  24  42  71  95 138 187 241 304 354 428
#     4  10  22  45  75 105 141 188 240 289 354 433
#     4  10  24  46  66 100 130 184 254 292 368 416
#     4  12  27  44  68 106 150 186 239 298 358 428
#     4  12  27  44  68 106 150 186 239 298 358 428
#     4  10  22  45  75 105 141 188 240 289 354 433
#
# _framework density 23.529810000000001
#
# number of rings (size 3 to 8) (size 9 to 14) (size 15 to 20)
#    0.000    1.143    1.429    3.429    4.000    2.286 
#    2.571    0.000    0.000    0.000    0.000    0.000 
#    0.000    0.000    0.000    0.000    0.000    0.000 
#
# Total GULP energy -78110.851071 kJ/mol
# GULP energy per Si atom -5579.346505 kJ/mol
# Density = 2.347626 g / cm^3
# Si number density = 23.529810 Si / 1000 Ang^3
#
#
#
# Elastic Constant Matrix: (Units=GPa)
#
#
# Indices 1 2 3 4 5 6 
#
# 1 74.8127 28.1740 29.6586 -11.1096 -11.9171 -5.3550
# 2 28.1740 152.9608 88.0738 -16.4297 -15.4721 -13.6277
# 3 29.6586 88.0738 135.6355 -19.0763 -18.4464 -3.0457
# 4 -11.1096 -16.4297 -19.0763 32.4010 -2.3997 -2.7955
# 5 -11.9171 -15.4721 -18.4464 -2.3997 41.6946 4.5763
# 6 -5.3550 -13.6277 -3.0457 -2.7955 4.5763 23.9207
#
#
#
# Elastic Compliance Matrix: (Units=1/GPa)
#
#
# Indices 1 2 3 4 5 6 
#
# 1 0.015768 -0.000829 -0.001767 0.004429 0.003376 0.002705
# 2 -0.000829 0.011297 -0.006675 0.002030 0.000511 0.005540
# 3 -0.001767 -0.006675 0.012993 0.003665 0.003278 -0.002743
# 4 0.004429 0.002030 0.003665 0.036456 0.005091 0.005901
# 5 0.003376 0.000511 0.003278 0.005091 0.027227 -0.003150
# 6 0.002705 0.005540 -0.002743 0.005901 -0.003150 0.046509
#
#
# Mechanical properties :
#
#
# Convention : Reuss Voigt Hill
#
# Bulk Modulus (GPa) = 46.47472 72.80242 59.63857
# Shear Modulus (GPa) = 28.41470 34.10342 31.25906
#
# Velocity S-wave (km/s) = 3.47883 3.81119 3.64880
# Velocity P-wave (km/s) = 5.99422 7.09750 6.56906
#
# Compressibility (1/GPa) = 0.02151708
#
# Stress axis : x y z
#
# Youngs Moduli (GPa) = 63.41782 88.51910 76.96316
#
# Poissons Ratio (x) = 0.07336 0.13600
# Poissons Ratio (y) = 0.05256 0.51373
# Poissons Ratio (z) = 0.11206 0.59086
#
# Static dielectric constant tensor:
#      x y z
#    x 2.469390 0.016100 0.095130 
#    y 0.016100 1.856740 0.031180 
#    z 0.095130 0.031180 1.891530 
# 
# From -- ./inp_files/484673.got.cif
#   From: 2010.05.17/outbox.cif.g08.bks.cpg/sg2_243_cif.got.tgz:484673.got - 2010.06.03 11:33:40.
