data_PCOD9035752
_publ_section_title
;
Structure prediction by ZEFSAII (Michael W. Deem and Ramdas Pophale) SiO2 
 PCOD9035752
Probable space group: P -1
;
_chemical_formula_sum "Si O2"
_cell_formula_units_Z 16
_cell_length_a 15.389614
_cell_length_b 11.949378
_cell_length_c 8.740842
_cell_angle_alpha 76.222304
_cell_angle_beta 129.269984
_cell_angle_gamma 64.010320
_cell_volume 751.332080
_symmetry_space_group_name_H-M "P -1"
_symmetry_group_IT_number 2
_symmetry_cell_setting 'triclinic'
loop_
_space_group_symop_operation_xyz
x,y,z
-x,-y,-z
loop_
_atom_site_type_symbol
_atom_site_label
_atom_site_fract_x
_atom_site_fract_y
_atom_site_fract_z
Si Si1 0.252600 0.253796 0.004508
Si Si2 0.403490 0.916363 0.412678
Si Si3 0.025528 0.979378 0.354764
Si Si4 0.324503 0.590912 0.685409
Si Si5 0.347128 0.696813 0.350272
Si Si6 0.374828 0.277105 0.822228
Si Si7 0.235986 0.043987 0.522030
Si Si8 0.076873 0.405346 0.280097
O O1 0.395357 0.198086 0.298682
O O2 0.300404 0.080202 0.123686
O O3 0.293716 0.277064 0.879932
O O4 0.055659 0.439088 0.788916
O O5 0.407682 0.779304 0.420837
O O6 0.301962 0.013589 0.431553
O O7 0.150761 0.986992 0.449222
O O8 0.139710 0.775435 0.502362
O O9 0.000000 0.000000 0.500000
O O10 0.837066 0.145568 0.002971
O O11 0.315717 0.658268 0.488543
O O12 0.340096 0.441273 0.739107
O O13 0.500000 0.500000 0.000000
O O14 0.500000 0.500000 0.500000
O O15 0.273828 0.302518 0.558263
O O16 0.588907 0.089345 0.131675
O O17 0.096956 0.252004 0.354519
O O18 0.000000 0.500000 0.000000
#
# Coordination Sequence:
#
# PCOD9035752 Si02
#       8
#     2   2   2   2   2   2   2   2
#     4  10  23  44  69 101 134 184 228 286 340 418
#     4  10  22  46  71  97 141 181 230 286 355 411
#     4  12  28  45  71 107 140 188 239 297 360 430
#     4  12  24  49  74 102 145 186 237 294 360 430
#     4  12  28  45  74 105 139 187 241 298 363 423
#     4  11  26  45  69 100 144 187 228 283 358 417
#     4  11  24  47  69  98 144 184 230 289 354 420
#     4  12  26  41  70 103 136 179 240 290 341 409
#
# _framework density 21.295511999999999
#
# number of rings (size 3 to 8) (size 9 to 14) (size 15 to 20)
#    0.000    0.750    3.750    2.625    7.000    1.000 
#    0.000    0.000    0.000    0.000    0.000    0.000 
#    0.000    0.000    0.000    0.000    0.000    0.000 
#
# Total GULP energy -89575.428828 kJ/mol
# GULP energy per Si atom -5598.464302 kJ/mol
# Density = 2.124704 g / cm^3
# Si number density = 21.295512 Si / 1000 Ang^3
#
#
#
# Elastic Constant Matrix: (Units=GPa)
#
#
# Indices 1 2 3 4 5 6 
#
# 1 65.4305 16.4342 17.2690 -6.0924 -19.4995 10.4192
# 2 16.4342 75.6301 19.1443 -20.0982 -22.9476 5.1124
# 3 17.2690 19.1443 129.1467 -4.0715 -14.6233 -7.0383
# 4 -6.0924 -20.0982 -4.0715 41.6743 2.1822 -0.5917
# 5 -19.4995 -22.9476 -14.6233 2.1822 34.2602 -7.8415
# 6 10.4192 5.1124 -7.0383 -0.5917 -7.8415 37.6824
#
#
#
# Elastic Compliance Matrix: (Units=1/GPa)
#
#
# Indices 1 2 3 4 5 6 
#
# 1 0.019272 -0.000206 -0.001646 0.002026 0.009160 -0.003670
# 2 -0.000206 0.019466 -0.001266 0.008614 0.011779 -0.000234
# 3 -0.001646 -0.001266 0.008582 -0.000105 0.002515 0.002751
# 4 0.002026 0.008614 -0.000105 0.028169 0.005024 -0.000261
# 5 0.009160 0.011779 0.002515 0.005024 0.044337 0.005644
# 6 -0.003670 -0.000234 0.002751 -0.000261 0.005644 0.029269
#
#
# Mechanical properties :
#
#
# Convention : Reuss Voigt Hill
#
# Bulk Modulus (GPa) = 24.33841 41.76692 33.05266
# Shear Modulus (GPa) = 29.58158 37.21405 33.39781
#
# Velocity S-wave (km/s) = 3.73111 4.18485 3.96448
# Velocity P-wave (km/s) = 5.47862 6.55792 6.04241
#
# Compressibility (1/GPa) = 0.04108732
#
# Stress axis : x y z
#
# Youngs Moduli (GPa) = 51.88818 51.37103 116.51995
#
# Poissons Ratio (x) = 0.01056 0.19174
# Poissons Ratio (y) = 0.01067 0.14746
# Poissons Ratio (z) = 0.08538 0.06501
#
# Static dielectric constant tensor:
#      x y z
#    x 1.613870 -0.093910 0.003680 
#    y -0.093910 1.772490 -0.004060 
#    z 0.003680 -0.004060 1.773890 
# 
# From -- ./inp_files/188946.got.cif
#   From: 2010.05.17/outbox.cif.g08.bks.cpg/sg2_95_cif.got.tgz:188946.got - 2010.06.03 11:33:40.
