data_PCOD9035343
_publ_section_title
;
Structure prediction by ZEFSAII (Michael W. Deem and Ramdas Pophale) SiO2 
 PCOD9035343
Probable space group: P -1
;
_chemical_formula_sum "Si O2"
_cell_formula_units_Z 16
_cell_length_a 7.756501
_cell_length_b 18.530284
_cell_length_c 11.178205
_cell_angle_alpha 35.457933
_cell_angle_beta 137.006886
_cell_angle_gamma 126.520955
_cell_volume 635.555368
_symmetry_space_group_name_H-M "P -1"
_symmetry_group_IT_number 2
_symmetry_cell_setting 'triclinic'
loop_
_space_group_symop_operation_xyz
x,y,z
-x,-y,-z
loop_
_atom_site_type_symbol
_atom_site_label
_atom_site_fract_x
_atom_site_fract_y
_atom_site_fract_z
Si Si1 0.137602 0.375720 0.272137
Si Si2 0.327256 0.547116 0.655692
Si Si3 0.856788 0.151118 0.472933
Si Si4 0.646854 0.719661 0.863704
Si Si5 0.733016 0.962614 0.469247
Si Si6 0.963293 0.767258 0.187772
Si Si7 0.276810 0.415604 0.556612
Si Si8 0.691572 0.992808 0.991065
O O1 0.412162 0.387713 0.337420
O O2 0.134682 0.384349 0.403296
O O3 0.987919 0.254902 0.316928
O O4 0.000000 0.500000 0.000000
O O5 0.152521 0.655598 0.471498
O O6 0.225265 0.496146 0.543772
O O7 0.358955 0.430070 0.920393
O O8 0.624750 0.225195 0.311869
O O9 0.747574 0.030589 0.513440
O O10 0.091069 0.107637 0.733366
O O11 0.708096 0.813120 0.660624
O O12 0.869882 0.754984 0.021532
O O13 0.500017 0.018141 0.201529
O O14 0.000000 0.000000 0.500000
O O15 0.131544 0.889234 0.111292
O O16 0.710538 0.723321 0.190760
O O17 0.500000 0.500000 0.500000
O O18 0.500000 0.000000 0.000000
#
# Coordination Sequence:
#
# PCOD9035343 Si02
#       8
#     2   2   2   2   2   2   2   2
#     4  11  23  45  67 102 146 180 238 301 355 427
#     4  10  22  45  74 104 145 190 237 301 361 426
#     4  12  26  48  74 105 149 186 239 302 355 434
#     4  11  23  46  71 106 145 183 243 294 361 428
#     4  12  27  49  75 105 141 195 240 298 367 424
#     4  11  23  45  75 105 150 191 242 301 359 432
#     4   9  21  41  67 103 137 184 235 287 362 422
#     4  12  26  48  72 107 147 187 248 296 356 435
#
# _framework density 25.174831000000001
#
# number of rings (size 3 to 8) (size 9 to 14) (size 15 to 20)
#    0.000    1.000    3.750    2.625    1.750    2.500 
#    9.000    1.250    0.000    0.000    0.000    0.000 
#    0.000    0.000    0.000    0.000    0.000    0.000 
#
# Total GULP energy -89240.247814 kJ/mol
# GULP energy per Si atom -5577.515488 kJ/mol
# Density = 2.511753 g / cm^3
# Si number density = 25.174831 Si / 1000 Ang^3
#
#
#
# Elastic Constant Matrix: (Units=GPa)
#
#
# Indices 1 2 3 4 5 6 
#
# 1 95.9513 49.1574 44.3736 -24.8149 -4.9269 34.5793
# 2 49.1574 128.4961 40.1010 -6.2474 -1.8720 14.6200
# 3 44.3736 40.1010 157.0176 -24.6303 13.3080 -3.9411
# 4 -24.8149 -6.2474 -24.6303 53.2454 13.0191 -9.8772
# 5 -4.9269 -1.8720 13.3080 13.0191 35.2123 2.6697
# 6 34.5793 14.6200 -3.9411 -9.8772 2.6697 43.6664
#
#
#
# Elastic Compliance Matrix: (Units=1/GPa)
#
#
# Indices 1 2 3 4 5 6 
#
# 1 0.022210 -0.004758 -0.005401 0.003095 0.004972 -0.016087
# 2 -0.004758 0.010086 -0.001703 -0.002219 0.001361 -0.000348
# 3 -0.005401 -0.001703 0.009868 0.004892 -0.006935 0.007269
# 4 0.003095 -0.002219 0.004892 0.026043 -0.011567 0.005332
# 5 0.004972 0.001361 -0.006935 -0.011567 0.036815 -0.009886
# 6 -0.016087 -0.000348 0.007269 0.005332 -0.009886 0.038223
#
#
# Mechanical properties :
#
#
# Convention : Reuss Voigt Hill
#
# Bulk Modulus (GPa) = 54.23448 72.08100 63.15774
# Shear Modulus (GPa) = 28.88236 42.94702 35.91469
#
# Velocity S-wave (km/s) = 3.39081 4.13480 3.78115
# Velocity P-wave (km/s) = 6.07619 7.17563 6.64868
#
# Compressibility (1/GPa) = 0.01843846
#
# Stress axis : x y z
#
# Youngs Moduli (GPa) = 45.02376 99.15068 101.34015
#
# Poissons Ratio (x) = 0.47176 0.54737
# Poissons Ratio (y) = 0.21422 0.17263
# Poissons Ratio (z) = 0.24319 0.16890
#
# Static dielectric constant tensor:
#      x y z
#    x 2.184420 0.016150 0.007060 
#    y 0.016150 2.100810 0.009790 
#    z 0.007060 0.009790 1.940270 
# 
# From -- ./inp_files/405348.got.cif
#   From: 2010.05.17/outbox.cif.g08.bks.cpg/sg2_203_cif.got.tgz:405348.got - 2010.06.03 11:33:40.
