data_PCOD9035641
_publ_section_title
;
Structure prediction by ZEFSAII (Michael W. Deem and Ramdas Pophale) SiO2 
 PCOD9035641
Probable space group: P -1
;
_chemical_formula_sum "Si O2"
_cell_formula_units_Z 16
_cell_length_a 11.264413
_cell_length_b 12.083445
_cell_length_c 8.142840
_cell_angle_alpha 49.930588
_cell_angle_beta 59.134741
_cell_angle_gamma 52.255345
_cell_volume 657.603447
_symmetry_space_group_name_H-M "P -1"
_symmetry_group_IT_number 2
_symmetry_cell_setting 'triclinic'
loop_
_space_group_symop_operation_xyz
x,y,z
-x,-y,-z
loop_
_atom_site_type_symbol
_atom_site_label
_atom_site_fract_x
_atom_site_fract_y
_atom_site_fract_z
Si Si1 0.066656 0.844039 0.984372
Si Si2 0.342158 0.246940 0.413275
Si Si3 0.162002 0.150071 0.134888
Si Si4 0.363974 0.828905 0.170013
Si Si5 0.687327 0.063609 0.279047
Si Si6 0.130331 0.542492 0.438615
Si Si7 0.294103 0.384305 0.949369
Si Si8 0.875513 0.290192 0.396311
O O1 0.200155 0.874700 0.771771
O O2 0.934015 0.835819 0.976081
O O3 0.139967 0.682503 0.190335
O O4 0.000000 0.000000 0.000000
O O5 0.522065 0.140207 0.407441
O O6 0.281507 0.378817 0.471041
O O7 0.261475 0.126316 0.580614
O O8 0.313074 0.334873 0.174334
O O9 0.036595 0.154393 0.352877
O O10 0.319497 0.991487 0.151339
O O11 0.199931 0.296911 0.014168
O O12 0.537490 0.694013 0.178870
O O13 0.241561 0.769555 0.383065
O O14 0.335185 0.876782 0.951571
O O15 0.090209 0.608544 0.584540
O O16 0.000000 0.500000 0.500000
O O17 0.209227 0.575425 0.809482
#
# Coordination Sequence:
#
# PCOD9035641 Si02
#       8
#     2   2   2   2   2   2   2   2
#     4  12  23  43  70  99 138 178 233 282 341 408
#     4  10  24  45  72  97 138 182 234 284 344 414
#     4  12  25  44  70 103 138 188 228 281 350 419
#     4  11  24  46  71 102 138 182 232 289 346 415
#     4  10  22  46  70 101 132 182 236 287 341 408
#     4  12  24  41  70 104 136 185 229 285 345 410
#     4  11  25  47  69 102 142 180 228 287 355 417
#     4  12  25  45  69 105 143 179 234 283 352 415
#
# _framework density 24.330770999999999
#
# number of rings (size 3 to 8) (size 9 to 14) (size 15 to 20)
#    0.000    0.750    2.500    4.500    1.750    2.500 
#    6.750    0.000    0.000    0.000    0.000    0.000 
#    0.000    0.000    0.000    0.000    0.000    0.000 
#
# Total GULP energy -89630.803042 kJ/mol
# GULP energy per Si atom -5601.925190 kJ/mol
# Density = 2.427539 g / cm^3
# Si number density = 24.330771 Si / 1000 Ang^3
#
#
#
# Elastic Constant Matrix: (Units=GPa)
#
#
# Indices 1 2 3 4 5 6 
#
# 1 42.1816 4.2534 1.1871 12.1292 -7.8091 -7.7592
# 2 4.2534 116.4549 7.0368 6.0259 -2.7340 -6.9545
# 3 1.1871 7.0368 78.3581 -8.1144 -7.5518 -7.9982
# 4 12.1292 6.0259 -8.1144 40.6820 -3.6460 -2.1772
# 5 -7.8091 -2.7340 -7.5518 -3.6460 38.2730 6.6538
# 6 -7.7592 -6.9545 -7.9982 -2.1772 6.6538 32.0411
#
#
#
# Elastic Compliance Matrix: (Units=1/GPa)
#
#
# Indices 1 2 3 4 5 6 
#
# 1 0.027620 -0.000192 -0.000277 -0.007629 0.003929 0.005243
# 2 -0.000192 0.008803 -0.000758 -0.001310 0.000041 0.001577
# 3 -0.000277 -0.000758 0.013705 0.003300 0.002401 0.002915
# 4 -0.007629 -0.001310 0.003300 0.027865 0.001612 0.000251
# 5 0.003929 0.000041 0.002401 0.001612 0.028291 -0.004206
# 6 0.005243 0.001577 0.002915 0.000251 -0.004206 0.034440
#
#
# Mechanical properties :
#
#
# Convention : Reuss Voigt Hill
#
# Bulk Modulus (GPa) = 20.97660 29.10548 25.04104
# Shear Modulus (GPa) = 31.43272 37.16705 34.29989
#
# Velocity S-wave (km/s) = 3.59819 3.91266 3.75871
# Velocity P-wave (km/s) = 5.08948 5.69212 5.39921
#
# Compressibility (1/GPa) = 0.04767218
#
# Stress axis : x y z
#
# Youngs Moduli (GPa) = 36.20605 113.60049 72.96689
#
# Poissons Ratio (x) = 0.02180 0.02024
# Poissons Ratio (y) = 0.00695 0.05533
# Poissons Ratio (z) = 0.01004 0.08614
#
# Static dielectric constant tensor:
#      x y z
#    x 1.950790 -0.028210 0.009700 
#    y -0.028210 1.947240 0.025580 
#    z 0.009700 0.025580 1.954940 
# 
# From -- ./inp_files/261490.got.cif
#   From: 2010.05.17/outbox.cif.g08.bks.cpg/sg2_131_cif.got.tgz:261490.got - 2010.06.03 11:33:40.
