data_PCOD9035310
_publ_section_title
;
Structure prediction by ZEFSAII (Michael W. Deem and Ramdas Pophale) SiO2 
 PCOD9035310
Probable space group: P -1
;
_chemical_formula_sum "Si O2"
_cell_formula_units_Z 15
_cell_length_a 4.959085
_cell_length_b 22.585869
_cell_length_c 5.427785
_cell_angle_alpha 104.097906
_cell_angle_beta 97.152711
_cell_angle_gamma 78.393130
_cell_volume 575.745467
_symmetry_space_group_name_H-M "P -1"
_symmetry_group_IT_number 2
_symmetry_cell_setting 'triclinic'
loop_
_space_group_symop_operation_xyz
x,y,z
-x,-y,-z
loop_
_atom_site_type_symbol
_atom_site_label
_atom_site_fract_x
_atom_site_fract_y
_atom_site_fract_z
Si Si1 0.500000 0.000000 0.500000
Si Si2 0.337626 0.838242 0.999858
Si Si3 0.823974 0.784579 0.357001
Si Si4 0.030045 0.901008 0.431680
Si Si5 0.956870 0.272155 0.190896
Si Si6 0.752282 0.520083 0.803552
Si Si7 0.308797 0.965499 0.891517
Si Si8 0.194580 0.583349 0.681927
O O1 0.255542 0.059676 0.488501
O O2 0.497594 0.016200 0.829270
O O3 0.548839 0.823498 0.240036
O O4 0.402855 0.889234 0.869228
O O5 0.065763 0.879554 0.133068
O O6 0.271671 0.771842 0.855527
O O7 0.023614 0.834365 0.483219
O O8 0.825539 0.749540 0.582788
O O9 0.935448 0.740559 0.091727
O O10 0.233166 0.950399 0.561858
O O11 0.834922 0.343943 0.280357
O O12 0.447166 0.556666 0.870297
O O13 0.719850 0.457878 0.591644
O O14 0.897173 0.566722 0.699640
O O15 0.000000 0.500000 0.000000
O O16 0.000000 0.000000 0.000000
#
# Coordination Sequence:
#
# PCOD9035310 Si02
#       8
#     1   2   2   2   2   2   2   2
#     4  12  28  42  70 100 134 180 240 306 390 470
#     4  11  27  48  74 101 144 195 246 318 387 476
#     4  11  26  48  76 107 149 198 248 324 387 460
#     4  11  25  48  66 103 140 181 245 307 393 460
#     4  11  27  47  75 115 149 201 263 316 387 462
#     4  10  22  45  73 112 165 213 259 324 387 448
#     4  12  25  44  70 101 137 181 238 305 385 467
#     4  10  24  43  72 117 156 210 269 320 383 464
#
# _framework density 26.053180000000001
#
# number of rings (size 3 to 8) (size 9 to 14) (size 15 to 20)
#    0.000    1.067    1.333    3.200    7.467    2.133 
#    0.000    0.000    0.000    0.000    0.000    0.000 
#    0.000    0.000    0.000    0.000    0.000    0.000 
#
# Total GULP energy -83660.532324 kJ/mol
# GULP energy per Si atom -5577.368822 kJ/mol
# Density = 2.599388 g / cm^3
# Si number density = 26.053180 Si / 1000 Ang^3
#
#
#
# Elastic Constant Matrix: (Units=GPa)
#
#
# Indices 1 2 3 4 5 6 
#
# 1 132.3723 34.0077 21.0522 17.6306 3.3588 -1.8689
# 2 34.0077 187.1039 67.6891 40.3957 8.0166 15.0274
# 3 21.0522 67.6891 137.8224 1.3482 -2.4460 19.9240
# 4 17.6306 40.3957 1.3482 36.6246 6.1554 4.2704
# 5 3.3588 8.0166 -2.4460 6.1554 40.3445 0.9408
# 6 -1.8689 15.0274 19.9240 4.2704 0.9408 23.7933
#
#
#
# Elastic Compliance Matrix: (Units=1/GPa)
#
#
# Indices 1 2 3 4 5 6 
#
# 1 0.008452 -0.000380 -0.001482 -0.003895 -0.000190 0.002851
# 2 -0.000380 0.009063 -0.004242 -0.009507 -0.000565 -0.000473
# 3 -0.001482 -0.004242 0.010590 0.005708 0.000909 -0.007366
# 4 -0.003895 -0.009507 0.005708 0.040776 -0.003516 -0.006261
# 5 -0.000190 -0.000565 0.000909 -0.003516 0.025525 -0.000798
# 6 0.002851 -0.000473 -0.007366 -0.006261 -0.000798 0.049875
#
#
# Mechanical properties :
#
#
# Convention : Reuss Voigt Hill
#
# Bulk Modulus (GPa) = 62.90032 78.08851 70.49441
# Shear Modulus (GPa) = 30.90484 42.45579 36.68031
#
# Velocity S-wave (km/s) = 3.44789 4.04119 3.75627
# Velocity P-wave (km/s) = 6.32820 7.19811 6.77712
#
# Compressibility (1/GPa) = 0.01589817
#
# Stress axis : x y z
#
# Youngs Moduli (GPa) = 118.32031 110.33877 94.42459
#
# Poissons Ratio (x) = 0.04192 0.13992
# Poissons Ratio (y) = 0.04495 0.40052
# Poissons Ratio (z) = 0.17533 0.46803
#
# Static dielectric constant tensor:
#      x y z
#    x -7.177440 -6.971140 3.457280 
#    y -6.971140 -3.178300 2.419850 
#    z 3.457280 2.419850 0.923840 
# 
# From -- ./inp_files/9552.got.cif
#   From: 2010.05.17/outbox.cif.g08.bks.cpg/sg2_5_cif.got.tgz:9552.got - 2010.06.03 11:33:40.
