data_PCOD9035344
_publ_section_title
;
Structure prediction by ZEFSAII (Michael W. Deem and Ramdas Pophale) SiO2 
 PCOD9035344
Probable space group: P -1
;
_chemical_formula_sum "Si O2"
_cell_formula_units_Z 10
_cell_length_a 10.735932
_cell_length_b 8.325015
_cell_length_c 4.969061
_cell_angle_alpha 62.513041
_cell_angle_beta 99.820304
_cell_angle_gamma 112.099212
_cell_volume 365.037676
_symmetry_space_group_name_H-M "P -1"
_symmetry_group_IT_number 2
_symmetry_cell_setting 'triclinic'
loop_
_space_group_symop_operation_xyz
x,y,z
-x,-y,-z
loop_
_atom_site_type_symbol
_atom_site_label
_atom_site_fract_x
_atom_site_fract_y
_atom_site_fract_z
Si Si1 0.359430 0.377022 0.675114
Si Si2 0.994419 0.759211 0.466292
Si Si3 0.833216 0.803164 0.842819
Si Si4 0.645866 0.029986 0.163751
Si Si5 0.753238 0.281730 0.520684
O O1 0.500000 0.500000 0.500000
O O2 0.296706 0.546807 0.547291
O O3 0.328250 0.173151 0.661544
O O4 0.319147 0.286925 0.032333
O O5 0.094042 0.639455 0.585739
O O6 0.883343 0.698173 0.704839
O O7 0.105604 0.972877 0.390829
O O8 0.918369 0.784901 0.151481
O O9 0.662374 0.147078 0.357306
O O10 0.749613 0.159767 0.883210
O O11 0.500000 0.000000 0.000000
#
# Coordination Sequence:
#
# PCOD9035344 Si02
#       5
#     2   2   2   2   2
#     4  12  28  48  78 114 148 200 250 305 373 450
#     4  10  22  45  74 104 146 196 241 305 370 428
#     4  10  23  43  74 106 146 193 246 301 366 441
#     4  12  27  50  72 109 156 196 245 306 369 445
#     4  12  27  48  78 110 148 196 249 307 375 437
#
# _framework density 27.394431999999998
#
# number of rings (size 3 to 8) (size 9 to 14) (size 15 to 20)
#    0.000    0.800    4.000    1.800    5.600    5.600 
#    0.000    0.000    0.000    0.000    0.000    0.000 
#    0.000    0.000    0.000    0.000    0.000    0.000 
#
# Total GULP energy -55935.811965 kJ/mol
# GULP energy per Si atom -5593.581196 kJ/mol
# Density = 2.733208 g / cm^3
# Si number density = 27.394432 Si / 1000 Ang^3
#
#
#
# Elastic Constant Matrix: (Units=GPa)
#
#
# Indices 1 2 3 4 5 6 
#
# 1 167.9854 72.4487 27.1289 9.1472 -29.6482 -38.1665
# 2 72.4487 225.6795 84.2741 -4.9878 -0.1268 -18.5493
# 3 27.1289 84.2741 147.8717 7.1704 -35.5768 -8.0556
# 4 9.1472 -4.9878 7.1704 57.5210 -3.2956 5.9765
# 5 -29.6482 -0.1268 -35.5768 -3.2956 54.7252 -0.4037
# 6 -38.1665 -18.5493 -8.0556 5.9765 -0.4037 45.8029
#
#
#
# Elastic Compliance Matrix: (Units=1/GPa)
#
#
# Indices 1 2 3 4 5 6 
#
# 1 0.010330 -0.003626 0.002437 -0.002685 0.007070 0.007981
# 2 -0.003626 0.007356 -0.004880 0.001655 -0.005029 -0.001161
# 3 0.002437 -0.004880 0.011397 -0.001986 0.008616 0.002394
# 4 -0.002685 0.001655 -0.001986 0.018560 -0.001657 -0.004353
# 5 0.007070 -0.005029 0.008616 -0.001657 0.027636 0.005829
# 6 0.007981 -0.001161 0.002394 -0.004353 0.005829 0.029053
#
#
# Mechanical properties :
#
#
# Convention : Reuss Voigt Hill
#
# Bulk Modulus (GPa) = 59.01651 101.02669 80.02160
# Shear Modulus (GPa) = 40.94381 55.45547 48.19964
#
# Velocity S-wave (km/s) = 3.87020 4.50414 4.19915
# Velocity P-wave (km/s) = 6.44681 8.00052 7.26532
#
# Compressibility (1/GPa) = 0.01694441
#
# Stress axis : x y z
#
# Youngs Moduli (GPa) = 96.80320 135.94719 87.74568
#
# Poissons Ratio (x) = 0.49290 -0.21384
# Poissons Ratio (y) = 0.35098 0.42823
# Poissons Ratio (z) = -0.23591 0.66348
#
# Static dielectric constant tensor:
#      x y z
#    x 2.263230 -0.002090 0.036180 
#    y -0.002090 2.267610 0.006570 
#    z 0.036180 0.006570 2.166920 
# 
# From -- ./inp_files/58196.got.cif
#   From: 2010.05.17/outbox.cif.g08.bks.cpg/sg2_30_cif.got.tgz:58196.got - 2010.06.03 11:33:40.
