data_PCOD9035087
_publ_section_title
;
Structure prediction by ZEFSAII (Michael W. Deem and Ramdas Pophale) SiO2 
 PCOD9035087
Probable space group: P -1
;
_chemical_formula_sum "Si O2"
_cell_formula_units_Z 14
_cell_length_a 14.510573
_cell_length_b 8.541861
_cell_length_c 9.157214
_cell_angle_alpha 146.271114
_cell_angle_beta 102.918941
_cell_angle_gamma 70.415268
_cell_volume 590.454809
_symmetry_space_group_name_H-M "P -1"
_symmetry_group_IT_number 2
_symmetry_cell_setting 'triclinic'
loop_
_space_group_symop_operation_xyz
x,y,z
-x,-y,-z
loop_
_atom_site_type_symbol
_atom_site_label
_atom_site_fract_x
_atom_site_fract_y
_atom_site_fract_z
Si Si1 0.907905 0.951501 0.840441
Si Si2 0.109383 0.299382 0.081542
Si Si3 0.396266 0.495552 0.525516
Si Si4 0.792602 0.205395 0.484656
Si Si5 0.696707 0.381250 0.106262
Si Si6 0.596389 0.980127 0.615069
Si Si7 0.063492 0.197131 0.597739
O O1 0.876725 0.719121 0.753454
O O2 0.936325 0.839979 0.603300
O O3 0.810897 0.221174 0.009974
O O4 0.000000 0.000000 0.000000
O O5 0.169176 0.526563 0.233306
O O6 0.995875 0.464679 0.132012
O O7 0.149866 0.978971 0.778069
O O8 0.500000 0.500000 0.500000
O O9 0.316627 0.637276 0.483918
O O10 0.350225 0.670630 0.793200
O O11 0.410209 0.168187 0.343184
O O12 0.828047 0.942403 0.409339
O O13 0.679027 0.727292 0.368137
O O14 0.632773 0.265855 0.874566
O O15 0.500000 0.000000 0.500000
O O16 0.000000 0.000000 0.500000
#
# Coordination Sequence:
#
# PCOD9035087 Si02
#       7
#     2   2   2   2   2   2   2
#     4  12  24  43  72 100 137 187 231 273 336 408
#     4  11  22  44  68  94 134 179 228 273 334 397
#     4  10  24  43  71  98 133 176 224 274 352 396
#     4  11  23  45  65  97 140 175 219 290 328 405
#     4  10  24  43  70  99 137 175 227 275 338 401
#     4  10  22  45  71 100 136 170 228 285 335 400
#     4  10  24  40  64  98 134 173 227 274 334 388
#
# _framework density 23.710535
#
# number of rings (size 3 to 8) (size 9 to 14) (size 15 to 20)
#    0.857    0.571    1.429    3.857    0.000    4.000 
#    0.000    1.429    0.000    0.000    0.000    0.000 
#    0.000    0.000    0.000    0.000    0.000    0.000 
#
# Total GULP energy -78088.578987 kJ/mol
# GULP energy per Si atom -5577.755642 kJ/mol
# Density = 2.365657 g / cm^3
# Si number density = 23.710535 Si / 1000 Ang^3
#
#
#
# Elastic Constant Matrix: (Units=GPa)
#
#
# Indices 1 2 3 4 5 6 
#
# 1 93.0576 14.2430 18.0370 -7.3475 -16.3046 -21.2539
# 2 14.2430 96.2564 -5.2261 -14.6787 -11.1607 -27.2712
# 3 18.0370 -5.2261 63.6437 -20.9757 -2.7077 3.2687
# 4 -7.3475 -14.6787 -20.9757 37.4562 -6.2850 1.7805
# 5 -16.3046 -11.1607 -2.7077 -6.2850 28.6506 3.7253
# 6 -21.2539 -27.2712 3.2687 1.7805 3.7253 43.3203
#
#
#
# Elastic Compliance Matrix: (Units=1/GPa)
#
#
# Indices 1 2 3 4 5 6 
#
# 1 0.014434 0.000999 -0.003258 0.002380 0.007884 0.007180
# 2 0.000999 0.015237 0.003893 0.009234 0.007761 0.008741
# 3 -0.003258 0.003893 0.021908 0.014090 0.005060 -0.001815
# 4 0.002380 0.009234 0.014090 0.041034 0.014901 0.002949
# 5 0.007884 0.007761 0.005060 0.014901 0.045662 0.003833
# 6 0.007180 0.008741 -0.001815 0.002949 0.003833 0.031796
#
#
# Mechanical properties :
#
#
# Convention : Reuss Voigt Hill
#
# Bulk Modulus (GPa) = 18.23285 34.11838 26.17562
# Shear Modulus (GPa) = 27.01470 36.94566 31.98018
#
# Velocity S-wave (km/s) = 3.37909 3.95168 3.67655
# Velocity P-wave (km/s) = 4.78861 5.93648 5.39317
#
# Compressibility (1/GPa) = 0.05484605
#
# Stress axis : x y z
#
# Youngs Moduli (GPa) = 69.28225 65.62946 45.64608
#
# Poissons Ratio (x) = -0.06554 0.14869
# Poissons Ratio (y) = -0.06919 -0.17768
# Poissons Ratio (z) = 0.22569 -0.25547
#
# Static dielectric constant tensor:
#      x y z
#    x 1.935610 0.032980 -0.009670 
#    y 0.032980 1.997610 -0.007960 
#    z -0.009670 -0.007960 1.900100 
# 
# From -- ./inp_files/329681.got.cif
#   From: 2010.05.17/outbox.cif.g08.bks.cpg/sg2_165_cif.got.tgz:329681.got - 2010.06.03 11:33:40.
