data_PCOD9035521
_publ_section_title
;
Structure prediction by ZEFSAII (Michael W. Deem and Ramdas Pophale) SiO2 
 PCOD9035521
Probable space group: P -1
;
_chemical_formula_sum "Si O2"
_cell_formula_units_Z 15
_cell_length_a 12.580832
_cell_length_b 5.134411
_cell_length_c 12.673693
_cell_angle_alpha 91.975377
_cell_angle_beta 52.757175
_cell_angle_gamma 109.946621
_cell_volume 596.220798
_symmetry_space_group_name_H-M "P -1"
_symmetry_group_IT_number 2
_symmetry_cell_setting 'triclinic'
loop_
_space_group_symop_operation_xyz
x,y,z
-x,-y,-z
loop_
_atom_site_type_symbol
_atom_site_label
_atom_site_fract_x
_atom_site_fract_y
_atom_site_fract_z
Si Si1 0.232362 0.090979 0.659564
Si Si2 0.500000 0.500000 0.000000
Si Si3 0.026355 0.284259 0.059127
Si Si4 0.077101 0.296533 0.587680
Si Si5 0.228245 0.112942 0.296133
Si Si6 0.575769 0.712704 0.245323
Si Si7 0.348461 0.721891 0.926115
Si Si8 0.698555 0.170678 0.573299
O O1 0.331505 0.034975 0.510782
O O2 0.096027 0.818173 0.779749
O O3 0.157458 0.270656 0.645793
O O4 0.326715 0.206965 0.708376
O O5 0.651752 0.652580 0.842226
O O6 0.426207 0.700418 0.986427
O O7 0.183603 0.475180 0.017388
O O8 0.000000 0.500000 0.000000
O O9 0.000000 0.000000 0.000000
O O10 0.151316 0.213243 0.439812
O O11 0.129291 0.629668 0.540710
O O12 0.907377 0.104637 0.691962
O O13 0.308767 0.946635 0.307875
O O14 0.576995 0.417849 0.203482
O O15 0.413892 0.682824 0.364756
O O16 0.636110 0.967004 0.122077
#
# Coordination Sequence:
#
# PCOD9035521 Si02
#       8
#     2   1   2   2   2   2   2   2
#     4  11  25  42  71 106 140 191 241 294 373 437
#     4  12  24  46  76 102 148 184 258 298 376 432
#     4  12  24  46  72 103 149 192 240 297 365 439
#     4  10  23  43  72  99 145 190 245 299 368 443
#     4  10  22  46  67 105 140 190 244 311 363 436
#     4  12  26  47  72 104 150 187 238 303 366 433
#     4  12  26  48  73 106 145 194 239 303 370 438
#     4  11  24  43  71 106 140 192 244 302 363 445
#
# _framework density 25.158465
#
# number of rings (size 3 to 8) (size 9 to 14) (size 15 to 20)
#    0.000    0.800    4.000    2.400    5.600    1.067 
#    4.800    0.000    0.000    0.000    0.000    0.000 
#    0.000    0.000    0.000    0.000    0.000    0.000 
#
# Total GULP energy -83649.052143 kJ/mol
# GULP energy per Si atom -5576.603476 kJ/mol
# Density = 2.510120 g / cm^3
# Si number density = 25.158465 Si / 1000 Ang^3
#
#
#
# Elastic Constant Matrix: (Units=GPa)
#
#
# Indices 1 2 3 4 5 6 
#
# 1 140.4584 8.1814 46.4277 -14.6148 0.4349 13.3270
# 2 8.1814 45.3171 18.5609 -15.0555 -1.0060 -6.1527
# 3 46.4277 18.5609 155.5567 -39.8454 1.6561 -2.5318
# 4 -14.6148 -15.0555 -39.8454 34.8878 -7.7496 -6.6625
# 5 0.4349 -1.0060 1.6561 -7.7496 46.1610 -11.1812
# 6 13.3270 -6.1527 -2.5318 -6.6625 -11.1812 24.8152
#
#
#
# Elastic Compliance Matrix: (Units=1/GPa)
#
#
# Indices 1 2 3 4 5 6 
#
# 1 0.008701 -0.002272 -0.003148 -0.002839 -0.002274 -0.007344
# 2 -0.002272 0.031086 0.002511 0.020808 0.008621 0.018655
# 3 -0.003148 0.002511 0.011092 0.015286 0.004581 0.009613
# 4 -0.002839 0.020808 0.015286 0.064681 0.019076 0.034204
# 5 -0.002274 0.008621 0.004581 0.019076 0.030395 0.022643
# 6 -0.007344 0.018655 0.009613 0.034204 0.022643 0.069234
#
#
# Mechanical properties :
#
#
# Convention : Reuss Voigt Hill
#
# Bulk Modulus (GPa) = 22.19321 54.18580 38.18950
# Shear Modulus (GPa) = 21.18394 39.05027 30.11710
#
# Velocity S-wave (km/s) = 2.90491 3.94404 3.46366
# Velocity P-wave (km/s) = 4.48239 6.50578 5.58645
#
# Compressibility (1/GPa) = 0.04505884
#
# Stress axis : x y z
#
# Youngs Moduli (GPa) = 114.92860 32.16921 90.15700
#
# Poissons Ratio (x) = 0.07310 0.28385
# Poissons Ratio (y) = 0.26114 -0.22636
# Poissons Ratio (z) = 0.36184 -0.08077
#
# Static dielectric constant tensor:
#      x y z
#    x 1.951430 0.053820 -0.043860 
#    y 0.053820 2.087630 0.010150 
#    z -0.043860 0.010150 2.019000 
# 
# From -- ./inp_files/66296.got.cif
#   From: 2010.05.17/outbox.cif.g08.bks.cpg/sg2_34_cif.got.tgz:66296.got - 2010.06.03 11:33:40.
