data_PCOD9035348
_publ_section_title
;
Structure prediction by ZEFSAII (Michael W. Deem and Ramdas Pophale) SiO2 
 PCOD9035348
Probable space group: P -1
;
_chemical_formula_sum "Si O2"
_cell_formula_units_Z 16
_cell_length_a 8.363078
_cell_length_b 14.777284
_cell_length_c 11.085511
_cell_angle_alpha 135.891046
_cell_angle_beta 52.833014
_cell_angle_gamma 95.132147
_cell_volume 595.700710
_symmetry_space_group_name_H-M "P -1"
_symmetry_group_IT_number 2
_symmetry_cell_setting 'triclinic'
loop_
_space_group_symop_operation_xyz
x,y,z
-x,-y,-z
loop_
_atom_site_type_symbol
_atom_site_label
_atom_site_fract_x
_atom_site_fract_y
_atom_site_fract_z
Si Si1 0.100941 0.634397 0.811412
Si Si2 0.381670 0.271129 0.790289
Si Si3 0.201729 0.605971 0.266951
Si Si4 0.589719 0.687031 0.810220
Si Si5 0.054481 0.208761 0.197179
Si Si6 0.725568 0.599467 0.286439
Si Si7 0.804371 0.166021 0.673846
Si Si8 0.417984 0.899250 0.878154
O O1 0.214032 0.482966 0.514851
O O2 0.273394 0.528322 0.749365
O O3 0.080146 0.756285 0.836507
O O4 0.818952 0.762970 0.127716
O O5 0.446300 0.298939 0.655017
O O6 0.639465 0.156685 0.638801
O O7 0.181815 0.460915 0.116636
O O8 0.076945 0.757838 0.375721
O O9 0.125975 0.673251 0.499170
O O10 0.500000 0.500000 0.000000
O O11 0.737864 0.753587 0.863274
O O12 0.385507 0.817551 0.928049
O O13 0.419970 0.696224 0.002007
O O14 0.197851 0.025385 0.007147
O O15 0.650608 0.743538 0.549355
O O16 0.000000 0.500000 0.000000
O O17 0.000000 0.000000 0.500000
O O18 0.500000 0.000000 0.000000
#
# Coordination Sequence:
#
# PCOD9035348 Si02
#       8
#     2   2   2   2   2   2   2   2
#     4  10  17  32  58  86 107 152 195 246 288 355
#     4  10  19  37  56  80 121 156 194 242 303 359
#     4  10  21  34  57  86 118 154 197 246 297 350
#     4  10  18  33  58  82 118 149 198 244 298 344
#     4  11  18  32  58  86 116 146 201 255 292 337
#     4   9  20  36  56  85 124 161 189 241 315 357
#     4  11  22  36  54  86 121 159 198 245 299 354
#     4   9  20  33  55  88 121 154 192 247 295 349
#
# _framework density 26.859123
#
# number of rings (size 3 to 8) (size 9 to 14) (size 15 to 20)
#    0.000    2.000    2.500    2.625    1.750    0.000 
#    0.000    3.750    0.000   24.000    0.000    0.000 
#    0.000    0.000    0.000    0.000    0.000    0.000 
#
# Total GULP energy -89264.488347 kJ/mol
# GULP energy per Si atom -5579.030522 kJ/mol
# Density = 2.679799 g / cm^3
# Si number density = 26.859123 Si / 1000 Ang^3
#
#
#
# Elastic Constant Matrix: (Units=GPa)
#
#
# Indices 1 2 3 4 5 6 
#
# 1 74.6224 38.7677 24.9268 -0.0269 -3.7009 -28.5791
# 2 38.7677 221.6126 47.3849 -5.1011 -5.3877 -66.0353
# 3 24.9268 47.3849 96.4905 -4.9484 3.9695 -13.3089
# 4 -0.0269 -5.1011 -4.9484 62.5148 -11.4469 -8.3356
# 5 -3.7009 -5.3877 3.9695 -11.4469 26.9113 6.1198
# 6 -28.5791 -66.0353 -13.3089 -8.3356 6.1198 44.3203
#
#
#
# Elastic Compliance Matrix: (Units=1/GPa)
#
#
# Indices 1 2 3 4 5 6 
#
# 1 0.019199 0.001684 -0.003814 0.001920 0.001186 0.013941
# 2 0.001684 0.009147 -0.002841 0.002480 0.000288 0.014288
# 3 -0.003814 -0.002841 0.012477 -0.000026 -0.002347 -0.002626
# 4 0.001920 0.002480 -0.000026 0.018457 0.006923 0.007441
# 5 0.001186 0.000288 -0.002347 0.006923 0.041569 -0.003949
# 6 0.013941 0.014288 -0.002626 0.007441 -0.003949 0.053997
#
#
# Mechanical properties :
#
#
# Convention : Reuss Voigt Hill
#
# Bulk Modulus (GPa) = 32.38237 68.32049 50.35143
# Shear Modulus (GPa) = 28.55816 45.52568 37.04192
#
# Velocity S-wave (km/s) = 3.26430 4.12148 3.71768
# Velocity P-wave (km/s) = 5.12739 6.93834 6.10044
#
# Compressibility (1/GPa) = 0.03088100
#
# Stress axis : x y z
#
# Youngs Moduli (GPa) = 52.08688 109.32904 80.14650
#
# Poissons Ratio (x) = -0.18414 0.30570
# Poissons Ratio (y) = -0.08773 0.22768
# Poissons Ratio (z) = 0.19867 0.31058
#
# Static dielectric constant tensor:
#      x y z
#    x 2.573080 0.142290 -0.010240 
#    y 0.142290 2.235520 0.085330 
#    z -0.010240 0.085330 2.050300 
# 
# From -- ./inp_files/433057.got.cif
#   From: 2010.05.17/outbox.cif.g08.bks.cpg/sg2_217_cif.got.tgz:433057.got - 2010.06.03 11:33:40.
