data_PCOD9035707
_publ_section_title
;
Structure prediction by ZEFSAII (Michael W. Deem and Ramdas Pophale) SiO2 
 PCOD9035707
Probable space group: P -1
;
_chemical_formula_sum "Si O2"
_cell_formula_units_Z 16
_cell_length_a 7.021311
_cell_length_b 19.762134
_cell_length_c 8.960961
_cell_angle_alpha 127.182281
_cell_angle_beta 130.486130
_cell_angle_gamma 77.197501
_cell_volume 722.887841
_symmetry_space_group_name_H-M "P -1"
_symmetry_group_IT_number 2
_symmetry_cell_setting 'triclinic'
loop_
_space_group_symop_operation_xyz
x,y,z
-x,-y,-z
loop_
_atom_site_type_symbol
_atom_site_label
_atom_site_fract_x
_atom_site_fract_y
_atom_site_fract_z
Si Si1 0.676339 0.051247 0.797027
Si Si2 0.569579 0.868005 0.623204
Si Si3 0.084690 0.613929 0.538769
Si Si4 0.404783 0.077356 0.977926
Si Si5 0.095784 0.593017 0.870358
Si Si6 0.687233 0.705396 0.313550
Si Si7 0.698884 0.685370 0.937252
Si Si8 0.025613 0.859766 0.183729
O O1 0.884948 0.131463 0.930615
O O2 0.500000 0.000000 0.500000
O O3 0.732918 0.967937 0.798023
O O4 0.542823 0.095464 0.914156
O O5 0.550180 0.852994 0.770639
O O6 0.679679 0.800150 0.497299
O O7 0.277603 0.862690 0.413319
O O8 0.060816 0.616446 0.710065
O O9 0.391928 0.642719 0.693723
O O10 0.963430 0.512353 0.291438
O O11 0.917411 0.672564 0.458710
O O12 0.099254 0.058423 0.762160
O O13 0.500000 0.000000 0.000000
O O14 0.888687 0.625805 0.907404
O O15 0.399011 0.641341 0.124057
O O16 0.717939 0.705421 0.150404
O O17 0.809932 0.774515 0.017970
#
# Coordination Sequence:
#
# PCOD9035707 Si02
#       8
#     2   2   2   2   2   2   2   2
#     4   9  22  43  67  93 129 179 222 273 332 391
#     4  10  23  44  65  98 134 176 228 279 336 404
#     4  10  24  43  71 100 135 181 223 284 341 407
#     4  10  24  43  65  99 127 175 230 277 338 403
#     4  10  22  46  70  99 138 177 228 277 344 412
#     4  11  24  43  67 104 137 178 229 279 337 410
#     4  11  25  41  66 100 138 177 229 278 342 407
#     4  11  24  44  65  92 137 178 219 289 331 396
#
# _framework density 22.133447
#
# number of rings (size 3 to 8) (size 9 to 14) (size 15 to 20)
#    0.000    1.750    1.250    0.750    5.250    9.000 
#    4.500    0.000    0.000    0.000    0.000    0.000 
#    0.000    0.000    0.000    0.000    0.000    0.000 
#
# Total GULP energy -89334.510004 kJ/mol
# GULP energy per Si atom -5583.406875 kJ/mol
# Density = 2.208307 g / cm^3
# Si number density = 22.133447 Si / 1000 Ang^3
#
#
#
# Elastic Constant Matrix: (Units=GPa)
#
#
# Indices 1 2 3 4 5 6 
#
# 1 192.9205 55.8816 59.9990 -12.0800 -15.2214 -5.6492
# 2 55.8816 93.8745 21.9340 -14.2035 0.8604 -11.8092
# 3 59.9990 21.9340 54.8590 -1.5527 -14.3531 -0.3469
# 4 -12.0800 -14.2035 -1.5527 16.1274 -1.4613 4.3255
# 5 -15.2214 0.8604 -14.3531 -1.4613 36.6516 2.6311
# 6 -5.6492 -11.8092 -0.3469 4.3255 2.6311 42.0026
#
#
#
# Elastic Compliance Matrix: (Units=1/GPa)
#
#
# Indices 1 2 3 4 5 6 
#
# 1 0.008836 -0.002826 -0.008272 0.003409 0.000637 -0.000065
# 2 -0.002826 0.014972 -0.003292 0.009717 -0.002640 0.002967
# 3 -0.008272 -0.003292 0.030692 -0.004873 0.008598 -0.001821
# 4 0.003409 0.009717 -0.004873 0.074127 0.002568 -0.004644
# 5 0.000637 -0.002640 0.008598 0.002568 0.031282 -0.002809
# 6 -0.000065 0.002967 -0.001821 -0.004644 -0.002809 0.025273
#
#
# Mechanical properties :
#
#
# Convention : Reuss Voigt Hill
#
# Bulk Modulus (GPa) = 38.88031 68.58703 53.73367
# Shear Modulus (GPa) = 22.46852 32.54559 27.50705
#
# Velocity S-wave (km/s) = 3.18958 3.83877 3.52914
# Velocity P-wave (km/s) = 5.58292 7.12064 6.39814
#
# Compressibility (1/GPa) = 0.02571996
#
# Stress axis : x y z
#
# Youngs Moduli (GPa) = 113.16928 66.79355 32.58220
#
# Poissons Ratio (x) = 0.18874 0.26951
# Poissons Ratio (y) = 0.31978 0.10728
# Poissons Ratio (z) = 0.93609 0.21991
#
# Static dielectric constant tensor:
#      x y z
#    x 1.862520 -0.034920 0.045350 
#    y -0.034920 1.837490 -0.018560 
#    z 0.045350 -0.018560 1.872830 
# 
# From -- ./inp_files/141664.got.cif
#   From: 2010.05.17/outbox.cif.g08.bks.cpg/sg2_71_cif.got.tgz:141664.got - 2010.06.03 11:33:40.
