data_PCOD9035424
_publ_section_title
;
Structure prediction by ZEFSAII (Michael W. Deem and Ramdas Pophale) SiO2 
 PCOD9035424
Probable space group: P -1
;
_chemical_formula_sum "Si O2"
_cell_formula_units_Z 12
_cell_length_a 9.700407
_cell_length_b 17.422279
_cell_length_c 5.118700
_cell_angle_alpha 108.210426
_cell_angle_beta 86.226494
_cell_angle_gamma 145.503550
_cell_volume 434.839116
_symmetry_space_group_name_H-M "P -1"
_symmetry_group_IT_number 2
_symmetry_cell_setting 'triclinic'
loop_
_space_group_symop_operation_xyz
x,y,z
-x,-y,-z
loop_
_atom_site_type_symbol
_atom_site_label
_atom_site_fract_x
_atom_site_fract_y
_atom_site_fract_z
Si Si1 0.232292 0.414681 0.892907
Si Si2 0.900736 0.321913 0.230352
Si Si3 0.380420 0.064160 0.302060
Si Si4 0.955235 0.147862 0.381493
Si Si5 0.315048 0.618986 0.846516
Si Si6 0.279268 0.178389 0.638508
O O1 0.088363 0.302076 0.547255
O O2 0.278742 0.533879 0.991912
O O3 0.500000 0.500000 0.000000
O O4 0.017756 0.307913 0.031077
O O5 0.138611 0.486661 0.517014
O O6 0.776043 0.333650 0.082135
O O7 0.658174 0.171950 0.277258
O O8 0.265882 0.973068 0.491845
O O9 0.439774 0.189449 0.476261
O O10 0.171497 0.944598 0.970181
O O11 0.205227 0.219938 0.528044
O O12 0.623862 0.771451 0.019582
O O13 0.000000 0.000000 0.500000
#
# Coordination Sequence:
#
# PCOD9035424 Si02
#       6
#     2   2   2   2   2   2
#     4  12  28  49  75 112 158 204 250 326 391 465
#     4  11  28  46  79 112 151 208 257 323 380 468
#     4  11  26  48  77 114 154 209 257 320 380 461
#     4  11  26  48  78 115 158 202 258 319 389 460
#     4  11  26  48  78 111 152 200 263 312 391 455
#     4  10  22  45  77 109 150 198 258 315 372 454
#
# _framework density 27.596413999999999
#
# number of rings (size 3 to 8) (size 9 to 14) (size 15 to 20)
#    0.000    1.000    1.667    3.000   11.667    6.000 
#    0.000    0.000    0.000    0.000    0.000    0.000 
#    0.000    0.000    0.000    0.000    0.000    0.000 
#
# Total GULP energy -67026.948265 kJ/mol
# GULP energy per Si atom -5585.579022 kJ/mol
# Density = 2.753360 g / cm^3
# Si number density = 27.596414 Si / 1000 Ang^3
#
#
#
# Elastic Constant Matrix: (Units=GPa)
#
#
# Indices 1 2 3 4 5 6 
#
# 1 115.7885 30.4363 33.7370 -3.7997 18.4822 22.2077
# 2 30.4363 63.0276 15.5025 0.3736 -4.4165 -15.7683
# 3 33.7370 15.5025 140.3281 13.8936 36.0892 3.2089
# 4 -3.7997 0.3736 13.8936 52.3665 7.4802 -0.7140
# 5 18.4822 -4.4165 36.0892 7.4802 53.4839 8.0260
# 6 22.2077 -15.7683 3.2089 -0.7140 8.0260 39.8262
#
#
#
# Elastic Compliance Matrix: (Units=1/GPa)
#
#
# Indices 1 2 3 4 5 6 
#
# 1 0.014225 -0.009477 -0.001443 0.001813 -0.003348 -0.010861
# 2 -0.009477 0.024814 -0.001882 -0.000821 0.004558 0.014327
# 3 -0.001443 -0.001882 0.009328 -0.001735 -0.005774 0.000441
# 4 0.001813 -0.000821 -0.001735 0.020012 -0.002265 -0.000381
# 5 -0.003348 0.004558 -0.005774 -0.002265 0.024572 -0.000855
# 6 -0.010861 0.014327 0.000441 -0.000381 -0.000855 0.036968
#
#
# Mechanical properties :
#
#
# Convention : Reuss Voigt Hill
#
# Bulk Modulus (GPa) = 43.92937 53.16618 48.54778
# Shear Modulus (GPa) = 30.65428 45.09988 37.87708
#
# Velocity S-wave (km/s) = 3.33649 4.04699 3.70879
# Velocity P-wave (km/s) = 5.54941 6.41443 5.99754
#
# Compressibility (1/GPa) = 0.02276381
#
# Stress axis : x y z
#
# Youngs Moduli (GPa) = 70.29906 40.29989 107.20832
#
# Poissons Ratio (x) = 0.38192 0.15470
# Poissons Ratio (y) = 0.66621 0.20171
# Poissons Ratio (z) = 0.10144 0.07583
#
# Static dielectric constant tensor:
#      x y z
#    x 2.462590 0.001630 -0.113890 
#    y 0.001630 2.378690 0.039100 
#    z -0.113890 0.039100 2.325740 
# 
# From -- ./inp_files/21700.got.cif
#   From: 2010.05.17/outbox.cif.g08.bks.cpg/sg2_11_cif.got.tgz:21700.got - 2010.06.03 11:33:40.
