data_PCOD9035378
_publ_section_title
;
Structure prediction by ZEFSAII (Michael W. Deem and Ramdas Pophale) SiO2 
 PCOD9035378
Probable space group: P -1
;
_chemical_formula_sum "Si O2"
_cell_formula_units_Z 16
_cell_length_a 14.536471
_cell_length_b 11.606200
_cell_length_c 14.486138
_cell_angle_alpha 63.283503
_cell_angle_beta 33.234811
_cell_angle_gamma 40.796668
_cell_volume 751.360970
_symmetry_space_group_name_H-M "P -1"
_symmetry_group_IT_number 2
_symmetry_cell_setting 'triclinic'
loop_
_space_group_symop_operation_xyz
x,y,z
-x,-y,-z
loop_
_atom_site_type_symbol
_atom_site_label
_atom_site_fract_x
_atom_site_fract_y
_atom_site_fract_z
Si Si1 0.927711 0.175468 0.044735
Si Si2 0.265532 0.115527 0.372891
Si Si3 0.021988 0.530696 0.646666
Si Si4 0.491725 0.084121 0.383078
Si Si5 0.200016 0.274938 0.043468
Si Si6 0.943629 0.047591 0.638577
Si Si7 0.667823 0.554865 0.030858
Si Si8 0.815119 0.300837 0.297115
O O1 0.712969 0.385683 0.091625
O O2 0.855402 0.206038 0.200526
O O3 0.000000 0.000000 0.000000
O O4 0.204321 0.086823 0.841210
O O5 0.083912 0.335521 0.402216
O O6 0.347883 0.102744 0.411328
O O7 0.100306 0.082066 0.524365
O O8 0.527459 0.947630 0.146456
O O9 0.909802 0.680198 0.774852
O O10 0.334433 0.311472 0.456032
O O11 0.882164 0.475981 0.804155
O O12 0.500000 0.000000 0.500000
O O13 0.962674 0.352409 0.155858
O O14 0.272208 0.383699 0.954911
O O15 0.622910 0.249912 0.838370
O O16 0.050937 0.864693 0.675029
O O17 0.000000 0.000000 0.500000
O O18 0.500000 0.500000 0.500000
#
# Coordination Sequence:
#
# PCOD9035378 Si02
#       8
#     2   2   2   2   2   2   2   2
#     4  12  29  48  70 102 149 190 238 300 361 424
#     4  12  24  43  75 106 142 187 243 298 354 431
#     4  10  23  43  73 101 138 188 237 290 359 425
#     4  12  26  49  68 100 145 196 246 287 358 429
#     4  10  22  45  75 102 141 179 241 293 362 419
#     4  12  24  43  71 111 146 178 237 302 362 419
#     4  10  24  45  73 100 142 185 234 288 365 416
#     4  12  28  45  74 111 144 187 240 295 363 427
#
# _framework density 21.294691
#
# number of rings (size 3 to 8) (size 9 to 14) (size 15 to 20)
#    0.750    0.000    3.750    3.000    5.250    1.500 
#    0.000    1.250    0.000    0.000    0.000    0.000 
#    0.000    0.000    0.000    0.000    0.000    0.000 
#
# Total GULP energy -89303.153506 kJ/mol
# GULP energy per Si atom -5581.447094 kJ/mol
# Density = 2.124622 g / cm^3
# Si number density = 21.294691 Si / 1000 Ang^3
#
#
#
# Elastic Constant Matrix: (Units=GPa)
#
#
# Indices 1 2 3 4 5 6 
#
# 1 122.6109 52.7404 24.1816 -0.4854 11.1564 -1.3057
# 2 52.7404 129.7850 28.1688 13.8282 4.5664 -18.6469
# 3 24.1816 28.1688 79.3199 28.1920 5.8186 -8.3663
# 4 -0.4854 13.8282 28.1920 32.3237 -1.2483 -4.9326
# 5 11.1564 4.5664 5.8186 -1.2483 41.7607 -1.4460
# 6 -1.3057 -18.6469 -8.3663 -4.9326 -1.4460 29.6287
#
#
#
# Elastic Compliance Matrix: (Units=1/GPa)
#
#
# Indices 1 2 3 4 5 6 
#
# 1 0.010955 -0.004497 -0.003560 0.004715 -0.001890 -0.002660
# 2 -0.004497 0.010876 -0.000769 -0.003138 0.000230 0.005918
# 3 -0.003560 -0.000769 0.020545 -0.017402 -0.002273 0.002152
# 4 0.004715 -0.003138 -0.017402 0.047862 0.002989 0.001433
# 5 -0.001890 0.000230 -0.002273 0.002989 0.024871 0.001131
# 6 -0.002660 0.005918 0.002152 0.001433 0.001131 0.038260
#
#
# Mechanical properties :
#
#
# Convention : Reuss Voigt Hill
#
# Bulk Modulus (GPa) = 40.44825 60.21083 50.32954
# Shear Modulus (GPa) = 27.89224 35.85095 31.87160
#
# Velocity S-wave (km/s) = 3.62307 4.10758 3.87291
# Velocity P-wave (km/s) = 6.04466 7.12970 6.60949
#
# Compressibility (1/GPa) = 0.02472295
#
# Stress axis : x y z
#
# Youngs Moduli (GPa) = 91.28534 91.94689 48.67474
#
# Poissons Ratio (x) = 0.41348 0.17329
# Poissons Ratio (y) = 0.41050 0.03743
# Poissons Ratio (z) = 0.32500 0.07070
#
# Static dielectric constant tensor:
#      x y z
#    x 1.579590 -0.006070 0.117760 
#    y -0.006070 1.747900 0.025150 
#    z 0.117760 0.025150 1.699800 
# 
# From -- ./inp_files/532453.got.cif
#   From: 2010.05.17/outbox.cif.g08.bks.cpg/sg2_267_cif.got.tgz:532453.got - 2010.06.03 11:33:40.
