data_PCOD9035576
_publ_section_title
;
Structure prediction by ZEFSAII (Michael W. Deem and Ramdas Pophale) SiO2 
 PCOD9035576
Probable space group: P -1
;
_chemical_formula_sum "Si O2"
_cell_formula_units_Z 16
_cell_length_a 8.833370
_cell_length_b 6.667725
_cell_length_c 18.425796
_cell_angle_alpha 61.487484
_cell_angle_beta 100.345812
_cell_angle_gamma 128.603114
_cell_volume 734.113945
_symmetry_space_group_name_H-M "P -1"
_symmetry_group_IT_number 2
_symmetry_cell_setting 'triclinic'
loop_
_space_group_symop_operation_xyz
x,y,z
-x,-y,-z
loop_
_atom_site_type_symbol
_atom_site_label
_atom_site_fract_x
_atom_site_fract_y
_atom_site_fract_z
Si Si1 0.203189 0.811217 0.479429
Si Si2 0.485047 0.241503 0.823955
Si Si3 0.194064 0.307179 0.341515
Si Si4 0.870971 0.734835 0.196900
Si Si5 0.575026 0.332392 0.568719
Si Si6 0.829665 0.445073 0.091377
Si Si7 0.825076 0.596090 0.902841
Si Si8 0.813946 0.198240 0.349203
O O1 0.364139 0.783327 0.469089
O O2 0.203960 0.861708 0.556109
O O3 0.000000 0.500000 0.500000
O O4 0.216716 0.057737 0.393400
O O5 0.651050 0.445611 0.743315
O O6 0.318957 0.284191 0.801177
O O7 0.613279 0.366831 0.887404
O O8 0.361963 0.895470 0.862285
O O9 0.242920 0.450852 0.400637
O O10 0.972934 0.181878 0.328433
O O11 0.852492 0.624474 0.132272
O O12 0.869620 0.509596 0.285510
O O13 0.066337 0.067154 0.166262
O O14 0.500000 0.500000 0.500000
O O15 0.404282 0.065094 0.649580
O O16 0.023284 0.462613 0.099152
O O17 0.814749 0.568690 0.993614
#
# Coordination Sequence:
#
# PCOD9035576 Si02
#       8
#     2   2   2   2   2   2   2   2
#     4  12  25  44  67  94 129 173 222 270 324 387
#     4  11  25  41  66  99 133 171 218 272 327 390
#     4  12  26  45  64  94 131 172 222 270 324 384
#     4  11  25  41  65 101 132 170 218 271 328 392
#     4  12  25  43  67  93 125 173 220 268 327 383
#     4  10  22  46  68  98 133 170 219 263 332 396
#     4  10  23  43  71  97 132 174 212 270 327 399
#     4  12  25  44  66  93 132 173 218 273 325 382
#
# _framework density 21.794981
#
# number of rings (size 3 to 8) (size 9 to 14) (size 15 to 20)
#    0.000    0.750    2.500    4.500    3.500    4.500 
#    0.000    0.000    0.000    0.000    0.000    0.000 
#    0.000    0.000    0.000    0.000    0.000    0.000 
#
# Total GULP energy -89552.197022 kJ/mol
# GULP energy per Si atom -5597.012314 kJ/mol
# Density = 2.174537 g / cm^3
# Si number density = 21.794981 Si / 1000 Ang^3
#
#
#
# Elastic Constant Matrix: (Units=GPa)
#
#
# Indices 1 2 3 4 5 6 
#
# 1 98.1796 12.2546 9.4128 -13.1378 -14.3192 -3.9544
# 2 12.2546 62.8480 -15.5230 -7.4359 -1.9463 2.8156
# 3 9.4128 -15.5230 61.1046 -20.3980 -3.9330 -4.6886
# 4 -13.1378 -7.4359 -20.3980 37.7836 -3.1311 2.3931
# 5 -14.3192 -1.9463 -3.9330 -3.1311 32.8334 0.4051
# 6 -3.9544 2.8156 -4.6886 2.3931 0.4051 31.5197
#
#
#
# Elastic Compliance Matrix: (Units=1/GPa)
#
#
# Indices 1 2 3 4 5 6 
#
# 1 0.011807 -0.001897 -0.000609 0.003767 0.005308 0.001206
# 2 -0.001897 0.019198 0.007701 0.007528 0.001969 -0.001404
# 3 -0.000609 0.007701 0.023593 0.014301 0.004361 0.001603
# 4 0.003767 0.007528 0.014301 0.037657 0.007406 -0.001027
# 5 0.005308 0.001969 0.004361 0.007406 0.034115 0.000138
# 6 0.001206 -0.001404 0.001603 -0.001027 0.000138 0.032318
#
#
# Mechanical properties :
#
#
# Convention : Reuss Voigt Hill
#
# Bulk Modulus (GPa) = 15.38692 26.04676 20.71684
# Shear Modulus (GPa) = 29.41853 34.82654 32.12254
#
# Velocity S-wave (km/s) = 3.67793 4.00173 3.84324
# Velocity P-wave (km/s) = 5.01112 5.77309 5.40555
#
# Compressibility (1/GPa) = 0.06499027
#
# Stress axis : x y z
#
# Youngs Moduli (GPa) = 84.69255 52.08875 42.38496
#
# Poissons Ratio (x) = 0.09879 0.02581
# Poissons Ratio (y) = 0.16063 -0.32642
# Poissons Ratio (z) = 0.05157 -0.40115
#
# Static dielectric constant tensor:
#      x y z
#    x 1.802450 0.043890 0.006400 
#    y 0.043890 1.816150 0.024980 
#    z 0.006400 0.024980 1.783030 
# 
# From -- ./inp_files/116696.got.cif
#   From: 2010.05.17/outbox.cif.g08.bks.cpg/sg2_59_cif.got.tgz:116696.got - 2010.06.03 11:33:40.
