data_PCOD9035768
_publ_section_title
;
Structure prediction by ZEFSAII (Michael W. Deem and Ramdas Pophale) SiO2 
 PCOD9035768
Probable space group: P -1
;
_chemical_formula_sum "Si O2"
_cell_formula_units_Z 16
_cell_length_a 10.444654
_cell_length_b 9.387406
_cell_length_c 9.488194
_cell_angle_alpha 44.937726
_cell_angle_beta 87.632672
_cell_angle_gamma 91.142905
_cell_volume 654.949108
_symmetry_space_group_name_H-M "P -1"
_symmetry_group_IT_number 2
_symmetry_cell_setting 'triclinic'
loop_
_space_group_symop_operation_xyz
x,y,z
-x,-y,-z
loop_
_atom_site_type_symbol
_atom_site_label
_atom_site_fract_x
_atom_site_fract_y
_atom_site_fract_z
Si Si1 0.802420 0.867761 0.333085
Si Si2 0.684892 0.814901 0.878390
Si Si3 0.692354 0.098945 0.932447
Si Si4 0.202590 0.876329 0.579005
Si Si5 0.583311 0.518726 0.624877
Si Si6 0.920305 0.537296 0.117905
Si Si7 0.531166 0.235692 0.291202
Si Si8 0.969929 0.289775 0.730236
O O1 0.717940 0.656594 0.507933
O O2 0.924785 0.846307 0.244672
O O3 0.843159 0.974806 0.402619
O O4 0.710611 0.999969 0.152243
O O5 0.560523 0.721608 0.864940
O O6 0.645435 0.927441 0.943065
O O7 0.747004 0.985123 0.649133
O O8 0.793016 0.658674 0.013428
O O9 0.613060 0.292534 0.816563
O O10 0.828252 0.187555 0.799057
O O11 0.110649 0.689232 0.662853
O O12 0.316567 0.761775 0.730761
O O13 0.500000 0.500000 0.500000
O O14 0.505584 0.629030 0.670378
O O15 0.003301 0.664530 0.139194
O O16 0.000000 0.500000 0.000000
O O17 0.500000 0.000000 0.500000
O O18 0.000000 0.500000 0.500000
#
# Coordination Sequence:
#
# PCOD9035768 Si02
#       8
#     2   2   2   2   2   2   2   2
#     4  12  26  46  71 108 140 188 239 291 358 429
#     4  11  25  47  70 103 144 184 234 295 354 424
#     4  12  27  46  74 104 146 189 237 299 361 422
#     4  11  26  47  75  99 143 192 232 289 366 415
#     4  12  26  46  76 105 145 189 242 295 359 431
#     4  12  29  46  71 108 142 184 248 292 351 429
#     4  10  22  46  72 101 143 185 234 291 350 428
#     4  12  26  48  74 102 150 190 239 297 359 426
#
# _framework density 24.429376999999999
#
# number of rings (size 3 to 8) (size 9 to 14) (size 15 to 20)
#    0.000    0.500    5.000    3.375    8.750    1.500 
#    0.000    0.000    0.000    0.000    0.000    0.000 
#    0.000    0.000    0.000    0.000    0.000    0.000 
#
# Total GULP energy -89710.969873 kJ/mol
# GULP energy per Si atom -5606.935617 kJ/mol
# Density = 2.437377 g / cm^3
# Si number density = 24.429377 Si / 1000 Ang^3
#
#
#
# Elastic Constant Matrix: (Units=GPa)
#
#
# Indices 1 2 3 4 5 6 
#
# 1 67.9659 50.4612 -1.5070 -9.9027 -2.9938 -6.0665
# 2 50.4612 195.3198 32.6822 6.2741 8.4220 -15.7372
# 3 -1.5070 32.6822 95.4220 -15.1871 6.6972 -5.3660
# 4 -9.9027 6.2741 -15.1871 45.0889 0.2919 -0.6263
# 5 -2.9938 8.4220 6.6972 0.2919 45.1064 -5.9069
# 6 -6.0665 -15.7372 -5.3660 -0.6263 -5.9069 46.6106
#
#
#
# Elastic Compliance Matrix: (Units=1/GPa)
#
#
# Indices 1 2 3 4 5 6 
#
# 1 0.020413 -0.006021 0.003339 0.006451 0.002120 0.001364
# 2 -0.006021 0.007435 -0.003027 -0.003353 -0.001161 0.001186
# 3 0.003339 -0.003027 0.012544 0.005397 -0.001006 0.000802
# 4 0.006451 -0.003353 0.005397 0.025888 0.000177 0.000699
# 5 0.002120 -0.001161 -0.001006 0.000177 0.023028 0.002689
# 6 0.001364 0.001186 0.000802 0.000699 0.002689 0.022475
#
#
# Mechanical properties :
#
#
# Convention : Reuss Voigt Hill
#
# Bulk Modulus (GPa) = 34.51381 57.99785 46.25583
# Shear Modulus (GPa) = 37.63405 45.83260 41.73333
#
# Velocity S-wave (km/s) = 3.92921 4.33613 4.13767
# Velocity P-wave (km/s) = 5.89437 6.99013 6.46550
#
# Compressibility (1/GPa) = 0.02897391
#
# Stress axis : x y z
#
# Youngs Moduli (GPa) = 48.98904 134.49490 79.71969
#
# Poissons Ratio (x) = 0.80982 -0.26620
# Poissons Ratio (y) = 0.29497 0.24132
# Poissons Ratio (z) = -0.16359 0.40712
#
# Static dielectric constant tensor:
#      x y z
#    x 1.977690 0.144350 -0.073700 
#    y 0.144350 2.622640 -0.531800 
#    z -0.073700 -0.531800 2.275630 
# 
# From -- ./inp_files/242182.got.cif
#   From: 2010.05.17/outbox.cif.g08.bks.cpg/sg2_122_cif.got.tgz:242182.got - 2010.06.03 11:33:40.
