data_PCOD9035197
_publ_section_title
;
Structure prediction by ZEFSAII (Michael W. Deem and Ramdas Pophale) SiO2 
 PCOD9035197
Probable space group: P -1
;
_chemical_formula_sum "Si O2"
_cell_formula_units_Z 16
_cell_length_a 14.766336
_cell_length_b 8.956877
_cell_length_c 10.654942
_cell_angle_alpha 69.067892
_cell_angle_beta 75.905889
_cell_angle_gamma 29.215533
_cell_volume 635.192713
_symmetry_space_group_name_H-M "P -1"
_symmetry_group_IT_number 2
_symmetry_cell_setting 'triclinic'
loop_
_space_group_symop_operation_xyz
x,y,z
-x,-y,-z
loop_
_atom_site_type_symbol
_atom_site_label
_atom_site_fract_x
_atom_site_fract_y
_atom_site_fract_z
Si Si1 0.561313 0.587484 0.733211
Si Si2 0.206428 0.269721 0.527737
Si Si3 0.194716 0.255047 0.257300
Si Si4 0.793419 0.354566 0.212402
Si Si5 0.896313 0.253674 0.851724
Si Si6 0.435651 0.781043 0.083721
Si Si7 0.212833 0.629394 0.510839
Si Si8 0.883871 0.587044 0.124153
O O1 0.690708 0.502931 0.805078
O O2 0.560409 0.414741 0.847662
O O3 0.678915 0.422149 0.611462
O O4 0.352522 0.955577 0.658909
O O5 0.285118 0.137666 0.398045
O O6 0.216412 0.439873 0.517996
O O7 0.000000 0.500000 0.500000
O O8 0.114481 0.548412 0.165961
O O9 0.008476 0.421472 0.256437
O O10 0.331965 0.994878 0.180820
O O11 0.641768 0.544164 0.100174
O O12 0.705944 0.473901 0.344600
O O13 0.864374 0.429575 0.153226
O O14 0.965430 0.978723 0.244085
O O15 0.000000 0.000000 0.000000
O O16 0.316535 0.028820 0.934580
O O17 0.000000 0.000000 0.500000
O O18 0.000000 0.500000 0.000000
#
# Coordination Sequence:
#
# PCOD9035197 Si02
#       8
#     2   2   2   2   2   2   2   2
#     4  12  27  48  75 107 154 193 242 304 374 428
#     4  12  28  46  70 108 147 191 244 302 363 436
#     4  11  23  45  71 100 146 191 241 295 367 421
#     4  12  25  46  73 108 146 192 248 297 368 438
#     4  12  25  47  73 106 145 191 242 304 363 430
#     4  11  26  45  73 110 145 195 246 297 366 445
#     4  12  26  47  76 105 149 193 247 302 364 444
#     4  10  22  45  72 100 143 193 241 296 357 435
#
# _framework density 25.189205999999999
#
# number of rings (size 3 to 8) (size 9 to 14) (size 15 to 20)
#    0.000    0.500    2.500    6.000    7.000    1.000 
#    2.250    1.250    0.000    0.000    0.000    0.000 
#    0.000    0.000    0.000    0.000    0.000    0.000 
#
# Total GULP energy -89634.341654 kJ/mol
# GULP energy per Si atom -5602.146353 kJ/mol
# Density = 2.513187 g / cm^3
# Si number density = 25.189206 Si / 1000 Ang^3
#
#
#
# Elastic Constant Matrix: (Units=GPa)
#
#
# Indices 1 2 3 4 5 6 
#
# 1 112.2497 30.0832 -6.8763 -7.2938 11.1404 1.0882
# 2 30.0832 122.2457 9.5634 -15.4486 17.2891 -6.7353
# 3 -6.8763 9.5634 96.5833 8.0729 32.8464 -2.4107
# 4 -7.2938 -15.4486 8.0729 49.4945 0.8874 4.8991
# 5 11.1404 17.2891 32.8464 0.8874 35.3953 -15.8408
# 6 1.0882 -6.7353 -2.4107 4.8991 -15.8408 39.0269
#
#
#
# Elastic Compliance Matrix: (Units=1/GPa)
#
#
# Indices 1 2 3 4 5 6 
#
# 1 0.010347 -0.001919 0.003008 0.000871 -0.006568 -0.003209
# 2 -0.001919 0.009612 0.000225 0.002811 -0.004590 -0.000490
# 3 0.003008 0.000225 0.017384 -0.001259 -0.020316 -0.007059
# 4 0.000871 0.002811 -0.001259 0.021796 -0.002540 -0.003384
# 5 -0.006568 -0.004590 -0.020316 -0.002540 0.062061 0.023645
# 6 -0.003209 -0.000490 -0.007059 -0.003384 0.023645 0.035214
#
#
# Mechanical properties :
#
#
# Convention : Reuss Voigt Hill
#
# Bulk Modulus (GPa) = 25.01885 44.06883 34.54384
# Shear Modulus (GPa) = 29.92028 44.67056 37.29542
#
# Velocity S-wave (km/s) = 3.45022 4.21575 3.85205
# Velocity P-wave (km/s) = 5.08192 6.42104 5.79032
#
# Compressibility (1/GPa) = 0.03996986
#
# Stress axis : x y z
#
# Youngs Moduli (GPa) = 96.64738 104.03207 57.52454
#
# Poissons Ratio (x) = 0.19968 -0.17301
# Poissons Ratio (y) = 0.18551 -0.01296
# Poissons Ratio (z) = -0.29067 -0.02343
#
# Static dielectric constant tensor:
#      x y z
#    x 1.922770 -0.095680 0.022430 
#    y -0.095680 2.094470 0.069610 
#    z 0.022430 0.069610 2.078760 
# 
# From -- ./inp_files/447161.got.cif
#   From: 2010.05.17/outbox.cif.g08.bks.cpg/sg2_224_cif.got.tgz:447161.got - 2010.06.03 11:33:40.
