data_PCOD9035561
_publ_section_title
;
Structure prediction by ZEFSAII (Michael W. Deem and Ramdas Pophale) SiO2 
 PCOD9035561
Probable space group: P -1
;
_chemical_formula_sum "Si O2"
_cell_formula_units_Z 15
_cell_length_a 6.223971
_cell_length_b 10.043678
_cell_length_c 11.855052
_cell_angle_alpha 97.161942
_cell_angle_beta 84.674998
_cell_angle_gamma 115.966734
_cell_volume 660.459493
_symmetry_space_group_name_H-M "P -1"
_symmetry_group_IT_number 2
_symmetry_cell_setting 'triclinic'
loop_
_space_group_symop_operation_xyz
x,y,z
-x,-y,-z
loop_
_atom_site_type_symbol
_atom_site_label
_atom_site_fract_x
_atom_site_fract_y
_atom_site_fract_z
Si Si1 0.800092 0.801126 0.455882
Si Si2 0.500000 0.000000 0.500000
Si Si3 0.069720 0.632907 0.826396
Si Si4 0.616809 0.508660 0.312548
Si Si5 0.459589 0.598224 0.107759
Si Si6 0.862047 0.786238 0.693126
Si Si7 0.225235 0.940629 0.277260
Si Si8 0.367444 0.835102 0.039404
O O1 0.680861 0.625996 0.421296
O O2 0.961013 0.832311 0.565962
O O3 0.979879 0.867166 0.351055
O O4 0.616386 0.874662 0.486554
O O5 0.574781 0.039911 0.636142
O O6 0.204778 0.564233 0.732169
O O7 0.821221 0.494376 0.857528
O O8 0.030368 0.758509 0.770152
O O9 0.211967 0.717015 0.939652
O O10 0.602203 0.595757 0.210909
O O11 0.360771 0.372487 0.325353
O O12 0.533244 0.761767 0.073355
O O13 0.500000 0.500000 0.000000
O O14 0.760592 0.901889 0.748606
O O15 0.228008 0.847859 0.158469
O O16 0.500000 0.000000 0.000000
#
# Coordination Sequence:
#
# PCOD9035561 Si02
#       8
#     2   1   2   2   2   2   2   2
#     4  11  24  42  71  98 130 175 226 282 332 405
#     4  10  22  46  68  92 130 170 216 278 340 388
#     4  11  25  44  68  97 140 182 217 279 339 404
#     4  11  23  42  69  98 133 174 224 274 338 401
#     4  11  24  43  68  94 135 181 223 269 337 404
#     4  10  24  43  63 100 133 177 221 281 334 397
#     4  11  25  43  68  98 134 176 230 273 341 397
#     4  12  26  44  70 104 137 181 228 280 338 402
#
# _framework density 22.711459999999999
#
# number of rings (size 3 to 8) (size 9 to 14) (size 15 to 20)
#    0.000    1.067    1.333    4.800    3.733    9.600 
#    0.000    0.000    0.000    0.000    0.000    0.000 
#    0.000    0.000    0.000    0.000    0.000    0.000 
#
# Total GULP energy -83636.501652 kJ/mol
# GULP energy per Si atom -5575.766777 kJ/mol
# Density = 2.265977 g / cm^3
# Si number density = 22.711460 Si / 1000 Ang^3
#
#
#
# Elastic Constant Matrix: (Units=GPa)
#
#
# Indices 1 2 3 4 5 6 
#
# 1 28.0622 9.4416 20.8586 -6.8097 4.3161 -19.3864
# 2 9.4416 113.6751 19.0366 -2.8247 3.5849 -25.9098
# 3 20.8586 19.0366 98.1919 7.4293 -11.3332 -27.3605
# 4 -6.8097 -2.8247 7.4293 43.0034 -6.9092 4.7640
# 5 4.3161 3.5849 -11.3332 -6.9092 34.2256 -7.8676
# 6 -19.3864 -25.9098 -27.3605 4.7640 -7.8676 40.9333
#
#
#
# Elastic Compliance Matrix: (Units=1/GPa)
#
#
# Indices 1 2 3 4 5 6 
#
# 1 0.058329 0.001766 -0.007526 0.007652 -0.003392 0.022170
# 2 0.001766 0.010342 -0.000378 0.000275 0.000268 0.007149
# 3 -0.007526 -0.000378 0.015238 -0.003601 0.007189 0.008183
# 4 0.007652 0.000275 -0.003601 0.025666 0.002750 -0.001067
# 5 -0.003392 0.000268 0.007189 0.002750 0.034791 0.009735
# 6 0.022170 0.007149 0.008183 -0.001067 0.009735 0.046920
#
#
# Mechanical properties :
#
#
# Convention : Reuss Voigt Hill
#
# Bulk Modulus (GPa) = 13.95995 37.62254 25.79124
# Shear Modulus (GPa) = 21.98384 36.33862 29.16123
#
# Velocity S-wave (km/s) = 3.11458 4.00435 3.58716
# Velocity P-wave (km/s) = 4.36969 6.16289 5.34207
#
# Compressibility (1/GPa) = 0.07163348
#
# Stress axis : x y z
#
# Youngs Moduli (GPa) = 17.14401 96.69776 65.62390
#
# Poissons Ratio (x) = -0.17076 0.49388
# Poissons Ratio (y) = -0.03028 0.02480
# Poissons Ratio (z) = 0.12903 0.03654
#
# Static dielectric constant tensor:
#      x y z
#    x 1.976750 0.114850 0.019890 
#    y 0.114850 1.957300 -0.000710 
#    z 0.019890 -0.000710 1.650390 
# 
# From -- ./inp_files/27920.got.cif
#   From: 2010.05.17/outbox.cif.g08.bks.cpg/sg2_14_cif.got.tgz:27920.got - 2010.06.03 11:33:40.
