data_PCOD9035654
_publ_section_title
;
Structure prediction by ZEFSAII (Michael W. Deem and Ramdas Pophale) SiO2 
 PCOD9035654
Probable space group: P -1
;
_chemical_formula_sum "Si O2"
_cell_formula_units_Z 15
_cell_length_a 6.182795
_cell_length_b 19.543108
_cell_length_c 9.000236
_cell_angle_alpha 37.284973
_cell_angle_beta 85.791961
_cell_angle_gamma 95.813283
_cell_volume 633.653229
_symmetry_space_group_name_H-M "P -1"
_symmetry_group_IT_number 2
_symmetry_cell_setting 'triclinic'
loop_
_space_group_symop_operation_xyz
x,y,z
-x,-y,-z
loop_
_atom_site_type_symbol
_atom_site_label
_atom_site_fract_x
_atom_site_fract_y
_atom_site_fract_z
Si Si1 0.709626 0.239931 0.223430
Si Si2 0.483330 0.817767 0.355997
Si Si3 0.844829 0.749477 0.280945
Si Si4 0.247006 0.956796 0.900754
Si Si5 0.444231 0.407738 0.939033
Si Si6 0.500000 0.000000 0.500000
Si Si7 0.852885 0.575863 0.801130
Si Si8 0.892992 0.596459 0.265027
O O1 0.680264 0.244002 0.395953
O O2 0.666939 0.107877 0.401353
O O3 0.506494 0.290849 0.084101
O O4 0.932609 0.322429 0.999073
O O5 0.602996 0.740851 0.381021
O O6 0.687582 0.910221 0.273279
O O7 0.364912 0.889313 0.128873
O O8 0.970212 0.682472 0.505299
O O9 0.838758 0.682214 0.243656
O O10 0.987161 0.884219 0.028964
O O11 0.354714 0.955469 0.736411
O O12 0.671369 0.492950 0.843658
O O13 0.326628 0.459981 0.723832
O O14 0.279996 0.381645 0.133201
O O15 0.000000 0.500000 0.000000
O O16 0.000000 0.500000 0.500000
#
# Coordination Sequence:
#
# PCOD9035654 Si02
#       8
#     2   2   2   2   2   1   2   2
#     4  11  23  46  70 102 144 186 238 294 362 421
#     4  10  24  43  71 105 137 184 233 295 354 429
#     4  12  24  43  72 104 136 185 240 288 358 427
#     4  10  23  44  72 101 144 175 235 296 359 417
#     4  11  25  45  72 102 141 194 235 293 357 431
#     4  10  22  46  70 102 142 188 226 296 360 422
#     4  11  25  45  71 106 140 184 241 295 356 423
#     4  12  28  46  68 108 149 192 241 298 357 423
#
# _framework density 23.672252
#
# number of rings (size 3 to 8) (size 9 to 14) (size 15 to 20)
#    0.000    1.067    2.667    2.800    5.600    3.200 
#    0.000    1.333    0.000    0.000    0.000    0.000 
#    0.000    0.000    0.000    0.000    0.000    0.000 
#
# Total GULP energy -83695.947521 kJ/mol
# GULP energy per Si atom -5579.729835 kJ/mol
# Density = 2.361837 g / cm^3
# Si number density = 23.672252 Si / 1000 Ang^3
#
#
#
# Elastic Constant Matrix: (Units=GPa)
#
#
# Indices 1 2 3 4 5 6 
#
# 1 66.2353 47.2878 34.3730 20.6374 -2.3758 3.5662
# 2 47.2878 124.3141 29.3348 25.3890 -18.0236 -5.1765
# 3 34.3730 29.3348 112.3523 24.3513 -31.1873 -3.6336
# 4 20.6374 25.3890 24.3513 38.9955 -3.8206 -9.6665
# 5 -2.3758 -18.0236 -31.1873 -3.8206 42.1500 10.2418
# 6 3.5662 -5.1765 -3.6336 -9.6665 10.2418 41.1668
#
#
#
# Elastic Compliance Matrix: (Units=1/GPa)
#
#
# Indices 1 2 3 4 5 6 
#
# 1 0.026233 -0.008331 -0.006493 -0.005953 -0.006538 -0.003665
# 2 -0.008331 0.012508 0.001843 -0.004315 0.005854 -0.000013
# 3 -0.006493 0.001843 0.014915 -0.006519 0.011416 -0.002260
# 4 -0.005953 -0.004315 -0.006519 0.037491 -0.005959 0.009684
# 5 -0.006538 0.005854 0.011416 -0.005959 0.035703 -0.007972
# 6 -0.003665 -0.000013 -0.002260 0.009684 -0.007972 0.028665
#
#
# Mechanical properties :
#
#
# Convention : Reuss Voigt Hill
#
# Bulk Modulus (GPa) = 36.11118 58.32143 47.21630
# Shear Modulus (GPa) = 26.21797 37.25620 31.73708
#
# Velocity S-wave (km/s) = 3.33158 3.97146 3.66551
# Velocity P-wave (km/s) = 5.48516 6.76170 6.15660
#
# Compressibility (1/GPa) = 0.02769225
#
# Stress axis : x y z
#
# Youngs Moduli (GPa) = 38.11995 79.94987 67.04789
#
# Poissons Ratio (x) = 0.66607 0.43538
# Poissons Ratio (y) = 0.31758 -0.12357
# Poissons Ratio (z) = 0.24753 -0.14735
#
# Static dielectric constant tensor:
#      x y z
#    x 1.945800 0.008590 -0.014260 
#    y 0.008590 1.880580 -0.041430 
#    z -0.014260 -0.041430 1.926930 
# 
# From -- ./inp_files/140466.got.cif
#   From: 2010.05.17/outbox.cif.g08.bks.cpg/sg2_71_cif.got.tgz:140466.got - 2010.06.03 11:33:40.
