data_PCOD9035882
_publ_section_title
;
Structure prediction by ZEFSAII (Michael W. Deem and Ramdas Pophale) SiO2 
 PCOD9035882
Probable space group: P -1
;
_chemical_formula_sum "Si O2"
_cell_formula_units_Z 13
_cell_length_a 14.529961
_cell_length_b 5.487140
_cell_length_c 9.241736
_cell_angle_alpha 111.248189
_cell_angle_beta 110.590749
_cell_angle_gamma 51.156426
_cell_volume 526.959860
_symmetry_space_group_name_H-M "P -1"
_symmetry_group_IT_number 2
_symmetry_cell_setting 'triclinic'
loop_
_space_group_symop_operation_xyz
x,y,z
-x,-y,-z
loop_
_atom_site_type_symbol
_atom_site_label
_atom_site_fract_x
_atom_site_fract_y
_atom_site_fract_z
Si Si1 0.666604 0.640806 0.393985
Si Si2 0.927765 0.339812 0.952758
Si Si3 0.567023 0.273014 0.622679
Si Si4 0.000000 0.500000 0.500000
Si Si5 0.890528 0.303951 0.594076
Si Si6 0.486069 0.713508 0.902774
Si Si7 0.231557 0.259256 0.789441
O O1 0.531798 0.749345 0.351661
O O2 0.769141 0.352986 0.484829
O O3 0.714344 0.592269 0.248297
O O4 0.660309 0.934098 0.533356
O O5 0.900150 0.276353 0.763416
O O6 0.816609 0.582212 0.046581
O O7 0.000000 0.500000 0.000000
O O8 0.000000 0.000000 0.000000
O O9 0.500000 0.500000 0.500000
O O10 0.587527 0.471479 0.790514
O O11 0.910324 0.562013 0.597428
O O12 0.885228 0.644107 0.348478
O O13 0.000000 0.000000 0.500000
O O14 0.349468 0.898339 0.801964
O O15 0.500000 0.500000 0.000000
O O16 0.500000 0.000000 0.000000
#
# Coordination Sequence:
#
# PCOD9035882 Si02
#       7
#     2   2   2   1   2   2   2
#     4  10  24  45  75 112 148 208 264 336 392 477
#     4  12  27  49  74 112 157 203 263 327 400 484
#     4  11  24  47  76 105 151 199 275 319 391 475
#     4  10  22  46  74 108 148 200 268 322 394 466
#     4  11  25  43  77 110 153 206 264 323 406 482
#     4  12  29  49  77 114 161 208 259 332 411 480
#     4  11  24  49  77 112 158 209 262 337 399 483
#
# _framework density 24.669810999999999
#
# number of rings (size 3 to 8) (size 9 to 14) (size 15 to 20)
#    0.000    0.923    3.077    2.769    6.462    2.462 
#    0.000    0.000    0.000    0.000    0.000    0.000 
#    0.000    0.000    0.000    0.000    0.000    0.000 
#
# Total GULP energy -72367.536321 kJ/mol
# GULP energy per Si atom -5566.733563 kJ/mol
# Density = 2.461366 g / cm^3
# Si number density = 24.669811 Si / 1000 Ang^3
#
#
#
# Elastic Constant Matrix: (Units=GPa)
#
#
# Indices 1 2 3 4 5 6 
#
# 1 115.5600 15.8613 30.6011 -7.6230 -4.9424 -1.9557
# 2 15.8613 71.2098 30.3561 -2.2289 6.3048 -0.8529
# 3 30.6011 30.3561 164.2440 -17.3649 -29.9804 8.3420
# 4 -7.6230 -2.2289 -17.3649 58.7295 -8.9257 -1.9988
# 5 -4.9424 6.3048 -29.9804 -8.9257 56.2039 -2.6587
# 6 -1.9557 -0.8529 8.3420 -1.9988 -2.6587 43.7083
#
#
#
# Elastic Compliance Matrix: (Units=1/GPa)
#
#
# Indices 1 2 3 4 5 6 
#
# 1 0.009297 -0.001516 -0.001314 0.000854 0.000455 0.000704
# 2 -0.001516 0.016255 -0.003627 -0.001248 -0.004059 0.000638
# 3 -0.001314 -0.003627 0.008308 0.002883 0.005121 -0.001272
# 4 0.000854 -0.001248 0.002883 0.018686 0.004749 0.000607
# 5 0.000455 -0.004059 0.005121 0.004749 0.021797 0.000507
# 6 0.000704 0.000638 -0.001272 0.000607 0.000507 0.023224
#
#
# Mechanical properties :
#
#
# Convention : Reuss Voigt Hill
#
# Bulk Modulus (GPa) = 47.74314 56.07232 51.90773
# Shear Modulus (GPa) = 42.56630 50.00802 46.28716
#
# Velocity S-wave (km/s) = 4.15835 4.50721 4.33629
# Velocity P-wave (km/s) = 6.51542 7.06152 6.79396
#
# Compressibility (1/GPa) = 0.02094542
#
# Stress axis : x y z
#
# Youngs Moduli (GPa) = 107.55756 61.52006 120.36732
#
# Poissons Ratio (x) = 0.09325 0.15822
# Poissons Ratio (y) = 0.16303 0.43659
# Poissons Ratio (z) = 0.14138 0.22314
#
# Static dielectric constant tensor:
#      x y z
#    x 2.048530 0.071950 0.115720 
#    y 0.071950 2.112800 0.025840 
#    z 0.115720 0.025840 2.004770 
# 
# From -- ./inp_files/288168.got.cif
#   From: 2010.05.17/outbox.cif.g08.bks.cpg/sg2_145_cif.got.tgz:288168.got - 2010.06.03 11:33:40.
