data_PCOD9035193
_publ_section_title
;
Structure prediction by ZEFSAII (Michael W. Deem and Ramdas Pophale) SiO2 
 PCOD9035193
Probable space group: P -1
;
_chemical_formula_sum "Si O2"
_cell_formula_units_Z 15
_cell_length_a 7.747190
_cell_length_b 5.727059
_cell_length_c 19.285542
_cell_angle_alpha 128.557957
_cell_angle_beta 81.844173
_cell_angle_gamma 91.876026
_cell_volume 660.633497
_symmetry_space_group_name_H-M "P -1"
_symmetry_group_IT_number 2
_symmetry_cell_setting 'triclinic'
loop_
_space_group_symop_operation_xyz
x,y,z
-x,-y,-z
loop_
_atom_site_type_symbol
_atom_site_label
_atom_site_fract_x
_atom_site_fract_y
_atom_site_fract_z
Si Si1 0.152206 0.807902 0.363298
Si Si2 0.257233 0.730329 0.188517
Si Si3 0.849256 0.646215 0.442455
Si Si4 0.568612 0.698162 0.726150
Si Si5 0.500000 0.000000 0.500000
Si Si6 0.376650 0.867379 0.626357
Si Si7 0.363470 0.483694 0.813537
Si Si8 0.986812 0.360176 0.052626
O O1 0.157169 0.782320 0.276551
O O2 0.340144 0.639506 0.343408
O O3 0.014509 0.628791 0.379702
O O4 0.120938 0.144864 0.454486
O O5 0.453547 0.588670 0.168976
O O6 0.144127 0.514944 0.111129
O O7 0.293869 0.058648 0.217951
O O8 0.695957 0.836880 0.445279
O O9 0.788014 0.326604 0.404801
O O10 0.496916 0.753968 0.663950
O O11 0.415616 0.723193 0.796877
O O12 0.488115 0.829968 0.543870
O O13 0.323722 0.201388 0.716422
O O14 0.202026 0.546196 0.885106
O O15 0.000000 0.500000 0.000000
O O16 0.000000 0.000000 0.000000
#
# Coordination Sequence:
#
# PCOD9035193 Si02
#       8
#     2   2   2   2   1   2   2   2
#     4  10  24  41  63 100 140 196 249 313 370 439
#     4  10  25  48  77 105 153 200 241 314 392 464
#     4  11  23  38  62  97 143 189 257 305 356 432
#     4  10  22  45  72 100 138 201 249 300 386 452
#     4  12  24  38  56  98 134 190 248 300 354 430
#     4  11  24  40  68  97 142 202 248 307 367 448
#     4  10  25  48  76 109 152 198 248 310 395 461
#     4  12  32  52  84 124 151 194 259 322 394 487
#
# _framework density 22.705480999999999
#
# number of rings (size 3 to 8) (size 9 to 14) (size 15 to 20)
#    0.000    1.333    0.000    4.400   13.067    3.200 
#    0.000    4.667    0.000    0.000    0.000    0.000 
#    0.000    0.000    0.000    0.000    0.000    0.000 
#
# Total GULP energy -83665.194274 kJ/mol
# GULP energy per Si atom -5577.679618 kJ/mol
# Density = 2.265380 g / cm^3
# Si number density = 22.705481 Si / 1000 Ang^3
#
#
#
# Elastic Constant Matrix: (Units=GPa)
#
#
# Indices 1 2 3 4 5 6 
#
# 1 114.9443 50.2636 67.6446 -6.7034 -6.4823 31.0189
# 2 50.2636 142.0314 92.0562 -11.1906 15.6074 42.9775
# 3 67.6446 92.0562 131.8822 -17.7507 -6.9237 28.1569
# 4 -6.7034 -11.1906 -17.7507 44.6970 14.0509 3.2738
# 5 -6.4823 15.6074 -6.9237 14.0509 40.9102 -0.2480
# 6 31.0189 42.9775 28.1569 3.2738 -0.2480 51.3484
#
#
#
# Elastic Compliance Matrix: (Units=1/GPa)
#
#
# Indices 1 2 3 4 5 6 
#
# 1 0.013579 0.000909 -0.006417 -0.000114 0.000725 -0.005435
# 2 0.000909 0.018571 -0.011192 0.004362 -0.010396 -0.010284
# 3 -0.006417 -0.011192 0.018562 0.001538 0.005885 0.002995
# 4 -0.000114 0.004362 0.001538 0.028000 -0.011077 -0.006264
# 5 0.000725 -0.010396 0.005885 -0.011077 0.033361 0.005903
# 6 -0.005435 -0.010284 0.002995 -0.006264 0.005903 0.030150
#
#
# Mechanical properties :
#
#
# Convention : Reuss Voigt Hill
#
# Bulk Modulus (GPa) = 57.75903 89.86518 73.81210
# Shear Modulus (GPa) = 27.56441 39.31737 33.44089
#
# Velocity S-wave (km/s) = 3.48803 4.16579 3.84189
# Velocity P-wave (km/s) = 6.45874 7.92483 7.22905
#
# Compressibility (1/GPa) = 0.01731331
#
# Stress axis : x y z
#
# Youngs Moduli (GPa) = 73.64135 53.84797 53.87234
#
# Poissons Ratio (x) = -0.04895 0.34568
# Poissons Ratio (y) = -0.06694 0.60294
# Poissons Ratio (z) = 0.47252 0.60267
#
# Static dielectric constant tensor:
#      x y z
#    x 1.992610 -0.016770 0.147560 
#    y -0.016770 1.873940 0.017800 
#    z 0.147560 0.017800 1.955630 
# 
# From -- ./inp_files/553078.got.cif
#   From: 2010.05.17/outbox.cif.g08.bks.cpg/sg2_277_cif.got.tgz:553078.got - 2010.06.03 11:33:40.
