data_PCOD9035414
_publ_section_title
;
Structure prediction by ZEFSAII (Michael W. Deem and Ramdas Pophale) SiO2 
 PCOD9035414
Probable space group: P -1
;
_chemical_formula_sum "Si O2"
_cell_formula_units_Z 16
_cell_length_a 21.584731
_cell_length_b 12.748172
_cell_length_c 9.326101
_cell_angle_alpha 140.327589
_cell_angle_beta 26.954286
_cell_angle_gamma 135.151758
_cell_volume 740.268675
_symmetry_space_group_name_H-M "P -1"
_symmetry_group_IT_number 2
_symmetry_cell_setting 'triclinic'
loop_
_space_group_symop_operation_xyz
x,y,z
-x,-y,-z
loop_
_atom_site_type_symbol
_atom_site_label
_atom_site_fract_x
_atom_site_fract_y
_atom_site_fract_z
Si Si1 0.262766 0.794054 0.644538
Si Si2 0.205394 0.168349 0.232732
Si Si3 0.561156 0.896509 0.134514
Si Si4 0.826795 0.144559 0.401548
Si Si5 0.708860 0.763184 0.175194
Si Si6 0.966484 0.657538 0.644473
Si Si7 0.426066 0.864692 0.904680
Si Si8 0.949020 0.331177 0.852339
O O1 0.422224 0.784912 0.265626
O O2 0.177857 0.757735 0.635900
O O3 0.205955 0.700518 0.804234
O O4 0.230607 0.980944 0.945206
O O5 0.046292 0.201430 0.590253
O O6 0.306516 0.196079 0.188914
O O7 0.264405 0.271270 0.082863
O O8 0.500000 0.000000 0.500000
O O9 0.600015 0.030750 0.073671
O O10 0.968949 0.186177 0.232797
O O11 0.774464 0.953045 0.273140
O O12 0.712476 0.204572 0.808830
O O13 0.546779 0.745902 0.510105
O O14 0.803344 0.657551 0.963987
O O15 0.027442 0.668402 0.366968
O O16 0.000000 0.500000 0.500000
O O17 0.500000 0.000000 0.000000
O O18 0.000000 0.500000 0.000000
#
# Coordination Sequence:
#
# PCOD9035414 Si02
#       8
#     2   2   2   2   2   2   2   2
#     4  10  19  37  59  87 116 143 182 234 279 332
#     4   9  19  35  60  88 111 145 185 232 278 332
#     4  10  17  32  58  87 117 140 179 229 284 335
#     4  10  20  36  59  88 115 143 184 230 283 333
#     4   9  18  37  59  85 117 142 183 234 279 328
#     4  11  24  40  57  80 113 155 192 228 276 333
#     4  10  17  34  54  89 119 142 171 234 287 327
#     4  11  24  41  56  78 117 153 190 232 276 327
#
# _framework density 21.613773999999999
#
# number of rings (size 3 to 8) (size 9 to 14) (size 15 to 20)
#    0.000    2.000    5.000    1.500    3.500    0.000 
#    9.000    1.250    0.000    0.000    0.000    0.000 
#    0.000    0.000    0.000    0.000    0.000    0.000 
#
# Total GULP energy -89108.622852 kJ/mol
# GULP energy per Si atom -5569.288928 kJ/mol
# Density = 2.156458 g / cm^3
# Si number density = 21.613774 Si / 1000 Ang^3
#
#
#
# Elastic Constant Matrix: (Units=GPa)
#
#
# Indices 1 2 3 4 5 6 
#
# 1 118.0990 18.3702 22.6380 1.8235 -14.4617 -22.4796
# 2 18.3702 39.8631 15.0025 -1.0323 -10.2054 -16.6908
# 3 22.6380 15.0025 57.4578 -13.7589 -23.7684 -19.6860
# 4 1.8235 -1.0323 -13.7589 26.4308 -3.7828 4.2446
# 5 -14.4617 -10.2054 -23.7684 -3.7828 37.2875 4.6105
# 6 -22.4796 -16.6908 -19.6860 4.2446 4.6105 27.8182
#
#
#
# Elastic Compliance Matrix: (Units=1/GPa)
#
#
# Indices 1 2 3 4 5 6 
#
# 1 0.010460 -0.000989 -0.001185 -0.002231 0.001934 0.007040
# 2 -0.000989 0.035428 0.001057 -0.000133 0.007502 0.019982
# 3 -0.001185 0.001057 0.040110 0.021261 0.024998 0.020674
# 4 -0.002231 -0.000133 0.021261 0.051168 0.017539 0.002449
# 5 0.001934 0.007502 0.024998 0.017539 0.045666 0.013510
# 6 0.007040 0.019982 0.020674 0.002449 0.013510 0.065644
#
#
# Mechanical properties :
#
#
# Convention : Reuss Voigt Hill
#
# Bulk Modulus (GPa) = 11.93828 36.38238 24.16033
# Shear Modulus (GPa) = 17.94493 28.93457 23.43975
#
# Velocity S-wave (km/s) = 2.88454 3.66281 3.29672
# Velocity P-wave (km/s) = 4.07793 5.89557 5.06889
#
# Compressibility (1/GPa) = 0.08376419
#
# Stress axis : x y z
#
# Youngs Moduli (GPa) = 95.60390 28.22657 24.93124
#
# Poissons Ratio (x) = 0.02792 0.02954
# Poissons Ratio (y) = 0.09457 -0.02636
# Poissons Ratio (z) = 0.11328 -0.02984
#
# Static dielectric constant tensor:
#      x y z
#    x 1.869680 0.042360 -0.039100 
#    y 0.042360 1.853400 -0.007790 
#    z -0.039100 -0.007790 1.859630 
# 
# From -- ./inp_files/345547.got.cif
#   From: 2010.05.17/outbox.cif.g08.bks.cpg/sg2_173_cif.got.tgz:345547.got - 2010.06.03 11:33:40.
