data_PCOD9035981
_publ_section_title
;
Structure prediction by ZEFSAII (Michael W. Deem and Ramdas Pophale) SiO2 
 PCOD9035981
Probable space group: P -1
;
_chemical_formula_sum "Si O2"
_cell_formula_units_Z 15
_cell_length_a 11.401232
_cell_length_b 11.104643
_cell_length_c 14.218469
_cell_angle_alpha 137.993496
_cell_angle_beta 149.961752
_cell_angle_gamma 50.925473
_cell_volume 602.590805
_symmetry_space_group_name_H-M "P -1"
_symmetry_group_IT_number 2
_symmetry_cell_setting 'triclinic'
loop_
_space_group_symop_operation_xyz
x,y,z
-x,-y,-z
loop_
_atom_site_type_symbol
_atom_site_label
_atom_site_fract_x
_atom_site_fract_y
_atom_site_fract_z
Si Si1 0.242569 0.695840 0.278283
Si Si2 0.537715 0.469101 0.219056
Si Si3 0.041248 0.449195 0.340319
Si Si4 0.396965 0.970129 0.240680
Si Si5 0.843377 0.249148 0.541922
Si Si6 0.625510 0.869746 0.172488
Si Si7 0.004115 0.839938 0.023037
Si Si8 0.500000 0.500000 0.000000
O O1 0.363285 0.533146 0.216058
O O2 0.427491 0.865245 0.516610
O O3 0.180613 0.652138 0.317540
O O4 0.039151 0.765595 0.108670
O O5 0.777998 0.582410 0.469579
O O6 0.427923 0.522703 0.074810
O O7 0.534139 0.251900 0.077518
O O8 0.160027 0.626894 0.478584
O O9 0.780514 0.471871 0.206894
O O10 0.057847 0.306323 0.185217
O O11 0.545182 0.823270 0.199048
O O12 0.255623 0.916924 0.204779
O O13 0.196410 0.017382 0.051891
O O14 0.107767 0.181773 0.687165
O O15 0.650555 0.084960 0.306910
#
# Coordination Sequence:
#
# PCOD9035981 Si02
#       8
#     2   2   2   2   2   2   2   1
#     4  11  23  45  70 100 135 186 225 282 336 406
#     4  12  25  44  74 102 136 180 230 280 349 397
#     4  12  25  45  71 104 133 185 224 285 338 414
#     4  10  23  44  66 101 135 179 227 287 331 414
#     4  10  24  46  71  98 141 181 234 276 347 402
#     4  10  22  47  66 100 141 179 225 292 334 403
#     4  11  22  42  71  98 138 176 233 277 343 400
#     4  12  24  46  66 102 140 168 222 288 338 404
#
# _framework density 24.892513000000001
#
# number of rings (size 3 to 8) (size 9 to 14) (size 15 to 20)
#    0.000    1.067    4.000    1.600    0.000    3.200 
#   12.000    0.000    0.000    0.000    0.000    0.000 
#    0.000    0.000    0.000    0.000    0.000    0.000 
#
# Total GULP energy -83686.777345 kJ/mol
# GULP energy per Si atom -5579.118490 kJ/mol
# Density = 2.483586 g / cm^3
# Si number density = 24.892513 Si / 1000 Ang^3
#
#
#
# Elastic Constant Matrix: (Units=GPa)
#
#
# Indices 1 2 3 4 5 6 
#
# 1 113.7917 2.5951 26.5332 17.9491 -6.7534 -20.6970
# 2 2.5951 20.1150 10.6270 0.5031 -7.9474 -17.6381
# 3 26.5332 10.6270 125.0366 10.4168 -11.0386 3.3420
# 4 17.9491 0.5031 10.4168 32.2904 -3.1819 7.0706
# 5 -6.7534 -7.9474 -11.0386 -3.1819 39.3916 8.8688
# 6 -20.6970 -17.6381 3.3420 7.0706 8.8688 37.0559
#
#
#
# Elastic Compliance Matrix: (Units=1/GPa)
#
#
# Indices 1 2 3 4 5 6 
#
# 1 0.014491 0.016807 -0.004110 -0.011118 -0.000379 0.018677
# 2 0.016807 0.118424 -0.013195 -0.021644 0.005629 0.069728
# 3 -0.004110 -0.013195 0.010306 0.001611 0.001967 -0.010284
# 4 -0.011118 -0.021644 0.001611 0.042925 0.003425 -0.025668
# 5 -0.000379 0.005629 0.001967 0.003425 0.028449 -0.005172
# 6 0.018677 0.069728 -0.010284 -0.025668 -0.005172 0.077671
#
#
# Mechanical properties :
#
#
# Convention : Reuss Voigt Hill
#
# Bulk Modulus (GPa) = 7.03112 37.60598 22.31855
# Shear Modulus (GPa) = 14.67696 36.36011 25.51854
#
# Velocity S-wave (km/s) = 2.43083 3.82604 3.20527
# Velocity P-wave (km/s) = 3.27251 5.88712 4.76275
#
# Compressibility (1/GPa) = 0.14222480
#
# Stress axis : x y z
#
# Youngs Moduli (GPa) = 69.00722 8.44420 97.03551
#
# Poissons Ratio (x) = -0.14192 0.39881
# Poissons Ratio (y) = -1.15979 1.28038
# Poissons Ratio (z) = 0.28362 0.11142
#
# Static dielectric constant tensor:
#      x y z
#    x 1.922130 -0.031790 0.028980 
#    y -0.031790 2.014830 0.020880 
#    z 0.028980 0.020880 1.939470 
# 
# From -- ./inp_files/432234.got.cif
#   From: 2010.05.17/outbox.cif.g08.bks.cpg/sg2_217_cif.got.tgz:432234.got - 2010.06.03 11:33:40.
