data_PCOD9035316
_publ_section_title
;
Structure prediction by ZEFSAII (Michael W. Deem and Ramdas Pophale) SiO2 
 PCOD9035316
Probable space group: P -1
;
_chemical_formula_sum "Si O2"
_cell_formula_units_Z 16
_cell_length_a 9.545754
_cell_length_b 7.662303
_cell_length_c 24.165283
_cell_angle_alpha 32.721094
_cell_angle_beta 131.282404
_cell_angle_gamma 133.599643
_cell_volume 677.445407
_symmetry_space_group_name_H-M "P -1"
_symmetry_group_IT_number 2
_symmetry_cell_setting 'triclinic'
loop_
_space_group_symop_operation_xyz
x,y,z
-x,-y,-z
loop_
_atom_site_type_symbol
_atom_site_label
_atom_site_fract_x
_atom_site_fract_y
_atom_site_fract_z
Si Si1 0.319552 0.435427 0.771891
Si Si2 0.830246 0.347114 0.041615
Si Si3 0.814882 0.585561 0.452787
Si Si4 0.920854 0.590842 0.596779
Si Si5 0.497590 0.286340 0.142089
Si Si6 0.108259 0.366177 0.906051
Si Si7 0.907113 0.668829 0.689538
Si Si8 0.532433 0.472056 0.702336
O O1 0.419903 0.688990 0.780316
O O2 0.463029 0.484993 0.743282
O O3 0.112627 0.471818 0.686750
O O4 0.277399 0.055399 0.887247
O O5 0.905239 0.378509 0.116547
O O6 0.684668 0.571122 0.942427
O O7 0.000000 0.500000 0.000000
O O8 0.791265 0.463055 0.542677
O O9 0.627275 0.460981 0.398064
O O10 0.000000 0.500000 0.500000
O O11 0.903951 0.998835 0.360812
O O12 0.810052 0.528146 0.643135
O O13 0.000000 0.000000 0.500000
O O14 0.667599 0.540496 0.079884
O O15 0.460113 0.908562 0.208245
O O16 0.992188 0.405331 0.811214
O O17 0.000000 0.000000 0.000000
O O18 0.746504 0.725740 0.673411
#
# Coordination Sequence:
#
# PCOD9035316 Si02
#       8
#     2   2   2   2   2   2   2   2
#     4  12  24  46  72 101 145 187 243 296 358 435
#     4  12  28  43  69 106 142 193 248 295 363 435
#     4  11  22  46  72 102 143 183 237 304 354 417
#     4  10  22  45  73  97 140 187 232 300 358 416
#     4  12  25  48  69 103 150 190 241 300 361 426
#     4  12  24  44  73 100 148 194 236 298 362 431
#     4  11  25  45  72 105 141 187 240 291 366 429
#     4  12  26  46  74 108 143 191 238 299 366 432
#
# _framework density 23.61814
#
# number of rings (size 3 to 8) (size 9 to 14) (size 15 to 20)
#    0.000    0.500    5.000    3.000    5.250    1.000 
#    2.250    0.000    0.000    0.000    0.000    0.000 
#    0.000    0.000    0.000    0.000    0.000    0.000 
#
# Total GULP energy -89560.605019 kJ/mol
# GULP energy per Si atom -5597.537814 kJ/mol
# Density = 2.356438 g / cm^3
# Si number density = 23.618140 Si / 1000 Ang^3
#
#
#
# Elastic Constant Matrix: (Units=GPa)
#
#
# Indices 1 2 3 4 5 6 
#
# 1 167.3927 18.9726 38.4218 7.7083 -21.4524 2.5542
# 2 18.9726 50.1615 11.3833 0.7406 -13.2384 -7.2749
# 3 38.4218 11.3833 115.0966 13.0408 -3.8562 -1.1587
# 4 7.7083 0.7406 13.0408 26.7995 -8.5394 5.6032
# 5 -21.4524 -13.2384 -3.8562 -8.5394 52.3091 5.6777
# 6 2.5542 -7.2749 -1.1587 5.6032 5.6777 39.4861
#
#
#
# Elastic Compliance Matrix: (Units=1/GPa)
#
#
# Indices 1 2 3 4 5 6 
#
# 1 0.006972 -0.001696 -0.002100 0.000081 0.002417 -0.001184
# 2 -0.001696 0.022682 -0.001652 0.001499 0.004806 0.003336
# 3 -0.002100 -0.001652 0.010073 -0.004932 -0.001454 0.001036
# 4 0.000081 0.001499 -0.004932 0.043697 0.007966 -0.007220
# 5 0.002417 0.004806 -0.001454 0.007966 0.022924 -0.003740
# 6 -0.001184 0.003336 0.001036 -0.007220 -0.003740 0.027609
#
#
# Mechanical properties :
#
#
# Convention : Reuss Voigt Hill
#
# Bulk Modulus (GPa) = 34.68418 52.24514 43.46466
# Shear Modulus (GPa) = 32.36988 41.31050 36.84019
#
# Velocity S-wave (km/s) = 3.70611 4.18676 3.95375
# Velocity P-wave (km/s) = 5.74726 6.74839 6.26784
#
# Compressibility (1/GPa) = 0.02883159
#
# Stress axis : x y z
#
# Youngs Moduli (GPa) = 143.42539 44.08791 99.27216
#
# Poissons Ratio (x) = 0.07475 0.20846
# Poissons Ratio (y) = 0.24319 0.16405
# Poissons Ratio (z) = 0.30118 0.07285
#
# Static dielectric constant tensor:
#      x y z
#    x 1.892210 -0.047730 0.006630 
#    y -0.047730 1.995840 -0.019320 
#    z 0.006630 -0.019320 1.910510 
# 
# From -- ./inp_files/356364.got.cif
#   From: 2010.05.17/outbox.cif.g08.bks.cpg/sg2_179_cif.got.tgz:356364.got - 2010.06.03 11:33:40.
