data_PCOD9035260
_publ_section_title
;
Structure prediction by ZEFSAII (Michael W. Deem and Ramdas Pophale) SiO2 
 PCOD9035260
Probable space group: P -1
;
_chemical_formula_sum "Si O2"
_cell_formula_units_Z 10
_cell_length_a 7.167510
_cell_length_b 14.147024
_cell_length_c 5.114265
_cell_angle_alpha 78.535421
_cell_angle_beta 113.030016
_cell_angle_gamma 133.726286
_cell_volume 342.877493
_symmetry_space_group_name_H-M "P -1"
_symmetry_group_IT_number 2
_symmetry_cell_setting 'triclinic'
loop_
_space_group_symop_operation_xyz
x,y,z
-x,-y,-z
loop_
_atom_site_type_symbol
_atom_site_label
_atom_site_fract_x
_atom_site_fract_y
_atom_site_fract_z
Si Si1 0.069806 0.415418 0.666982
Si Si2 0.699942 0.790386 0.945938
Si Si3 0.802081 0.646813 0.734916
Si Si4 0.378806 0.804541 0.118275
Si Si5 0.754237 0.012785 0.562015
O O1 0.235532 0.412180 0.535286
O O2 0.772590 0.271443 0.652710
O O3 0.000000 0.500000 0.500000
O O4 0.787339 0.556826 0.991530
O O5 0.749383 0.907335 0.762216
O O6 0.664073 0.695205 0.764005
O O7 0.446684 0.731372 0.031852
O O8 0.958303 0.850943 0.248840
O O9 0.134342 0.781130 0.848742
O O10 0.665268 0.951451 0.253092
O O11 0.500000 0.000000 0.500000
#
# Coordination Sequence:
#
# PCOD9035260 Si02
#       5
#     2   2   2   2   2
#     4  10  22  45  73 100 138 182 228 292 355 406
#     4  11  24  41  68 103 140 187 233 279 347 414
#     4  10  23  43  71 100 141 180 231 285 349 412
#     4  10  23  40  68  97 142 177 235 281 344 402
#     4  11  22  43  65 100 144 187 229 282 345 412
#
# _framework density 29.164932
#
# number of rings (size 3 to 8) (size 9 to 14) (size 15 to 20)
#    1.200    0.400    2.000    2.400    2.800    0.800 
#    7.200    2.000    0.000    0.000    0.000    0.000 
#    0.000    0.000    0.000    0.000    0.000    0.000 
#
# Total GULP energy -56025.609865 kJ/mol
# GULP energy per Si atom -5602.560986 kJ/mol
# Density = 2.909855 g / cm^3
# Si number density = 29.164932 Si / 1000 Ang^3
#
#
#
# Elastic Constant Matrix: (Units=GPa)
#
#
# Indices 1 2 3 4 5 6 
#
# 1 209.0597 39.1720 47.7480 3.2918 -30.9392 -28.0079
# 2 39.1720 121.6720 26.5919 3.5674 -13.4170 -38.7656
# 3 47.7480 26.5919 151.4149 21.8393 -9.4252 -7.5817
# 4 3.2918 3.5674 21.8393 43.2662 0.1810 -2.2937
# 5 -30.9392 -13.4170 -9.4252 0.1810 75.9997 5.4748
# 6 -28.0079 -38.7656 -7.5817 -2.2937 5.4748 50.2839
#
#
#
# Elastic Compliance Matrix: (Units=1/GPa)
#
#
# Indices 1 2 3 4 5 6 
#
# 1 0.005847 -0.000582 -0.001578 0.000518 0.001909 0.002386
# 2 -0.000582 0.011416 -0.001382 0.000229 0.001018 0.008168
# 3 -0.001578 -0.001382 0.007853 -0.003781 0.000165 -0.000951
# 4 0.000518 0.000229 -0.003781 0.025021 -0.000355 0.001075
# 5 0.001909 0.001018 0.000165 -0.000355 0.014113 0.000320
# 6 0.002386 0.008168 -0.000951 0.001075 0.000320 0.027384
#
#
# Mechanical properties :
#
#
# Convention : Reuss Voigt Hill
#
# Bulk Modulus (GPa) = 55.45887 78.79669 67.12778
# Shear Modulus (GPa) = 47.74242 58.48561 53.11401
#
# Velocity S-wave (km/s) = 4.05035 4.48296 4.27214
# Velocity P-wave (km/s) = 6.39771 7.33977 6.88487
#
# Compressibility (1/GPa) = 0.01803138
#
# Stress axis : x y z
#
# Youngs Moduli (GPa) = 171.03625 87.59422 127.34478
#
# Poissons Ratio (x) = 0.05099 0.20095
# Poissons Ratio (y) = 0.09955 0.17601
# Poissons Ratio (z) = 0.26989 0.12107
#
# Static dielectric constant tensor:
#      x y z
#    x 2.225190 0.098340 0.043420 
#    y 0.098340 2.403790 0.105980 
#    z 0.043420 0.105980 2.337260 
# 
# From -- ./inp_files/4234.got.cif
#   From: 2010.05.17/outbox.cif.g08.bks.cpg/sg2_3_cif.got.tgz:4234.got - 2010.06.03 11:33:40.
