data_PCOD9035249
_publ_section_title
;
Structure prediction by ZEFSAII (Michael W. Deem and Ramdas Pophale) SiO2 
 PCOD9035249
Probable space group: P -1
;
_chemical_formula_sum "Si O2"
_cell_formula_units_Z 14
_cell_length_a 19.668451
_cell_length_b 15.999896
_cell_length_c 7.784687
_cell_angle_alpha 37.111017
_cell_angle_beta 144.618683
_cell_angle_gamma 159.196622
_cell_volume 496.304625
_symmetry_space_group_name_H-M "P -1"
_symmetry_group_IT_number 2
_symmetry_cell_setting 'triclinic'
loop_
_space_group_symop_operation_xyz
x,y,z
-x,-y,-z
loop_
_atom_site_type_symbol
_atom_site_label
_atom_site_fract_x
_atom_site_fract_y
_atom_site_fract_z
Si Si1 0.492776 0.604721 0.057560
Si Si2 0.103322 0.414550 0.525755
Si Si3 0.868314 0.062015 0.927119
Si Si4 0.740412 0.866261 0.496254
Si Si5 0.462492 0.814136 0.143460
Si Si6 0.112276 0.309505 0.374933
Si Si7 0.708351 0.202466 0.492941
O O1 0.614598 0.742704 0.260803
O O2 0.350655 0.337614 0.236469
O O3 0.332172 0.571204 0.745475
O O4 0.679375 0.774469 0.030117
O O5 0.057640 0.378385 0.288840
O O6 0.116253 0.572233 0.392060
O O7 0.976815 0.191205 0.757703
O O8 0.758831 0.103543 0.679443
O O9 0.023823 0.200263 0.181203
O O10 0.671767 0.948066 0.296757
O O11 0.974888 0.066953 0.598174
O O12 0.343219 0.575879 0.383946
O O13 0.322484 0.716281 0.853555
O O14 0.500000 0.000000 0.000000
O O15 0.500000 0.000000 0.500000
#
# Coordination Sequence:
#
# PCOD9035249 Si02
#       7
#     2   2   2   2   2   2   2
#     4  10  22  45  72  98 136 186 231 281 342 411
#     4  12  24  42  69 102 138 180 229 282 344 409
#     4  11  24  44  68 102 139 184 227 281 345 406
#     4  10  23  46  71  99 138 183 231 283 344 406
#     4  12  26  43  69 105 142 177 228 286 348 408
#     4  11  26  43  68 102 139 177 229 284 339 406
#     4  12  22  43  68  98 142 179 227 279 342 413
#
# _framework density 28.208482
#
# number of rings (size 3 to 8) (size 9 to 14) (size 15 to 20)
#    0.000    0.857    4.286    2.143    2.000    2.857 
#    0.000    5.714    0.000    0.000    0.000    0.000 
#    0.000    0.000    0.000    0.000    0.000    0.000 
#
# Total GULP energy -78289.640331 kJ/mol
# GULP energy per Si atom -5592.117167 kJ/mol
# Density = 2.814428 g / cm^3
# Si number density = 28.208482 Si / 1000 Ang^3
#
#
#
# Elastic Constant Matrix: (Units=GPa)
#
#
# Indices 1 2 3 4 5 6 
#
# 1 114.5312 34.1651 35.6904 13.1149 -21.6521 15.6617
# 2 34.1651 161.9004 31.1615 -20.2044 -4.6428 34.1036
# 3 35.6904 31.1615 74.1435 -1.7012 -11.5106 -7.6184
# 4 13.1149 -20.2044 -1.7012 37.8230 -1.6573 -3.8763
# 5 -21.6521 -4.6428 -11.5106 -1.6573 49.3045 8.1336
# 6 15.6617 34.1036 -7.6184 -3.8763 8.1336 58.8262
#
#
#
# Elastic Compliance Matrix: (Units=1/GPa)
#
#
# Indices 1 2 3 4 5 6 
#
# 1 0.013041 -0.001312 -0.005565 -0.005720 0.004851 -0.004480
# 2 -0.001312 0.008701 -0.003361 0.004468 0.000416 -0.004893
# 3 -0.005565 -0.003361 0.018307 0.001581 0.000607 0.005821
# 4 -0.005720 0.004468 0.001581 0.030974 -0.000896 0.001302
# 5 0.004851 0.000416 0.000607 -0.000896 0.023345 -0.004741
# 6 -0.004480 -0.004893 0.005821 0.001302 -0.004741 0.022524
#
#
# Mechanical properties :
#
#
# Convention : Reuss Voigt Hill
#
# Bulk Modulus (GPa) = 51.08828 61.40100 56.24464
# Shear Modulus (GPa) = 34.74817 45.82795 40.28806
#
# Velocity S-wave (km/s) = 3.51356 4.03503 3.78329
# Velocity P-wave (km/s) = 5.88306 6.59717 6.25032
#
# Compressibility (1/GPa) = 0.01957396
#
# Stress axis : x y z
#
# Youngs Moduli (GPa) = 76.67903 114.93399 54.62348
#
# Poissons Ratio (x) = 0.15080 0.30396
# Poissons Ratio (y) = 0.10061 0.18358
# Poissons Ratio (z) = 0.42669 0.38628
#
# Static dielectric constant tensor:
#      x y z
#    x 2.188940 -0.095000 0.014700 
#    y -0.095000 2.285810 -0.041780 
#    z 0.014700 -0.041780 2.216280 
# 
# From -- ./inp_files/348835.got.cif
#   From: 2010.05.17/outbox.cif.g08.bks.cpg/sg2_175_cif.got.tgz:348835.got - 2010.06.03 11:33:40.
