data_PCOD9035546
_publ_section_title
;
Structure prediction by ZEFSAII (Michael W. Deem and Ramdas Pophale) SiO2 
 PCOD9035546
Probable space group: P -1
;
_chemical_formula_sum "Si O2"
_cell_formula_units_Z 13
_cell_length_a 8.554374
_cell_length_b 6.015026
_cell_length_c 13.272350
_cell_angle_alpha 46.830359
_cell_angle_beta 69.821635
_cell_angle_gamma 73.695503
_cell_volume 466.509014
_symmetry_space_group_name_H-M "P -1"
_symmetry_group_IT_number 2
_symmetry_cell_setting 'triclinic'
loop_
_space_group_symop_operation_xyz
x,y,z
-x,-y,-z
loop_
_atom_site_type_symbol
_atom_site_label
_atom_site_fract_x
_atom_site_fract_y
_atom_site_fract_z
Si Si1 0.500000 0.000000 0.500000
Si Si2 0.124821 0.589711 0.033428
Si Si3 0.825988 0.663444 0.445586
Si Si4 0.269586 0.231729 0.785161
Si Si5 0.028768 0.117884 0.343230
Si Si6 0.392617 0.063864 0.287132
Si Si7 0.427665 0.347206 0.913660
O O1 0.348621 0.290021 0.471156
O O2 0.411851 0.940287 0.433761
O O3 0.056846 0.462854 0.193685
O O4 0.299671 0.414522 0.012789
O O5 0.000000 0.500000 0.000000
O O6 0.160700 0.944162 0.922170
O O7 0.000000 0.500000 0.500000
O O8 0.797724 0.604472 0.352203
O O9 0.885964 0.008828 0.336889
O O10 0.320037 0.419536 0.813591
O O11 0.449864 0.073656 0.764573
O O12 0.214013 0.972928 0.318748
O O13 0.000000 0.000000 0.500000
O O14 0.426901 0.421721 0.182105
O O15 0.500000 0.000000 0.000000
#
# Coordination Sequence:
#
# PCOD9035546 Si02
#       7
#     1   2   2   2   2   2   2
#     4  10  22  46  68 102 152 200 242 308 376 450
#     4  11  24  45  72 105 147 193 244 307 383 448
#     4  11  25  45  74 114 150 200 263 308 385 468
#     4  10  23  48  75 107 150 192 253 319 381 455
#     4  12  24  45  73 105 152 200 247 311 383 455
#     4  10  23  43  74 103 146 193 248 307 384 444
#     4  11  24  44  75 108 141 191 255 314 380 450
#
# _framework density 27.866558000000001
#
# number of rings (size 3 to 8) (size 9 to 14) (size 15 to 20)
#    0.000    1.231    3.077    1.846    0.000    8.000 
#    2.769    3.077    0.000    0.000    0.000    0.000 
#    0.000    0.000    0.000    0.000    0.000    0.000 
#
# Total GULP energy -72516.371759 kJ/mol
# GULP energy per Si atom -5578.182443 kJ/mol
# Density = 2.780313 g / cm^3
# Si number density = 27.866558 Si / 1000 Ang^3
#
#
#
# Elastic Constant Matrix: (Units=GPa)
#
#
# Indices 1 2 3 4 5 6 
#
# 1 147.2512 45.8384 53.9437 -10.7118 8.6062 12.3746
# 2 45.8384 126.0292 50.8690 3.5253 11.4765 -23.3433
# 3 53.9437 50.8690 152.3162 11.6439 -3.9222 8.0998
# 4 -10.7118 3.5253 11.6439 54.0539 10.8702 10.4329
# 5 8.6062 11.4765 -3.9222 10.8702 53.2084 -2.5222
# 6 12.3746 -23.3433 8.0998 10.4329 -2.5222 72.4183
#
#
#
# Elastic Compliance Matrix: (Units=1/GPa)
#
#
# Indices 1 2 3 4 5 6 
#
# 1 0.009151 -0.002754 -0.002488 0.003439 -0.001902 -0.002735
# 2 -0.002754 0.011147 -0.002943 -0.001160 -0.001725 0.004500
# 3 -0.002488 -0.002943 0.008724 -0.002398 0.002119 -0.001080
# 4 0.003439 -0.001160 -0.002398 0.021562 -0.005076 -0.003977
# 5 -0.001902 -0.001725 0.002119 -0.005076 0.020714 0.000985
# 6 -0.002735 0.004500 -0.001080 -0.003977 0.000985 0.016454
#
#
# Mechanical properties :
#
#
# Convention : Reuss Voigt Hill
#
# Bulk Modulus (GPa) = 79.02412 80.76655 79.89533
# Shear Modulus (GPa) = 46.15178 54.26583 50.20880
#
# Velocity S-wave (km/s) = 4.07402 4.41766 4.24932
# Velocity P-wave (km/s) = 7.10984 7.42073 7.26695
#
# Compressibility (1/GPa) = 0.01265436
#
# Stress axis : x y z
#
# Youngs Moduli (GPa) = 109.28014 89.71047 114.62241
#
# Poissons Ratio (x) = 0.24704 0.28513
# Poissons Ratio (y) = 0.30093 0.33728
# Poissons Ratio (z) = 0.27184 0.26397
#
# Static dielectric constant tensor:
#      x y z
#    x 2.175420 -0.134480 0.080650 
#    y -0.134480 2.363520 -0.106520 
#    z 0.080650 -0.106520 2.379700 
# 
# From -- ./inp_files/76479.got.cif
#   From: 2010.05.17/outbox.cif.g08.bks.cpg/sg2_39_cif.got.tgz:76479.got - 2010.06.03 11:33:40.
