data_PCOD9035688
_publ_section_title
;
Structure prediction by ZEFSAII (Michael W. Deem and Ramdas Pophale) SiO2 
 PCOD9035688
Probable space group: P -1
;
_chemical_formula_sum "Si O2"
_cell_formula_units_Z 10
_cell_length_a 13.672378
_cell_length_b 14.685807
_cell_length_c 5.400031
_cell_angle_alpha 92.447638
_cell_angle_beta 90.242485
_cell_angle_gamma 19.962334
_cell_volume 367.780043
_symmetry_space_group_name_H-M "P -1"
_symmetry_group_IT_number 2
_symmetry_cell_setting 'triclinic'
loop_
_space_group_symop_operation_xyz
x,y,z
-x,-y,-z
loop_
_atom_site_type_symbol
_atom_site_label
_atom_site_fract_x
_atom_site_fract_y
_atom_site_fract_z
Si Si1 0.935408 0.634940 0.711904
Si Si2 0.230481 0.883633 0.679434
Si Si3 0.659857 0.276217 0.839837
Si Si4 0.373582 0.258878 0.058814
Si Si5 0.089174 0.207915 0.657233
O O1 0.746919 0.738526 0.905144
O O2 0.787118 0.846715 0.584950
O O3 0.000000 0.500000 0.500000
O O4 0.230386 0.410359 0.813569
O O5 0.435192 0.671485 0.430809
O O6 0.079560 0.108356 0.612231
O O7 0.352715 0.787675 0.949992
O O8 0.984260 0.024410 0.751188
O O9 0.500000 0.500000 0.000000
O O10 0.204907 0.480011 0.258133
O O11 0.698077 0.968940 0.126126
#
# Coordination Sequence:
#
# PCOD9035688 Si02
#       5
#     2   2   2   2   2
#     4   9  21  42  65  93 134 182 226 284 349 415
#     4  10  24  42  68 104 135 183 238 291 357 428
#     4  10  22  46  70  95 138 185 230 291 364 431
#     4  10  23  41  65  94 136 181 229 284 352 413
#     4  11  24  41  64 102 134 178 235 292 344 421
#
# _framework density 27.190162000000001
#
# number of rings (size 3 to 8) (size 9 to 14) (size 15 to 20)
#    0.000    2.000    0.000    1.200    5.600   10.400 
#    0.000    0.000    0.000    0.000    0.000    0.000 
#    0.000    0.000    0.000    0.000    0.000    0.000 
#
# Total GULP energy -55837.706618 kJ/mol
# GULP energy per Si atom -5583.770662 kJ/mol
# Density = 2.712828 g / cm^3
# Si number density = 27.190162 Si / 1000 Ang^3
#
#
#
# Elastic Constant Matrix: (Units=GPa)
#
#
# Indices 1 2 3 4 5 6 
#
# 1 89.6098 22.6490 35.6049 -16.5435 -20.7687 22.4768
# 2 22.6490 122.5241 45.4208 11.6054 -12.4707 21.3604
# 3 35.6049 45.4208 188.6900 -9.2616 12.4817 24.2655
# 4 -16.5435 11.6054 -9.2616 38.8298 14.0714 1.0056
# 5 -20.7687 -12.4707 12.4817 14.0714 38.9616 -15.7281
# 6 22.4768 21.3604 24.2655 1.0056 -15.7281 52.9652
#
#
#
# Elastic Compliance Matrix: (Units=1/GPa)
#
#
# Indices 1 2 3 4 5 6 
#
# 1 0.015348 -0.001245 -0.002310 0.004435 0.005554 -0.003388
# 2 -0.001245 0.010843 -0.003020 -0.006628 0.005937 -0.000572
# 3 -0.002310 -0.003020 0.007698 0.004708 -0.007882 -0.003759
# 4 0.004435 -0.006628 0.004708 0.037358 -0.017720 -0.007337
# 5 0.005554 0.005937 -0.007882 -0.017720 0.044457 0.012398
# 6 -0.003388 -0.000572 -0.003759 -0.007337 0.012398 0.026092
#
#
# Mechanical properties :
#
#
# Convention : Reuss Voigt Hill
#
# Bulk Modulus (GPa) = 48.21752 67.57482 57.89617
# Shear Modulus (GPa) = 30.89109 45.96126 38.42618
#
# Velocity S-wave (km/s) = 3.37428 4.11586 3.76338
# Velocity P-wave (km/s) = 5.74047 6.89157 6.34219
#
# Compressibility (1/GPa) = 0.02073935
#
# Stress axis : x y z
#
# Youngs Moduli (GPa) = 65.15589 92.22468 129.89709
#
# Poissons Ratio (x) = 0.11480 0.30012
# Poissons Ratio (y) = 0.08111 0.39225
# Poissons Ratio (z) = 0.15054 0.27849
#
# Static dielectric constant tensor:
#      x y z
#    x 2.142070 -0.041000 0.021230 
#    y -0.041000 2.156700 0.044200 
#    z 0.021230 0.044200 2.256750 
# 
# From -- ./inp_files/2912.got.cif
#   From: 2010.05.17/outbox.cif.g08.bks.cpg/sg2_2_cif.got.tgz:2912.got - 2010.06.03 11:33:40.
