data_PCOD9035398
_publ_section_title
;
Structure prediction by ZEFSAII (Michael W. Deem and Ramdas Pophale) SiO2 
 PCOD9035398
Probable space group: P -1
;
_chemical_formula_sum "Si O2"
_cell_formula_units_Z 12
_cell_length_a 9.478238
_cell_length_b 12.306737
_cell_length_c 10.001946
_cell_angle_alpha 132.089274
_cell_angle_beta 47.007117
_cell_angle_gamma 99.026472
_cell_volume 527.626277
_symmetry_space_group_name_H-M "P -1"
_symmetry_group_IT_number 2
_symmetry_cell_setting 'triclinic'
loop_
_space_group_symop_operation_xyz
x,y,z
-x,-y,-z
loop_
_atom_site_type_symbol
_atom_site_label
_atom_site_fract_x
_atom_site_fract_y
_atom_site_fract_z
Si Si1 0.810977 0.253365 0.827390
Si Si2 0.124331 0.549802 0.853272
Si Si3 0.678569 0.987111 0.761864
Si Si4 0.002113 0.631953 0.710179
Si Si5 0.459249 0.630922 0.405665
Si Si6 0.421086 0.977366 0.675290
O O1 0.671640 0.161801 0.866341
O O2 0.893000 0.275647 0.939963
O O3 0.643872 0.455931 0.058468
O O4 0.044258 0.145365 0.499748
O O5 0.399361 0.405038 0.575297
O O6 0.002002 0.573058 0.812943
O O7 0.000000 0.500000 0.000000
O O8 0.611712 0.925694 0.622424
O O9 0.500000 0.000000 0.000000
O O10 0.000000 0.500000 0.500000
O O11 0.239190 0.622086 0.549820
O O12 0.797874 0.833219 0.984458
O O13 0.385707 0.819131 0.556998
O O14 0.500000 0.000000 0.500000
#
# Coordination Sequence:
#
# PCOD9035398 Si02
#       6
#     2   2   2   2   2   2
#     4   9  23  44  74 109 143 187 261 299 359 431
#     4  10  22  45  76 102 139 196 250 293 369 441
#     4  11  24  46  76 112 145 193 252 311 356 451
#     4  12  26  46  73 112 148 185 246 313 372 433
#     4  10  24  46  75 102 140 203 246 291 361 458
#     4  12  27  48  70 105 156 190 240 302 390 432
#
# _framework density 22.743372000000001
#
# number of rings (size 3 to 8) (size 9 to 14) (size 15 to 20)
#    1.000    0.333    0.000    5.000    2.333    4.000 
#    9.000    2.500    0.000    0.000    0.000    0.000 
#    0.000    0.000    0.000    0.000    0.000    0.000 
#
# Total GULP energy -66967.951381 kJ/mol
# GULP energy per Si atom -5580.662615 kJ/mol
# Density = 2.269161 g / cm^3
# Si number density = 22.743372 Si / 1000 Ang^3
#
#
#
# Elastic Constant Matrix: (Units=GPa)
#
#
# Indices 1 2 3 4 5 6 
#
# 1 70.1618 41.3463 21.0712 -6.8978 -3.5362 18.3933
# 2 41.3463 150.7892 67.9740 6.6591 2.1073 28.7467
# 3 21.0712 67.9740 115.1271 16.0348 -20.7909 11.2087
# 4 -6.8978 6.6591 16.0348 47.6601 -2.6624 -1.0610
# 5 -3.5362 2.1073 -20.7909 -2.6624 45.9302 3.8450
# 6 18.3933 28.7467 11.2087 -1.0610 3.8450 33.1604
#
#
#
# Elastic Compliance Matrix: (Units=1/GPa)
#
#
# Indices 1 2 3 4 5 6 
#
# 1 0.018979 -0.003702 -0.000681 0.003451 0.002128 -0.007224
# 2 -0.003702 0.011503 -0.006088 -0.000392 -0.003130 -0.005510
# 3 -0.000681 -0.006088 0.014056 -0.003620 0.006376 0.000049
# 4 0.003451 -0.000392 -0.003620 0.022759 -0.000068 0.000385
# 5 0.002128 -0.003130 0.006376 -0.000068 0.025259 -0.003553
# 6 -0.007224 -0.005510 0.000049 0.000385 -0.003553 0.039348
#
#
# Mechanical properties :
#
#
# Convention : Reuss Voigt Hill
#
# Bulk Modulus (GPa) = 42.38069 66.31792 54.34930
# Shear Modulus (GPa) = 31.11162 39.06259 35.08710
#
# Velocity S-wave (km/s) = 3.70258 4.14881 3.93203
# Velocity P-wave (km/s) = 6.07895 7.22307 6.67556
#
# Compressibility (1/GPa) = 0.02359565
#
# Stress axis : x y z
#
# Youngs Moduli (GPa) = 52.68899 86.93472 71.14372
#
# Poissons Ratio (x) = 0.32183 0.04845
# Poissons Ratio (y) = 0.19506 0.43314
# Poissons Ratio (z) = 0.03588 0.52928
#
# Static dielectric constant tensor:
#      x y z
#    x 1.120740 0.369050 0.285670 
#    y 0.369050 1.677170 -0.142300 
#    z 0.285670 -0.142300 1.836210 
# 
# From -- ./inp_files/190555.got.cif
#   From: 2010.05.17/outbox.cif.g08.bks.cpg/sg2_96_cif.got.tgz:190555.got - 2010.06.03 11:33:40.
