data_PCOD9035794
_publ_section_title
;
Structure prediction by ZEFSAII (Michael W. Deem and Ramdas Pophale) SiO2 
 PCOD9035794
Probable space group: P -1
;
_chemical_formula_sum "Si O2"
_cell_formula_units_Z 12
_cell_length_a 18.570148
_cell_length_b 5.187456
_cell_length_c 9.314722
_cell_angle_alpha 100.758392
_cell_angle_beta 147.575023
_cell_angle_gamma 91.478655
_cell_volume 443.110468
_symmetry_space_group_name_H-M "P -1"
_symmetry_group_IT_number 2
_symmetry_cell_setting 'triclinic'
loop_
_space_group_symop_operation_xyz
x,y,z
-x,-y,-z
loop_
_atom_site_type_symbol
_atom_site_label
_atom_site_fract_x
_atom_site_fract_y
_atom_site_fract_z
Si Si1 0.964608 0.644839 0.662746
Si Si2 0.657538 0.301233 0.072633
Si Si3 0.700834 0.222024 0.459379
Si Si4 0.117132 0.858858 0.662914
Si Si5 0.837785 0.840000 0.800193
Si Si6 0.429347 0.467035 0.531233
O O1 0.801255 0.589138 0.329924
O O2 0.935735 0.313511 0.596545
O O3 0.023949 0.898657 0.896564
O O4 0.084034 0.699172 0.744343
O O5 0.714510 0.074021 0.067772
O O6 0.529248 0.366533 0.793376
O O7 0.634514 0.223736 0.192353
O O8 0.830591 0.528165 0.714034
O O9 0.597900 0.265853 0.415518
O O10 0.754193 0.969769 0.559813
O O11 0.000000 0.000000 0.500000
O O12 0.731426 0.760742 0.752615
O O13 0.500000 0.500000 0.500000
#
# Coordination Sequence:
#
# PCOD9035794 Si02
#       6
#     2   2   2   2   2   2
#     4   9  22  41  65 104 139 184 244 289 359 420
#     4  10  22  46  72 107 144 197 236 295 370 426
#     4  10  25  46  71 107 153 187 242 294 363 436
#     4   9  21  39  66 100 141 188 239 293 355 429
#     4  10  25  44  71 103 150 184 246 297 356 427
#     4  10  25  47  73 106 146 191 247 296 359 429
#
# _framework density 27.081284
#
# number of rings (size 3 to 8) (size 9 to 14) (size 15 to 20)
#    2.000    0.333    0.000    0.500    4.667    5.333 
#    3.000    0.000    0.000    0.000    0.000    0.000 
#    0.000    0.000    0.000    0.000    0.000    0.000 
#
# Total GULP energy -66830.539533 kJ/mol
# GULP energy per Si atom -5569.211628 kJ/mol
# Density = 2.701965 g / cm^3
# Si number density = 27.081284 Si / 1000 Ang^3
#
#
#
# Elastic Constant Matrix: (Units=GPa)
#
#
# Indices 1 2 3 4 5 6 
#
# 1 122.7764 15.3564 -1.2084 6.8413 10.1216 -6.7278
# 2 15.3564 84.1606 8.7019 -5.8213 1.7751 -23.8387
# 3 -1.2084 8.7019 81.4462 14.4556 18.5249 -9.4577
# 4 6.8413 -5.8213 14.4556 44.0315 -3.9209 3.9896
# 5 10.1216 1.7751 18.5249 -3.9209 44.7232 7.5692
# 6 -6.7278 -23.8387 -9.4577 3.9896 7.5692 56.9508
#
#
#
# Elastic Compliance Matrix: (Units=1/GPa)
#
#
# Indices 1 2 3 4 5 6 
#
# 1 0.008803 -0.001525 0.001555 -0.002458 -0.003000 0.001231
# 2 -0.001525 0.013949 -0.001112 0.001912 -0.000495 0.005406
# 3 0.001555 -0.001112 0.015916 -0.006694 -0.008150 0.003913
# 4 -0.002458 0.001912 -0.006694 0.026384 0.006119 -0.003263
# 5 -0.003000 -0.000495 -0.008150 0.006119 0.027997 -0.006065
# 6 0.001231 0.005406 0.003913 -0.003263 -0.006065 0.021652
#
#
# Mechanical properties :
#
#
# Convention : Reuss Voigt Hill
#
# Bulk Modulus (GPa) = 27.39450 37.12036 32.25743
# Shear Modulus (GPa) = 38.74980 46.84333 42.79657
#
# Velocity S-wave (km/s) = 3.78679 4.16352 3.97961
# Velocity P-wave (km/s) = 5.40900 6.07041 5.74923
#
# Compressibility (1/GPa) = 0.03650367
#
# Stress axis : x y z
#
# Youngs Moduli (GPa) = 113.60193 71.68827 62.82936
#
# Poissons Ratio (x) = 0.10934 -0.09770
# Poissons Ratio (y) = 0.17326 0.06987
# Poissons Ratio (z) = -0.17666 0.07972
#
# Static dielectric constant tensor:
#      x y z
#    x 2.371970 0.078700 -0.008250 
#    y 0.078700 2.355040 0.153830 
#    z -0.008250 0.153830 2.300450 
# 
# From -- ./inp_files/128532.got.cif
#   From: 2010.05.17/outbox.cif.g08.bks.cpg/sg2_65_cif.got.tgz:128532.got - 2010.06.03 11:33:40.
