data_PCOD9035801
_publ_section_title
;
Structure prediction by ZEFSAII (Michael W. Deem and Ramdas Pophale) SiO2 
 PCOD9035801
Probable space group: P -1
;
_chemical_formula_sum "Si O2"
_cell_formula_units_Z 14
_cell_length_a 22.835379
_cell_length_b 5.847760
_cell_length_c 5.000750
_cell_angle_alpha 96.394099
_cell_angle_beta 70.161710
_cell_angle_gamma 59.989520
_cell_volume 510.518548
_symmetry_space_group_name_H-M "P -1"
_symmetry_group_IT_number 2
_symmetry_cell_setting 'triclinic'
loop_
_space_group_symop_operation_xyz
x,y,z
-x,-y,-z
loop_
_atom_site_type_symbol
_atom_site_label
_atom_site_fract_x
_atom_site_fract_y
_atom_site_fract_z
Si Si1 0.514148 0.757194 0.249599
Si Si2 0.018930 0.670201 0.187570
Si Si3 0.157595 0.662231 0.799499
Si Si4 0.118682 0.136839 0.275027
Si Si5 0.404763 0.599100 0.415719
Si Si6 0.709344 0.181146 0.010675
Si Si7 0.735034 0.627958 0.900493
O O1 0.436412 0.782161 0.315000
O O2 0.566007 0.495007 0.336388
O O3 0.500000 0.000000 0.500000
O O4 0.556852 0.660895 0.884368
O O5 0.070362 0.463174 0.323776
O O6 0.937988 0.906752 0.474747
O O7 0.075762 0.715896 0.952478
O O8 0.000000 0.500000 0.000000
O O9 0.202948 0.537680 0.444631
O O10 0.216338 0.448635 0.911191
O O11 0.139641 0.961481 0.947430
O O12 0.201702 0.016337 0.236481
O O13 0.315444 0.757401 0.626105
O O14 0.689319 0.484607 0.983672
O O15 0.687678 0.959695 0.953551
#
# Coordination Sequence:
#
# PCOD9035801 Si02
#       7
#     2   2   2   2   2   2   2
#     4  10  22  46  72 110 145 190 237 295 350 441
#     4  11  23  40  67  92 132 187 242 294 370 414
#     4  11  25  44  67  96 131 192 233 307 354 427
#     4  10  24  42  63  97 138 179 242 300 354 436
#     4  10  24  42  74 107 146 189 243 290 362 429
#     4  11  25  50  69 110 143 194 235 303 358 431
#     4  11  27  44  74  97 149 179 243 291 364 422
#
# _framework density 27.423093999999999
#
# number of rings (size 3 to 8) (size 9 to 14) (size 15 to 20)
#    0.000    1.429    1.429    1.714   10.000    4.000 
#    0.000    0.000    0.000    0.000    0.000    0.000 
#    0.000    0.000    0.000    0.000    0.000    0.000 
#
# Total GULP energy -78223.143074 kJ/mol
# GULP energy per Si atom -5587.367362 kJ/mol
# Density = 2.736068 g / cm^3
# Si number density = 27.423094 Si / 1000 Ang^3
#
#
#
# Elastic Constant Matrix: (Units=GPa)
#
#
# Indices 1 2 3 4 5 6 
#
# 1 111.0861 39.7561 44.9517 -8.2427 -14.5649 11.9273
# 2 39.7561 131.3973 58.4826 18.1763 -2.4437 29.6976
# 3 44.9517 58.4826 219.5337 7.0022 -27.0868 17.9316
# 4 -8.2427 18.1763 7.0022 50.2088 4.3530 6.0419
# 5 -14.5649 -2.4437 -27.0868 4.3530 52.0777 -7.4413
# 6 11.9273 29.6976 17.9316 6.0419 -7.4413 44.1974
#
#
#
# Elastic Compliance Matrix: (Units=1/GPa)
#
#
# Indices 1 2 3 4 5 6 
#
# 1 0.011156 -0.003073 -0.001275 0.003010 0.001989 -0.000505
# 2 -0.003073 0.011159 -0.002004 -0.003412 -0.001909 -0.005711
# 3 -0.001275 -0.002004 0.005688 -0.000481 0.002530 -0.000125
# 4 0.003010 -0.003412 -0.000481 0.022050 -0.001643 -0.001615
# 5 0.001989 -0.001909 0.002530 -0.001643 0.021634 0.003586
# 6 -0.000505 -0.005711 -0.000125 -0.001615 0.003586 0.027475
#
#
# Mechanical properties :
#
#
# Convention : Reuss Voigt Hill
#
# Bulk Modulus (GPa) = 65.36215 83.15533 74.25874
# Shear Modulus (GPa) = 42.74715 50.55188 46.64951
#
# Velocity S-wave (km/s) = 3.95245 4.29815 4.12892
# Velocity P-wave (km/s) = 6.68697 7.41762 7.06175
#
# Compressibility (1/GPa) = 0.01529937
#
# Stress axis : x y z
#
# Youngs Moduli (GPa) = 89.63616 89.60981 175.81713
#
# Poissons Ratio (x) = 0.27540 0.22417
# Poissons Ratio (y) = 0.27548 0.35229
# Poissons Ratio (z) = 0.11429 0.17956
#
# Static dielectric constant tensor:
#      x y z
#    x 2.340370 -0.089860 -0.105310 
#    y -0.089860 2.272350 -0.012830 
#    z -0.105310 -0.012830 2.140250 
# 
# From -- ./inp_files/125592.got.cif
#   From: 2010.05.17/outbox.cif.g08.bks.cpg/sg2_63_cif.got.tgz:125592.got - 2010.06.03 11:33:40.
