data_PCOD9035100
_publ_section_title
;
Structure prediction by ZEFSAII (Michael W. Deem and Ramdas Pophale) SiO2 
 PCOD9035100
Probable space group: P -1
;
_chemical_formula_sum "Si O2"
_cell_formula_units_Z 16
_cell_length_a 11.588420
_cell_length_b 8.864358
_cell_length_c 9.462921
_cell_angle_alpha 98.035778
_cell_angle_beta 50.640510
_cell_angle_gamma 89.317036
_cell_volume 737.756511
_symmetry_space_group_name_H-M "P -1"
_symmetry_group_IT_number 2
_symmetry_cell_setting 'triclinic'
loop_
_space_group_symop_operation_xyz
x,y,z
-x,-y,-z
loop_
_atom_site_type_symbol
_atom_site_label
_atom_site_fract_x
_atom_site_fract_y
_atom_site_fract_z
Si Si1 0.346847 0.532499 0.038672
Si Si2 0.607192 0.850567 0.453069
Si Si3 0.194362 0.269709 0.985475
Si Si4 0.923332 0.343310 0.537020
Si Si5 0.353375 0.683314 0.752058
Si Si6 0.121561 0.556072 0.720136
Si Si7 0.898556 0.040198 0.945867
Si Si8 0.114518 0.199445 0.595444
O O1 0.281103 0.376009 0.030436
O O2 0.218579 0.633961 0.243722
O O3 0.500000 0.500000 0.000000
O O4 0.379511 0.608513 0.874795
O O5 0.502048 0.726700 0.569137
O O6 0.719295 0.879589 0.499382
O O7 0.500000 0.000000 0.500000
O O8 0.711960 0.786383 0.232950
O O9 0.036973 0.371284 0.079849
O O10 0.157320 0.118680 0.074819
O O11 0.868971 0.342717 0.417517
O O12 0.000000 0.500000 0.500000
O O13 0.047878 0.214160 0.490374
O O14 0.259858 0.579213 0.714860
O O15 0.242686 0.840479 0.883074
O O16 0.114799 0.378357 0.665173
O O17 0.997368 0.117971 0.767198
O O18 0.000000 0.000000 0.000000
#
# Coordination Sequence:
#
# PCOD9035100 Si02
#       8
#     2   2   2   2   2   2   2   2
#     4  12  28  47  72 105 144 182 234 298 356 413
#     4  12  26  42  66 108 149 186 230 290 347 420
#     4  12  24  44  72 102 144 179 235 293 345 413
#     4  10  22  45  71 102 139 175 232 296 347 411
#     4  12  25  43  72 102 140 188 234 283 357 416
#     4  11  24  44  77 109 131 180 245 295 346 415
#     4  12  21  41  70 102 139 182 231 288 340 414
#     4  11  22  43  73  97 142 185 232 286 347 413
#
# _framework density 21.687373999999998
#
# number of rings (size 3 to 8) (size 9 to 14) (size 15 to 20)
#    0.000    0.500    7.500    0.750    5.250    2.500 
#    0.000    1.250    5.500    0.000    0.000    0.000 
#    0.000    0.000    0.000    0.000    0.000    0.000 
#
# Total GULP energy -89549.031182 kJ/mol
# GULP energy per Si atom -5596.814449 kJ/mol
# Density = 2.163801 g / cm^3
# Si number density = 21.687374 Si / 1000 Ang^3
#
#
#
# Elastic Constant Matrix: (Units=GPa)
#
#
# Indices 1 2 3 4 5 6 
#
# 1 144.0994 44.5877 68.3165 -17.1772 -3.2616 -35.6224
# 2 44.5877 114.2761 43.0412 -18.4249 -1.2885 -14.9585
# 3 68.3165 43.0412 113.5975 -29.3172 -0.9526 -7.1893
# 4 -17.1772 -18.4249 -29.3172 38.1493 -1.7790 -3.0235
# 5 -3.2616 -1.2885 -0.9526 -1.7790 35.7092 -12.4409
# 6 -35.6224 -14.9585 -7.1893 -3.0235 -12.4409 40.9533
#
#
#
# Elastic Compliance Matrix: (Units=1/GPa)
#
#
# Indices 1 2 3 4 5 6 
#
# 1 0.013717 -0.000900 -0.006602 0.001888 0.005397 0.012222
# 2 -0.000900 0.011091 -0.002557 0.003346 0.001660 0.003570
# 3 -0.006602 -0.002557 0.015355 0.007230 -0.001260 -0.003830
# 4 0.001888 0.003346 0.007230 0.035131 0.005122 0.008284
# 5 0.005397 0.001660 -0.001260 0.005122 0.034311 0.015881
# 6 0.012222 0.003570 -0.003830 0.008284 0.015881 0.041117
#
#
# Mechanical properties :
#
#
# Convention : Reuss Voigt Hill
#
# Bulk Modulus (GPa) = 49.89051 75.98486 62.93768
# Shear Modulus (GPa) = 28.16544 37.36420 32.76482
#
# Velocity S-wave (km/s) = 3.60766 4.15523 3.89109
# Velocity P-wave (km/s) = 6.35673 7.62455 7.01932
#
# Compressibility (1/GPa) = 0.02004389
#
# Stress axis : x y z
#
# Youngs Moduli (GPa) = 72.90309 90.16489 65.12364
#
# Poissons Ratio (x) = 0.08117 0.42995
# Poissons Ratio (y) = 0.06563 0.16654
# Poissons Ratio (z) = 0.48131 0.23058
#
# Static dielectric constant tensor:
#      x y z
#    x 1.797610 -0.024170 0.044750 
#    y -0.024170 1.722720 0.098190 
#    z 0.044750 0.098190 1.698050 
# 
# From -- ./inp_files/243842.got.cif
#   From: 2010.05.17/outbox.cif.g08.bks.cpg/sg2_122_cif.got.tgz:243842.got - 2010.06.03 11:33:40.
