data_PCOD9035277
_publ_section_title
;
Structure prediction by ZEFSAII (Michael W. Deem and Ramdas Pophale) SiO2 
 PCOD9035277
Probable space group: P -1
;
_chemical_formula_sum "Si O2"
_cell_formula_units_Z 11
_cell_length_a 7.683687
_cell_length_b 7.538004
_cell_length_c 11.297714
_cell_angle_alpha 74.655330
_cell_angle_beta 39.695744
_cell_angle_gamma 77.871398
_cell_volume 403.024980
_symmetry_space_group_name_H-M "P -1"
_symmetry_group_IT_number 2
_symmetry_cell_setting 'triclinic'
loop_
_space_group_symop_operation_xyz
x,y,z
-x,-y,-z
loop_
_atom_site_type_symbol
_atom_site_label
_atom_site_fract_x
_atom_site_fract_y
_atom_site_fract_z
Si Si1 0.774325 0.302151 0.266512
Si Si2 0.686408 0.488730 0.637613
Si Si3 0.978504 0.711128 0.118007
Si Si4 0.534364 0.859209 0.898957
Si Si5 0.500000 0.500000 0.000000
Si Si6 0.423052 0.879864 0.384990
O O1 0.458900 0.342784 0.384280
O O2 0.753565 0.139492 0.401255
O O3 0.861774 0.506632 0.226615
O O4 0.941370 0.261907 0.066350
O O5 0.530362 0.472132 0.845167
O O6 0.640377 0.305055 0.620746
O O7 0.000000 0.500000 0.500000
O O8 0.745881 0.857802 0.245116
O O9 0.251234 0.737845 0.050360
O O10 0.717188 0.681245 0.852055
O O11 0.610224 0.959396 0.721082
O O12 0.500000 0.000000 0.000000
#
# Coordination Sequence:
#
# PCOD9035277 Si02
#       6
#     2   2   2   2   1   2
#     4  10  23  42  75 109 139 192 242 291 364 424
#     4  11  24  42  73 105 146 191 237 295 360 429
#     4  10  22  45  73 103 145 188 233 298 360 427
#     4  12  26  47  74 107 145 193 243 296 360 431
#     4  12  26  48  72  98 154 192 238 288 376 416
#     4  11  25  43  71 110 140 183 246 299 353 424
#
# _framework density 27.293596999999998
#
# number of rings (size 3 to 8) (size 9 to 14) (size 15 to 20)
#    0.000    1.091    3.636    2.727    5.091    0.727 
#    0.000    0.909    0.000    0.000    0.000    0.000 
#    0.000    0.000    0.000    0.000    0.000    0.000 
#
# Total GULP energy -61498.737801 kJ/mol
# GULP energy per Si atom -5590.794346 kJ/mol
# Density = 2.723148 g / cm^3
# Si number density = 27.293597 Si / 1000 Ang^3
#
#
#
# Elastic Constant Matrix: (Units=GPa)
#
#
# Indices 1 2 3 4 5 6 
#
# 1 88.7182 30.6173 68.3925 -10.4756 8.4411 3.5541
# 2 30.6173 121.4409 59.7687 -16.7196 24.8944 35.3388
# 3 68.3925 59.7687 167.4648 -20.7557 40.1157 -16.7132
# 4 -10.4756 -16.7196 -20.7557 42.2218 -7.6061 11.8841
# 5 8.4411 24.8944 40.1157 -7.6061 70.9760 -9.0381
# 6 3.5541 35.3388 -16.7132 11.8841 -9.0381 53.1550
#
#
#
# Elastic Compliance Matrix: (Units=1/GPa)
#
#
# Indices 1 2 3 4 5 6 
#
# 1 0.017437 0.000719 -0.007981 0.002246 0.001873 -0.004337
# 2 0.000719 0.017886 -0.006364 0.008034 -0.003992 -0.016415
# 3 -0.007981 -0.006364 0.012982 -0.001099 -0.003185 0.008550
# 4 0.002246 0.008034 -0.001099 0.030323 -0.000839 -0.012759
# 5 0.001873 -0.003992 -0.003185 -0.000839 0.017576 0.004703
# 6 -0.004337 -0.016415 0.008550 -0.012759 0.004703 0.036357
#
#
# Mechanical properties :
#
#
# Convention : Reuss Voigt Hill
#
# Bulk Modulus (GPa) = 47.49694 77.24235 62.36964
# Shear Modulus (GPa) = 29.97063 47.86024 38.91543
#
# Velocity S-wave (km/s) = 3.31733 4.19206 3.78008
# Velocity P-wave (km/s) = 5.66682 7.19675 6.47712
#
# Compressibility (1/GPa) = 0.02105399
#
# Stress axis : x y z
#
# Youngs Moduli (GPa) = 57.35031 55.90906 77.02833
#
# Poissons Ratio (x) = -0.04020 0.61476
# Poissons Ratio (y) = -0.04124 0.49018
# Poissons Ratio (z) = 0.45771 0.35578
#
# Static dielectric constant tensor:
#      x y z
#    x 1.895850 0.571640 -0.036150 
#    y 0.571640 1.309390 -0.050960 
#    z -0.036150 -0.050960 2.119170 
# 
# From -- ./inp_files/375744.got.cif
#   From: 2010.05.17/outbox.cif.g08.bks.cpg/sg2_188_cif.got.tgz:375744.got - 2010.06.03 11:33:40.
