data_PCOD9035616
_publ_section_title
;
Structure prediction by ZEFSAII (Michael W. Deem and Ramdas Pophale) SiO2 
 PCOD9035616
Probable space group: P -1
;
_chemical_formula_sum "Si O2"
_cell_formula_units_Z 16
_cell_length_a 17.098113
_cell_length_b 9.743227
_cell_length_c 8.712927
_cell_angle_alpha 47.127167
_cell_angle_beta 36.840203
_cell_angle_gamma 57.284826
_cell_volume 637.781569
_symmetry_space_group_name_H-M "P -1"
_symmetry_group_IT_number 2
_symmetry_cell_setting 'triclinic'
loop_
_space_group_symop_operation_xyz
x,y,z
-x,-y,-z
loop_
_atom_site_type_symbol
_atom_site_label
_atom_site_fract_x
_atom_site_fract_y
_atom_site_fract_z
Si Si1 0.933253 0.284247 0.973357
Si Si2 0.692440 0.339807 0.125444
Si Si3 0.493855 0.609382 0.087113
Si Si4 0.191674 0.534478 0.681244
Si Si5 0.148520 0.788173 0.295485
Si Si6 0.759314 0.853479 0.947611
Si Si7 0.521511 0.027929 0.765162
Si Si8 0.101846 0.149553 0.573104
O O1 0.830330 0.393303 0.944384
O O2 0.901579 0.363888 0.128463
O O3 0.893872 0.064269 0.213968
O O4 0.072059 0.275276 0.674188
O O5 0.590800 0.503212 0.130926
O O6 0.630320 0.182642 0.450086
O O7 0.727090 0.237616 0.989309
O O8 0.344016 0.605997 0.386749
O O9 0.500000 0.500000 0.000000
O O10 0.543758 0.820790 0.823657
O O11 0.138933 0.597840 0.551529
O O12 0.196733 0.318800 0.885771
O O13 0.168000 0.958775 0.252559
O O14 0.026209 0.826076 0.351138
O O15 0.785707 0.817728 0.752961
O O16 0.606997 0.890479 0.174611
O O17 0.500000 0.000000 0.000000
#
# Coordination Sequence:
#
# PCOD9035616 Si02
#       8
#     2   2   2   2   2   2   2   2
#     4  10  23  44  68  95 130 172 220 277 324 395
#     4  11  24  42  70  98 133 175 218 265 337 395
#     4  12  24  42  67  98 141 177 216 276 327 399
#     4  12  24  40  66  98 131 168 221 267 332 387
#     4  11  24  44  67  96 131 173 218 275 326 394
#     4  12  24  40  68  95 131 172 221 269 329 392
#     4  12  26  41  68 101 137 177 222 268 336 405
#     4  10  22  46  69  89 130 176 219 273 334 376
#
# _framework density 25.086959
#
# number of rings (size 3 to 8) (size 9 to 14) (size 15 to 20)
#    0.000    0.750    5.000    1.875    3.500    3.000 
#    0.000    0.000    0.000    0.000    0.000    0.000 
#    0.000    0.000    0.000    0.000    0.000    0.000 
#
# Total GULP energy -89657.965162 kJ/mol
# GULP energy per Si atom -5603.622823 kJ/mol
# Density = 2.502986 g / cm^3
# Si number density = 25.086959 Si / 1000 Ang^3
#
#
#
# Elastic Constant Matrix: (Units=GPa)
#
#
# Indices 1 2 3 4 5 6 
#
# 1 44.3230 21.8029 -9.7307 5.0938 16.4077 -8.3306
# 2 21.8029 123.5458 28.9221 -8.2513 11.6357 -12.4638
# 3 -9.7307 28.9221 97.2638 -0.8662 23.0804 -0.0078
# 4 5.0938 -8.2513 -0.8662 42.9866 -4.7573 8.7941
# 5 16.4077 11.6357 23.0804 -4.7573 36.9929 4.6882
# 6 -8.3306 -12.4638 -0.0078 8.7941 4.6882 52.7340
#
#
#
# Elastic Compliance Matrix: (Units=1/GPa)
#
#
# Indices 1 2 3 4 5 6 
#
# 1 0.041987 -0.007699 0.012729 -0.010998 -0.026701 0.009023
# 2 -0.007699 0.010478 -0.004658 0.003112 0.003369 0.000441
# 3 0.012729 -0.004658 0.016571 -0.004398 -0.015468 0.003021
# 4 -0.010998 0.003112 -0.004398 0.027645 0.011034 -0.006593
# 5 -0.026701 0.003369 -0.015468 0.011034 0.050117 -0.009719
# 6 0.009023 0.000441 0.003021 -0.006593 -0.009719 0.022457
#
#
# Mechanical properties :
#
#
# Convention : Reuss Voigt Hill
#
# Bulk Modulus (GPa) = 14.33061 38.56901 26.44981
# Shear Modulus (GPa) = 26.07260 41.48525 33.77892
#
# Velocity S-wave (km/s) = 3.22730 4.07093 3.67341
# Velocity P-wave (km/s) = 4.42855 6.12406 5.34398
#
# Compressibility (1/GPa) = 0.06978068
#
# Stress axis : x y z
#
# Youngs Moduli (GPa) = 23.81673 95.43531 60.34476
#
# Poissons Ratio (x) = 0.73476 -0.76811
# Poissons Ratio (y) = 0.18337 0.28108
# Poissons Ratio (z) = -0.30316 0.44452
#
# Static dielectric constant tensor:
#      x y z
#    x 1.991480 0.020720 -0.041960 
#    y 0.020720 1.957270 0.036570 
#    z -0.041960 0.036570 1.988370 
# 
# From -- ./inp_files/344947.got.cif
#   From: 2010.05.17/outbox.cif.g08.bks.cpg/sg2_173_cif.got.tgz:344947.got - 2010.06.03 11:33:40.
