data_PCOD9035195
_publ_section_title
;
Structure prediction by ZEFSAII (Michael W. Deem and Ramdas Pophale) SiO2 
 PCOD9035195
Probable space group: P -1
;
_chemical_formula_sum "Si O2"
_cell_formula_units_Z 12
_cell_length_a 13.222972
_cell_length_b 8.229165
_cell_length_c 21.256816
_cell_angle_alpha 34.313613
_cell_angle_beta 21.380413
_cell_angle_gamma 36.820099
_cell_volume 469.771111
_symmetry_space_group_name_H-M "P -1"
_symmetry_group_IT_number 2
_symmetry_cell_setting 'triclinic'
loop_
_space_group_symop_operation_xyz
x,y,z
-x,-y,-z
loop_
_atom_site_type_symbol
_atom_site_label
_atom_site_fract_x
_atom_site_fract_y
_atom_site_fract_z
Si Si1 0.191552 0.666385 0.126073
Si Si2 0.414929 0.594601 0.705168
Si Si3 0.674874 0.093828 0.143696
Si Si4 0.195959 0.767035 0.505295
Si Si5 0.562814 0.306709 0.839406
Si Si6 0.098244 0.081348 0.660785
O O1 0.990875 0.447083 0.283402
O O2 0.500000 0.500000 0.000000
O O3 0.263983 0.934320 0.957817
O O4 0.067458 0.746373 0.240159
O O5 0.615547 0.432912 0.588898
O O6 0.423033 0.385977 0.827380
O O7 0.156180 0.756689 0.761743
O O8 0.589258 0.841125 0.554052
O O9 0.562411 0.419180 0.131233
O O10 0.425454 0.914740 0.363564
O O11 0.000000 0.000000 0.000000
O O12 0.000000 0.000000 0.500000
O O13 0.904442 0.213836 0.672368
O O14 0.500000 0.000000 0.000000
#
# Coordination Sequence:
#
# PCOD9035195 Si02
#       6
#     2   2   2   2   2   2
#     4  11  21  44  72 100 136 186 241 284 351 434
#     4  10  24  45  71 103 137 185 245 293 352 441
#     4  12  27  46  70 109 146 184 242 302 355 432
#     4  11  24  44  77  99 136 198 232 293 365 416
#     4  12  27  43  67 107 146 188 230 296 369 427
#     4  10  22  45  72 100 140 188 237 298 359 416
#
# _framework density 25.544357000000002
#
# number of rings (size 3 to 8) (size 9 to 14) (size 15 to 20)
#    0.000    1.000    3.333    2.500    7.000    1.333 
#    0.000    0.000    0.000    0.000    0.000    0.000 
#    0.000    0.000    0.000    0.000    0.000    0.000 
#
# Total GULP energy -66816.698005 kJ/mol
# GULP energy per Si atom -5568.058167 kJ/mol
# Density = 2.548622 g / cm^3
# Si number density = 25.544357 Si / 1000 Ang^3
#
#
#
# Elastic Constant Matrix: (Units=GPa)
#
#
# Indices 1 2 3 4 5 6 
#
# 1 49.0247 39.0905 19.1212 2.7059 -0.5027 -11.1183
# 2 39.0905 144.0181 34.5527 17.4902 -14.2117 -23.4864
# 3 19.1212 34.5527 145.6484 -3.4667 -20.9617 -7.0105
# 4 2.7059 17.4902 -3.4667 34.7218 -7.1593 -6.2484
# 5 -0.5027 -14.2117 -20.9617 -7.1593 40.4189 3.9973
# 6 -11.1183 -23.4864 -7.0105 -6.2484 3.9973 47.4304
#
#
#
# Elastic Compliance Matrix: (Units=1/GPa)
#
#
# Indices 1 2 3 4 5 6 
#
# 1 0.027341 -0.006813 -0.002288 0.000934 -0.003384 0.003105
# 2 -0.006813 0.010161 -0.001206 -0.003845 0.001926 0.002587
# 3 -0.002288 -0.001206 0.008116 0.002467 0.004190 0.000038
# 4 0.000934 -0.003845 0.002467 0.032483 0.005445 0.002500
# 5 -0.003384 0.001926 0.004190 0.005445 0.028604 -0.000914
# 6 0.003105 0.002587 0.000038 0.002500 -0.000914 0.023505
#
#
# Mechanical properties :
#
#
# Convention : Reuss Voigt Hill
#
# Bulk Modulus (GPa) = 39.99507 58.24668 49.12087
# Shear Modulus (GPa) = 31.41523 40.90935 36.16229
#
# Velocity S-wave (km/s) = 3.51070 4.00622 3.76662
# Velocity P-wave (km/s) = 5.66784 6.65217 6.17964
#
# Compressibility (1/GPa) = 0.02500308
#
# Stress axis : x y z
#
# Youngs Moduli (GPa) = 36.57532 98.41491 123.21493
#
# Poissons Ratio (x) = 0.67049 0.28197
# Poissons Ratio (y) = 0.24918 0.14859
# Poissons Ratio (z) = 0.08370 0.11869
#
# Static dielectric constant tensor:
#      x y z
#    x 2.126300 -0.001260 -0.049380 
#    y -0.001260 1.979180 -0.081320 
#    z -0.049380 -0.081320 1.976930 
# 
# From -- ./inp_files/611730.got.cif
#   From: 2010.05.17/outbox.cif.g08.bks.cpg/sg2_306_cif.got.tgz:611730.got - 2010.06.03 11:33:40.
