data_PCOD9035771
_publ_section_title
;
Structure prediction by ZEFSAII (Michael W. Deem and Ramdas Pophale) SiO2 
 PCOD9035771
Probable space group: P -1
;
_chemical_formula_sum "Si O2"
_cell_formula_units_Z 16
_cell_length_a 5.620208
_cell_length_b 28.723916
_cell_length_c 9.637032
_cell_angle_alpha 34.721993
_cell_angle_beta 79.013013
_cell_angle_gamma 62.513640
_cell_volume 729.206435
_symmetry_space_group_name_H-M "P -1"
_symmetry_group_IT_number 2
_symmetry_cell_setting 'triclinic'
loop_
_space_group_symop_operation_xyz
x,y,z
-x,-y,-z
loop_
_atom_site_type_symbol
_atom_site_label
_atom_site_fract_x
_atom_site_fract_y
_atom_site_fract_z
Si Si1 0.531101 0.262373 0.106464
Si Si2 0.672996 0.066468 0.427163
Si Si3 0.118412 0.585513 0.230278
Si Si4 0.153180 0.748438 0.662853
Si Si5 0.123090 0.756410 0.321740
Si Si6 0.537881 0.131337 0.987722
Si Si7 0.344919 0.617847 0.387768
Si Si8 0.627350 0.968584 0.216469
O O1 0.585078 0.166905 0.263263
O O2 0.603172 0.243165 0.307674
O O3 0.714823 0.290056 0.922801
O O4 0.218126 0.359441 0.891762
O O5 0.604304 0.015007 0.681317
O O6 0.496043 0.098697 0.224345
O O7 0.000000 0.000000 0.500000
O O8 0.174427 0.584160 0.393093
O O9 0.331734 0.477281 0.416315
O O10 0.182880 0.657150 0.962853
O O11 0.167902 0.733468 0.535609
O O12 0.866712 0.853622 0.470156
O O13 0.294414 0.812573 0.144263
O O14 0.259952 0.660938 0.444129
O O15 0.779786 0.810977 0.189835
O O16 0.731463 0.036964 0.098085
O O17 0.500000 0.000000 0.000000
#
# Coordination Sequence:
#
# PCOD9035771 Si02
#       8
#     2   2   2   2   2   2   2   2
#     4  11  22  42  71  99 138 184 235 299 362 431
#     4  12  25  44  72 105 144 190 248 306 363 437
#     4  10  22  46  72 102 139 183 241 295 374 427
#     4  11  26  42  68 101 143 188 239 294 362 443
#     4  12  27  46  72 107 145 191 242 303 360 432
#     4  12  27  47  72 104 146 189 249 298 365 426
#     4  10  23  43  73 105 136 183 241 304 357 441
#     4  12  26  45  71 102 147 198 239 299 363 444
#
# _framework density 21.941661
#
# number of rings (size 3 to 8) (size 9 to 14) (size 15 to 20)
#    0.000    0.750    3.750    3.000    5.250    1.000 
#    0.000    0.625    0.000    0.000    0.000    0.000 
#    0.000    0.000    0.000    0.000    0.000    0.000 
#
# Total GULP energy -89266.093394 kJ/mol
# GULP energy per Si atom -5579.130837 kJ/mol
# Density = 2.189172 g / cm^3
# Si number density = 21.941661 Si / 1000 Ang^3
#
#
#
# Elastic Constant Matrix: (Units=GPa)
#
#
# Indices 1 2 3 4 5 6 
#
# 1 62.5183 46.7987 38.4671 13.4922 15.7054 5.4257
# 2 46.7987 190.9700 68.5064 12.2740 20.2536 27.0630
# 3 38.4671 68.5064 99.5244 -0.4597 13.3567 10.0715
# 4 13.4922 12.2740 -0.4597 42.9246 12.1355 5.5680
# 5 15.7054 20.2536 13.3567 12.1355 31.6861 1.8211
# 6 5.4257 27.0630 10.0715 5.5680 1.8211 27.5260
#
#
#
# Elastic Compliance Matrix: (Units=1/GPa)
#
#
# Indices 1 2 3 4 5 6 
#
# 1 0.025032 -0.002902 -0.007192 -0.005861 -0.005396 0.002093
# 2 -0.002902 0.008384 -0.003775 -0.000193 -0.001903 -0.006125
# 3 -0.007192 -0.003775 0.015899 0.004346 -0.002307 -0.001415
# 4 -0.005861 -0.000193 0.004346 0.028614 -0.009452 -0.005408
# 5 -0.005396 -0.001903 -0.002307 -0.009452 0.039868 0.003054
# 6 0.002093 -0.006125 -0.001415 -0.005408 0.003054 0.043348
#
#
# Mechanical properties :
#
#
# Convention : Reuss Voigt Hill
#
# Bulk Modulus (GPa) = 46.34684 73.39523 59.87103
# Shear Modulus (GPa) = 25.50039 33.71005 29.60522
#
# Velocity S-wave (km/s) = 3.41279 3.92388 3.67723
# Velocity P-wave (km/s) = 6.05790 7.35200 6.73610
#
# Compressibility (1/GPa) = 0.02157645
#
# Stress axis : x y z
#
# Youngs Moduli (GPa) = 39.94946 119.27480 62.89661
#
# Poissons Ratio (x) = 0.34610 0.45237
# Poissons Ratio (y) = 0.11592 0.23744
# Poissons Ratio (z) = 0.28733 0.45028
#
# Static dielectric constant tensor:
#      x y z
#    x 1.969470 0.012380 -0.063660 
#    y 0.012380 1.780590 -0.008250 
#    z -0.063660 -0.008250 1.813180 
# 
# From -- ./inp_files/47456.got.cif
#   From: 2010.05.17/outbox.cif.g08.bks.cpg/sg2_24_cif.got.tgz:47456.got - 2010.06.03 11:33:40.
