data_PCOD9035012
_publ_section_title
;
Structure prediction by ZEFSAII (Michael W. Deem and Ramdas Pophale) SiO2 
 PCOD9035012
Probable space group: P -1
;
_chemical_formula_sum "Si O2"
_cell_formula_units_Z 15
_cell_length_a 8.916573
_cell_length_b 21.508261
_cell_length_c 6.476372
_cell_angle_alpha 50.689066
_cell_angle_beta 117.684909
_cell_angle_gamma 139.617602
_cell_volume 622.211015
_symmetry_space_group_name_H-M "P -1"
_symmetry_group_IT_number 2
_symmetry_cell_setting 'triclinic'
loop_
_space_group_symop_operation_xyz
x,y,z
-x,-y,-z
loop_
_atom_site_type_symbol
_atom_site_label
_atom_site_fract_x
_atom_site_fract_y
_atom_site_fract_z
Si Si1 0.457020 0.214747 0.016367
Si Si2 0.730270 0.435109 0.985465
Si Si3 0.472689 0.333718 0.433368
Si Si4 0.000000 0.000000 0.000000
Si Si5 0.791441 0.191765 0.374459
Si Si6 0.264720 0.963021 0.018795
Si Si7 0.231054 0.377218 0.508469
Si Si8 0.928786 0.772478 0.894697
O O1 0.561208 0.311508 0.046408
O O2 0.552582 0.160422 0.265455
O O3 0.558802 0.286570 0.720319
O O4 0.185394 0.116937 0.002624
O O5 0.663923 0.426334 0.201323
O O6 0.688473 0.505341 0.692509
O O7 0.000000 0.500000 0.000000
O O8 0.371449 0.366956 0.458150
O O9 0.248914 0.241905 0.342431
O O10 0.782109 0.962466 0.088842
O O11 0.969964 0.295248 0.419668
O O12 0.903750 0.223240 0.155820
O O13 0.773787 0.099131 0.661565
O O14 0.084311 0.881892 0.895899
O O15 0.500000 0.000000 0.000000
O O16 0.201232 0.327298 0.817408
#
# Coordination Sequence:
#
# PCOD9035012 Si02
#       8
#     2   2   2   1   2   2   2   2
#     4  12  27  45  71 109 146 189 245 299 363 440
#     4  12  26  45  71 106 143 191 244 296 364 433
#     4  11  25  43  70 106 145 188 240 297 366 438
#     4  12  26  48  74 110 148 188 240 304 364 436
#     4  10  23  45  72 107 146 188 240 302 368 428
#     4  11  25  47  76 109 145 195 248 305 366 434
#     4  10  22  45  70 102 142 189 240 300 362 432
#     4  10  22  45  73 101 143 194 239 294 369 436
#
# _framework density 24.107578
#
# number of rings (size 3 to 8) (size 9 to 14) (size 15 to 20)
#    0.000    1.067    1.333    5.200    1.867    9.067 
#    0.000    6.667    0.000    0.000    0.000    0.000 
#    0.000    0.000    0.000    0.000    0.000    0.000 
#
# Total GULP energy -83626.771454 kJ/mol
# GULP energy per Si atom -5575.118097 kJ/mol
# Density = 2.405271 g / cm^3
# Si number density = 24.107578 Si / 1000 Ang^3
#
#
#
# Elastic Constant Matrix: (Units=GPa)
#
#
# Indices 1 2 3 4 5 6 
#
# 1 89.3338 29.6737 35.6990 4.8623 -13.0392 11.6423
# 2 29.6737 109.9896 14.9089 9.5121 -6.7236 -5.2343
# 3 35.6990 14.9089 93.9608 26.0910 -13.9343 -3.4348
# 4 4.8623 9.5121 26.0910 25.7365 8.4754 -1.9423
# 5 -13.0392 -6.7236 -13.9343 8.4754 35.6942 -9.2173
# 6 11.6423 -5.2343 -3.4348 -1.9423 -9.2173 25.3294
#
#
#
# Elastic Compliance Matrix: (Units=1/GPa)
#
#
# Indices 1 2 3 4 5 6 
#
# 1 0.016567 -0.004555 -0.008126 0.006748 -0.002142 -0.009920
# 2 -0.004555 0.011148 0.002980 -0.007447 0.004923 0.006022
# 3 -0.008126 0.002980 0.024145 -0.028711 0.016817 0.011543
# 4 0.006748 -0.007447 -0.028711 0.079103 -0.032633 -0.014343
# 5 -0.002142 0.004923 0.016817 -0.032633 0.047386 0.019024
# 6 -0.009920 0.006022 0.011543 -0.014343 0.019024 0.052672
#
#
# Mechanical properties :
#
#
# Convention : Reuss Voigt Hill
#
# Bulk Modulus (GPa) = 30.80786 50.42748 40.61767
# Shear Modulus (GPa) = 19.13926 31.55222 25.34574
#
# Velocity S-wave (km/s) = 2.82070 3.62167 3.24599
# Velocity P-wave (km/s) = 4.83896 6.20095 5.56180
#
# Compressibility (1/GPa) = 0.03245925
#
# Stress axis : x y z
#
# Youngs Moduli (GPa) = 60.36157 89.70072 41.41560
#
# Poissons Ratio (x) = 0.40856 0.33653
# Poissons Ratio (y) = 0.27493 -0.12340
# Poissons Ratio (z) = 0.49047 -0.26727
#
# Static dielectric constant tensor:
#      x y z
#    x 2.252220 0.149290 0.268170 
#    y 0.149290 2.008690 0.105050 
#    z 0.268170 0.105050 2.128750 
# 
# From -- ./inp_files/54715.got.cif
#   From: 2010.05.17/outbox.cif.g08.bks.cpg/sg2_28_cif.got.tgz:54715.got - 2010.06.03 11:33:40.
