data_PCOD9035518
_publ_section_title
;
Structure prediction by ZEFSAII (Michael W. Deem and Ramdas Pophale) SiO2 
 PCOD9035518
Probable space group: P -1
;
_chemical_formula_sum "Si O2"
_cell_formula_units_Z 16
_cell_length_a 27.560995
_cell_length_b 5.440927
_cell_length_c 7.937860
_cell_angle_alpha 65.251701
_cell_angle_beta 144.684776
_cell_angle_gamma 113.804415
_cell_volume 620.531030
_symmetry_space_group_name_H-M "P -1"
_symmetry_group_IT_number 2
_symmetry_cell_setting 'triclinic'
loop_
_space_group_symop_operation_xyz
x,y,z
-x,-y,-z
loop_
_atom_site_type_symbol
_atom_site_label
_atom_site_fract_x
_atom_site_fract_y
_atom_site_fract_z
Si Si1 0.096104 0.820793 0.070604
Si Si2 0.772124 0.014416 0.338851
Si Si3 0.384124 0.756316 0.832717
Si Si4 0.409631 0.260193 0.204862
Si Si5 0.226163 0.838422 0.180481
Si Si6 0.909194 0.753952 0.588906
Si Si7 0.783577 0.554890 0.048551
Si Si8 0.477476 0.846021 0.749505
O O1 0.169381 0.008506 0.325752
O O2 0.130512 0.814616 0.981904
O O3 0.091816 0.514636 0.220619
O O4 0.003358 0.905879 0.809795
O O5 0.756009 0.327570 0.176023
O O6 0.836737 0.927793 0.402360
O O7 0.679898 0.851680 0.104324
O O8 0.286371 0.759633 0.523468
O O9 0.420311 0.673486 0.775528
O O10 0.402793 0.579208 0.098006
O O11 0.438442 0.041318 0.942534
O O12 0.487895 0.258133 0.297038
O O13 0.425085 0.087035 0.462776
O O14 0.231890 0.619753 0.113312
O O15 0.255292 0.160420 0.139746
O O16 0.880564 0.643062 0.354547
#
# Coordination Sequence:
#
# PCOD9035518 Si02
#       8
#     2   2   2   2   2   2   2   2
#     4  10  24  40  71 102 142 181 242 291 354 421
#     4  11  22  45  70 103 138 192 236 291 353 434
#     4  11  24  44  70  98 143 183 237 294 359 424
#     4  11  23  43  71 102 138 184 238 290 360 430
#     4  12  26  46  70 108 136 191 232 296 356 425
#     4  10  22  46  67 103 139 191 232 296 348 427
#     4  11  26  46  69 102 145 184 240 290 361 413
#     4  10  24  44  64 106 137 184 233 300 354 428
#
# _framework density 25.784367
#
# number of rings (size 3 to 8) (size 9 to 14) (size 15 to 20)
#    0.000    1.250    1.250    3.375    5.250    2.000 
#    9.000    0.000    0.000    0.000    0.000    0.000 
#    0.000    0.000    0.000    0.000    0.000    0.000 
#
# Total GULP energy -89384.272605 kJ/mol
# GULP energy per Si atom -5586.517038 kJ/mol
# Density = 2.572568 g / cm^3
# Si number density = 25.784367 Si / 1000 Ang^3
#
#
#
# Elastic Constant Matrix: (Units=GPa)
#
#
# Indices 1 2 3 4 5 6 
#
# 1 92.1151 22.4124 45.4180 -0.7396 24.1093 -18.9359
# 2 22.4124 90.7577 43.2308 -9.4262 -3.0311 -5.4169
# 3 45.4180 43.2308 96.9535 2.7380 8.2826 -0.6842
# 4 -0.7396 -9.4262 2.7380 47.7611 6.6791 -7.4193
# 5 24.1093 -3.0311 8.2826 6.6791 43.3986 3.5332
# 6 -18.9359 -5.4169 -0.6842 -7.4193 3.5332 33.6821
#
#
#
# Elastic Compliance Matrix: (Units=1/GPa)
#
#
# Indices 1 2 3 4 5 6 
#
# 1 0.021417 -0.000067 -0.009006 0.004720 -0.012062 0.014152
# 2 -0.000067 0.014872 -0.006817 0.003540 0.001602 0.002827
# 3 -0.009006 -0.006817 0.017432 -0.003888 0.002361 -0.006909
# 4 0.004720 0.003540 -0.003888 0.024201 -0.006099 0.009114
# 5 -0.012062 0.001602 0.002361 -0.006099 0.031247 -0.011097
# 6 0.014152 0.002827 -0.006909 0.009114 -0.011097 0.041131
#
#
# Mechanical properties :
#
#
# Convention : Reuss Voigt Hill
#
# Bulk Modulus (GPa) = 45.57603 55.77206 50.67405
# Shear Modulus (GPa) = 26.40026 36.21936 31.30981
#
# Velocity S-wave (km/s) = 3.20329 3.75200 3.48845
# Velocity P-wave (km/s) = 5.60318 6.35981 5.99345
#
# Compressibility (1/GPa) = 0.02194136
#
# Stress axis : x y z
#
# Youngs Moduli (GPa) = 46.69256 67.24127 57.36643
#
# Poissons Ratio (x) = 0.00451 0.51663
# Poissons Ratio (y) = 0.00313 0.39105
# Poissons Ratio (z) = 0.42050 0.45836
#
# Static dielectric constant tensor:
#      x y z
#    x 2.117130 -0.043640 -0.026720 
#    y -0.043640 2.117470 -0.029850 
#    z -0.026720 -0.029850 2.044210 
# 
# From -- ./inp_files/358208.got.cif
#   From: 2010.05.17/outbox.cif.g08.bks.cpg/sg2_180_cif.got.tgz:358208.got - 2010.06.03 11:33:40.
