data_PCOD9035968
_publ_section_title
;
Structure prediction by ZEFSAII (Michael W. Deem and Ramdas Pophale) SiO2 
 PCOD9035968
Probable space group: P -1
;
_chemical_formula_sum "Si O2"
_cell_formula_units_Z 15
_cell_length_a 10.725096
_cell_length_b 14.752904
_cell_length_c 14.470394
_cell_angle_alpha 151.109739
_cell_angle_beta 149.205459
_cell_angle_gamma 29.907835
_cell_volume 501.717951
_symmetry_space_group_name_H-M "P -1"
_symmetry_group_IT_number 2
_symmetry_cell_setting 'triclinic'
loop_
_space_group_symop_operation_xyz
x,y,z
-x,-y,-z
loop_
_atom_site_type_symbol
_atom_site_label
_atom_site_fract_x
_atom_site_fract_y
_atom_site_fract_z
Si Si1 0.842506 0.751560 0.561845
Si Si2 0.184270 0.887288 0.425463
Si Si3 0.622998 0.514424 0.456833
Si Si4 0.726930 0.390477 0.139537
Si Si5 0.600972 0.753704 0.827501
Si Si6 0.495464 0.865160 0.110955
Si Si7 0.920479 0.106493 0.848877
Si Si8 0.000000 0.500000 0.000000
O O1 0.110337 0.593271 0.530823
O O2 0.976199 0.741856 0.737907
O O3 0.659020 0.630576 0.335763
O O4 0.763595 0.975684 0.667063
O O5 0.335422 0.636795 0.326060
O O6 0.396711 0.983876 0.637456
O O7 0.000000 0.000000 0.500000
O O8 0.891983 0.580487 0.896880
O O9 0.615055 0.700604 0.680688
O O10 0.606654 0.334140 0.346480
O O11 0.552985 0.287166 0.983831
O O12 0.778925 0.332017 0.012746
O O13 0.064494 0.900276 0.258478
O O14 0.500000 0.000000 0.000000
O O15 0.738227 0.723021 0.068664
O O16 0.218205 0.978513 0.974391
#
# Coordination Sequence:
#
# PCOD9035968 Si02
#       8
#     2   2   2   2   2   2   2   1
#     4  10  22  46  84 119 162 223 285 363 436 502
#     4  12  29  49  80 126 177 229 289 354 433 522
#     4  11  26  48  77 113 166 217 275 351 425 503
#     4  10  23  50  85 123 166 228 289 360 437 511
#     4  11  26  50  79 114 167 225 276 347 424 506
#     4  11  25  50  84 126 178 222 293 364 432 522
#     4  11  26  51  87 124 172 230 287 357 437 512
#     4  12  26  48  82 128 162 218 280 342 430 520
#
# _framework density 29.897276999999999
#
# number of rings (size 3 to 8) (size 9 to 14) (size 15 to 20)
#    0.000    1.067    0.000    5.600    7.467    3.200 
#    7.200    4.667    0.000    0.000    0.000    0.000 
#    0.000    0.000    0.000    0.000    0.000    0.000 
#
# Total GULP energy -84084.430929 kJ/mol
# GULP energy per Si atom -5605.628729 kJ/mol
# Density = 2.982923 g / cm^3
# Si number density = 29.897277 Si / 1000 Ang^3
#
#
#
# Elastic Constant Matrix: (Units=GPa)
#
#
# Indices 1 2 3 4 5 6 
#
# 1 169.0391 18.7799 86.4051 0.8156 -9.9724 11.8672
# 2 18.7799 118.4910 40.8289 6.9817 -13.4895 5.4872
# 3 86.4051 40.8289 210.4793 19.6137 4.8988 8.0176
# 4 0.8156 6.9817 19.6137 61.7923 3.4694 1.1509
# 5 -9.9724 -13.4895 4.8988 3.4694 84.5471 4.4189
# 6 11.8672 5.4872 8.0176 1.1509 4.4189 66.9379
#
#
#
# Elastic Compliance Matrix: (Units=1/GPa)
#
#
# Indices 1 2 3 4 5 6 
#
# 1 0.007703 0.000018 -0.003233 0.000880 0.001119 -0.001069
# 2 0.000018 0.009298 -0.001772 -0.000569 0.001646 -0.000652
# 3 -0.003233 -0.001772 0.006612 -0.001801 -0.000974 0.000022
# 4 0.000880 -0.000569 -0.001801 0.016842 -0.000566 -0.000146
# 5 0.001119 0.001646 -0.000974 -0.000566 0.012355 -0.001022
# 6 -0.001069 -0.000652 0.000022 -0.000146 -0.001022 0.015250
#
#
# Mechanical properties :
#
#
# Convention : Reuss Voigt Hill
#
# Bulk Modulus (GPa) = 73.31411 87.78189 80.54800
# Shear Modulus (GPa) = 60.54758 66.12182 63.33470
#
# Velocity S-wave (km/s) = 4.50509 4.70790 4.60761
# Velocity P-wave (km/s) = 7.18584 7.67967 7.43686
#
# Compressibility (1/GPa) = 0.01363994
#
# Stress axis : x y z
#
# Youngs Moduli (GPa) = 129.81678 107.54902 151.24786
#
# Poissons Ratio (x) = -0.00195 0.48900
# Poissons Ratio (y) = -0.00236 0.26795
# Poissons Ratio (z) = 0.41971 0.19053
#
# Static dielectric constant tensor:
#      x y z
#    x 2.311970 0.069670 -0.154140 
#    y 0.069670 2.347660 -0.041500 
#    z -0.154140 -0.041500 2.131050 
# 
# From -- ./inp_files/519181.got.cif
#   From: 2010.05.17/outbox.cif.g08.bks.cpg/sg2_260_cif.got.tgz:519181.got - 2010.06.03 11:33:40.
