data_PCOD9035407
_publ_section_title
;
Structure prediction by ZEFSAII (Michael W. Deem and Ramdas Pophale) SiO2 
 PCOD9035407
Probable space group: P -1
;
_chemical_formula_sum "Si O2"
_cell_formula_units_Z 16
_cell_length_a 16.262639
_cell_length_b 9.236402
_cell_length_c 8.418634
_cell_angle_alpha 116.080971
_cell_angle_beta 65.989874
_cell_angle_gamma 63.610293
_cell_volume 674.573864
_symmetry_space_group_name_H-M "P -1"
_symmetry_group_IT_number 2
_symmetry_cell_setting 'triclinic'
loop_
_space_group_symop_operation_xyz
x,y,z
-x,-y,-z
loop_
_atom_site_type_symbol
_atom_site_label
_atom_site_fract_x
_atom_site_fract_y
_atom_site_fract_z
Si Si1 0.155618 0.636629 0.967271
Si Si2 0.976012 0.223462 0.171148
Si Si3 0.529476 0.290853 0.084486
Si Si4 0.139000 0.932069 0.456448
Si Si5 0.772129 0.106386 0.977567
Si Si6 0.286217 0.431151 0.237719
Si Si7 0.651955 0.151565 0.580459
Si Si8 0.642296 0.864289 0.244373
O O1 0.096080 0.620077 0.856414
O O2 0.238668 0.401139 0.893722
O O3 0.245160 0.675747 0.874035
O O4 0.018806 0.885623 0.286856
O O5 0.857064 0.405792 0.483416
O O6 0.117786 0.095016 0.072788
O O7 0.000000 0.000000 0.000000
O O8 0.403403 0.337297 0.220464
O O9 0.457038 0.561472 0.239187
O O10 0.636365 0.184386 0.090410
O O11 0.603109 0.146428 0.787714
O O12 0.158107 0.987953 0.298218
O O13 0.243109 0.638052 0.252880
O O14 0.201038 0.967130 0.557310
O O15 0.345079 0.203299 0.981015
O O16 0.657856 0.022931 0.368967
O O17 0.500000 0.000000 0.500000
#
# Coordination Sequence:
#
# PCOD9035407 Si02
#       8
#     2   2   2   2   2   2   2   2
#     4  11  21  35  57  85 121 150 193 241 283 342
#     4  10  21  36  57  87 115 155 201 235 277 343
#     4   9  18  34  59  86 119 144 190 245 285 334
#     4  10  18  34  62  87 111 146 200 242 285 327
#     4  10  17  32  58  87 113 145 194 241 283 330
#     4  11  19  36  63  89 116 151 192 243 286 340
#     4   9  19  33  54  90 118 142 185 246 294 338
#     4  12  22  35  60  89 118 148 190 236 304 341
#
# _framework density 23.718675999999999
#
# number of rings (size 3 to 8) (size 9 to 14) (size 15 to 20)
#    0.000    1.750    5.000    2.625    0.000    0.500 
#    0.000    3.125    2.750    5.250    0.000    0.000 
#    0.000    0.000    0.000    0.000    0.000    0.000 
#
# Total GULP energy -89383.687394 kJ/mol
# GULP energy per Si atom -5586.480462 kJ/mol
# Density = 2.366469 g / cm^3
# Si number density = 23.718676 Si / 1000 Ang^3
#
#
#
# Elastic Constant Matrix: (Units=GPa)
#
#
# Indices 1 2 3 4 5 6 
#
# 1 140.2281 38.4626 48.7225 11.6682 11.4248 -42.5370
# 2 38.4626 43.8605 3.8473 -7.4508 3.0730 -28.3022
# 3 48.7225 3.8473 111.5561 1.8489 22.5840 -3.7394
# 4 11.6682 -7.4508 1.8489 16.3179 -9.3488 3.5896
# 5 11.4248 3.0730 22.5840 -9.3488 39.7255 0.3293
# 6 -42.5370 -28.3022 -3.7394 3.5896 0.3293 38.6656
#
#
#
# Elastic Compliance Matrix: (Units=1/GPa)
#
#
# Indices 1 2 3 4 5 6 
#
# 1 0.019527 -0.010205 -0.005613 -0.026016 -0.007890 0.015953
# 2 -0.010205 0.051501 0.002230 0.027528 0.003962 0.024097
# 3 -0.005613 0.002230 0.012241 0.001456 -0.005146 -0.003451
# 4 -0.026016 0.027528 0.001456 0.114668 0.031670 -0.019245
# 5 -0.007890 0.003962 -0.005146 0.031670 0.037593 -0.009538
# 6 0.015953 0.024097 -0.003451 -0.019245 -0.009538 0.062586
#
#
# Mechanical properties :
#
#
# Convention : Reuss Voigt Hill
#
# Bulk Modulus (GPa) = 17.82738 53.07883 35.45310
# Shear Modulus (GPa) = 14.53536 32.58261 23.55898
#
# Velocity S-wave (km/s) = 2.47821 3.71038 3.15503
# Velocity P-wave (km/s) = 3.96500 6.38616 5.31527
#
# Compressibility (1/GPa) = 0.05609350
#
# Stress axis : x y z
#
# Youngs Moduli (GPa) = 51.21039 19.41712 81.69396
#
# Poissons Ratio (x) = 0.19814 0.45859
# Poissons Ratio (y) = 0.52258 -0.18219
# Poissons Ratio (z) = 0.28747 -0.04330
#
# Static dielectric constant tensor:
#      x y z
#    x 2.217770 0.161390 0.910860 
#    y 0.161390 2.048880 0.549020 
#    z 0.910860 0.549020 5.413600 
# 
# From -- ./inp_files/295408.got.cif
#   From: 2010.05.17/outbox.cif.g08.bks.cpg/sg2_148_cif.got.tgz:295408.got - 2010.06.03 11:33:40.
