data_PCOD9035821
_publ_section_title
;
Structure prediction by ZEFSAII (Michael W. Deem and Ramdas Pophale) SiO2 
 PCOD9035821
Probable space group: P -1
;
_chemical_formula_sum "Si O2"
_cell_formula_units_Z 12
_cell_length_a 7.818030
_cell_length_b 11.357701
_cell_length_c 17.563822
_cell_angle_alpha 39.548351
_cell_angle_beta 35.600019
_cell_angle_gamma 38.381865
_cell_volume 523.705951
_symmetry_space_group_name_H-M "P -1"
_symmetry_group_IT_number 2
_symmetry_cell_setting 'triclinic'
loop_
_space_group_symop_operation_xyz
x,y,z
-x,-y,-z
loop_
_atom_site_type_symbol
_atom_site_label
_atom_site_fract_x
_atom_site_fract_y
_atom_site_fract_z
Si Si1 0.343622 0.308766 0.458187
Si Si2 0.182440 0.752471 0.963621
Si Si3 0.677969 0.580570 0.188070
Si Si4 0.291382 0.000615 0.152887
Si Si5 0.351828 0.780763 0.049027
Si Si6 0.442934 0.884770 0.679323
O O1 0.631659 0.381716 0.325931
O O2 0.335994 0.229020 0.414793
O O3 0.000000 0.500000 0.500000
O O4 0.414951 0.112673 0.582985
O O5 0.264212 0.688145 0.053327
O O6 0.479748 0.756348 0.806018
O O7 0.002075 0.621749 0.056052
O O8 0.949967 0.000223 0.931724
O O9 0.440284 0.764675 0.236647
O O10 0.503856 0.636376 0.139033
O O11 0.372224 0.142300 0.109868
O O12 0.918189 0.083529 0.231106
O O13 0.500000 0.000000 0.000000
#
# Coordination Sequence:
#
# PCOD9035821 Si02
#       6
#     2   2   2   2   2   2
#     4  11  23  35  59  83 115 157 194 235 281 338
#     4  10  17  32  59  90 111 146 191 234 285 344
#     4  10  17  35  57  84 115 145 187 237 282 334
#     4   9  14  32  57  85 112 141 188 232 279 342
#     4   9  16  29  60  88 117 144 178 241 293 331
#     4  11  20  36  59  86 112 156 194 223 293 347
#
# _framework density 22.913622
#
# number of rings (size 3 to 8) (size 9 to 14) (size 15 to 20)
#    0.000    2.000    8.333    0.500    0.000    0.667 
#    0.000    0.833    3.667    6.000    0.000    0.000 
#    0.000    0.000    0.000    0.000    0.000    0.000 
#
# Total GULP energy -66813.239720 kJ/mol
# GULP energy per Si atom -5567.769977 kJ/mol
# Density = 2.286147 g / cm^3
# Si number density = 22.913622 Si / 1000 Ang^3
#
#
#
# Elastic Constant Matrix: (Units=GPa)
#
#
# Indices 1 2 3 4 5 6 
#
# 1 84.4779 16.8752 33.5840 -15.5458 4.1782 9.2113
# 2 16.8752 107.5733 57.7132 -17.8429 3.8517 5.4799
# 3 33.5840 57.7132 118.9889 -27.7006 -2.9009 8.2559
# 4 -15.5458 -17.8429 -27.7006 45.6399 7.5119 -6.5628
# 5 4.1782 3.8517 -2.9009 7.5119 14.3527 -1.0001
# 6 9.2113 5.4799 8.2559 -6.5628 -1.0001 15.8603
#
#
#
# Elastic Compliance Matrix: (Units=1/GPa)
#
#
# Indices 1 2 3 4 5 6 
#
# 1 0.014745 0.000694 -0.003431 0.003576 -0.007462 -0.006008
# 2 0.000694 0.013148 -0.006046 0.002597 -0.006390 -0.001127
# 3 -0.003431 -0.006046 0.013364 0.003899 0.003208 -0.001060
# 4 0.003576 0.002597 0.003899 0.030111 -0.016261 0.006431
# 5 -0.007462 -0.006390 0.003208 -0.016261 0.082955 0.003374
# 6 -0.006008 -0.001127 -0.001060 0.006431 0.003374 0.070355
#
#
# Mechanical properties :
#
#
# Convention : Reuss Voigt Hill
#
# Bulk Modulus (GPa) = 42.21003 58.59832 50.40418
# Shear Modulus (GPa) = 19.98875 28.69508 24.34191
#
# Velocity S-wave (km/s) = 2.95677 3.54265 3.26288
# Velocity P-wave (km/s) = 5.48798 6.50868 6.02000
#
# Compressibility (1/GPa) = 0.02369105
#
# Stress axis : x y z
#
# Youngs Moduli (GPa) = 67.81978 76.05895 74.82609
#
# Poissons Ratio (x) = -0.05278 0.25672
# Poissons Ratio (y) = -0.04706 0.45240
# Poissons Ratio (z) = 0.23269 0.45985
#
# Static dielectric constant tensor:
#      x y z
#    x 1.981330 -0.009850 0.027310 
#    y -0.009850 2.014660 0.006060 
#    z 0.027310 0.006060 1.920100 
# 
# From -- ./inp_files/588926.got.cif
#   From: 2010.05.17/outbox.cif.g08.bks.cpg/sg2_295_cif.got.tgz:588926.got - 2010.06.03 11:33:40.
