data_PCOD9035738
_publ_section_title
;
Structure prediction by ZEFSAII (Michael W. Deem and Ramdas Pophale) SiO2 
 PCOD9035738
Probable space group: P -1
;
_chemical_formula_sum "Si O2"
_cell_formula_units_Z 16
_cell_length_a 7.862649
_cell_length_b 10.218812
_cell_length_c 14.508916
_cell_angle_alpha 47.959335
_cell_angle_beta 101.434968
_cell_angle_gamma 75.824037
_cell_volume 725.436557
_symmetry_space_group_name_H-M "P -1"
_symmetry_group_IT_number 2
_symmetry_cell_setting 'triclinic'
loop_
_space_group_symop_operation_xyz
x,y,z
-x,-y,-z
loop_
_atom_site_type_symbol
_atom_site_label
_atom_site_fract_x
_atom_site_fract_y
_atom_site_fract_z
Si Si1 0.595546 0.191814 0.399464
Si Si2 0.028027 0.116478 0.863320
Si Si3 0.106162 0.179729 0.264888
Si Si4 0.454876 0.908764 0.904629
Si Si5 0.845424 0.571640 0.691151
Si Si6 0.645690 0.891381 0.390430
Si Si7 0.688888 0.066324 0.767749
Si Si8 0.344933 0.559748 0.871303
O O1 0.393019 0.346588 0.359982
O O2 0.638471 0.328150 0.270372
O O3 0.553135 0.048779 0.392515
O O4 0.777066 0.030426 0.561829
O O5 0.974334 0.337611 0.789135
O O6 0.254274 0.996532 0.903117
O O7 0.847667 0.138007 0.766675
O O8 0.000000 0.000000 0.000000
O O9 0.869297 0.274623 0.186848
O O10 0.108438 0.356586 0.242048
O O11 0.200270 0.132061 0.195465
O O12 0.595501 0.012149 0.871473
O O13 0.360217 0.974744 0.759505
O O14 0.606625 0.666026 0.047330
O O15 0.850478 0.708878 0.542473
O O16 0.514976 0.797671 0.378548
O O17 0.500000 0.500000 0.000000
#
# Coordination Sequence:
#
# PCOD9035738 Si02
#       8
#     2   2   2   2   2   2   2   2
#     4  11  19  43  67 104 143 166 229 291 341 402
#     4  12  28  45  67  98 141 184 231 280 340 418
#     4  11  23  42  73 103 131 179 230 284 349 404
#     4  10  23  46  63  96 140 176 229 281 331 410
#     4  11  22  43  70  99 136 181 226 276 357 401
#     4   9  19  42  68  97 133 177 216 294 332 400
#     4  10  22  46  71  93 135 177 224 290 336 395
#     4  12  23  37  65 102 138 181 224 281 342 405
#
# _framework density 22.055683999999999
#
# number of rings (size 3 to 8) (size 9 to 14) (size 15 to 20)
#    0.750    0.500    3.750    2.625    1.750    2.000 
#    2.250    0.000    0.000    0.000    0.000    0.000 
#    0.000    0.000    0.000    0.000    0.000    0.000 
#
# Total GULP energy -89112.301719 kJ/mol
# GULP energy per Si atom -5569.518857 kJ/mol
# Density = 2.200548 g / cm^3
# Si number density = 22.055684 Si / 1000 Ang^3
#
#
#
# Elastic Constant Matrix: (Units=GPa)
#
#
# Indices 1 2 3 4 5 6 
#
# 1 81.9896 21.8254 28.9662 7.0932 4.5646 -22.6155
# 2 21.8254 66.2247 33.1104 5.3450 -2.3213 -10.2625
# 3 28.9662 33.1104 84.0110 -2.4037 -6.2578 -16.9740
# 4 7.0932 5.3450 -2.4037 30.8203 1.6842 -0.0772
# 5 4.5646 -2.3213 -6.2578 1.6842 34.3319 2.4143
# 6 -22.6155 -10.2625 -16.9740 -0.0772 2.4143 42.1235
#
#
#
# Elastic Compliance Matrix: (Units=1/GPa)
#
#
# Indices 1 2 3 4 5 6 
#
# 1 0.016556 -0.002348 -0.003718 -0.003492 -0.003359 0.007005
# 2 -0.002348 0.019721 -0.006874 -0.003442 0.000509 0.000739
# 3 -0.003718 -0.006874 0.016784 0.003215 0.002724 0.002942
# 4 -0.003492 -0.003442 0.003215 0.034136 -0.000765 -0.001311
# 5 -0.003359 0.000509 0.002724 -0.000765 0.030306 -0.002320
# 6 0.007005 0.000739 0.002942 -0.001311 -0.002320 0.028996
#
#
# Mechanical properties :
#
#
# Convention : Reuss Voigt Hill
#
# Bulk Modulus (GPa) = 36.79055 44.44771 40.61913
# Shear Modulus (GPa) = 27.55736 31.34336 29.45036
#
# Velocity S-wave (km/s) = 3.53858 3.77384 3.65810
# Velocity P-wave (km/s) = 5.78035 6.25982 6.02486
#
# Compressibility (1/GPa) = 0.02718089
#
# Stress axis : x y z
#
# Youngs Moduli (GPa) = 60.39926 50.70765 59.58160
#
# Poissons Ratio (x) = 0.11906 0.22152
# Poissons Ratio (y) = 0.14182 0.40957
# Poissons Ratio (z) = 0.22456 0.34857
#
# Static dielectric constant tensor:
#      x y z
#    x 2.018960 0.044670 -0.015030 
#    y 0.044670 1.826210 0.048650 
#    z -0.015030 0.048650 1.866340 
# 
# From -- ./inp_files/497668.got.cif
#   From: 2010.05.17/outbox.cif.g08.bks.cpg/sg2_249_cif.got.tgz:497668.got - 2010.06.03 11:33:40.
