data_PCOD9035859
_publ_section_title
;
Structure prediction by ZEFSAII (Michael W. Deem and Ramdas Pophale) SiO2 
 PCOD9035859
Probable space group: P -1
;
_chemical_formula_sum "Si O2"
_cell_formula_units_Z 14
_cell_length_a 12.355150
_cell_length_b 9.305282
_cell_length_c 9.016808
_cell_angle_alpha 74.741158
_cell_angle_beta 54.405805
_cell_angle_gamma 49.605512
_cell_volume 631.025333
_symmetry_space_group_name_H-M "P -1"
_symmetry_group_IT_number 2
_symmetry_cell_setting 'triclinic'
loop_
_space_group_symop_operation_xyz
x,y,z
-x,-y,-z
loop_
_atom_site_type_symbol
_atom_site_label
_atom_site_fract_x
_atom_site_fract_y
_atom_site_fract_z
Si Si1 0.840156 0.871475 0.915250
Si Si2 0.146585 0.863737 0.782095
Si Si3 0.661372 0.806064 0.336517
Si Si4 0.994327 0.515997 0.678758
Si Si5 0.866658 0.290098 0.896459
Si Si6 0.356077 0.701777 0.137912
Si Si7 0.543845 0.319257 0.601510
O O1 0.015332 0.836770 0.825039
O O2 0.898272 0.724944 0.772049
O O3 0.696998 0.097070 0.931008
O O4 0.760155 0.836194 0.126224
O O5 0.271532 0.845518 0.568843
O O6 0.240721 0.714956 0.885370
O O7 0.042843 0.083260 0.851945
O O8 0.811124 0.641432 0.372228
O O9 0.584607 0.720094 0.330977
O O10 0.500000 0.000000 0.500000
O O11 0.000000 0.500000 0.500000
O O12 0.886339 0.450186 0.842538
O O13 0.810999 0.276807 0.781184
O O14 0.419888 0.678768 0.257675
O O15 0.500000 0.500000 0.000000
O O16 0.500000 0.500000 0.500000
#
# Coordination Sequence:
#
# PCOD9035859 Si02
#       7
#     2   2   2   2   2   2   2
#     4  11  27  50  78 104 153 205 257 307 384 455
#     4  10  22  46  74 102 140 197 248 297 368 458
#     4  12  29  50  78 113 156 199 252 317 383 444
#     4  12  28  47  78 113 153 199 256 316 377 456
#     4  10  23  43  75  99 141 190 248 297 371 442
#     4  11  28  47  72 109 151 198 253 318 377 447
#     4  12  28  44  74 106 152 189 252 307 384 443
#
# _framework density 22.186112999999999
#
# number of rings (size 3 to 8) (size 9 to 14) (size 15 to 20)
#    0.000    0.857    1.429    3.000   18.000    1.714 
#    0.000    0.000    0.000    0.000    0.000    0.000 
#    0.000    0.000    0.000    0.000    0.000    0.000 
#
# Total GULP energy -78122.360367 kJ/mol
# GULP energy per Si atom -5580.168598 kJ/mol
# Density = 2.213562 g / cm^3
# Si number density = 22.186113 Si / 1000 Ang^3
#
#
#
# Elastic Constant Matrix: (Units=GPa)
#
#
# Indices 1 2 3 4 5 6 
#
# 1 171.9917 56.0485 54.3371 -17.0307 25.0731 4.6523
# 2 56.0485 123.6753 36.0917 3.3797 15.4228 0.9261
# 3 54.3371 36.0917 94.5003 8.4735 17.6571 -11.9408
# 4 -17.0307 3.3797 8.4735 32.0027 2.2088 4.3920
# 5 25.0731 15.4228 17.6571 2.2088 41.0475 -2.9494
# 6 4.6523 0.9261 -11.9408 4.3920 -2.9494 43.4417
#
#
#
# Elastic Compliance Matrix: (Units=1/GPa)
#
#
# Indices 1 2 3 4 5 6 
#
# 1 0.009533 -0.002643 -0.004920 0.007337 -0.003344 -0.003286
# 2 -0.002643 0.010069 -0.001978 -0.001808 -0.001247 -0.000377
# 3 -0.004920 -0.001978 0.015947 -0.007230 -0.002325 0.005526
# 4 0.007337 -0.001808 -0.007230 0.038420 -0.003251 -0.006839
# 5 -0.003344 -0.001247 -0.002325 -0.003251 0.028192 0.001988
# 6 -0.003286 -0.000377 0.005526 -0.006839 0.001988 0.025725
#
#
# Mechanical properties :
#
#
# Convention : Reuss Voigt Hill
#
# Bulk Modulus (GPa) = 60.72987 75.90243 68.31615
# Shear Modulus (GPa) = 32.79634 39.54437 36.17036
#
# Velocity S-wave (km/s) = 3.84896 4.22642 4.04210
# Velocity P-wave (km/s) = 6.86913 7.62252 7.25561
#
# Compressibility (1/GPa) = 0.01646636
#
# Stress axis : x y z
#
# Youngs Moduli (GPa) = 104.90021 99.31841 62.70652
#
# Poissons Ratio (x) = 0.26253 0.30851
# Poissons Ratio (y) = 0.27728 0.12403
# Poissons Ratio (z) = 0.51611 0.19645
#
# Static dielectric constant tensor:
#      x y z
#    x 1.876260 -0.068650 -0.034530 
#    y -0.068650 1.824260 0.034690 
#    z -0.034530 0.034690 2.014850 
# 
# From -- ./inp_files/243375.got.cif
#   From: 2010.05.17/outbox.cif.g08.bks.cpg/sg2_122_cif.got.tgz:243375.got - 2010.06.03 11:33:40.
