data_PCOD9035624
_publ_section_title
;
Structure prediction by ZEFSAII (Michael W. Deem and Ramdas Pophale) SiO2 
 PCOD9035624
Probable space group: P -1
;
_chemical_formula_sum "Si O2"
_cell_formula_units_Z 12
_cell_length_a 5.233300
_cell_length_b 8.316681
_cell_length_c 15.041136
_cell_angle_alpha 50.586990
_cell_angle_beta 95.539518
_cell_angle_gamma 106.024782
_cell_volume 483.378878
_symmetry_space_group_name_H-M "P -1"
_symmetry_group_IT_number 2
_symmetry_cell_setting 'triclinic'
loop_
_space_group_symop_operation_xyz
x,y,z
-x,-y,-z
loop_
_atom_site_type_symbol
_atom_site_label
_atom_site_fract_x
_atom_site_fract_y
_atom_site_fract_z
Si Si1 0.712249 0.978983 0.086481
Si Si2 0.302015 0.040730 0.402040
Si Si3 0.060379 0.400252 0.444534
Si Si4 0.450384 0.505408 0.691430
Si Si5 0.538947 0.180881 0.182312
Si Si6 0.151988 0.380140 0.979309
O O1 0.655018 0.724078 0.184549
O O2 0.673483 0.060185 0.157364
O O3 0.027518 0.831044 0.000281
O O4 0.500000 0.000000 0.000000
O O5 0.334069 0.296470 0.321252
O O6 0.408452 0.022756 0.312519
O O7 0.500000 0.000000 0.500000
O O8 0.015762 0.863441 0.460968
O O9 0.359965 0.506829 0.382882
O O10 0.000000 0.500000 0.500000
O O11 0.822333 0.437350 0.362294
O O12 0.342579 0.277165 0.081246
O O13 0.716899 0.408865 0.149686
O O14 0.000000 0.500000 0.000000
#
# Coordination Sequence:
#
# PCOD9035624 Si02
#       6
#     2   2   2   2   2   2
#     4  11  26  42  66 104 138 183 235 291 355 420
#     4  10  24  45  69 100 136 185 233 288 349 419
#     4  11  24  47  71 101 137 185 238 290 352 412
#     4  11  26  44  67 105 139 184 232 292 350 420
#     4  10  22  46  69  95 139 180 234 288 353 416
#     4   9  22  42  68 100 130 183 232 289 348 420
#
# _framework density 24.825244999999999
#
# number of rings (size 3 to 8) (size 9 to 14) (size 15 to 20)
#    0.000    1.667    0.000    2.000   11.667    4.667 
#   12.000    0.000    0.000    0.000    0.000    0.000 
#    0.000    0.000    0.000    0.000    0.000    0.000 
#
# Total GULP energy -66974.361622 kJ/mol
# GULP energy per Si atom -5581.196802 kJ/mol
# Density = 2.476874 g / cm^3
# Si number density = 24.825245 Si / 1000 Ang^3
#
#
#
# Elastic Constant Matrix: (Units=GPa)
#
#
# Indices 1 2 3 4 5 6 
#
# 1 48.8559 -1.0746 12.4135 -17.9882 -10.8238 -0.3297
# 2 -1.0746 153.7013 33.3022 -44.2119 5.2887 -1.9935
# 3 12.4135 33.3022 129.1088 -31.6361 -20.8236 9.1536
# 4 -17.9882 -44.2119 -31.6361 55.0386 -3.4509 -6.5595
# 5 -10.8238 5.2887 -20.8236 -3.4509 34.4680 1.3041
# 6 -0.3297 -1.9935 9.1536 -6.5595 1.3041 40.5708
#
#
#
# Elastic Compliance Matrix: (Units=1/GPa)
#
#
# Indices 1 2 3 4 5 6 
#
# 1 0.027351 0.003416 0.001219 0.013245 0.010054 0.001933
# 2 0.003416 0.009088 -0.000822 0.008176 -0.000075 0.001984
# 3 0.001219 -0.000822 0.010708 0.006171 0.007660 -0.001695
# 4 0.013245 0.008176 0.006171 0.033738 0.009850 0.004255
# 5 0.010054 -0.000075 0.007660 0.009850 0.037843 -0.001274
# 6 0.001933 0.001984 -0.001695 0.004255 -0.001274 0.025873
#
#
# Mechanical properties :
#
#
# Convention : Reuss Voigt Hill
#
# Bulk Modulus (GPa) = 18.25708 46.77204 32.51456
# Shear Modulus (GPa) = 32.20977 45.15047 38.68012
#
# Velocity S-wave (km/s) = 3.60594 4.26929 3.95156
# Velocity P-wave (km/s) = 4.97064 6.57144 5.82628
#
# Compressibility (1/GPa) = 0.05477326
#
# Stress axis : x y z
#
# Youngs Moduli (GPa) = 36.56217 110.03151 93.38745
#
# Poissons Ratio (x) = -0.37587 -0.11384
# Poissons Ratio (y) = -0.12490 0.07676
# Poissons Ratio (z) = -0.04457 0.09044
#
# Static dielectric constant tensor:
#      x y z
#    x 1.985960 -0.093570 0.024260 
#    y -0.093570 1.977680 0.115310 
#    z 0.024260 0.115310 1.778390 
# 
# From -- ./inp_files/479620.got.cif
#   From: 2010.05.17/outbox.cif.g08.bks.cpg/sg2_240_cif.got.tgz:479620.got - 2010.06.03 11:33:40.
