data_PCOD9035394
_publ_section_title
;
Structure prediction by ZEFSAII (Michael W. Deem and Ramdas Pophale) SiO2 
 PCOD9035394
Probable space group: P -1
;
_chemical_formula_sum "Si O2"
_cell_formula_units_Z 10
_cell_length_a 9.931980
_cell_length_b 5.183775
_cell_length_c 9.881680
_cell_angle_alpha 119.587784
_cell_angle_beta 89.975848
_cell_angle_gamma 71.123123
_cell_volume 410.614974
_symmetry_space_group_name_H-M "P -1"
_symmetry_group_IT_number 2
_symmetry_cell_setting 'triclinic'
loop_
_space_group_symop_operation_xyz
x,y,z
-x,-y,-z
loop_
_atom_site_type_symbol
_atom_site_label
_atom_site_fract_x
_atom_site_fract_y
_atom_site_fract_z
Si Si1 0.938752 0.888299 0.775075
Si Si2 0.385386 0.815602 0.638038
Si Si3 0.434627 0.234431 0.934059
Si Si4 0.823797 0.902556 0.077250
Si Si5 0.124586 0.147580 0.521562
O O1 0.837011 0.926742 0.655728
O O2 0.054019 0.523311 0.656236
O O3 0.032493 0.116294 0.846581
O O4 0.859164 0.915574 0.924628
O O5 0.500000 0.500000 0.500000
O O6 0.259725 0.978653 0.573331
O O7 0.468515 0.040687 0.744116
O O8 0.301474 0.794841 0.772350
O O9 0.258434 0.344759 0.969944
O O10 0.500000 0.500000 0.000000
O O11 0.500000 0.000000 0.000000
O O12 0.000000 0.000000 0.500000
#
# Coordination Sequence:
#
# PCOD9035394 Si02
#       5
#     2   2   2   2   2
#     4  10  22  45  75 114 146 191 261 333 393 468
#     4  10  24  47  71 112 156 204 262 317 398 473
#     4  10  24  49  74 108 155 210 267 312 394 475
#     4   9  22  46  72 109 150 193 264 319 395 464
#     4  11  22  44  74 108 150 198 256 327 398 466
#
# _framework density 24.353717
#
# number of rings (size 3 to 8) (size 9 to 14) (size 15 to 20)
#    1.200    0.800    2.000    0.000    2.800    2.400 
#    7.200    3.000    0.000    0.000    0.000    0.000 
#    0.000    0.000    0.000    0.000    0.000    0.000 
#
# Total GULP energy -55859.577474 kJ/mol
# GULP energy per Si atom -5585.957747 kJ/mol
# Density = 2.429829 g / cm^3
# Si number density = 24.353717 Si / 1000 Ang^3
#
#
#
# Elastic Constant Matrix: (Units=GPa)
#
#
# Indices 1 2 3 4 5 6 
#
# 1 147.1696 64.8847 104.9885 15.3072 31.4975 9.4987
# 2 64.8847 95.0154 76.3576 -2.7563 32.5923 -7.2614
# 3 104.9885 76.3576 218.4024 -32.2652 20.7376 -12.0195
# 4 15.3072 -2.7563 -32.2652 38.3203 10.3088 12.8938
# 5 31.4975 32.5923 20.7376 10.3088 57.5471 2.7040
# 6 9.4987 -7.2614 -12.0195 12.8938 2.7040 47.4152
#
#
#
# Elastic Compliance Matrix: (Units=1/GPa)
#
#
# Indices 1 2 3 4 5 6 
#
# 1 0.016419 -0.004995 -0.008069 -0.012594 -0.000870 -0.002625
# 2 -0.004995 0.019430 -0.003266 0.001613 -0.007530 0.003139
# 3 -0.008069 -0.003266 0.011493 0.012487 -0.000143 0.000642
# 4 -0.012594 0.001613 0.012487 0.045521 -0.006389 -0.006079
# 5 -0.000870 -0.007530 -0.000143 -0.006389 0.023343 -0.000609
# 6 -0.002625 0.003139 0.000642 -0.006079 -0.000609 0.023947
#
#
# Mechanical properties :
#
#
# Convention : Reuss Voigt Hill
#
# Bulk Modulus (GPa) = 68.11044 105.89431 87.00238
# Shear Modulus (GPa) = 28.13621 42.94698 35.54160
#
# Velocity S-wave (km/s) = 3.40268 4.20392 3.82434
# Velocity P-wave (km/s) = 6.59284 8.19391 7.43659
#
# Compressibility (1/GPa) = 0.01468204
#
# Stress axis : x y z
#
# Youngs Moduli (GPa) = 60.90477 51.46701 87.01008
#
# Poissons Ratio (x) = 0.25710 0.70206
# Poissons Ratio (y) = 0.30425 0.28415
# Poissons Ratio (z) = 0.49143 0.16808
#
# Static dielectric constant tensor:
#      x y z
#    x 1.939470 0.040830 0.033820 
#    y 0.040830 1.993250 -0.012070 
#    z 0.033820 -0.012070 1.913940 
# 
# From -- ./inp_files/408866.got.cif
#   From: 2010.05.17/outbox.cif.g08.bks.cpg/sg2_205_cif.got.tgz:408866.got - 2010.06.03 11:33:40.
