data_PCOD9035047
_publ_section_title
;
Structure prediction by ZEFSAII (Michael W. Deem and Ramdas Pophale) SiO2 
 PCOD9035047
Probable space group: P -1
;
_chemical_formula_sum "Si O2"
_cell_formula_units_Z 16
_cell_length_a 7.754255
_cell_length_b 16.699498
_cell_length_c 7.526540
_cell_angle_alpha 84.168606
_cell_angle_beta 57.365205
_cell_angle_gamma 68.738005
_cell_volume 759.389455
_symmetry_space_group_name_H-M "P -1"
_symmetry_group_IT_number 2
_symmetry_cell_setting 'triclinic'
loop_
_space_group_symop_operation_xyz
x,y,z
-x,-y,-z
loop_
_atom_site_type_symbol
_atom_site_label
_atom_site_fract_x
_atom_site_fract_y
_atom_site_fract_z
Si Si1 0.803903 0.020487 0.921121
Si Si2 0.664918 0.354709 0.872741
Si Si3 0.521964 0.701926 0.660177
Si Si4 0.373625 0.029704 0.338448
Si Si5 0.739200 0.114124 0.372788
Si Si6 0.082360 0.835630 0.368302
Si Si7 0.033149 0.427312 0.646818
Si Si8 0.578964 0.573043 0.360212
O O1 0.840374 0.107483 0.827422
O O2 0.719172 0.991139 0.792133
O O3 0.610673 0.031752 0.164072
O O4 0.038441 0.944042 0.839883
O O5 0.819922 0.263276 0.721987
O O6 0.489054 0.404772 0.809121
O O7 0.814056 0.411010 0.818046
O O8 0.557087 0.332363 0.112452
O O9 0.412573 0.803564 0.670416
O O10 0.786843 0.661388 0.513228
O O11 0.460930 0.656826 0.531683
O O12 0.182620 0.117975 0.488150
O O13 0.378803 0.949735 0.476682
O O14 0.821309 0.149151 0.498222
O O15 0.164529 0.448379 0.732972
O O16 0.000000 0.500000 0.500000
O O17 0.500000 0.500000 0.500000
#
# Coordination Sequence:
#
# PCOD9035047 Si02
#       8
#     2   2   2   2   2   2   2   2
#     4   8  15  28  52  86 116 168 216 254 307 369
#     4  12  22  43  66  95 135 167 207 269 316 376
#     4  10  24  40  62 100 127 163 218 261 310 390
#     4   8  15  28  52  85 123 163 215 261 299 368
#     4   9  16  34  55  84 127 165 208 264 310 356
#     4   9  17  31  57  84 124 170 206 254 322 359
#     4  10  23  43  66  97 126 159 212 261 315 392
#     4  10  22  45  70  92 128 166 201 263 325 379
#
# _framework density 21.069555999999999
#
# number of rings (size 3 to 8) (size 9 to 14) (size 15 to 20)
#    0.750    1.750    2.500    1.500    0.000    4.000 
#    2.250    5.000    0.000    4.500    0.000    0.000 
#    0.000    0.000    0.000    0.000    0.000    0.000 
#
# Total GULP energy -89366.908478 kJ/mol
# GULP energy per Si atom -5585.431780 kJ/mol
# Density = 2.102160 g / cm^3
# Si number density = 21.069556 Si / 1000 Ang^3
#
#
#
# Elastic Constant Matrix: (Units=GPa)
#
#
# Indices 1 2 3 4 5 6 
#
# 1 121.5707 32.7145 46.7796 -17.3128 -9.1461 -15.1048
# 2 32.7145 95.5342 16.5132 -10.2923 -2.8844 -19.9131
# 3 46.7796 16.5132 111.8130 -12.4025 -4.1463 -16.8941
# 4 -17.3128 -10.2923 -12.4025 28.7473 -1.5913 10.2020
# 5 -9.1461 -2.8844 -4.1463 -1.5913 31.1230 -3.0716
# 6 -15.1048 -19.9131 -16.8941 10.2020 -3.0716 37.9600
#
#
#
# Elastic Compliance Matrix: (Units=1/GPa)
#
#
# Indices 1 2 3 4 5 6 
#
# 1 0.011201 -0.002541 -0.003648 0.004206 0.002844 0.000600
# 2 -0.002541 0.012599 0.000197 0.001189 0.001046 0.005451
# 3 -0.003648 0.000197 0.011137 0.001570 0.000831 0.003254
# 4 0.004206 0.001189 0.001570 0.041383 0.002893 -0.007892
# 5 0.002844 0.001046 0.000831 0.002893 0.033717 0.004001
# 6 0.000600 0.005451 0.003254 -0.007892 0.004001 0.033335
#
#
# Mechanical properties :
#
#
# Convention : Reuss Voigt Hill
#
# Bulk Modulus (GPa) = 43.56801 57.88137 50.72469
# Shear Modulus (GPa) = 30.67343 35.09342 32.88343
#
# Velocity S-wave (km/s) = 3.81966 4.08560 3.95487
# Velocity P-wave (km/s) = 6.33846 7.05602 6.70684
#
# Compressibility (1/GPa) = 0.02295262
#
# Stress axis : x y z
#
# Youngs Moduli (GPa) = 89.27966 79.36867 89.78860
#
# Poissons Ratio (x) = 0.20166 0.32756
# Poissons Ratio (y) = 0.22684 -0.01765
# Poissons Ratio (z) = 0.32570 -0.01560
#
# Static dielectric constant tensor:
#      x y z
#    x 1.807400 0.006500 0.034820 
#    y 0.006500 1.731100 0.036330 
#    z 0.034820 0.036330 1.731040 
# 
# From -- ./inp_files/214917.got.cif
#   From: 2010.05.17/outbox.cif.g08.bks.cpg/sg2_108_cif.got.tgz:214917.got - 2010.06.03 11:33:40.
