data_PCOD9035844
_publ_section_title
;
Structure prediction by ZEFSAII (Michael W. Deem and Ramdas Pophale) SiO2 
 PCOD9035844
Probable space group: P -1
;
_chemical_formula_sum "Si O2"
_cell_formula_units_Z 14
_cell_length_a 15.241889
_cell_length_b 5.091574
_cell_length_c 9.140039
_cell_angle_alpha 80.670467
_cell_angle_beta 49.589663
_cell_angle_gamma 94.936044
_cell_volume 515.410543
_symmetry_space_group_name_H-M "P -1"
_symmetry_group_IT_number 2
_symmetry_cell_setting 'triclinic'
loop_
_space_group_symop_operation_xyz
x,y,z
-x,-y,-z
loop_
_atom_site_type_symbol
_atom_site_label
_atom_site_fract_x
_atom_site_fract_y
_atom_site_fract_z
Si Si1 0.158428 0.521298 0.749814
Si Si2 0.617887 0.195544 0.920578
Si Si3 0.390814 0.442309 0.362054
Si Si4 0.427135 0.082905 0.709929
Si Si5 0.985768 0.772552 0.412852
Si Si6 0.845017 0.023920 0.059642
Si Si7 0.782401 0.007807 0.546195
O O1 0.291858 0.539257 0.553001
O O2 0.125622 0.717696 0.642186
O O3 0.146734 0.694685 0.888987
O O4 0.145293 0.224629 0.504086
O O5 0.615283 0.468561 0.809841
O O6 0.728236 0.089094 0.747747
O O7 0.500000 0.000000 0.000000
O O8 0.600453 0.161756 0.115409
O O9 0.506487 0.631680 0.302867
O O10 0.329493 0.115935 0.432881
O O11 0.500000 0.000000 0.500000
O O12 0.295794 0.104485 0.805634
O O13 0.000000 0.500000 0.500000
O O14 0.000000 0.000000 0.500000
O O15 0.918748 0.112925 0.825591
O O16 0.889666 0.795726 0.125798
#
# Coordination Sequence:
#
# PCOD9035844 Si02
#       7
#     2   2   2   2   2   2   2
#     4  11  24  46  74 111 155 203 259 317 397 469
#     4   9  22  42  71 106 148 207 262 313 392 467
#     4  10  22  46  73 111 150 211 262 316 397 471
#     4  11  23  44  74 112 166 206 256 332 395 474
#     4  12  30  52  82 114 154 208 267 335 401 470
#     4  12  26  48  72 117 155 203 264 320 398 472
#     4  11  25  48  80 107 159 204 272 328 388 482
#
# _framework density 27.162814999999998
#
# number of rings (size 3 to 8) (size 9 to 14) (size 15 to 20)
#    0.000    1.143    2.857    1.714    6.000    4.000 
#    7.714    1.429    0.000    0.000    0.000    0.000 
#    0.000    0.000    0.000    0.000    0.000    0.000 
#
# Total GULP energy -78314.901152 kJ/mol
# GULP energy per Si atom -5593.921511 kJ/mol
# Density = 2.710099 g / cm^3
# Si number density = 27.162815 Si / 1000 Ang^3
#
#
#
# Elastic Constant Matrix: (Units=GPa)
#
#
# Indices 1 2 3 4 5 6 
#
# 1 129.3825 52.1127 68.1435 -15.3649 1.6780 3.7516
# 2 52.1127 201.2689 74.9451 -9.8417 6.8720 -12.1288
# 3 68.1435 74.9451 258.5259 8.1767 13.4737 -14.3666
# 4 -15.3649 -9.8417 8.1767 52.3650 -4.7187 7.6893
# 5 1.6780 6.8720 13.4737 -4.7187 53.8098 -6.5986
# 6 3.7516 -12.1288 -14.3666 7.6893 -6.5986 42.5303
#
#
#
# Elastic Compliance Matrix: (Units=1/GPa)
#
#
# Indices 1 2 3 4 5 6 
#
# 1 0.010230 -0.001737 -0.002485 0.003518 0.000491 -0.002797
# 2 -0.001737 0.005985 -0.001213 0.000594 -0.000193 0.001313
# 3 -0.002485 -0.001213 0.005095 -0.002111 -0.001005 0.001820
# 4 0.003518 0.000594 -0.002111 0.021376 0.001671 -0.004459
# 5 0.000491 -0.000193 -0.001005 0.001671 0.019267 0.002249
# 6 -0.002797 0.001313 0.001820 -0.004459 0.002249 0.025904
#
#
# Mechanical properties :
#
#
# Convention : Reuss Voigt Hill
#
# Bulk Modulus (GPa) = 95.78586 108.84221 102.31404
# Shear Modulus (GPa) = 48.92067 56.00608 52.46337
#
# Velocity S-wave (km/s) = 4.24844 4.54570 4.39958
# Velocity P-wave (km/s) = 7.70752 8.22852 7.97228
#
# Compressibility (1/GPa) = 0.01043995
#
# Stress axis : x y z
#
# Youngs Moduli (GPa) = 97.75129 167.09733 196.26720
#
# Poissons Ratio (x) = 0.29018 0.48779
# Poissons Ratio (y) = 0.16975 0.23806
# Poissons Ratio (z) = 0.24295 0.20268
#
# Static dielectric constant tensor:
#      x y z
#    x 2.489790 -0.051710 0.080560 
#    y -0.051710 2.217220 -0.091610 
#    z 0.080560 -0.091610 2.133090 
# 
# From -- ./inp_files/322701.got.cif
#   From: 2010.05.17/outbox.cif.g08.bks.cpg/sg2_162_cif.got.tgz:322701.got - 2010.06.03 11:33:40.
