data_PCOD9035862
_publ_section_title
;
Structure prediction by ZEFSAII (Michael W. Deem and Ramdas Pophale) SiO2 
 PCOD9035862
Probable space group: P -1
;
_chemical_formula_sum "Si O2"
_cell_formula_units_Z 15
_cell_length_a 12.141902
_cell_length_b 8.643352
_cell_length_c 9.353342
_cell_angle_alpha 131.360826
_cell_angle_beta 85.727495
_cell_angle_gamma 80.039473
_cell_volume 701.585457
_symmetry_space_group_name_H-M "P -1"
_symmetry_group_IT_number 2
_symmetry_cell_setting 'triclinic'
loop_
_space_group_symop_operation_xyz
x,y,z
-x,-y,-z
loop_
_atom_site_type_symbol
_atom_site_label
_atom_site_fract_x
_atom_site_fract_y
_atom_site_fract_z
Si Si1 0.236668 0.517318 0.883826
Si Si2 0.771295 0.372579 0.374273
Si Si3 0.091558 0.200563 0.702022
Si Si4 0.500000 0.500000 0.500000
Si Si5 0.740993 0.229237 0.718200
Si Si6 0.084052 0.083617 0.941259
Si Si7 0.115331 0.529316 0.306090
Si Si8 0.505320 0.750528 0.349917
O O1 0.212006 0.554451 0.741891
O O2 0.153822 0.377308 0.852982
O O3 0.370527 0.381227 0.805844
O O4 0.224168 0.738633 0.103544
O O5 0.638755 0.474619 0.492153
O O6 0.862664 0.427372 0.505018
O O7 0.799549 0.114022 0.209078
O O8 0.040775 0.136526 0.814661
O O9 0.994891 0.303565 0.656768
O O10 0.185435 0.994279 0.498006
O O11 0.498026 0.651151 0.446830
O O12 0.776245 0.420245 0.750692
O O13 0.606120 0.261546 0.734676
O O14 0.106690 0.292643 0.134952
O O15 0.000000 0.000000 0.000000
O O16 0.500000 0.000000 0.500000
#
# Coordination Sequence:
#
# PCOD9035862 Si02
#       8
#     2   2   2   1   2   2   2   2
#     4  11  26  44  74 105 145 188 243 296 359 435
#     4  11  26  48  69 107 145 188 237 305 357 432
#     4  12  25  45  70 105 144 190 237 299 359 440
#     4  10  22  46  74 102 148 188 240 306 360 428
#     4  12  24  45  74 103 142 195 242 288 367 435
#     4  12  27  45  71 107 147 185 241 300 367 439
#     4  12  26  45  74  99 142 192 235 293 371 426
#     4  11  22  45  76 107 146 193 243 304 367 429
#
# _framework density 21.380147999999998
#
# number of rings (size 3 to 8) (size 9 to 14) (size 15 to 20)
#    0.000    0.533    5.333    2.000    1.867    3.200 
#    0.000    0.667    0.000    0.000    0.000    0.000 
#    0.000    0.000    0.000    0.000    0.000    0.000 
#
# Total GULP energy -83641.865768 kJ/mol
# GULP energy per Si atom -5576.124385 kJ/mol
# Density = 2.133149 g / cm^3
# Si number density = 21.380148 Si / 1000 Ang^3
#
#
#
# Elastic Constant Matrix: (Units=GPa)
#
#
# Indices 1 2 3 4 5 6 
#
# 1 139.9960 52.5306 38.7876 -12.0036 19.9876 -15.2697
# 2 52.5306 79.1487 37.9844 -9.2379 14.2304 -4.4785
# 3 38.7876 37.9844 95.3544 -12.2214 19.1020 -16.3117
# 4 -12.0036 -9.2379 -12.2214 36.4132 -1.1176 1.2946
# 5 19.9876 14.2304 19.1020 -1.1176 23.4013 0.4094
# 6 -15.2697 -4.4785 -16.3117 1.2946 0.4094 33.7166
#
#
#
# Elastic Compliance Matrix: (Units=1/GPa)
#
#
# Indices 1 2 3 4 5 6 
#
# 1 0.010657 -0.005598 -0.000056 0.001757 -0.005640 0.004057
# 2 -0.005598 0.019308 -0.005132 0.001337 -0.002664 -0.002472
# 3 -0.000056 -0.005132 0.016245 0.003570 -0.010046 0.007137
# 4 0.001757 0.001337 0.003570 0.029403 -0.003851 0.001618
# 5 -0.005640 -0.002664 -0.010046 -0.003851 0.057332 -0.008317
# 6 0.004057 -0.002472 0.007137 0.001618 -0.008317 0.034659
#
#
# Mechanical properties :
#
#
# Convention : Reuss Voigt Hill
#
# Bulk Modulus (GPa) = 40.58768 63.67824 52.13296
# Shear Modulus (GPa) = 25.33057 31.05267 28.19162
#
# Velocity S-wave (km/s) = 3.44578 3.81518 3.63518
# Velocity P-wave (km/s) = 5.90392 7.01826 6.48507
#
# Compressibility (1/GPa) = 0.02463802
#
# Stress axis : x y z
#
# Youngs Moduli (GPa) = 93.83134 51.79317 61.55560
#
# Poissons Ratio (x) = 0.28992 0.00347
# Poissons Ratio (y) = 0.52523 0.31592
# Poissons Ratio (z) = 0.00529 0.26582
#
# Static dielectric constant tensor:
#      x y z
#    x 1.760920 -0.008630 -0.035180 
#    y -0.008630 1.799740 -0.026470 
#    z -0.035180 -0.026470 1.831500 
# 
# From -- ./inp_files/245957.got.cif
#   From: 2010.05.17/outbox.cif.g08.bks.cpg/sg2_123_cif.got.tgz:245957.got - 2010.06.03 11:33:40.
