data_PCOD9035591
_publ_section_title
;
Structure prediction by ZEFSAII (Michael W. Deem and Ramdas Pophale) SiO2 
 PCOD9035591
Probable space group: P -1
;
_chemical_formula_sum "Si O2"
_cell_formula_units_Z 16
_cell_length_a 20.829969
_cell_length_b 5.180977
_cell_length_c 12.208336
_cell_angle_alpha 73.825107
_cell_angle_beta 144.690755
_cell_angle_gamma 89.962545
_cell_volume 666.842234
_symmetry_space_group_name_H-M "P -1"
_symmetry_group_IT_number 2
_symmetry_cell_setting 'triclinic'
loop_
_space_group_symop_operation_xyz
x,y,z
-x,-y,-z
loop_
_atom_site_type_symbol
_atom_site_label
_atom_site_fract_x
_atom_site_fract_y
_atom_site_fract_z
Si Si1 0.860821 0.104775 0.432952
Si Si2 0.109253 0.689894 0.162508
Si Si3 0.739776 0.990636 0.892017
Si Si4 0.107887 0.631157 0.918522
Si Si5 0.663038 0.162801 0.540307
Si Si6 0.742873 0.777030 0.156617
Si Si7 0.501191 0.240854 0.108634
Si Si8 0.245378 0.146420 0.508180
O O1 0.838485 0.435875 0.334099
O O2 0.799521 0.977622 0.271147
O O3 0.791840 0.082963 0.451614
O O4 0.998535 0.877021 0.670642
O O5 0.245041 0.680786 0.338846
O O6 0.140199 0.468676 0.335778
O O7 0.074135 0.625038 0.999945
O O8 0.000000 0.000000 0.000000
O O9 0.645423 0.080568 0.648607
O O10 0.849236 0.692973 0.034112
O O11 0.702137 0.896046 0.964197
O O12 0.785838 0.247347 0.948679
O O13 0.544209 0.301539 0.282964
O O14 0.746925 0.900803 0.606551
O O15 0.624617 0.784795 0.053117
O O16 0.613089 0.940978 0.259469
O O17 0.500000 0.500000 0.000000
#
# Coordination Sequence:
#
# PCOD9035591 Si02
#       8
#     2   2   2   2   2   2   2   2
#     4  12  27  41  70 104 139 177 243 276 356 413
#     4  11  23  37  71 102 142 178 226 281 360 417
#     4  11  24  46  70  95 143 182 238 276 346 411
#     4  11  24  44  67 102 139 185 217 297 345 408
#     4   9  22  42  62 101 132 178 223 281 339 413
#     4  12  27  46  68 102 132 195 236 285 333 418
#     4  10  22  46  69 100 139 180 227 295 353 395
#     4  10  23  41  67 101 138 175 224 289 349 420
#
# _framework density 23.993683999999998
#
# number of rings (size 3 to 8) (size 9 to 14) (size 15 to 20)
#    0.750    0.500    2.500    2.250    8.750    6.000 
#    0.000    0.000    0.000    5.250    0.000    0.000 
#    0.000    0.000    0.000    0.000    0.000    0.000 
#
# Total GULP energy -89345.031248 kJ/mol
# GULP energy per Si atom -5584.064453 kJ/mol
# Density = 2.393907 g / cm^3
# Si number density = 23.993684 Si / 1000 Ang^3
#
#
#
# Elastic Constant Matrix: (Units=GPa)
#
#
# Indices 1 2 3 4 5 6 
#
# 1 68.9545 5.4347 17.8254 2.5518 -38.4930 -9.0394
# 2 5.4347 66.9727 15.6867 2.4460 -9.0739 -5.1837
# 3 17.8254 15.6867 104.5525 2.3646 -34.5794 -8.3444
# 4 2.5518 2.4460 2.3646 33.8310 1.8818 -14.0259
# 5 -38.4930 -9.0739 -34.5794 1.8818 41.7842 -0.5996
# 6 -9.0394 -5.1837 -8.3444 -14.0259 -0.5996 13.6761
#
#
#
# Elastic Compliance Matrix: (Units=1/GPa)
#
#
# Indices 1 2 3 4 5 6 
#
# 1 0.056359 0.005527 0.017435 0.021433 0.067659 0.074932
# 2 0.005527 0.016580 0.000765 0.003991 0.009359 0.014907
# 3 0.017435 0.000765 0.019972 0.010360 0.032807 0.036063
# 4 0.021433 0.003991 0.010360 0.060915 0.027672 0.085687
# 5 0.067659 0.009359 0.032807 0.027672 0.115658 0.101735
# 6 0.074932 0.014907 0.036063 0.085687 0.101735 0.242642
#
#
# Mechanical properties :
#
#
# Convention : Reuss Voigt Hill
#
# Bulk Modulus (GPa) = 7.12432 35.37481 21.24956
# Shear Modulus (GPa) = 9.77593 31.29380 20.53487
#
# Velocity S-wave (km/s) = 2.02070 3.61536 2.92866
# Velocity P-wave (km/s) = 2.90172 5.67478 4.50684
#
# Compressibility (1/GPa) = 0.14036432
#
# Stress axis : x y z
#
# Youngs Moduli (GPa) = 17.74334 60.31406 50.07106
#
# Poissons Ratio (x) = -0.33334 -0.87299
# Poissons Ratio (y) = -0.09806 -0.03831
# Poissons Ratio (z) = -0.30936 -0.04615
#
# Static dielectric constant tensor:
#      x y z
#    x 1.957030 0.020250 -0.032090 
#    y 0.020250 2.084520 -0.028940 
#    z -0.032090 -0.028940 1.938040 
# 
# From -- ./inp_files/468084.got.cif
#   From: 2010.05.17/outbox.cif.g08.bks.cpg/sg2_235_cif.got.tgz:468084.got - 2010.06.03 11:33:40.
