data_PCOD9035718
_publ_section_title
;
Structure prediction by ZEFSAII (Michael W. Deem and Ramdas Pophale) SiO2 
 PCOD9035718
Probable space group: P -1
;
_chemical_formula_sum "Si O2"
_cell_formula_units_Z 14
_cell_length_a 7.698948
_cell_length_b 18.709409
_cell_length_c 11.203016
_cell_angle_alpha 33.700833
_cell_angle_beta 103.526051
_cell_angle_gamma 126.586434
_cell_volume 581.519135
_symmetry_space_group_name_H-M "P -1"
_symmetry_group_IT_number 2
_symmetry_cell_setting 'triclinic'
loop_
_space_group_symop_operation_xyz
x,y,z
-x,-y,-z
loop_
_atom_site_type_symbol
_atom_site_label
_atom_site_fract_x
_atom_site_fract_y
_atom_site_fract_z
Si Si1 0.333736 0.051235 0.790096
Si Si2 0.876479 0.327103 0.631556
Si Si3 0.275950 0.451728 0.106130
Si Si4 0.221093 0.166194 0.929925
Si Si5 0.628614 0.541524 0.612542
Si Si6 0.276564 0.977191 0.379597
Si Si7 0.546242 0.852479 0.581871
O O1 0.634642 0.237752 0.626695
O O2 0.294364 0.082727 0.605595
O O3 0.265714 0.862930 0.051451
O O4 0.093977 0.981075 0.927243
O O5 0.000000 0.500000 0.500000
O O6 0.125943 0.402212 0.491818
O O7 0.324691 0.443802 0.262105
O O8 0.992582 0.239965 0.325600
O O9 0.500000 0.500000 0.000000
O O10 0.307185 0.621142 0.856934
O O11 0.349132 0.327586 0.828305
O O12 0.368602 0.311552 0.640534
O O13 0.265246 0.049345 0.153665
O O14 0.477718 0.966847 0.408631
O O15 0.340026 0.101896 0.329793
#
# Coordination Sequence:
#
# PCOD9035718 Si02
#       7
#     2   2   2   2   2   2   2
#     4  10  23  43  68 102 140 184 234 301 347 437
#     4  10  23  44  72 102 143 188 240 292 364 430
#     4  12  26  44  71 104 142 191 244 294 356 427
#     4  10  22  46  71 103 141 185 234 301 367 414
#     4  10  23  46  71 104 151 184 237 310 354 433
#     4  11  25  44  73  98 142 198 233 301 360 429
#     4  11  25  45  68 103 145 187 248 288 359 434
#
# _framework density 24.074873
#
# number of rings (size 3 to 8) (size 9 to 14) (size 15 to 20)
#    0.000    1.429    1.429    2.143    4.000    2.857 
#   12.857    0.000    0.000    0.000    0.000    0.000 
#    0.000    0.000    0.000    0.000    0.000    0.000 
#
# Total GULP energy -78264.905737 kJ/mol
# GULP energy per Si atom -5590.350410 kJ/mol
# Density = 2.402008 g / cm^3
# Si number density = 24.074873 Si / 1000 Ang^3
#
#
#
# Elastic Constant Matrix: (Units=GPa)
#
#
# Indices 1 2 3 4 5 6 
#
# 1 20.9731 52.1774 9.5284 3.1419 -3.4649 -8.6345
# 2 52.1774 63.0462 41.8749 -23.8090 2.7806 -4.6036
# 3 9.5284 41.8749 120.4816 3.8921 17.4537 -11.1496
# 4 3.1419 -23.8090 3.8921 61.6559 3.2121 -1.6870
# 5 -3.4649 2.7806 17.4537 3.2121 36.0556 3.2509
# 6 -8.6345 -4.6036 -11.1496 -1.6870 3.2509 35.7687
#
#
#
# Elastic Compliance Matrix: (Units=1/GPa)
#
#
# Indices 1 2 3 4 5 6 
#
# 1 -0.021500 0.027986 -0.008644 0.012392 -0.000817 -0.003624
# 2 0.027986 -0.010134 0.001599 -0.005431 0.002689 0.005449
# 3 -0.008644 0.001599 0.009377 0.000807 -0.005709 0.001599
# 4 0.012392 -0.005431 0.000807 0.013541 -0.000277 0.003208
# 5 -0.000817 0.002689 -0.005709 -0.000277 0.030637 -0.004428
# 6 -0.003624 0.005449 0.001599 0.003208 -0.004428 0.028836
#
#
# Mechanical properties :
#
#
# Convention : Reuss Voigt Hill
#
# Bulk Modulus (GPa) = 50.95502 45.74024 48.34763
# Shear Modulus (GPa) = 324.32217 33.42405 178.87311
#
# Velocity S-wave (km/s) = 11.61923 3.73008 8.62902
# Velocity P-wave (km/s) = 14.18519 6.13121 10.92729
#
# Compressibility (1/GPa) = 0.01962515
#
# Stress axis : x y z
#
# Youngs Moduli (GPa) = -46.51118 -98.68070 106.64535
#
# Poissons Ratio (x) = 2.76167 0.92181
# Poissons Ratio (y) = 1.30166 -0.17052
# Poissons Ratio (z) = -0.40203 0.15778
#
# Static dielectric constant tensor:
#      x y z
#    x 1.938530 -0.000430 0.000400 
#    y -0.000430 1.936520 0.032180 
#    z 0.000400 0.032180 1.881740 
# 
# From -- ./inp_files/404554.got.cif
#   From: 2010.05.17/outbox.cif.g08.bks.cpg/sg2_203_cif.got.tgz:404554.got - 2010.06.03 11:33:40.
