data_PCOD9035974
_publ_section_title
;
Structure prediction by ZEFSAII (Michael W. Deem and Ramdas Pophale) SiO2 
 PCOD9035974
Probable space group: P -1
;
_chemical_formula_sum "Si O2"
_cell_formula_units_Z 16
_cell_length_a 15.385719
_cell_length_b 5.526611
_cell_length_c 10.317307
_cell_angle_alpha 67.800237
_cell_angle_beta 113.375107
_cell_angle_gamma 120.082695
_cell_volume 678.899527
_symmetry_space_group_name_H-M "P -1"
_symmetry_group_IT_number 2
_symmetry_cell_setting 'triclinic'
loop_
_space_group_symop_operation_xyz
x,y,z
-x,-y,-z
loop_
_atom_site_type_symbol
_atom_site_label
_atom_site_fract_x
_atom_site_fract_y
_atom_site_fract_z
Si Si1 0.937911 0.848744 0.327377
Si Si2 0.385048 0.753250 0.464024
Si Si3 0.262107 0.834871 0.971408
Si Si4 0.275305 0.056350 0.216635
Si Si5 0.427468 0.645688 0.217740
Si Si6 0.126404 0.829673 0.544552
Si Si7 0.659929 0.796892 0.300321
Si Si8 0.886307 0.788277 0.020980
O O1 0.894435 0.506528 0.406430
O O2 0.889957 0.877207 0.156151
O O3 0.060699 0.912011 0.380567
O O4 0.916509 0.055097 0.376867
O O5 0.390947 0.627690 0.349569
O O6 0.361075 0.524747 0.609249
O O7 0.500000 0.000000 0.500000
O O8 0.293256 0.860247 0.373905
O O9 0.160996 0.557597 0.923428
O O10 0.297890 0.095435 0.839360
O O11 0.363849 0.765345 0.062799
O O12 0.243666 0.897327 0.094135
O O13 0.388797 0.316753 0.216733
O O14 0.190753 0.186514 0.141140
O O15 0.550349 0.815610 0.250906
O O16 0.249020 0.008934 0.589471
O O17 0.000000 0.000000 0.000000
#
# Coordination Sequence:
#
# PCOD9035974 Si02
#       8
#     2   2   2   2   2   2   2   2
#     4  10  22  47  65 100 141 179 232 294 356 420
#     4  11  24  44  63  97 137 184 225 281 345 424
#     4  10  23  44  66 101 133 178 228 283 347 417
#     4  10  23  46  66  94 139 176 230 279 346 429
#     4  10  23  43  65  96 141 176 226 276 346 419
#     4  10  23  42  70 100 140 178 229 297 359 417
#     4  12  22  41  70 103 132 181 228 288 347 418
#     4  11  24  44  72  95 133 180 234 290 349 421
#
# _framework density 23.567549
#
# number of rings (size 3 to 8) (size 9 to 14) (size 15 to 20)
#    0.000    1.500    2.500    1.500    0.000    5.000 
#   11.250    0.000    0.000    0.000    0.000    0.000 
#    0.000    0.000    0.000    0.000    0.000    0.000 
#
# Total GULP energy -89236.033469 kJ/mol
# GULP energy per Si atom -5577.252092 kJ/mol
# Density = 2.351391 g / cm^3
# Si number density = 23.567549 Si / 1000 Ang^3
#
#
#
# Elastic Constant Matrix: (Units=GPa)
#
#
# Indices 1 2 3 4 5 6 
#
# 1 51.4214 14.9992 29.5811 -8.1277 8.1526 22.3631
# 2 14.9992 78.7683 46.9722 -0.0860 1.7447 19.1960
# 3 29.5811 46.9722 141.2307 -23.8753 11.8503 5.9025
# 4 -8.1277 -0.0860 -23.8753 49.9977 3.3297 2.3478
# 5 8.1526 1.7447 11.8503 3.3297 44.9796 15.4732
# 6 22.3631 19.1960 5.9025 2.3478 15.4732 41.9161
#
#
#
# Elastic Compliance Matrix: (Units=1/GPa)
#
#
# Indices 1 2 3 4 5 6 
#
# 1 0.029631 0.001813 -0.005788 0.002728 0.001579 -0.016559
# 2 0.001813 0.018981 -0.007139 -0.002906 0.004527 -0.010163
# 3 -0.005788 -0.007139 0.011530 0.004545 -0.004111 0.005997
# 4 0.002728 -0.002906 0.004545 0.022851 -0.002941 -0.000959
# 5 0.001579 0.004527 -0.004111 -0.002941 0.027283 -0.012243
# 6 -0.016559 -0.010163 0.005997 -0.000959 -0.012243 0.041075
#
#
# Mechanical properties :
#
#
# Convention : Reuss Voigt Hill
#
# Bulk Modulus (GPa) = 26.37622 50.50281 38.43951
# Shear Modulus (GPa) = 26.85045 39.36989 33.11017
#
# Velocity S-wave (km/s) = 3.37901 4.09162 3.75227
# Velocity P-wave (km/s) = 5.14195 6.61796 5.92609
#
# Compressibility (1/GPa) = 0.03791294
#
# Stress axis : x y z
#
# Youngs Moduli (GPa) = 33.74860 52.68512 86.73028
#
# Poissons Ratio (x) = -0.09552 0.50203
# Poissons Ratio (y) = -0.06119 0.61916
# Poissons Ratio (z) = 0.19535 0.37612
#
# Static dielectric constant tensor:
#      x y z
#    x 2.017410 -0.088820 0.070770 
#    y -0.088820 1.961760 -0.056560 
#    z 0.070770 -0.056560 1.942580 
# 
# From -- ./inp_files/459026.got.cif
#   From: 2010.05.17/outbox.cif.g08.bks.cpg/sg2_230_cif.got.tgz:459026.got - 2010.06.03 11:33:40.
