data_PCOD9035949
_publ_section_title
;
Structure prediction by ZEFSAII (Michael W. Deem and Ramdas Pophale) SiO2 
 PCOD9035949
Probable space group: P -1
;
_chemical_formula_sum "Si O2"
_cell_formula_units_Z 16
_cell_length_a 18.458156
_cell_length_b 8.075239
_cell_length_c 17.111412
_cell_angle_alpha 134.640451
_cell_angle_beta 153.850905
_cell_angle_gamma 32.967092
_cell_volume 597.961251
_symmetry_space_group_name_H-M "P -1"
_symmetry_group_IT_number 2
_symmetry_cell_setting 'triclinic'
loop_
_space_group_symop_operation_xyz
x,y,z
-x,-y,-z
loop_
_atom_site_type_symbol
_atom_site_label
_atom_site_fract_x
_atom_site_fract_y
_atom_site_fract_z
Si Si1 0.927007 0.241864 0.773564
Si Si2 0.508602 0.285630 0.049325
Si Si3 0.534858 0.702142 0.453596
Si Si4 0.695314 0.759726 0.858615
Si Si5 0.751721 0.383685 0.938394
Si Si6 0.703338 0.595714 0.280115
Si Si7 0.156706 0.097791 0.323107
Si Si8 0.043811 0.234574 0.608603
O O1 0.786037 0.405991 0.613400
O O2 0.807717 0.506067 0.814169
O O3 0.916150 0.983290 0.699891
O O4 0.165713 0.131564 0.961785
O O5 0.608453 0.436732 0.165576
O O6 0.377124 0.304937 0.854259
O O7 0.715184 0.966494 0.186418
O O8 0.662935 0.525849 0.985083
O O9 0.407777 0.677530 0.258071
O O10 0.500000 0.000000 0.500000
O O11 0.400820 0.794048 0.434661
O O12 0.718476 0.598275 0.908070
O O13 0.441987 0.069335 0.705625
O O14 0.010050 0.123709 0.119347
O O15 0.956415 0.358861 0.475750
O O16 0.099765 0.424704 0.376651
O O17 0.000000 0.000000 0.500000
#
# Coordination Sequence:
#
# PCOD9035949 Si02
#       8
#     2   2   2   2   2   2   2   2
#     4  11  26  46  73 112 148 199 258 308 380 460
#     4  10  24  48  72 108 148 199 255 308 380 452
#     4  12  28  44  74 114 153 198 250 313 382 453
#     4  11  24  45  77 104 154 198 251 316 382 450
#     4  12  27  47  74 110 155 198 249 314 383 454
#     4  10  22  46  78 105 147 203 249 313 377 449
#     4  12  25  47  76 109 152 196 249 314 379 458
#     4  10  24  45  77 113 151 197 257 315 376 456
#
# _framework density 26.757586
#
# number of rings (size 3 to 8) (size 9 to 14) (size 15 to 20)
#    0.000    1.000    1.250    3.750   10.500    2.000 
#    6.750    1.250    0.000    0.000    0.000    0.000 
#    0.000    0.000    0.000    0.000    0.000    0.000 
#
# Total GULP energy -89573.269088 kJ/mol
# GULP energy per Si atom -5598.329318 kJ/mol
# Density = 2.669668 g / cm^3
# Si number density = 26.757586 Si / 1000 Ang^3
#
#
#
# Elastic Constant Matrix: (Units=GPa)
#
#
# Indices 1 2 3 4 5 6 
#
# 1 80.8977 27.5130 43.0240 1.4149 -16.4115 13.8949
# 2 27.5130 107.2694 45.9011 -7.1090 -8.1602 22.7293
# 3 43.0240 45.9011 164.0717 -25.0949 -23.5677 13.4975
# 4 1.4149 -7.1090 -25.0949 70.5355 8.7165 -1.9812
# 5 -16.4115 -8.1602 -23.5677 8.7165 37.2830 3.7826
# 6 13.8949 22.7293 13.4975 -1.9812 3.7826 48.4387
#
#
#
# Elastic Compliance Matrix: (Units=1/GPa)
#
#
# Indices 1 2 3 4 5 6 
#
# 1 0.016448 -0.001890 -0.003024 -0.002417 0.005840 -0.003544
# 2 -0.001890 0.011793 -0.002314 0.000195 0.000687 -0.004393
# 3 -0.003024 -0.002314 0.008370 0.002428 0.002938 -0.000509
# 4 -0.002417 0.000195 0.002428 0.015527 -0.003199 0.000810
# 5 0.005840 0.000687 0.002938 -0.003199 0.032706 -0.005501
# 6 -0.003544 -0.004393 -0.000509 0.000810 -0.005501 0.024327
#
#
# Mechanical properties :
#
#
# Convention : Reuss Voigt Hill
#
# Bulk Modulus (GPa) = 45.13367 65.01276 55.07321
# Shear Modulus (GPa) = 38.16455 46.97147 42.56801
#
# Velocity S-wave (km/s) = 3.78075 4.19435 3.99291
# Velocity P-wave (km/s) = 5.99691 6.91422 6.47184
#
# Compressibility (1/GPa) = 0.02215641
#
# Stress axis : x y z
#
# Youngs Moduli (GPa) = 60.79851 84.79574 119.46862
#
# Poissons Ratio (x) = 0.16025 0.36124
# Poissons Ratio (y) = 0.11490 0.27643
# Poissons Ratio (z) = 0.18384 0.19621
#
# Static dielectric constant tensor:
#      x y z
#    x 2.094580 -0.069380 0.022330 
#    y -0.069380 2.018610 -0.103820 
#    z 0.022330 -0.103820 1.962510 
# 
# From -- ./inp_files/202158.got.cif
#   From: 2010.05.17/outbox.cif.g08.bks.cpg/sg2_102_cif.got.tgz:202158.got - 2010.06.03 11:33:40.
