data_PCOD9035361
_publ_section_title
;
Structure prediction by ZEFSAII (Michael W. Deem and Ramdas Pophale) SiO2 
 PCOD9035361
Probable space group: P -1
;
_chemical_formula_sum "Si O2"
_cell_formula_units_Z 11
_cell_length_a 9.527303
_cell_length_b 8.333334
_cell_length_c 8.971725
_cell_angle_alpha 119.286672
_cell_angle_beta 80.850313
_cell_angle_gamma 57.947437
_cell_volume 433.988497
_symmetry_space_group_name_H-M "P -1"
_symmetry_group_IT_number 2
_symmetry_cell_setting 'triclinic'
loop_
_space_group_symop_operation_xyz
x,y,z
-x,-y,-z
loop_
_atom_site_type_symbol
_atom_site_label
_atom_site_fract_x
_atom_site_fract_y
_atom_site_fract_z
Si Si1 0.269983 0.815369 0.992059
Si Si2 0.957736 0.591265 0.717520
Si Si3 0.714291 0.812602 0.305086
Si Si4 0.086528 0.967852 0.635063
Si Si5 0.609603 0.750146 0.975712
Si Si6 0.500000 0.500000 0.500000
O O1 0.462956 0.714126 0.005563
O O2 0.152468 0.113586 0.112808
O O3 0.369732 0.644229 0.747045
O O4 0.104353 0.861510 0.140680
O O5 0.000000 0.500000 0.500000
O O6 0.144378 0.431554 0.722424
O O7 0.823546 0.540733 0.768140
O O8 0.672128 0.779976 0.133987
O O9 0.500000 0.000000 0.500000
O O10 0.808370 0.928150 0.333672
O O11 0.280418 0.672743 0.526167
O O12 0.000000 0.000000 0.500000
O O13 0.500000 0.000000 0.000000
#
# Coordination Sequence:
#
# PCOD9035361 Si02
#       6
#     2   2   2   2   2   1
#     4  11  27  53  83 116 161 220 270 342 414 494
#     4  11  24  46  82 115 159 206 273 335 409 485
#     4  12  26  48  79 119 160 210 273 342 411 489
#     4  12  28  52  81 122 164 217 276 343 418 493
#     4  10  22  45  74 111 151 204 267 326 401 476
#     4  12  30  52  82 116 174 212 276 328 432 490
#
# _framework density 25.346294
#
# number of rings (size 3 to 8) (size 9 to 14) (size 15 to 20)
#    0.000    0.727    0.000    7.636    7.636    0.727 
#    3.273    0.000    0.000    0.000    0.000    0.000 
#    0.000    0.000    0.000    0.000    0.000    0.000 
#
# Total GULP energy -61283.710334 kJ/mol
# GULP energy per Si atom -5571.246394 kJ/mol
# Density = 2.528860 g / cm^3
# Si number density = 25.346294 Si / 1000 Ang^3
#
#
#
# Elastic Constant Matrix: (Units=GPa)
#
#
# Indices 1 2 3 4 5 6 
#
# 1 231.1712 79.9117 121.6379 -30.8814 -22.7818 -28.6129
# 2 79.9117 110.5888 67.0512 -21.0193 9.6189 -38.1175
# 3 121.6379 67.0512 238.7804 -47.8896 -29.0712 -18.4656
# 4 -30.8814 -21.0193 -47.8896 41.4474 -13.4088 8.1993
# 5 -22.7818 9.6189 -29.0712 -13.4088 63.2882 -11.3506
# 6 -28.6129 -38.1175 -18.4656 8.1993 -11.3506 61.4910
#
#
#
# Elastic Compliance Matrix: (Units=1/GPa)
#
#
# Indices 1 2 3 4 5 6 
#
# 1 0.007231 -0.003716 -0.001759 0.002281 0.002983 0.000780
# 2 -0.003716 0.015857 -0.002542 -0.000201 -0.003762 0.006669
# 3 -0.001759 -0.002542 0.008147 0.008545 0.005286 -0.000112
# 4 0.002281 -0.000201 0.008545 0.039778 0.013323 0.000658
# 5 0.002983 -0.003762 0.005286 0.013323 0.023264 0.003161
# 6 0.000780 0.006669 -0.000112 0.000658 0.003161 0.021222
#
#
# Mechanical properties :
#
#
# Convention : Reuss Voigt Hill
#
# Bulk Modulus (GPa) = 65.78990 124.19356 94.99173
# Shear Modulus (GPa) = 36.60345 54.04128 45.32237
#
# Velocity S-wave (km/s) = 3.80430 4.62250 4.23321
# Velocity P-wave (km/s) = 6.73125 8.80880 7.83916
#
# Compressibility (1/GPa) = 0.01519990
#
# Stress axis : x y z
#
# Youngs Moduli (GPa) = 138.29068 63.06458 122.74944
#
# Poissons Ratio (x) = 0.23433 0.21594
# Poissons Ratio (y) = 0.51385 0.31208
# Poissons Ratio (z) = 0.24329 0.16033
#
# Static dielectric constant tensor:
#      x y z
#    x 2.005580 0.064360 0.009350 
#    y 0.064360 1.949230 0.138160 
#    z 0.009350 0.138160 1.955120 
# 
# From -- ./inp_files/156112.got.cif
#   From: 2010.05.17/outbox.cif.g08.bks.cpg/sg2_79_cif.got.tgz:156112.got - 2010.06.03 11:33:40.
