data_PCOD9035114
_publ_section_title
;
Structure prediction by ZEFSAII (Michael W. Deem and Ramdas Pophale) SiO2 
 PCOD9035114
Probable space group: P -1
;
_chemical_formula_sum "Si O2"
_cell_formula_units_Z 14
_cell_length_a 16.314459
_cell_length_b 16.742138
_cell_length_c 5.459458
_cell_angle_alpha 125.333856
_cell_angle_beta 72.836371
_cell_angle_gamma 147.360840
_cell_volume 590.421015
_symmetry_space_group_name_H-M "P -1"
_symmetry_group_IT_number 2
_symmetry_cell_setting 'triclinic'
loop_
_space_group_symop_operation_xyz
x,y,z
-x,-y,-z
loop_
_atom_site_type_symbol
_atom_site_label
_atom_site_fract_x
_atom_site_fract_y
_atom_site_fract_z
Si Si1 0.080092 0.813884 0.316162
Si Si2 0.002732 0.421221 0.642621
Si Si3 0.046264 0.097963 0.382951
Si Si4 0.740579 0.398810 0.633554
Si Si5 0.650474 0.113085 0.249847
Si Si6 0.405057 0.148999 0.291644
Si Si7 0.406234 0.380805 0.618564
O O1 0.068931 0.744865 0.454772
O O2 0.054492 0.901770 0.538135
O O3 0.255429 0.974118 0.303069
O O4 0.908960 0.612617 0.970582
O O5 0.854830 0.299923 0.361416
O O6 0.182825 0.573075 0.635609
O O7 0.000000 0.500000 0.000000
O O8 0.245806 0.294097 0.581847
O O9 0.000000 0.000000 0.500000
O O10 0.000000 0.000000 0.000000
O O11 0.671507 0.241423 0.587165
O O12 0.587903 0.320596 0.565308
O O13 0.500000 0.000000 0.000000
O O14 0.596252 0.947410 0.061620
O O15 0.373559 0.230010 0.378590
O O16 0.500000 0.500000 0.500000
O O17 0.500000 0.500000 0.000000
#
# Coordination Sequence:
#
# PCOD9035114 Si02
#       7
#     2   2   2   2   2   2   2
#     4  12  26  46  78 108 151 200 254 312 388 462
#     4  12  24  42  75 109 148 196 250 308 376 458
#     4  12  28  50  78 114 153 204 264 325 389 463
#     4  11  24  48  72 109 156 193 248 312 383 461
#     4  10  22  45  71 103 151 191 238 304 376 458
#     4  11  25  47  76 106 147 203 247 315 385 459
#     4  12  28  51  77 110 155 199 262 326 389 460
#
# _framework density 23.711894000000001
#
# number of rings (size 3 to 8) (size 9 to 14) (size 15 to 20)
#    0.000    0.571    4.286    3.000    6.000    0.000 
#    5.143    4.286    0.000    0.000    0.000    0.000 
#    0.000    0.000    0.000    0.000    0.000    0.000 
#
# Total GULP energy -77977.168469 kJ/mol
# GULP energy per Si atom -5569.797748 kJ/mol
# Density = 2.365793 g / cm^3
# Si number density = 23.711894 Si / 1000 Ang^3
#
#
#
# Elastic Constant Matrix: (Units=GPa)
#
#
# Indices 1 2 3 4 5 6 
#
# 1 123.9423 39.6672 18.8939 -4.0191 0.4046 7.0306
# 2 39.6672 119.7212 31.6169 -1.5701 10.8850 6.1842
# 3 18.8939 31.6169 107.8564 -6.7479 14.5594 8.9223
# 4 -4.0191 -1.5701 -6.7479 32.4607 10.2975 4.7311
# 5 0.4046 10.8850 14.5594 10.2975 58.4892 23.4690
# 6 7.0306 6.1842 8.9223 4.7311 23.4690 56.3011
#
#
#
# Elastic Compliance Matrix: (Units=1/GPa)
#
#
# Indices 1 2 3 4 5 6 
#
# 1 0.009188 -0.002864 -0.000765 0.000691 0.001017 -0.001194
# 2 -0.002864 0.010014 -0.002260 0.000067 -0.001365 0.000179
# 3 -0.000765 -0.002260 0.010632 0.002881 -0.002513 -0.000536
# 4 0.000691 0.000067 0.002881 0.033618 -0.006363 -0.000723
# 5 0.001017 -0.001365 -0.002513 -0.006363 0.022464 -0.008408
# 6 -0.001194 0.000179 -0.000536 -0.000723 -0.008408 0.021542
#
#
# Mechanical properties :
#
#
# Convention : Reuss Voigt Hill
#
# Bulk Modulus (GPa) = 55.38502 59.09731 57.24116
# Shear Modulus (GPa) = 39.91826 46.87299 43.39562
#
# Velocity S-wave (km/s) = 4.10746 4.45091 4.28263
# Velocity P-wave (km/s) = 6.77519 7.16878 6.97476
#
# Compressibility (1/GPa) = 0.01805543
#
# Stress axis : x y z
#
# Youngs Moduli (GPa) = 108.83333 99.85721 94.05538
#
# Poissons Ratio (x) = 0.28599 0.07198
# Poissons Ratio (y) = 0.31170 0.21259
# Poissons Ratio (z) = 0.08329 0.22570
#
# Static dielectric constant tensor:
#      x y z
#    x 1.960790 -0.018740 -0.022920 
#    y -0.018740 1.858390 0.002570 
#    z -0.022920 0.002570 1.986680 
# 
# From -- ./inp_files/111716.got.cif
#   From: 2010.05.17/outbox.cif.g08.bks.cpg/sg2_56_cif.got.tgz:111716.got - 2010.06.03 11:33:40.
