data_PCOD9035173
_publ_section_title
;
Structure prediction by ZEFSAII (Michael W. Deem and Ramdas Pophale) SiO2 
 PCOD9035173
Probable space group: P -1
;
_chemical_formula_sum "Si O2"
_cell_formula_units_Z 16
_cell_length_a 11.676776
_cell_length_b 11.890065
_cell_length_c 13.775105
_cell_angle_alpha 31.014942
_cell_angle_beta 83.353433
_cell_angle_gamma 63.216187
_cell_volume 711.584036
_symmetry_space_group_name_H-M "P -1"
_symmetry_group_IT_number 2
_symmetry_cell_setting 'triclinic'
loop_
_space_group_symop_operation_xyz
x,y,z
-x,-y,-z
loop_
_atom_site_type_symbol
_atom_site_label
_atom_site_fract_x
_atom_site_fract_y
_atom_site_fract_z
Si Si1 0.144616 0.237012 0.616369
Si Si2 0.140275 0.155761 0.209559
Si Si3 0.882814 0.138791 0.229119
Si Si4 0.405295 0.852586 0.242339
Si Si5 0.677474 0.279863 0.315742
Si Si6 0.447017 0.262195 0.241166
Si Si7 0.392806 0.743617 0.113493
Si Si8 0.398103 0.229081 0.562754
O O1 0.226812 0.345332 0.485682
O O2 0.000000 0.500000 0.500000
O O3 0.101049 0.124226 0.620202
O O4 0.268525 0.959420 0.882421
O O5 0.046083 0.055823 0.268643
O O6 0.257821 0.055819 0.182107
O O7 0.244706 0.993408 0.416258
O O8 0.000000 0.500000 0.000000
O O9 0.814250 0.217094 0.287287
O O10 0.737862 0.439718 0.961446
O O11 0.500000 0.500000 0.500000
O O12 0.357454 0.921164 0.084189
O O13 0.539708 0.834033 0.286823
O O14 0.558971 0.317853 0.221831
O O15 0.568054 0.562480 0.188807
O O16 0.500000 0.000000 0.500000
O O17 0.490693 0.096747 0.257102
O O18 0.396901 0.474597 0.335417
#
# Coordination Sequence:
#
# PCOD9035173 Si02
#       8
#     2   2   2   2   2   2   2   2
#     4  12  28  44  65 106 145 188 239 296 363 421
#     4  12  26  45  71 107 145 184 238 300 368 421
#     4  12  26  43  68 108 150 177 230 313 357 422
#     4  10  22  45  71  98 136 189 241 286 348 432
#     4  12  22  43  70 101 140 186 234 285 364 424
#     4  12  20  41  71 100 133 181 237 285 351 431
#     4  11  24  45  73 102 137 194 242 292 346 435
#     4  11  22  43  73  99 136 184 240 289 351 432
#
# _framework density 22.485047000000002
#
# number of rings (size 3 to 8) (size 9 to 14) (size 15 to 20)
#    0.000    0.500    6.250    3.000    3.500    2.000 
#    2.250    1.250    0.000    0.000    0.000    0.000 
#    0.000    0.000    0.000    0.000    0.000    0.000 
#
# Total GULP energy -89433.025743 kJ/mol
# GULP energy per Si atom -5589.564109 kJ/mol
# Density = 2.243387 g / cm^3
# Si number density = 22.485047 Si / 1000 Ang^3
#
#
#
# Elastic Constant Matrix: (Units=GPa)
#
#
# Indices 1 2 3 4 5 6 
#
# 1 88.8944 14.5735 -13.4057 -8.9168 -2.1213 10.6786
# 2 14.5735 118.8358 18.7436 -12.8246 2.3638 4.2474
# 3 -13.4057 18.7436 73.8658 -7.3878 9.2525 -4.5030
# 4 -8.9168 -12.8246 -7.3878 41.7619 -1.7891 7.0309
# 5 -2.1213 2.3638 9.2525 -1.7891 26.8614 -1.3030
# 6 10.6786 4.2474 -4.5030 7.0309 -1.3030 40.0410
#
#
#
# Elastic Compliance Matrix: (Units=1/GPa)
#
#
# Indices 1 2 3 4 5 6 
#
# 1 0.012674 -0.001513 0.002776 0.003329 0.000231 -0.003484
# 2 -0.001513 0.009285 -0.002479 0.002303 0.000009 -0.001264
# 3 0.002776 -0.002479 0.015532 0.002256 -0.004728 0.000720
# 4 0.003329 0.002303 0.002256 0.026730 0.000795 -0.005546
# 5 0.000231 0.000009 -0.004728 0.000795 0.038953 0.000534
# 6 -0.003484 -0.001264 0.000720 -0.005546 0.000534 0.027110
#
#
# Mechanical properties :
#
#
# Convention : Reuss Voigt Hill
#
# Bulk Modulus (GPa) = 28.52260 35.71320 32.11790
# Shear Modulus (GPa) = 34.62550 39.17850 36.90200
#
# Velocity S-wave (km/s) = 3.92846 4.17876 4.05554
# Velocity P-wave (km/s) = 5.76972 6.26102 6.02038
#
# Compressibility (1/GPa) = 0.03505991
#
# Stress axis : x y z
#
# Youngs Moduli (GPa) = 78.90223 107.70081 64.38149
#
# Poissons Ratio (x) = 0.16294 -0.17870
# Poissons Ratio (y) = 0.11937 0.15957
# Poissons Ratio (z) = -0.21901 0.26694
#
# Static dielectric constant tensor:
#      x y z
#    x 1.870970 -0.058890 -0.024650 
#    y -0.058890 2.109330 -0.118360 
#    z -0.024650 -0.118360 2.066630 
# 
# From -- ./inp_files/519489.got.cif
#   From: 2010.05.17/outbox.cif.g08.bks.cpg/sg2_260_cif.got.tgz:519489.got - 2010.06.03 11:33:40.
