data_PCOD9035679
_publ_section_title
;
Structure prediction by ZEFSAII (Michael W. Deem and Ramdas Pophale) SiO2 
 PCOD9035679
Probable space group: P -1
;
_chemical_formula_sum "Si O2"
_cell_formula_units_Z 16
_cell_length_a 7.460315
_cell_length_b 20.214941
_cell_length_c 15.750945
_cell_angle_alpha 26.548125
_cell_angle_beta 133.371659
_cell_angle_gamma 140.646256
_cell_volume 673.115396
_symmetry_space_group_name_H-M "P -1"
_symmetry_group_IT_number 2
_symmetry_cell_setting 'triclinic'
loop_
_space_group_symop_operation_xyz
x,y,z
-x,-y,-z
loop_
_atom_site_type_symbol
_atom_site_label
_atom_site_fract_x
_atom_site_fract_y
_atom_site_fract_z
Si Si1 0.095161 0.703826 0.509619
Si Si2 0.562769 0.754243 0.032789
Si Si3 0.117044 0.122642 0.317398
Si Si4 0.157233 0.367715 0.319950
Si Si5 0.029637 0.679014 0.329263
Si Si6 0.452950 0.770329 0.795312
Si Si7 0.480764 0.018307 0.785448
Si Si8 0.504123 0.570449 0.799794
O O1 0.934819 0.724492 0.513642
O O2 0.382558 0.869549 0.384106
O O3 0.214669 0.574250 0.716700
O O4 0.927875 0.657800 0.419342
O O5 0.534753 0.833825 0.844063
O O6 0.566864 0.871706 0.975760
O O7 0.833544 0.728009 0.154425
O O8 0.297003 0.565672 0.162481
O O9 0.352844 0.107879 0.355686
O O10 0.268856 0.308128 0.196792
O O11 0.854455 0.073596 0.225815
O O12 0.000000 0.000000 0.500000
O O13 0.873477 0.303917 0.246680
O O14 0.622004 0.644157 0.658651
O O15 0.000000 0.500000 0.500000
O O16 0.346491 0.840499 0.249386
O O17 0.514158 0.610878 0.995927
#
# Coordination Sequence:
#
# PCOD9035679 Si02
#       8
#     2   2   2   2   2   2   2   2
#     4  10  23  41  66  95 130 173 227 266 327 397
#     4  11  23  41  68  96 134 172 220 280 329 382
#     4  12  21  38  64  96 138 178 208 274 331 392
#     4  11  22  40  66 100 130 176 220 270 324 407
#     4  10  22  46  70  90 130 175 226 276 329 395
#     4  11  23  38  65  97 134 175 216 262 333 403
#     4  10  23  41  63  97 129 171 221 277 328 386
#     4  11  21  39  63  96 137 175 218 264 329 397
#
# _framework density 23.770068999999999
#
# number of rings (size 3 to 8) (size 9 to 14) (size 15 to 20)
#    0.750    0.500    2.500    5.250    1.750    1.500 
#    0.000    3.125    0.000    0.000    0.000    0.000 
#    0.000    0.000    0.000    0.000    0.000    0.000 
#
# Total GULP energy -89397.405241 kJ/mol
# GULP energy per Si atom -5587.337828 kJ/mol
# Density = 2.371597 g / cm^3
# Si number density = 23.770069 Si / 1000 Ang^3
#
#
#
# Elastic Constant Matrix: (Units=GPa)
#
#
# Indices 1 2 3 4 5 6 
#
# 1 78.9744 34.4300 -4.4684 -10.4587 -8.6195 3.5394
# 2 34.4300 119.3997 21.1146 4.0396 8.4086 -17.8241
# 3 -4.4684 21.1146 30.5159 1.2991 7.5159 -2.1839
# 4 -10.4587 4.0396 1.2991 31.1789 -10.5691 4.5312
# 5 -8.6195 8.4086 7.5159 -10.5691 39.4813 -7.1552
# 6 3.5394 -17.8241 -2.1839 4.5312 -7.1552 30.5355
#
#
#
# Elastic Compliance Matrix: (Units=1/GPa)
#
#
# Indices 1 2 3 4 5 6 
#
# 1 0.019001 -0.008348 0.006085 0.010316 0.006317 -0.006691
# 2 -0.008348 0.014202 -0.009336 -0.006633 -0.003248 0.008813
# 3 0.006085 -0.009336 0.041061 0.000431 -0.005200 -0.004501
# 4 0.010316 -0.006633 0.000431 0.042093 0.013374 -0.008149
# 5 0.006317 -0.003248 -0.005200 0.013374 0.032444 0.002618
# 6 -0.006691 0.008813 -0.004501 -0.008149 0.002618 0.040169
#
#
# Mechanical properties :
#
#
# Convention : Reuss Voigt Hill
#
# Bulk Modulus (GPa) = 19.58253 36.78250 28.18251
# Shear Modulus (GPa) = 21.81590 32.09340 26.95465
#
# Velocity S-wave (km/s) = 3.03279 3.67844 3.37111
# Velocity P-wave (km/s) = 4.52989 5.79216 5.19947
#
# Compressibility (1/GPa) = 0.05106593
#
# Stress axis : x y z
#
# Youngs Moduli (GPa) = 52.62784 70.41156 24.35411
#
# Poissons Ratio (x) = 0.58779 -0.14819
# Poissons Ratio (y) = 0.43933 0.22737
# Poissons Ratio (z) = -0.32022 0.65736
#
# Static dielectric constant tensor:
#      x y z
#    x 1.932500 -0.024460 -0.029030 
#    y -0.024460 1.891920 -0.021390 
#    z -0.029030 -0.021390 1.980510 
# 
# From -- ./inp_files/563245.got.cif
#   From: 2010.05.17/outbox.cif.g08.bks.cpg/sg2_282_cif.got.tgz:563245.got - 2010.06.03 11:33:40.
