data_PCOD9035761
_publ_section_title
;
Structure prediction by ZEFSAII (Michael W. Deem and Ramdas Pophale) SiO2 
 PCOD9035761
Probable space group: P -1
;
_chemical_formula_sum "Si O2"
_cell_formula_units_Z 13
_cell_length_a 10.854204
_cell_length_b 9.701902
_cell_length_c 9.600660
_cell_angle_alpha 46.556618
_cell_angle_beta 62.487875
_cell_angle_gamma 94.167694
_cell_volume 517.809093
_symmetry_space_group_name_H-M "P -1"
_symmetry_group_IT_number 2
_symmetry_cell_setting 'triclinic'
loop_
_space_group_symop_operation_xyz
x,y,z
-x,-y,-z
loop_
_atom_site_type_symbol
_atom_site_label
_atom_site_fract_x
_atom_site_fract_y
_atom_site_fract_z
Si Si1 0.136842 0.018120 0.816045
Si Si2 0.485290 0.451433 0.273678
Si Si3 0.146825 0.204670 0.378593
Si Si4 0.500000 0.500000 0.500000
Si Si5 0.983016 0.499251 0.838659
Si Si6 0.618355 0.171612 0.689650
Si Si7 0.490382 0.237122 0.154995
O O1 0.334626 0.243860 0.604709
O O2 0.113180 0.096537 0.624597
O O3 0.105521 0.768847 0.983695
O O4 0.000000 0.000000 0.000000
O O5 0.617545 0.625614 0.199259
O O6 0.519162 0.304710 0.254435
O O7 0.397650 0.551463 0.162960
O O8 0.320218 0.232721 0.219820
O O9 0.132835 0.417542 0.207219
O O10 0.000000 0.000000 0.500000
O O11 0.592672 0.371695 0.564147
O O12 0.172703 0.687079 0.535738
O O13 0.000000 0.500000 0.000000
O O14 0.540214 0.997078 0.716769
O O15 0.500000 0.000000 0.000000
#
# Coordination Sequence:
#
# PCOD9035761 Si02
#       7
#     2   2   2   1   2   2   2
#     4  11  25  44  65 105 149 176 235 295 348 424
#     4  10  23  45  66 102 136 183 229 299 339 424
#     4  11  22  45  75 102 137 189 232 289 355 417
#     4  12  26  44  74 100 140 186 240 284 366 412
#     4  12  25  44  77 105 140 189 242 284 355 432
#     4  12  26  44  70 109 144 185 233 295 349 424
#     4  10  22  46  71  98 145 177 235 290 351 414
#
# _framework density 25.105775999999999
#
# number of rings (size 3 to 8) (size 9 to 14) (size 15 to 20)
#    0.000    0.923    4.615    1.846    2.154    4.923 
#    8.308    0.000    0.000    0.000    0.000    0.000 
#    0.000    0.000    0.000    0.000    0.000    0.000 
#
# Total GULP energy -72390.955555 kJ/mol
# GULP energy per Si atom -5568.535043 kJ/mol
# Density = 2.504863 g / cm^3
# Si number density = 25.105776 Si / 1000 Ang^3
#
#
#
# Elastic Constant Matrix: (Units=GPa)
#
#
# Indices 1 2 3 4 5 6 
#
# 1 98.9121 11.3992 41.0401 12.6895 16.2089 -25.1223
# 2 11.3992 172.4015 22.6990 -18.4645 26.0355 -33.1676
# 3 41.0401 22.6990 95.6405 -3.5933 11.7617 -22.7634
# 4 12.6895 -18.4645 -3.5933 45.7364 7.9573 12.3332
# 5 16.2089 26.0355 11.7617 7.9573 52.4093 3.0022
# 6 -25.1223 -33.1676 -22.7634 12.3332 3.0022 37.9015
#
#
#
# Elastic Compliance Matrix: (Units=1/GPa)
#
#
# Indices 1 2 3 4 5 6 
#
# 1 0.016484 0.001901 -0.004175 -0.006707 -0.004812 0.012646
# 2 0.001901 0.008273 -0.000059 0.001478 -0.005391 0.008410
# 3 -0.004175 -0.000059 0.013844 0.001191 -0.002270 0.005288
# 4 -0.006707 0.001478 0.001191 0.027905 -0.002516 -0.011318
# 5 -0.004812 -0.005391 -0.002270 -0.002516 0.024734 -0.010410
# 6 0.012646 0.008410 0.005288 -0.011318 -0.010410 0.049809
#
#
# Mechanical properties :
#
#
# Convention : Reuss Voigt Hill
#
# Bulk Modulus (GPa) = 29.46863 57.47007 43.46935
# Shear Modulus (GPa) = 31.84170 46.66382 39.25276
#
# Velocity S-wave (km/s) = 3.56519 4.31593 3.95840
# Velocity P-wave (km/s) = 5.35823 6.91210 6.18417
#
# Compressibility (1/GPa) = 0.03393439
#
# Stress axis : x y z
#
# Youngs Moduli (GPa) = 60.66519 120.87748 72.23445
#
# Poissons Ratio (x) = -0.22978 0.30158
# Poissons Ratio (y) = -0.11532 0.00426
# Poissons Ratio (z) = 0.25328 0.00713
#
# Static dielectric constant tensor:
#      x y z
#    x 1.906130 -0.097180 0.403720 
#    y -0.097180 1.776660 0.533850 
#    z 0.403720 0.533850 1.317500 
# 
# From -- ./inp_files/236507.got.cif
#   From: 2010.05.17/outbox.cif.g08.bks.cpg/sg2_119_cif.got.tgz:236507.got - 2010.06.03 11:33:40.
