data_PCOD9035000
_publ_section_title
;
Structure prediction by ZEFSAII (Michael W. Deem and Ramdas Pophale) SiO2 
 PCOD9035000
Probable space group: P -1
;
_chemical_formula_sum "Si O2"
_cell_formula_units_Z 10
_cell_length_a 7.216755
_cell_length_b 10.668394
_cell_length_c 7.585431
_cell_angle_alpha 119.213640
_cell_angle_beta 123.507700
_cell_angle_gamma 47.943244
_cell_volume 354.896729
_symmetry_space_group_name_H-M "P -1"
_symmetry_group_IT_number 2
_symmetry_cell_setting 'triclinic'
loop_
_space_group_symop_operation_xyz
x,y,z
-x,-y,-z
loop_
_atom_site_type_symbol
_atom_site_label
_atom_site_fract_x
_atom_site_fract_y
_atom_site_fract_z
Si Si1 0.768857 0.267298 0.440647
Si Si2 0.332273 0.982260 0.638783
Si Si3 0.001111 0.521661 0.303867
Si Si4 0.567471 0.316027 0.978348
Si Si5 0.131107 0.153789 0.034507
O O1 0.649711 0.198419 0.471589
O O2 0.623374 0.297728 0.201577
O O3 0.795611 0.425511 0.605933
O O4 0.082122 0.113539 0.479954
O O5 0.628036 0.941203 0.762592
O O6 0.232045 0.060407 0.837145
O O7 0.000000 0.500000 0.500000
O O8 0.069717 0.346595 0.128143
O O9 0.700497 0.673269 0.198717
O O10 0.854070 0.178634 0.954169
O O11 0.500000 0.500000 0.000000
#
# Coordination Sequence:
#
# PCOD9035000 Si02
#       5
#     2   2   2   2   2
#     4  11  24  47  69 100 141 178 229 274 342 409
#     4  10  26  46  63 107 144 180 213 276 361 401
#     4  11  23  45  74 102 128 179 239 283 326 394
#     4  10  22  45  70 101 131 176 237 282 322 397
#     4  10  23  47  69  99 142 177 230 276 337 409
#
# _framework density 28.177209999999999
#
# number of rings (size 3 to 8) (size 9 to 14) (size 15 to 20)
#    0.000    1.600    4.000    0.000    5.600    6.400 
#    3.600    0.000    0.000    0.000    0.000    0.000 
#    0.000    0.000    0.000    0.000    0.000    0.000 
#
# Total GULP energy -56126.918786 kJ/mol
# GULP energy per Si atom -5612.691879 kJ/mol
# Density = 2.811308 g / cm^3
# Si number density = 28.177210 Si / 1000 Ang^3
#
#
#
# Elastic Constant Matrix: (Units=GPa)
#
#
# Indices 1 2 3 4 5 6 
#
# 1 125.3341 26.0054 57.4628 0.3207 29.3967 -26.7369
# 2 26.0054 140.3214 43.2321 -13.2844 4.2385 3.4777
# 3 57.4628 43.2321 167.0460 -40.1497 32.8520 -6.8741
# 4 0.3207 -13.2844 -40.1497 78.1752 -4.3251 20.6369
# 5 29.3967 4.2385 32.8520 -4.3251 50.8858 -8.8682
# 6 -26.7369 3.4777 -6.8741 20.6369 -8.8682 50.9819
#
#
#
# Elastic Compliance Matrix: (Units=1/GPa)
#
#
# Indices 1 2 3 4 5 6 
#
# 1 0.012572 -0.001605 -0.003968 -0.004507 -0.003669 0.007354
# 2 -0.001605 0.008018 -0.001526 0.001137 0.001014 -0.001879
# 3 -0.003968 -0.001526 0.009699 0.005460 -0.004001 -0.003576
# 4 -0.004507 0.001137 0.005460 0.018192 -0.001084 -0.009257
# 5 -0.003669 0.001014 -0.004001 -0.001084 0.024557 0.002178
# 6 0.007354 -0.001879 -0.003576 -0.009257 0.002178 0.027243
#
#
# Mechanical properties :
#
#
# Convention : Reuss Voigt Hill
#
# Bulk Modulus (GPa) = 62.15624 76.23356 69.19490
# Shear Modulus (GPa) = 41.72129 56.40866 49.06497
#
# Velocity S-wave (km/s) = 3.85213 4.47914 4.17742
# Velocity P-wave (km/s) = 6.47241 7.33921 6.91940
#
# Compressibility (1/GPa) = 0.01608849
#
# Stress axis : x y z
#
# Youngs Moduli (GPa) = 79.54282 124.72198 103.10841
#
# Poissons Ratio (x) = 0.20023 0.40916
# Poissons Ratio (y) = 0.12770 0.15737
# Poissons Ratio (z) = 0.31564 0.19035
#
# Static dielectric constant tensor:
#      x y z
#    x 2.184830 -0.003480 0.047710 
#    y -0.003480 2.286300 0.014620 
#    z 0.047710 0.014620 2.123930 
# 
# From -- ./inp_files/166442.got.cif
#   From: 2010.05.17/outbox.cif.g08.bks.cpg/sg2_84_cif.got.tgz:166442.got - 2010.06.03 11:33:40.
