data_PCOD9035463
_publ_section_title
;
Structure prediction by ZEFSAII (Michael W. Deem and Ramdas Pophale) SiO2 
 PCOD9035463
Probable space group: P -1
;
_chemical_formula_sum "Si O2"
_cell_formula_units_Z 14
_cell_length_a 6.114718
_cell_length_b 17.172701
_cell_length_c 10.886087
_cell_angle_alpha 148.733008
_cell_angle_beta 84.272040
_cell_angle_gamma 102.251638
_cell_volume 572.242018
_symmetry_space_group_name_H-M "P -1"
_symmetry_group_IT_number 2
_symmetry_cell_setting 'triclinic'
loop_
_space_group_symop_operation_xyz
x,y,z
-x,-y,-z
loop_
_atom_site_type_symbol
_atom_site_label
_atom_site_fract_x
_atom_site_fract_y
_atom_site_fract_z
Si Si1 0.228437 0.823808 0.411739
Si Si2 0.646912 0.436558 0.807756
Si Si3 0.623324 0.365198 0.280997
Si Si4 0.824051 0.159277 0.164268
Si Si5 0.966771 0.321641 0.022401
Si Si6 0.531403 0.874578 0.655906
Si Si7 0.169304 0.124740 0.938794
O O1 0.189929 0.659034 0.262610
O O2 0.489716 0.887905 0.530302
O O3 0.165259 0.783737 0.222279
O O4 0.119119 0.954863 0.651063
O O5 0.463812 0.302762 0.565464
O O6 0.500000 0.500000 0.000000
O O7 0.807915 0.566165 0.893830
O O8 0.500000 0.500000 0.500000
O O9 0.754026 0.308236 0.311273
O O10 0.434021 0.211783 0.043789
O O11 0.800477 0.409149 0.218720
O O12 0.699939 0.122786 0.251718
O O13 0.083349 0.158848 0.126447
O O14 0.714070 0.011536 0.886220
O O15 0.045912 0.220297 0.984882
#
# Coordination Sequence:
#
# PCOD9035463 Si02
#       7
#     2   2   2   2   2   2   2
#     4  10  23  44  68  98 133 177 226 273 335 398
#     4  10  24  43  67 100 137 171 220 276 338 395
#     4  11  26  43  68  98 136 175 226 273 339 399
#     4  10  22  46  65 100 130 179 228 275 333 395
#     4  11  26  44  68 102 135 179 223 277 336 399
#     4   9  22  42  68  94 135 168 227 277 326 397
#     4  11  25  44  70  97 135 181 224 276 333 400
#
# _framework density 24.465171999999999
#
# number of rings (size 3 to 8) (size 9 to 14) (size 15 to 20)
#    0.857    0.857    1.429    0.857    8.000    2.286 
#    5.143    0.000    0.000    0.000    0.000    0.000 
#    0.000    0.000    0.000    0.000    0.000    0.000 
#
# Total GULP energy -78107.036245 kJ/mol
# GULP energy per Si atom -5579.074017 kJ/mol
# Density = 2.440949 g / cm^3
# Si number density = 24.465172 Si / 1000 Ang^3
#
#
#
# Elastic Constant Matrix: (Units=GPa)
#
#
# Indices 1 2 3 4 5 6 
#
# 1 47.8606 26.1117 32.3707 -2.2062 -10.9335 -2.9260
# 2 26.1117 85.2081 29.6971 2.3260 -24.4482 18.2782
# 3 32.3707 29.6971 145.1132 13.0665 -28.3118 12.2402
# 4 -2.2062 2.3260 13.0665 23.3280 -2.1652 -3.7817
# 5 -10.9335 -24.4482 -28.3118 -2.1652 53.1236 -5.6810
# 6 -2.9260 18.2782 12.2402 -3.7817 -5.6810 36.1022
#
#
#
# Elastic Compliance Matrix: (Units=1/GPa)
#
#
# Indices 1 2 3 4 5 6 
#
# 1 0.032225 -0.010143 -0.006957 0.009741 -0.000160 0.011101
# 2 -0.010143 0.018426 0.000817 -0.004358 0.005580 -0.010007
# 3 -0.006957 0.000817 0.009940 -0.006714 0.003487 -0.004502
# 4 0.009741 -0.004358 -0.006714 0.049628 -0.000444 0.010401
# 5 -0.000160 0.005580 0.003487 -0.000444 0.023154 -0.000423
# 6 0.011101 -0.010007 -0.004502 0.010401 -0.000423 0.036214
#
#
# Mechanical properties :
#
#
# Convention : Reuss Voigt Hill
#
# Bulk Modulus (GPa) = 35.68348 50.50454 43.09401
# Shear Modulus (GPa) = 23.64100 35.17760 29.40930
#
# Velocity S-wave (km/s) = 3.11193 3.79603 3.47088
# Velocity P-wave (km/s) = 5.24683 6.31676 5.80649
#
# Compressibility (1/GPa) = 0.02802417
#
# Stress axis : x y z
#
# Youngs Moduli (GPa) = 31.03190 54.27060 100.59863
#
# Poissons Ratio (x) = 0.55049 0.69989
# Poissons Ratio (y) = 0.31477 -0.08219
# Poissons Ratio (z) = 0.21590 -0.04434
#
# Static dielectric constant tensor:
#      x y z
#    x 2.008160 0.011800 -0.020770 
#    y 0.011800 1.946690 0.032300 
#    z -0.020770 0.032300 1.971440 
# 
# From -- ./inp_files/370498.got.cif
#   From: 2010.05.17/outbox.cif.g08.bks.cpg/sg2_186_cif.got.tgz:370498.got - 2010.06.03 11:33:40.
