data_PCOD9035124
_publ_section_title
;
Structure prediction by ZEFSAII (Michael W. Deem and Ramdas Pophale) SiO2 
 PCOD9035124
Probable space group: P -1
;
_chemical_formula_sum "Si O2"
_cell_formula_units_Z 12
_cell_length_a 8.560002
_cell_length_b 14.101665
_cell_length_c 14.415055
_cell_angle_alpha 30.670310
_cell_angle_beta 140.543222
_cell_angle_gamma 119.316446
_cell_volume 475.398932
_symmetry_space_group_name_H-M "P -1"
_symmetry_group_IT_number 2
_symmetry_cell_setting 'triclinic'
loop_
_space_group_symop_operation_xyz
x,y,z
-x,-y,-z
loop_
_atom_site_type_symbol
_atom_site_label
_atom_site_fract_x
_atom_site_fract_y
_atom_site_fract_z
Si Si1 0.211204 0.592450 0.627014
Si Si2 0.597082 0.801257 0.086771
Si Si3 0.856555 0.677468 0.576252
Si Si4 0.775018 0.308155 0.888107
Si Si5 0.630594 0.052311 0.605128
Si Si6 0.070643 0.169577 0.344232
O O1 0.380369 0.353723 0.857466
O O2 0.371403 0.724450 0.591339
O O3 0.921214 0.739027 0.307968
O O4 0.092259 0.587616 0.677932
O O5 0.491594 0.721970 0.193552
O O6 0.364686 0.060615 0.756504
O O7 0.694427 0.548711 0.622359
O O8 0.021394 0.644973 0.776727
O O9 0.923333 0.245357 0.112249
O O10 0.028692 0.140854 0.075214
O O11 0.415658 0.069251 0.572013
O O12 0.500000 0.000000 0.500000
O O13 0.000000 0.000000 0.500000
#
# Coordination Sequence:
#
# PCOD9035124 Si02
#       6
#     2   2   2   2   2   2
#     4  11  25  48  74 103 148 189 240 299 351 428
#     4  11  25  49  71 106 148 188 243 292 354 429
#     4  12  24  42  74 104 143 196 230 299 357 419
#     4  11  24  43  71 106 145 185 241 293 355 430
#     4  10  22  45  71 105 139 190 240 290 358 425
#     4  11  22  44  70 100 145 184 240 297 349 420
#
# _framework density 25.241958
#
# number of rings (size 3 to 8) (size 9 to 14) (size 15 to 20)
#    0.000    1.000    3.333    3.000    2.333    2.000 
#    0.000    7.500    0.000    0.000    0.000    0.000 
#    0.000    0.000    0.000    0.000    0.000    0.000 
#
# Total GULP energy -67232.643466 kJ/mol
# GULP energy per Si atom -5602.720289 kJ/mol
# Density = 2.518451 g / cm^3
# Si number density = 25.241958 Si / 1000 Ang^3
#
#
#
# Elastic Constant Matrix: (Units=GPa)
#
#
# Indices 1 2 3 4 5 6 
#
# 1 196.3764 59.7412 67.0240 -31.6830 0.4984 9.0585
# 2 59.7412 125.9891 45.0023 -31.7467 -2.7706 13.9237
# 3 67.0240 45.0023 125.0681 -32.1551 2.0126 15.9199
# 4 -31.6830 -31.7467 -32.1551 38.7453 4.6521 -8.7785
# 5 0.4984 -2.7706 2.0126 4.6521 51.0336 -10.0192
# 6 9.0585 13.9237 15.9199 -8.7785 -10.0192 58.4321
#
#
#
# Elastic Compliance Matrix: (Units=1/GPa)
#
#
# Indices 1 2 3 4 5 6 
#
# 1 0.006833 -0.001865 -0.002494 0.002091 -0.000192 0.000346
# 2 -0.001865 0.010930 -0.001199 0.006206 -0.000118 -0.001077
# 3 -0.002494 -0.001199 0.011667 0.006428 -0.001438 -0.001787
# 4 0.002091 0.006206 0.006428 0.038706 -0.003127 0.001724
# 5 -0.000192 -0.000118 -0.001438 -0.003127 0.020622 0.003516
# 6 0.000346 -0.001077 -0.001787 0.001724 0.003516 0.018666
#
#
# Mechanical properties :
#
#
# Convention : Reuss Voigt Hill
#
# Bulk Modulus (GPa) = 54.60252 87.88539 71.24396
# Shear Modulus (GPa) = 40.11460 48.01995 44.06728
#
# Velocity S-wave (km/s) = 3.99081 4.36637 4.18280
# Velocity P-wave (km/s) = 6.55088 7.76614 7.18425
#
# Compressibility (1/GPa) = 0.01831417
#
# Stress axis : x y z
#
# Youngs Moduli (GPa) = 146.35701 91.49307 85.71205
#
# Poissons Ratio (x) = 0.17060 0.21376
# Poissons Ratio (y) = 0.27289 0.10277
# Poissons Ratio (z) = 0.36501 0.10970
#
# Static dielectric constant tensor:
#      x y z
#    x 1.979510 0.010760 0.028990 
#    y 0.010760 2.094360 0.069900 
#    z 0.028990 0.069900 1.999780 
# 
# From -- ./inp_files/505139.got.cif
#   From: 2010.05.17/outbox.cif.g08.bks.cpg/sg2_253_cif.got.tgz:505139.got - 2010.06.03 11:33:40.
