data_PCOD9035447
_publ_section_title
;
Structure prediction by ZEFSAII (Michael W. Deem and Ramdas Pophale) SiO2 
 PCOD9035447
Probable space group: P -1
;
_chemical_formula_sum "Si O2"
_cell_formula_units_Z 16
_cell_length_a 20.218048
_cell_length_b 13.579078
_cell_length_c 12.446635
_cell_angle_alpha 147.414065
_cell_angle_beta 36.059798
_cell_angle_gamma 158.486678
_cell_volume 669.664910
_symmetry_space_group_name_H-M "P -1"
_symmetry_group_IT_number 2
_symmetry_cell_setting 'triclinic'
loop_
_space_group_symop_operation_xyz
x,y,z
-x,-y,-z
loop_
_atom_site_type_symbol
_atom_site_label
_atom_site_fract_x
_atom_site_fract_y
_atom_site_fract_z
Si Si1 0.108983 0.050557 0.804142
Si Si2 0.470074 0.264880 0.872569
Si Si3 0.783913 0.195776 0.503278
Si Si4 0.393941 0.701781 0.044127
Si Si5 0.776911 0.115211 0.829924
Si Si6 0.008633 0.928061 0.541783
Si Si7 0.784155 0.443355 0.535884
Si Si8 0.076066 0.779078 0.025275
O O1 0.237262 0.045124 0.667074
O O2 0.238162 0.379456 0.898779
O O3 0.954612 0.764140 0.667407
O O4 0.000000 0.000000 0.000000
O O5 0.552699 0.332402 0.945117
O O6 0.596083 0.305905 0.669055
O O7 0.500000 0.500000 0.000000
O O8 0.255908 0.962579 0.891476
O O9 0.682156 0.198905 0.724407
O O10 0.747435 0.222450 0.456624
O O11 0.000000 0.500000 0.500000
O O12 0.574154 0.927372 0.942307
O O13 0.808746 0.961967 0.586722
O O14 0.861989 0.183328 0.898923
O O15 0.904010 0.434081 0.905054
O O16 0.851863 0.574745 0.446699
O O17 0.000000 0.000000 0.500000
O O18 0.971017 0.067656 0.783152
#
# Coordination Sequence:
#
# PCOD9035447 Si02
#       8
#     2   2   2   2   2   2   2   2
#     4  11  19  37  63  91 118 157 193 244 316 356
#     4  10  17  32  58  88 119 149 191 249 305 351
#     4   9  18  34  58  89 124 146 194 255 295 352
#     4  10  20  36  60  88 119 157 199 243 301 359
#     4   9  20  36  55  81 114 162 204 232 285 354
#     4  10  20  38  58  82 122 165 202 241 291 354
#     4  10  20  36  58  92 125 154 197 253 299 355
#     4   9  18  35  58  77 117 159 194 245 291 342
#
# _framework density 23.892547
#
# number of rings (size 3 to 8) (size 9 to 14) (size 15 to 20)
#    0.000    2.250    5.000    0.000    0.000    1.000 
#    4.500    8.750    0.000    3.750    0.000    0.000 
#    0.000    0.000    0.000    0.000    0.000    0.000 
#
# Total GULP energy -89228.874138 kJ/mol
# GULP energy per Si atom -5576.804634 kJ/mol
# Density = 2.383817 g / cm^3
# Si number density = 23.892547 Si / 1000 Ang^3
#
#
#
# Elastic Constant Matrix: (Units=GPa)
#
#
# Indices 1 2 3 4 5 6 
#
# 1 62.9911 34.0188 40.7581 0.3893 -21.8243 -5.1667
# 2 34.0188 152.9840 43.3371 -22.4039 -13.8548 7.4048
# 3 40.7581 43.3371 129.9301 -17.3602 -41.3904 12.2571
# 4 0.3893 -22.4039 -17.3602 47.1921 0.0876 -6.1879
# 5 -21.8243 -13.8548 -41.3904 0.0876 40.5255 5.4969
# 6 -5.1667 7.4048 12.2571 -6.1879 5.4969 33.7487
#
#
#
# Elastic Compliance Matrix: (Units=1/GPa)
#
#
# Indices 1 2 3 4 5 6 
#
# 1 0.023785 -0.004037 -0.005361 -0.003441 0.005285 0.004982
# 2 -0.004037 0.008259 -0.000930 0.003422 -0.000112 -0.001447
# 3 -0.005361 -0.000930 0.015210 0.004184 0.013345 -0.007547
# 4 -0.003441 0.003422 0.004184 0.024527 0.003381 0.001149
# 5 0.005285 -0.000112 0.013345 0.003381 0.042505 -0.010316
# 6 0.004982 -0.001447 -0.007547 0.001149 -0.010316 0.035343
#
#
# Mechanical properties :
#
#
# Convention : Reuss Voigt Hill
#
# Bulk Modulus (GPa) = 37.59595 64.68148 51.13871
# Shear Modulus (GPa) = 27.90932 39.47934 33.69433
#
# Velocity S-wave (km/s) = 3.42148 4.06935 3.75940
# Velocity P-wave (km/s) = 5.60163 7.01499 6.34777
#
# Compressibility (1/GPa) = 0.02659861
#
# Stress axis : x y z
#
# Youngs Moduli (GPa) = 42.04283 121.08116 65.74454
#
# Poissons Ratio (x) = 0.48880 0.35245
# Poissons Ratio (y) = 0.16972 0.06115
# Poissons Ratio (z) = 0.22539 0.11263
#
# Static dielectric constant tensor:
#      x y z
#    x 1.937780 0.002890 0.107440 
#    y 0.002890 1.786020 -0.131730 
#    z 0.107440 -0.131730 1.822420 
# 
# From -- ./inp_files/543057.got.cif
#   From: 2010.05.17/outbox.cif.g08.bks.cpg/sg2_272_cif.got.tgz:543057.got - 2010.06.03 11:33:40.
