data_PCOD9035213
_publ_section_title
;
Structure prediction by ZEFSAII (Michael W. Deem and Ramdas Pophale) SiO2 
 PCOD9035213
Probable space group: P -1
;
_chemical_formula_sum "Si O2"
_cell_formula_units_Z 12
_cell_length_a 11.493181
_cell_length_b 18.998308
_cell_length_c 5.364323
_cell_angle_alpha 129.151461
_cell_angle_beta 128.363541
_cell_angle_gamma 32.371779
_cell_volume 475.430195
_symmetry_space_group_name_H-M "P -1"
_symmetry_group_IT_number 2
_symmetry_cell_setting 'triclinic'
loop_
_space_group_symop_operation_xyz
x,y,z
-x,-y,-z
loop_
_atom_site_type_symbol
_atom_site_label
_atom_site_fract_x
_atom_site_fract_y
_atom_site_fract_z
Si Si1 0.773854 0.543439 0.298967
Si Si2 0.870002 0.812390 0.642798
Si Si3 0.202267 0.973714 0.742538
Si Si4 0.254169 0.630277 0.361214
Si Si5 0.515538 0.292337 0.219568
Si Si6 0.530320 0.067047 0.391774
O O1 0.642109 0.620237 0.553366
O O2 0.000000 0.500000 0.500000
O O3 0.806659 0.418362 0.033802
O O4 0.626856 0.633401 0.057123
O O5 0.715470 0.805206 0.538776
O O6 0.081476 0.693126 0.495698
O O7 0.700903 0.941124 0.520603
O O8 0.901682 0.879454 0.028300
O O9 0.362077 0.859740 0.914845
O O10 0.354979 0.906714 0.552210
O O11 0.000000 0.000000 0.500000
O O12 0.500000 0.500000 0.500000
O O13 0.288970 0.720192 0.542813
O O14 0.500000 0.000000 0.000000
#
# Coordination Sequence:
#
# PCOD9035213 Si02
#       6
#     2   2   2   2   2   2
#     4  11  26  51  76 109 150 199 258 313 376 445
#     4  10  22  45  72 103 146 192 250 304 385 438
#     4  11  25  41  73 109 151 191 246 314 380 449
#     4  10  24  47  75 104 147 200 253 308 373 459
#     4  11  26  48  75 110 152 196 255 312 378 455
#     4   9  21  42  65 104 141 188 239 304 375 445
#
# _framework density 25.240299
#
# number of rings (size 3 to 8) (size 9 to 14) (size 15 to 20)
#    0.000    1.667    0.000    2.000    7.000    5.333 
#   18.000    0.000    0.000    0.000    0.000    0.000 
#    0.000    0.000    0.000    0.000    0.000    0.000 
#
# Total GULP energy -67129.572467 kJ/mol
# GULP energy per Si atom -5594.131039 kJ/mol
# Density = 2.518285 g / cm^3
# Si number density = 25.240299 Si / 1000 Ang^3
#
#
#
# Elastic Constant Matrix: (Units=GPa)
#
#
# Indices 1 2 3 4 5 6 
#
# 1 163.9862 42.4905 47.3414 -9.1467 2.5210 -35.9669
# 2 42.4905 99.4153 35.0573 -1.8731 -3.1813 -18.2149
# 3 47.3414 35.0573 115.4069 -6.7515 5.5195 -19.7959
# 4 -9.1467 -1.8731 -6.7515 56.4445 -3.9118 -2.2659
# 5 2.5210 -3.1813 5.5195 -3.9118 55.2388 -2.1177
# 6 -35.9669 -18.2149 -19.7959 -2.2659 -2.1177 58.3568
#
#
#
# Elastic Compliance Matrix: (Units=1/GPa)
#
#
# Indices 1 2 3 4 5 6 
#
# 1 0.008082 -0.002055 -0.001985 0.001148 -0.000065 0.003709
# 2 -0.002055 0.012210 -0.002636 -0.000098 0.001118 0.001687
# 3 -0.001985 -0.002636 0.010646 0.000857 -0.001004 0.001562
# 4 0.001148 -0.000098 0.000857 0.018155 0.001208 0.001717
# 5 -0.000065 0.001118 -0.001004 0.001208 0.018383 0.000682
# 6 0.003709 0.001687 0.001562 0.001717 0.000682 0.020570
#
#
# Mechanical properties :
#
#
# Convention : Reuss Voigt Hill
#
# Bulk Modulus (GPa) = 56.86183 69.84296 63.35240
# Shear Modulus (GPa) = 46.61662 50.93597 48.77629
#
# Velocity S-wave (km/s) = 4.30223 4.49713 4.40076
# Velocity P-wave (km/s) = 6.87430 7.39574 7.13978
#
# Compressibility (1/GPa) = 0.01758649
#
# Stress axis : x y z
#
# Youngs Moduli (GPa) = 123.73097 81.90178 93.93298
#
# Poissons Ratio (x) = 0.16834 0.18641
# Poissons Ratio (y) = 0.25432 0.24757
# Poissons Ratio (z) = 0.24555 0.21586
#
# Static dielectric constant tensor:
#      x y z
#    x 1.950210 0.146610 0.215030 
#    y 0.146610 2.073700 0.075330 
#    z 0.215030 0.075330 1.893560 
# 
# From -- ./inp_files/28953.got.cif
#   From: 2010.05.17/outbox.cif.g08.bks.cpg/sg2_15_cif.got.tgz:28953.got - 2010.06.03 11:33:40.
