data_PCOD9035919
_publ_section_title
;
Structure prediction by ZEFSAII (Michael W. Deem and Ramdas Pophale) SiO2 
 PCOD9035919
Probable space group: P -1
;
_chemical_formula_sum "Si O2"
_cell_formula_units_Z 10
_cell_length_a 7.694808
_cell_length_b 9.243655
_cell_length_c 6.499867
_cell_angle_alpha 64.317774
_cell_angle_beta 92.452758
_cell_angle_gamma 74.070876
_cell_volume 393.613224
_symmetry_space_group_name_H-M "P -1"
_symmetry_group_IT_number 2
_symmetry_cell_setting 'triclinic'
loop_
_space_group_symop_operation_xyz
x,y,z
-x,-y,-z
loop_
_atom_site_type_symbol
_atom_site_label
_atom_site_fract_x
_atom_site_fract_y
_atom_site_fract_z
Si Si1 0.943143 0.113338 0.626300
Si Si2 0.573169 0.833115 0.742775
Si Si3 0.935540 0.631218 0.732527
Si Si4 0.632468 0.510836 0.686612
Si Si5 0.712553 0.129546 0.970185
O O1 0.927553 0.299479 0.428969
O O2 0.762670 0.116813 0.740126
O O3 0.000000 0.000000 0.500000
O O4 0.124218 0.027357 0.829068
O O5 0.790730 0.782368 0.760914
O O6 0.536886 0.665147 0.746228
O O7 0.478818 0.865837 0.940238
O O8 0.500000 0.000000 0.500000
O O9 0.808798 0.568358 0.607020
O O10 0.000000 0.500000 0.000000
O O11 0.500000 0.500000 0.500000
O O12 0.714835 0.320943 0.900931
#
# Coordination Sequence:
#
# PCOD9035919 Si02
#       5
#     2   2   2   2   2
#     4  11  25  43  73 107 157 195 255 319 385 450
#     4  10  22  46  76 103 152 200 256 308 375 463
#     4  10  23  45  74 108 155 200 249 315 380 453
#     4  10  24  42  75 110 146 197 257 313 377 451
#     4  11  23  44  73 107 145 207 253 308 386 455
#
# _framework density 25.405647999999999
#
# number of rings (size 3 to 8) (size 9 to 14) (size 15 to 20)
#    1.200    0.400    2.000    1.800    2.800    2.400 
#    0.000   13.000    0.000    0.000    0.000    0.000 
#    0.000    0.000    0.000    0.000    0.000    0.000 
#
# Total GULP energy -55782.481278 kJ/mol
# GULP energy per Si atom -5578.248128 kJ/mol
# Density = 2.534782 g / cm^3
# Si number density = 25.405648 Si / 1000 Ang^3
#
#
#
# Elastic Constant Matrix: (Units=GPa)
#
#
# Indices 1 2 3 4 5 6 
#
# 1 72.3854 19.7748 52.0896 17.1905 -29.5909 -10.0388
# 2 19.7748 161.8864 53.3147 5.5339 -13.5124 -8.5937
# 3 52.0896 53.3147 129.9387 -4.3700 -34.3794 -5.6459
# 4 17.1905 5.5339 -4.3700 60.0747 -14.9856 5.3834
# 5 -29.5909 -13.5124 -34.3794 -14.9856 59.3182 1.4673
# 6 -10.0388 -8.5937 -5.6459 5.3834 1.4673 50.5941
#
#
#
# Elastic Compliance Matrix: (Units=1/GPa)
#
#
# Indices 1 2 3 4 5 6 
#
# 1 0.024269 0.000807 -0.008637 -0.006686 0.005483 0.004541
# 2 0.000807 0.007274 -0.003369 -0.001314 -0.000254 0.001167
# 3 -0.008637 -0.003369 0.013752 0.004950 0.004180 -0.001399
# 4 -0.006686 -0.001314 0.004950 0.020455 0.004483 -0.003304
# 5 0.005483 -0.000254 0.004180 0.004483 0.023082 0.000365
# 6 0.004541 0.001167 -0.001399 -0.003304 0.000365 0.021049
#
#
# Mechanical properties :
#
#
# Convention : Reuss Voigt Hill
#
# Bulk Modulus (GPa) = 43.67200 68.28542 55.97871
# Shear Modulus (GPa) = 35.73739 49.93283 42.83511
#
# Velocity S-wave (km/s) = 3.75463 4.43812 4.11060
# Velocity P-wave (km/s) = 6.00196 7.29376 6.67916
#
# Compressibility (1/GPa) = 0.02289797
#
# Stress axis : x y z
#
# Youngs Moduli (GPa) = 41.20508 137.48248 72.71686
#
# Poissons Ratio (x) = -0.11098 0.62805
# Poissons Ratio (y) = -0.03326 0.24495
# Poissons Ratio (z) = 0.35588 0.46312
#
# Static dielectric constant tensor:
#      x y z
#    x 1.971610 0.070010 -0.025460 
#    y 0.070010 1.869920 0.203990 
#    z -0.025460 0.203990 1.812510 
# 
# From -- ./inp_files/17013.got.cif
#   From: 2010.05.17/outbox.cif.g08.bks.cpg/sg2_9_cif.got.tgz:17013.got - 2010.06.03 11:33:40.
