data_PCOD9035019
_publ_section_title
;
Structure prediction by ZEFSAII (Michael W. Deem and Ramdas Pophale) SiO2 
 PCOD9035019
Probable space group: P -1
;
_chemical_formula_sum "Si O2"
_cell_formula_units_Z 15
_cell_length_a 10.496536
_cell_length_b 5.312723
_cell_length_c 18.893850
_cell_angle_alpha 97.870628
_cell_angle_beta 33.642161
_cell_angle_gamma 94.879822
_cell_volume 577.406545
_symmetry_space_group_name_H-M "P -1"
_symmetry_group_IT_number 2
_symmetry_cell_setting 'triclinic'
loop_
_space_group_symop_operation_xyz
x,y,z
-x,-y,-z
loop_
_atom_site_type_symbol
_atom_site_label
_atom_site_fract_x
_atom_site_fract_y
_atom_site_fract_z
Si Si1 0.301011 0.709911 0.336224
Si Si2 0.320765 0.309646 0.105666
Si Si3 0.262875 0.568952 0.874101
Si Si4 0.203627 0.329621 0.745933
Si Si5 0.790425 0.761060 0.534568
Si Si6 0.500000 0.000000 0.500000
Si Si7 0.732785 0.084899 0.994675
Si Si8 0.171571 0.574937 0.620804
O O1 0.540319 0.612165 0.184967
O O2 0.246942 0.461745 0.399043
O O3 0.068307 0.783601 0.403710
O O4 0.326648 0.970993 0.377520
O O5 0.480951 0.143460 0.079323
O O6 0.102819 0.407745 0.255487
O O7 0.500000 0.500000 0.000000
O O8 0.213010 0.179361 0.080858
O O9 0.296774 0.494328 0.773499
O O10 0.278611 0.845168 0.914089
O O11 0.000000 0.500000 0.000000
O O12 0.229654 0.485275 0.668590
O O13 0.346416 0.075083 0.646793
O O14 0.939493 0.258005 0.879240
O O15 0.723991 0.648116 0.485901
O O16 0.287818 0.833570 0.562015
#
# Coordination Sequence:
#
# PCOD9035019 Si02
#       8
#     2   2   2   2   2   1   2   2
#     4  10  22  49  69 111 142 190 249 304 376 443
#     4  11  22  43  72 103 137 177 241 304 360 431
#     4  10  23  46  70 100 150 194 240 297 373 450
#     4  11  24  44  67 100 141 188 245 293 364 439
#     4  10  24  43  78 103 147 187 247 316 370 441
#     4  12  26  44  66  94 146 186 232 294 356 438
#     4  10  22  45  70 103 139 186 237 302 366 434
#     4  12  25  43  70 106 136 192 243 305 371 435
#
# _framework density 25.978231000000001
#
# number of rings (size 3 to 8) (size 9 to 14) (size 15 to 20)
#    0.000    1.333    2.667    2.000    3.733    0.000 
#    9.600    1.333    0.000    0.000    0.000    0.000 
#    0.000    0.000    0.000    0.000    0.000    0.000 
#
# Total GULP energy -83571.891097 kJ/mol
# GULP energy per Si atom -5571.459406 kJ/mol
# Density = 2.591910 g / cm^3
# Si number density = 25.978231 Si / 1000 Ang^3
#
#
#
# Elastic Constant Matrix: (Units=GPa)
#
#
# Indices 1 2 3 4 5 6 
#
# 1 65.4292 20.0798 26.1338 9.1998 -0.3211 38.6115
# 2 20.0798 111.1362 24.8863 6.9930 17.6912 35.5639
# 3 26.1338 24.8863 133.1096 13.0846 -25.2651 21.0709
# 4 9.1998 6.9930 13.0846 42.8972 19.6083 5.8518
# 5 -0.3211 17.6912 -25.2651 19.6083 53.4683 17.6947
# 6 38.6115 35.5639 21.0709 5.8518 17.6947 49.5961
#
#
#
# Elastic Compliance Matrix: (Units=1/GPa)
#
#
# Indices 1 2 3 4 5 6 
#
# 1 0.036237 0.002369 0.002316 -0.011571 0.016491 -0.035412
# 2 0.002369 0.012169 -0.001600 0.000045 -0.001712 -0.009286
# 3 0.002316 -0.001600 0.011920 -0.008205 0.012197 -0.009103
# 4 -0.011571 0.000045 -0.008205 0.036451 -0.022712 0.016264
# 5 0.016491 -0.001712 0.012197 -0.022712 0.043236 -0.029539
# 6 -0.035412 -0.009286 -0.009103 0.016264 -0.029539 0.066878
#
#
# Mechanical properties :
#
#
# Convention : Reuss Voigt Hill
#
# Bulk Modulus (GPa) = 15.03834 50.20830 32.62332
# Shear Modulus (GPa) = 22.43287 45.09732 33.76510
#
# Velocity S-wave (km/s) = 2.94177 4.17101 3.60911
# Velocity P-wave (km/s) = 4.16414 6.52422 5.47291
#
# Compressibility (1/GPa) = 0.06649670
#
# Stress axis : x y z
#
# Youngs Moduli (GPa) = 27.59584 82.17458 83.89390
#
# Poissons Ratio (x) = -0.19470 -0.19427
# Poissons Ratio (y) = -0.06538 0.13421
# Poissons Ratio (z) = -0.06390 0.13146
#
# Static dielectric constant tensor:
#      x y z
#    x 1.924660 0.288330 0.110820 
#    y 0.288330 1.339870 -0.198040 
#    z 0.110820 -0.198040 2.033680 
# 
# From -- ./inp_files/592578.got.cif
#   From: 2010.05.17/outbox.cif.g08.bks.cpg/sg2_297_cif.got.tgz:592578.got - 2010.06.03 11:33:40.
