data_PCOD9035564
_publ_section_title
;
Structure prediction by ZEFSAII (Michael W. Deem and Ramdas Pophale) SiO2 
 PCOD9035564
Probable space group: P -1
;
_chemical_formula_sum "Si O2"
_cell_formula_units_Z 15
_cell_length_a 8.099480
_cell_length_b 15.940398
_cell_length_c 6.707051
_cell_angle_alpha 57.937020
_cell_angle_beta 94.157520
_cell_angle_gamma 124.901553
_cell_volume 567.574530
_symmetry_space_group_name_H-M "P -1"
_symmetry_group_IT_number 2
_symmetry_cell_setting 'triclinic'
loop_
_space_group_symop_operation_xyz
x,y,z
-x,-y,-z
loop_
_atom_site_type_symbol
_atom_site_label
_atom_site_fract_x
_atom_site_fract_y
_atom_site_fract_z
Si Si1 0.615468 0.457471 0.782574
Si Si2 0.033115 0.821284 0.463607
Si Si3 0.386663 0.688582 0.705898
Si Si4 0.721377 0.112881 0.978422
Si Si5 0.219541 0.026233 0.517231
Si Si6 0.068205 0.677595 0.952826
Si Si7 0.000000 0.500000 0.500000
Si Si8 0.617174 0.691056 0.398058
O O1 0.822228 0.489437 0.648637
O O2 0.603288 0.570339 0.614317
O O3 0.415271 0.329976 0.812325
O O4 0.610229 0.416631 0.056847
O O5 0.127269 0.802914 0.300841
O O6 0.222196 0.955072 0.414276
O O7 0.955335 0.724190 0.764446
O O8 0.838140 0.808737 0.367574
O O9 0.176448 0.661195 0.800347
O O10 0.436306 0.694016 0.471219
O O11 0.577670 0.827754 0.631940
O O12 0.793303 0.043699 0.195491
O O13 0.749591 0.208058 0.027546
O O14 0.500000 0.000000 0.000000
O O15 0.000000 0.000000 0.500000
O O16 0.947861 0.561155 0.239137
#
# Coordination Sequence:
#
# PCOD9035564 Si02
#       8
#     2   2   2   2   2   2   1   2
#     4  10  25  43  67  95 133 171 226 282 332 404
#     4  11  24  43  71  97 136 182 223 282 347 401
#     4  11  23  42  66  94 134 175 221 274 339 401
#     4  11  24  43  68  99 140 183 231 282 342 401
#     4  11  24  42  65 104 139 176 231 283 332 412
#     4  10  24  44  69  99 134 175 227 285 332 412
#     4  10  22  46  68  94 128 172 220 280 332 394
#     4  11  24  42  64  98 130 176 220 277 345 398
#
# _framework density 26.428246999999999
#
# number of rings (size 3 to 8) (size 9 to 14) (size 15 to 20)
#    0.000    1.333    1.333    2.800    1.867   12.267 
#    0.000    4.667    0.000    0.000    0.000    0.000 
#    0.000    0.000    0.000    0.000    0.000    0.000 
#
# Total GULP energy -83704.914222 kJ/mol
# GULP energy per Si atom -5580.327615 kJ/mol
# Density = 2.636810 g / cm^3
# Si number density = 26.428247 Si / 1000 Ang^3
#
#
#
# Elastic Constant Matrix: (Units=GPa)
#
#
# Indices 1 2 3 4 5 6 
#
# 1 52.7463 15.2797 31.7185 15.6923 -2.4158 -5.2847
# 2 15.2797 132.5931 11.0753 20.2638 -2.8891 14.9922
# 3 31.7185 11.0753 118.9434 18.9631 5.7483 9.3172
# 4 15.6923 20.2638 18.9631 45.7904 -1.3973 -3.1144
# 5 -2.4158 -2.8891 5.7483 -1.3973 38.1169 8.0899
# 6 -5.2847 14.9922 9.3172 -3.1144 8.0899 32.0289
#
#
#
# Elastic Compliance Matrix: (Units=1/GPa)
#
#
# Indices 1 2 3 4 5 6 
#
# 1 0.025581 -0.002441 -0.006424 -0.004553 0.000842 0.006577
# 2 -0.002441 0.009002 0.000787 -0.003809 0.001454 -0.005583
# 3 -0.006424 0.000787 0.010947 -0.003029 -0.001128 -0.004622
# 4 -0.004553 -0.003809 -0.003029 0.026644 -0.000105 0.004530
# 5 0.000842 0.001454 -0.001128 -0.000105 0.028120 -0.007326
# 6 0.006577 -0.005583 -0.004622 0.004530 -0.007326 0.038556
#
#
# Mechanical properties :
#
#
# Convention : Reuss Voigt Hill
#
# Bulk Modulus (GPa) = 34.04399 46.71441 40.37920
# Shear Modulus (GPa) = 30.34030 39.60120 34.97075
#
# Velocity S-wave (km/s) = 3.39193 3.87517 3.64157
# Velocity P-wave (km/s) = 5.31506 6.14304 5.74399
#
# Compressibility (1/GPa) = 0.02937376
#
# Stress axis : x y z
#
# Youngs Moduli (GPa) = 39.09150 111.08081 91.35124
#
# Poissons Ratio (x) = 0.27112 0.58688
# Poissons Ratio (y) = 0.09541 -0.07188
# Poissons Ratio (z) = 0.25114 -0.08741
#
# Static dielectric constant tensor:
#      x y z
#    x 2.119300 0.010690 0.003850 
#    y 0.010690 2.189510 -0.040520 
#    z 0.003850 -0.040520 1.940490 
# 
# From -- ./inp_files/46731.got.cif
#   From: 2010.05.17/outbox.cif.g08.bks.cpg/sg2_24_cif.got.tgz:46731.got - 2010.06.03 11:33:40.
