data_PCOD9035971
_publ_section_title
;
Structure prediction by ZEFSAII (Michael W. Deem and Ramdas Pophale) SiO2 
 PCOD9035971
Probable space group: P -1
;
_chemical_formula_sum "Si O2"
_cell_formula_units_Z 14
_cell_length_a 12.929420
_cell_length_b 5.241748
_cell_length_c 12.143803
_cell_angle_alpha 56.326215
_cell_angle_beta 90.307563
_cell_angle_gamma 78.657483
_cell_volume 664.910711
_symmetry_space_group_name_H-M "P -1"
_symmetry_group_IT_number 2
_symmetry_cell_setting 'triclinic'
loop_
_space_group_symop_operation_xyz
x,y,z
-x,-y,-z
loop_
_atom_site_type_symbol
_atom_site_label
_atom_site_fract_x
_atom_site_fract_y
_atom_site_fract_z
Si Si1 0.134464 0.083448 0.050770
Si Si2 0.714004 0.227532 0.478185
Si Si3 0.523785 0.246732 0.158583
Si Si4 0.509016 0.642817 0.621085
Si Si5 0.751983 0.884177 0.324586
Si Si6 0.676158 0.069509 0.743545
Si Si7 0.091624 0.824067 0.882403
O O1 0.034442 0.039642 0.133372
O O2 0.240839 0.013012 0.139057
O O3 0.109751 0.458303 0.935198
O O4 0.139837 0.871925 0.992250
O O5 0.589690 0.426479 0.428531
O O6 0.775150 0.505387 0.416972
O O7 0.727503 0.002863 0.638872
O O8 0.732617 0.033586 0.411059
O O9 0.513411 0.408645 0.239229
O O10 0.644607 0.029459 0.215693
O O11 0.427592 0.068010 0.204269
O O12 0.500000 0.500000 0.000000
O O13 0.626494 0.442606 0.650647
O O14 0.500000 0.000000 0.500000
O O15 0.849117 0.998202 0.243916
#
# Coordination Sequence:
#
# PCOD9035971 Si02
#       7
#     2   2   2   2   2   2   2
#     4  10  24  40  72  90 124 168 213 266 325 382
#     4  11  23  39  61  92 122 179 205 255 314 392
#     4  11  24  36  58  94 128 166 209 271 316 380
#     4  11  22  40  61  86 134 175 211 254 317 392
#     4  11  23  40  63  87 131 166 210 256 329 371
#     4  12  23  39  63  93 127 164 224 258 315 385
#     4  10  22  47  63  94 124 168 212 264 333 383
#
# _framework density 21.055458999999999
#
# number of rings (size 3 to 8) (size 9 to 14) (size 15 to 20)
#    0.000    1.143    2.857    3.857    4.000    1.714 
#    0.000    1.429    0.000    0.000    0.000    0.000 
#    0.000    0.000    0.000    0.000    0.000    0.000 
#
# Total GULP energy -78174.775451 kJ/mol
# GULP energy per Si atom -5583.912532 kJ/mol
# Density = 2.100754 g / cm^3
# Si number density = 21.055459 Si / 1000 Ang^3
#
#
#
# Elastic Constant Matrix: (Units=GPa)
#
#
# Indices 1 2 3 4 5 6 
#
# 1 66.5272 1.2007 -7.1600 -2.8802 -30.7494 14.9904
# 2 1.2007 47.6979 8.9908 -3.8828 -8.5891 11.7970
# 3 -7.1600 8.9908 60.9160 0.2718 -30.1210 0.3137
# 4 -2.8802 -3.8828 0.2718 23.9824 9.6263 -6.2844
# 5 -30.7494 -8.5891 -30.1210 9.6263 40.3478 -3.7865
# 6 14.9904 11.7970 0.3137 -6.2844 -3.7865 21.5956
#
#
#
# Elastic Compliance Matrix: (Units=1/GPa)
#
#
# Indices 1 2 3 4 5 6 
#
# 1 0.234588 0.052250 0.199069 -0.156100 0.359175 -0.176720
# 2 0.052250 0.036773 0.041842 -0.035106 0.082310 -0.052748
# 3 0.199069 0.041842 0.197075 -0.141796 0.327711 -0.147704
# 4 -0.156100 -0.035106 -0.141796 0.156227 -0.257375 0.129928
# 5 0.359175 0.082310 0.327711 -0.257375 0.596817 -0.269293
# 6 -0.176720 -0.052748 -0.147704 0.129928 -0.269293 0.190526
#
#
# Mechanical properties :
#
#
# Convention : Reuss Voigt Hill
#
# Bulk Modulus (GPa) = 0.94809 20.13379 10.54094
# Shear Modulus (GPa) = 4.24711 28.65913 16.45312
#
# Velocity S-wave (km/s) = 1.42179 3.69335 2.79842
# Velocity P-wave (km/s) = 1.77386 5.26980 3.93175
#
# Compressibility (1/GPa) = 1.05475645
#
# Stress axis : x y z
#
# Youngs Moduli (GPa) = 4.26279 27.19369 5.07422
#
# Poissons Ratio (x) = -1.42086 -1.01012
# Poissons Ratio (y) = -0.22273 -0.21231
# Poissons Ratio (z) = -0.84859 -1.13783
#
# Static dielectric constant tensor:
#      x y z
#    x 1.928680 -0.123120 0.084170 
#    y -0.123120 1.936160 -0.080820 
#    z 0.084170 -0.080820 1.828310 
# 
# From -- ./inp_files/27475.got.cif
#   From: 2010.05.17/outbox.cif.g08.bks.cpg/sg2_14_cif.got.tgz:27475.got - 2010.06.03 11:33:40.
