data_PCOD9035458
_publ_section_title
;
Structure prediction by ZEFSAII (Michael W. Deem and Ramdas Pophale) SiO2 
 PCOD9035458
Probable space group: P -1
;
_chemical_formula_sum "Si O2"
_cell_formula_units_Z 15
_cell_length_a 6.174547
_cell_length_b 25.144456
_cell_length_c 9.802763
_cell_angle_alpha 33.147967
_cell_angle_beta 127.140464
_cell_angle_gamma 134.097311
_cell_volume 596.784124
_symmetry_space_group_name_H-M "P -1"
_symmetry_group_IT_number 2
_symmetry_cell_setting 'triclinic'
loop_
_space_group_symop_operation_xyz
x,y,z
-x,-y,-z
loop_
_atom_site_type_symbol
_atom_site_label
_atom_site_fract_x
_atom_site_fract_y
_atom_site_fract_z
Si Si1 0.636716 0.729718 0.989097
Si Si2 0.217438 0.208428 0.382980
Si Si3 0.340958 0.193569 0.873578
Si Si4 0.500000 0.500000 0.500000
Si Si5 0.930405 0.609673 0.925899
Si Si6 0.368752 0.982796 0.337109
Si Si7 0.425700 0.567818 0.622859
Si Si8 0.639423 0.112484 0.730663
O O1 0.645967 0.803728 0.961738
O O2 0.694148 0.633443 0.282453
O O3 0.831308 0.785663 0.810652
O O4 0.290373 0.665308 0.940934
O O5 0.179090 0.307389 0.222957
O O6 0.529499 0.201430 0.541118
O O7 0.979383 0.097552 0.596422
O O8 0.548061 0.312910 0.642937
O O9 0.997922 0.162365 0.768535
O O10 0.416871 0.098908 0.051958
O O11 0.377091 0.509053 0.587165
O O12 0.745214 0.577895 0.783802
O O13 0.821982 0.504248 0.206442
O O14 0.500000 0.000000 0.500000
O O15 0.471500 0.922373 0.392472
O O16 0.500000 0.000000 0.000000
#
# Coordination Sequence:
#
# PCOD9035458 Si02
#       8
#     2   2   2   1   2   2   2   2
#     4  11  25  46  72 104 146 183 237 291 351 426
#     4  12  24  46  74 100 145 187 233 290 356 419
#     4  11  24  46  69 105 143 184 235 290 360 413
#     4  10  22  46  64 106 142 182 232 284 348 410
#     4  11  24  47  73 108 138 189 235 290 354 423
#     4  12  27  46  72 105 143 187 237 289 353 426
#     4  10  23  45  72 104 143 181 236 289 350 424
#     4  12  27  46  72 105 143 185 237 298 346 420
#
# _framework density 25.134716999999998
#
# number of rings (size 3 to 8) (size 9 to 14) (size 15 to 20)
#    0.000    0.800    2.667    4.400    3.733    3.733 
#   12.000    0.000    2.933    0.000    0.000    0.000 
#    0.000    0.000    0.000    0.000    0.000    0.000 
#
# Total GULP energy -83826.996542 kJ/mol
# GULP energy per Si atom -5588.466436 kJ/mol
# Density = 2.507751 g / cm^3
# Si number density = 25.134717 Si / 1000 Ang^3
#
#
#
# Elastic Constant Matrix: (Units=GPa)
#
#
# Indices 1 2 3 4 5 6 
#
# 1 37.1845 12.8794 12.5057 -10.7738 -2.6178 1.1720
# 2 12.8794 75.3098 12.6584 -5.9021 2.5855 1.7860
# 3 12.5057 12.6584 103.0346 -18.2943 -16.4434 -5.9318
# 4 -10.7738 -5.9021 -18.2943 48.3523 -6.0700 8.7878
# 5 -2.6178 2.5855 -16.4434 -6.0700 38.5012 4.9951
# 6 1.1720 1.7860 -5.9318 8.7878 4.9951 21.2341
#
#
#
# Elastic Compliance Matrix: (Units=1/GPa)
#
#
# Indices 1 2 3 4 5 6 
#
# 1 0.031602 -0.004527 -0.001732 0.007328 0.003612 -0.005730
# 2 -0.004527 0.014407 -0.001541 0.000130 -0.001779 -0.001028
# 3 -0.001732 -0.001541 0.011848 0.004575 0.005729 0.000294
# 4 0.007328 0.000130 0.004575 0.027372 0.008372 -0.012435
# 5 0.003612 -0.001779 0.005729 0.008372 0.031309 -0.009279
# 6 -0.005730 -0.001028 0.000294 -0.012435 -0.009279 0.054908
#
#
# Mechanical properties :
#
#
# Convention : Reuss Voigt Hill
#
# Bulk Modulus (GPa) = 23.66378 32.40176 28.03277
# Shear Modulus (GPa) = 24.85937 33.44989 29.15463
#
# Velocity S-wave (km/s) = 3.14832 3.65200 3.40948
# Velocity P-wave (km/s) = 4.75932 5.54094 5.16494
#
# Compressibility (1/GPa) = 0.04225867
#
# Stress axis : x y z
#
# Youngs Moduli (GPa) = 31.64396 69.40901 84.39928
#
# Poissons Ratio (x) = 0.31423 0.14615
# Poissons Ratio (y) = 0.14326 0.13002
# Poissons Ratio (z) = 0.05480 0.10693
#
# Static dielectric constant tensor:
#      x y z
#    x 1.156210 0.364360 0.133520 
#    y 0.364360 1.828400 0.001820 
#    z 0.133520 0.001820 2.023670 
# 
# From -- ./inp_files/142491.got.cif
#   From: 2010.05.17/outbox.cif.g08.bks.cpg/sg2_72_cif.got.tgz:142491.got - 2010.06.03 11:33:40.
