data_PCOD9035369
_publ_section_title
;
Structure prediction by ZEFSAII (Michael W. Deem and Ramdas Pophale) SiO2 
 PCOD9035369
Probable space group: P -1
;
_chemical_formula_sum "Si O2"
_cell_formula_units_Z 15
_cell_length_a 10.885692
_cell_length_b 7.990590
_cell_length_c 22.856050
_cell_angle_alpha 139.074672
_cell_angle_beta 146.659541
_cell_angle_gamma 43.446969
_cell_volume 690.529678
_symmetry_space_group_name_H-M "P -1"
_symmetry_group_IT_number 2
_symmetry_cell_setting 'triclinic'
loop_
_space_group_symop_operation_xyz
x,y,z
-x,-y,-z
loop_
_atom_site_type_symbol
_atom_site_label
_atom_site_fract_x
_atom_site_fract_y
_atom_site_fract_z
Si Si1 0.737713 0.818736 0.023819
Si Si2 0.052309 0.653266 0.939015
Si Si3 0.604077 0.591842 0.793072
Si Si4 0.529756 0.666128 0.611833
Si Si5 0.315371 0.834015 0.372608
Si Si6 0.000000 0.000000 0.500000
Si Si7 0.937551 0.215618 0.398454
Si Si8 0.941258 0.920024 0.854833
O O1 0.855283 0.638043 0.076408
O O2 0.679452 0.634325 0.900228
O O3 0.901806 0.984821 0.104843
O O4 0.500000 0.000000 0.000000
O O5 0.775799 0.723824 0.859458
O O6 0.095891 0.692921 0.899203
O O7 0.143548 0.843943 0.069193
O O8 0.664053 0.285101 0.716037
O O9 0.335564 0.723003 0.708320
O O10 0.500000 0.500000 0.500000
O O11 0.609699 0.437802 0.632280
O O12 0.730653 0.813127 0.720795
O O13 0.282512 0.866431 0.579091
O O14 0.500000 0.000000 0.500000
O O15 0.078928 0.023966 0.353388
O O16 0.010547 0.075953 0.453168
O O17 0.000000 0.500000 0.500000
#
# Coordination Sequence:
#
# PCOD9035369 Si02
#       8
#     2   2   2   2   2   1   2   2
#     4  11  27  47  72 112 140 186 251 306 367 439
#     4  10  22  45  74  99 136 190 236 300 368 420
#     4  11  23  45  71 100 145 188 239 300 366 426
#     4  12  25  46  69 107 148 195 238 295 368 433
#     4  12  24  44  71 101 148 194 239 296 361 435
#     4  12  24  44  68 102 148 182 244 288 346 436
#     4  12  25  44  70 103 142 192 240 294 361 431
#     4  10  22  46  73  99 143 187 236 302 365 425
#
# _framework density 21.722455
#
# number of rings (size 3 to 8) (size 9 to 14) (size 15 to 20)
#    0.000    0.800    5.333    1.600    1.867    4.800 
#    4.800    1.333    0.000    0.000    0.000    0.000 
#    0.000    0.000    0.000    0.000    0.000    0.000 
#
# Total GULP energy -83565.034710 kJ/mol
# GULP energy per Si atom -5571.002314 kJ/mol
# Density = 2.167301 g / cm^3
# Si number density = 21.722455 Si / 1000 Ang^3
#
#
#
# Elastic Constant Matrix: (Units=GPa)
#
#
# Indices 1 2 3 4 5 6 
#
# 1 111.0406 81.8902 50.3067 1.3287 8.3945 -5.5143
# 2 81.8902 132.3336 62.6511 -19.8639 21.3788 -2.1279
# 3 50.3067 62.6511 147.4793 19.5746 19.3446 -10.4410
# 4 1.3287 -19.8639 19.5746 37.9227 -5.5231 -3.1390
# 5 8.3945 21.3788 19.3446 -5.5231 36.5998 -2.5627
# 6 -5.5143 -2.1279 -10.4410 -3.1390 -2.5627 44.4318
#
#
#
# Elastic Compliance Matrix: (Units=1/GPa)
#
#
# Indices 1 2 3 4 5 6 
#
# 1 0.018400 -0.012640 -0.000239 -0.006691 0.002369 0.001286
# 2 -0.012640 0.020907 -0.005932 0.013743 -0.004190 -0.001232
# 3 -0.000239 -0.005932 0.011205 -0.009302 -0.003705 0.001448
# 4 -0.006691 0.013743 -0.009302 0.039301 0.004401 0.000672
# 5 0.002369 -0.004190 -0.003705 0.004401 0.031946 0.001376
# 6 0.001286 -0.001232 0.001448 0.000672 0.001376 0.023074
#
#
# Mechanical properties :
#
#
# Convention : Reuss Voigt Hill
#
# Bulk Modulus (GPa) = 77.56838 86.72774 82.14806
# Shear Modulus (GPa) = 26.77384 36.85787 31.81585
#
# Velocity S-wave (km/s) = 3.51457 4.12365 3.83123
# Velocity P-wave (km/s) = 7.22883 7.91737 7.58092
#
# Compressibility (1/GPa) = 0.01289185
#
# Stress axis : x y z
#
# Youngs Moduli (GPa) = 54.34723 47.83188 89.24584
#
# Poissons Ratio (x) = 0.60458 0.02130
# Poissons Ratio (y) = 0.68694 0.52936
# Poissons Ratio (z) = 0.01297 0.28372
#
# Static dielectric constant tensor:
#      x y z
#    x 1.872700 0.045210 -0.072260 
#    y 0.045210 1.816910 -0.006190 
#    z -0.072260 -0.006190 1.871350 
# 
# From -- ./inp_files/609701.got.cif
#   From: 2010.05.17/outbox.cif.g08.bks.cpg/sg2_305_cif.got.tgz:609701.got - 2010.06.03 11:33:40.
