data_PCOD9035542
_publ_section_title
;
Structure prediction by ZEFSAII (Michael W. Deem and Ramdas Pophale) SiO2 
 PCOD9035542
Probable space group: P -1
;
_chemical_formula_sum "Si O2"
_cell_formula_units_Z 13
_cell_length_a 6.887771
_cell_length_b 8.222928
_cell_length_c 17.869211
_cell_angle_alpha 147.113937
_cell_angle_beta 96.846143
_cell_angle_gamma 71.823373
_cell_volume 501.714009
_symmetry_space_group_name_H-M "P -1"
_symmetry_group_IT_number 2
_symmetry_cell_setting 'triclinic'
loop_
_space_group_symop_operation_xyz
x,y,z
-x,-y,-z
loop_
_atom_site_type_symbol
_atom_site_label
_atom_site_fract_x
_atom_site_fract_y
_atom_site_fract_z
Si Si1 0.955797 0.756805 0.845323
Si Si2 0.502766 0.793205 0.061804
Si Si3 0.819612 0.833276 0.647085
Si Si4 0.611256 0.616170 0.368694
Si Si5 0.787390 0.073527 0.271331
Si Si6 0.691315 0.442031 0.782435
Si Si7 0.500000 0.500000 0.500000
O O1 0.898188 0.500555 0.792440
O O2 0.156367 0.559776 0.725534
O O3 0.741792 0.957493 0.866046
O O4 0.000000 0.000000 0.000000
O O5 0.691172 0.881836 0.140573
O O6 0.500000 0.500000 0.000000
O O7 0.578133 0.666989 0.933301
O O8 0.639818 0.726836 0.629617
O O9 0.000000 0.500000 0.500000
O O10 0.967898 0.999636 0.757922
O O11 0.729544 0.080069 0.669843
O O12 0.635015 0.469991 0.398426
O O13 0.464123 0.473703 0.262540
O O14 0.500000 0.000000 0.500000
O O15 0.713987 0.137030 0.377575
#
# Coordination Sequence:
#
# PCOD9035542 Si02
#       7
#     2   2   2   2   2   2   1
#     4  12  27  51  79 107 158 209 252 318 391 453
#     4  12  27  48  78 114 153 204 265 319 380 464
#     4  10  24  43  72 105 148 194 245 309 379 450
#     4  12  27  47  77 112 154 198 260 316 386 461
#     4  11  25  45  72 110 150 196 257 315 379 457
#     4  12  26  50  75 114 156 201 256 320 382 465
#     4  10  22  46  68 100 152 188 246 310 382 442
#
# _framework density 25.911176000000001
#
# number of rings (size 3 to 8) (size 9 to 14) (size 15 to 20)
#    0.000    0.615    3.077    4.154    6.462    6.154 
#    0.000    0.000    0.000    0.000    0.000    0.000 
#    0.000    0.000    0.000    0.000    0.000    0.000 
#
# Total GULP energy -72513.514130 kJ/mol
# GULP energy per Si atom -5577.962625 kJ/mol
# Density = 2.585220 g / cm^3
# Si number density = 25.911176 Si / 1000 Ang^3
#
#
#
# Elastic Constant Matrix: (Units=GPa)
#
#
# Indices 1 2 3 4 5 6 
#
# 1 225.8690 64.9341 69.1919 1.6670 16.7919 -6.8448
# 2 64.9341 107.0800 43.3929 -2.1424 10.7554 -11.9112
# 3 69.1919 43.3929 91.9615 -1.1431 7.9136 -10.6350
# 4 1.6670 -2.1424 -1.1431 51.6839 -8.3701 6.4958
# 5 16.7919 10.7554 7.9136 -8.3701 65.9401 -13.9029
# 6 -6.8448 -11.9112 -10.6350 6.4958 -13.9029 47.9747
#
#
#
# Elastic Compliance Matrix: (Units=1/GPa)
#
#
# Indices 1 2 3 4 5 6 
#
# 1 0.006257 -0.002317 -0.003617 -0.000449 -0.000988 -0.000710
# 2 -0.002317 0.012600 -0.003949 0.000196 -0.000604 0.001721
# 3 -0.003617 -0.003949 0.015681 0.000066 0.000114 0.002004
# 4 -0.000449 0.000196 0.000066 0.019985 0.002173 -0.002077
# 5 -0.000988 -0.000604 0.000114 0.002173 0.016679 0.004274
# 6 -0.000710 0.001721 0.002004 -0.002077 0.004274 0.023134
#
#
# Mechanical properties :
#
#
# Convention : Reuss Voigt Hill
#
# Bulk Modulus (GPa) = 67.69153 86.66090 77.17622
# Shear Modulus (GPa) = 42.00766 49.61251 45.81009
#
# Velocity S-wave (km/s) = 4.03080 4.38049 4.20928
# Velocity P-wave (km/s) = 6.91696 7.68784 7.31257
#
# Compressibility (1/GPa) = 0.01477290
#
# Stress axis : x y z
#
# Youngs Moduli (GPa) = 159.82849 79.36469 63.76985
#
# Poissons Ratio (x) = 0.18390 0.23065
# Poissons Ratio (y) = 0.37035 0.25180
# Poissons Ratio (z) = 0.57808 0.31338
#
# Static dielectric constant tensor:
#      x y z
#    x 2.073130 0.041740 -0.039640 
#    y 0.041740 2.139330 -0.063680 
#    z -0.039640 -0.063680 2.165020 
# 
# From -- ./inp_files/572915.got.cif
#   From: 2010.05.17/outbox.cif.g08.bks.cpg/sg2_287_cif.got.tgz:572915.got - 2010.06.03 11:33:40.
