data_PCOD9035532
_publ_section_title
;
Structure prediction by ZEFSAII (Michael W. Deem and Ramdas Pophale) SiO2 
 PCOD9035532
Probable space group: P -1
;
_chemical_formula_sum "Si O2"
_cell_formula_units_Z 16
_cell_length_a 16.332852
_cell_length_b 16.051340
_cell_length_c 9.601015
_cell_angle_alpha 77.616163
_cell_angle_beta 96.220008
_cell_angle_gamma 25.923129
_cell_volume 761.733452
_symmetry_space_group_name_H-M "P -1"
_symmetry_group_IT_number 2
_symmetry_cell_setting 'triclinic'
loop_
_space_group_symop_operation_xyz
x,y,z
-x,-y,-z
loop_
_atom_site_type_symbol
_atom_site_label
_atom_site_fract_x
_atom_site_fract_y
_atom_site_fract_z
Si Si1 0.107115 0.089716 0.859436
Si Si2 0.008254 0.310112 0.251543
Si Si3 0.024628 0.143766 0.499763
Si Si4 0.075843 0.269290 0.977479
Si Si5 0.642333 0.832446 0.948223
Si Si6 0.504343 0.906698 0.613388
Si Si7 0.477480 0.601686 0.276591
Si Si8 0.527735 0.590570 0.610093
O O1 0.106148 0.087877 0.692394
O O2 0.801855 0.372988 0.747855
O O3 0.191554 0.097126 0.938944
O O4 0.295269 0.832665 0.052905
O O5 0.044493 0.246159 0.121552
O O6 0.894098 0.351240 0.317267
O O7 0.847636 0.556237 0.123928
O O8 0.289081 0.056359 0.459335
O O9 0.789870 0.305615 0.407036
O O10 0.284492 0.861322 0.562646
O O11 0.229118 0.205544 0.067288
O O12 0.790131 0.583917 0.767387
O O13 0.462803 0.969693 0.745200
O O14 0.500000 0.000000 0.000000
O O15 0.500000 0.000000 0.500000
O O16 0.444560 0.670279 0.403167
O O17 0.410269 0.568110 0.279924
#
# Coordination Sequence:
#
# PCOD9035532 Si02
#       8
#     2   2   2   2   2   2   2   2
#     4  11  25  40  64  99 128 165 213 262 313 376
#     4  11  23  42  62  86 123 165 209 255 313 368
#     4  11  25  40  64  99 128 165 214 260 314 377
#     4  11  23  41  61  87 123 164 209 257 310 369
#     4  11  25  38  59  91 122 161 208 258 309 366
#     4  11  20  41  63  82 112 165 214 250 308 366
#     4  10  23  43  70  94 131 165 209 258 315 385
#     4  10  22  46  67  96 128 170 206 255 322 379
#
# _framework density 21.004722999999998
#
# number of rings (size 3 to 8) (size 9 to 14) (size 15 to 20)
#    0.000    1.250    2.500    3.000    3.500    6.000 
#    0.000    0.000    0.000    0.000    0.000    0.000 
#    0.000    0.000    0.000    0.000    0.000    0.000 
#
# Total GULP energy -89426.925617 kJ/mol
# GULP energy per Si atom -5589.182851 kJ/mol
# Density = 2.095692 g / cm^3
# Si number density = 21.004723 Si / 1000 Ang^3
#
#
#
# Elastic Constant Matrix: (Units=GPa)
#
#
# Indices 1 2 3 4 5 6 
#
# 1 57.5899 5.0061 17.3148 3.4740 -9.5676 7.8861
# 2 5.0061 120.7765 36.3730 8.8655 -2.7074 -0.9919
# 3 17.3148 36.3730 112.2173 15.9485 -15.3392 4.5533
# 4 3.4740 8.8655 15.9485 14.7160 -8.2599 -0.7466
# 5 -9.5676 -2.7074 -15.3392 -8.2599 31.8408 -0.2464
# 6 7.8861 -0.9919 4.5533 -0.7466 -0.2464 26.3333
#
#
#
# Elastic Compliance Matrix: (Units=1/GPa)
#
#
# Indices 1 2 3 4 5 6 
#
# 1 0.019552 -0.000122 -0.002122 0.000206 0.004854 -0.005442
# 2 -0.000122 0.009336 -0.002754 -0.003381 -0.001441 0.000755
# 3 -0.002122 -0.002754 0.011873 -0.009461 0.002380 -0.001767
# 4 0.000206 -0.003381 -0.009461 0.090990 0.018853 0.004203
# 5 0.004854 -0.001441 0.002380 0.018853 0.038772 -0.001022
# 6 -0.005442 0.000755 -0.001767 0.004203 -0.001022 0.040048
#
#
# Mechanical properties :
#
#
# Convention : Reuss Voigt Hill
#
# Bulk Modulus (GPa) = 32.50598 45.33016 38.91807
# Shear Modulus (GPa) = 21.66153 30.03733 25.84943
#
# Velocity S-wave (km/s) = 3.21482 3.78567 3.51187
# Velocity P-wave (km/s) = 5.41196 6.38249 5.91716
#
# Compressibility (1/GPa) = 0.03076357
#
# Stress axis : x y z
#
# Youngs Moduli (GPa) = 51.14590 107.10712 84.22363
#
# Poissons Ratio (x) = 0.01310 0.17874
# Poissons Ratio (y) = 0.00626 0.23199
# Poissons Ratio (z) = 0.10854 0.29502
#
# Static dielectric constant tensor:
#      x y z
#    x 1.797110 -0.026720 -0.013040 
#    y -0.026720 1.757760 0.006330 
#    z -0.013040 0.006330 1.727860 
# 
# From -- ./inp_files/53557.got.cif
#   From: 2010.05.17/outbox.cif.g08.bks.cpg/sg2_27_cif.got.tgz:53557.got - 2010.06.03 11:33:40.
