data_PCOD9035172
_publ_section_title
;
Structure prediction by ZEFSAII (Michael W. Deem and Ramdas Pophale) SiO2 
 PCOD9035172
Probable space group: P -1
;
_chemical_formula_sum "Si O2"
_cell_formula_units_Z 12
_cell_length_a 11.866248
_cell_length_b 18.786016
_cell_length_c 14.774736
_cell_angle_alpha 158.438417
_cell_angle_beta 153.361770
_cell_angle_gamma 28.340499
_cell_volume 518.302541
_symmetry_space_group_name_H-M "P -1"
_symmetry_group_IT_number 2
_symmetry_cell_setting 'triclinic'
loop_
_space_group_symop_operation_xyz
x,y,z
-x,-y,-z
loop_
_atom_site_type_symbol
_atom_site_label
_atom_site_fract_x
_atom_site_fract_y
_atom_site_fract_z
Si Si1 0.490409 0.670571 0.459107
Si Si2 0.266004 0.392112 0.617070
Si Si3 0.034523 0.724627 0.976605
Si Si4 0.404492 0.999856 0.534141
Si Si5 0.290189 0.344694 0.008012
Si Si6 0.281712 0.081933 0.861809
O O1 0.512048 0.599872 0.287104
O O2 0.754994 0.735426 0.741810
O O3 0.257256 0.870213 0.554494
O O4 0.478650 0.485624 0.294551
O O5 0.224596 0.514813 0.826029
O O6 0.000000 0.500000 0.500000
O O7 0.347597 0.155405 0.419462
O O8 0.953146 0.764744 0.069968
O O9 0.169261 0.894994 0.244991
O O10 0.312413 0.205251 0.769476
O O11 0.500000 0.000000 0.500000
O O12 0.360878 0.200329 0.975439
O O13 0.000000 0.500000 0.000000
O O14 0.500000 0.000000 0.000000
#
# Coordination Sequence:
#
# PCOD9035172 Si02
#       6
#     2   2   2   2   2   2
#     4  10  22  47  69 100 143 187 233 286 352 417
#     4  10  22  45  71  98 135 190 231 289 351 411
#     4  10  23  42  70  97 140 184 227 284 354 408
#     4  12  26  45  69 108 142 180 239 294 348 418
#     4  12  27  43  73 110 141 183 238 291 347 422
#     4  10  23  45  71 101 140 187 233 286 350 418
#
# _framework density 23.152501999999998
#
# number of rings (size 3 to 8) (size 9 to 14) (size 15 to 20)
#    0.000    1.333    1.667    2.500    4.667    4.000 
#   12.000    5.000    0.000    0.000    0.000    0.000 
#    0.000    0.000    0.000    0.000    0.000    0.000 
#
# Total GULP energy -66954.205867 kJ/mol
# GULP energy per Si atom -5579.517156 kJ/mol
# Density = 2.309981 g / cm^3
# Si number density = 23.152502 Si / 1000 Ang^3
#
#
#
# Elastic Constant Matrix: (Units=GPa)
#
#
# Indices 1 2 3 4 5 6 
#
# 1 205.3877 39.9114 57.8929 27.8779 -31.9145 4.0033
# 2 39.9114 106.2323 42.5209 9.9275 -9.9131 -3.2041
# 3 57.8929 42.5209 106.3760 21.7607 -19.5338 -3.9315
# 4 27.8779 9.9275 21.7607 43.1214 -1.1631 -3.3312
# 5 -31.9145 -9.9131 -19.5338 -1.1631 59.0856 19.6784
# 6 4.0033 -3.2041 -3.9315 -3.3312 19.6784 56.4310
#
#
#
# Elastic Compliance Matrix: (Units=1/GPa)
#
#
# Indices 1 2 3 4 5 6 
#
# 1 0.006629 -0.001161 -0.001972 -0.003089 0.003347 -0.002023
# 2 -0.001161 0.011427 -0.003988 0.000168 -0.000203 0.000534
# 3 -0.001972 -0.003988 0.013497 -0.004573 0.002765 -0.000380
# 4 -0.003089 0.000168 -0.004573 0.027575 -0.003532 0.002770
# 5 0.003347 -0.000203 0.002765 -0.003532 0.022211 -0.008010
# 6 -0.002023 0.000534 -0.000380 0.002770 -0.008010 0.020825
#
#
# Mechanical properties :
#
#
# Convention : Reuss Voigt Hill
#
# Bulk Modulus (GPa) = 57.76451 77.62737 67.69594
# Shear Modulus (GPa) = 40.92472 50.23900 45.58186
#
# Velocity S-wave (km/s) = 4.20886 4.66329 4.44189
# Velocity P-wave (km/s) = 6.97303 7.91180 7.45720
#
# Compressibility (1/GPa) = 0.01731167
#
# Stress axis : x y z
#
# Youngs Moduli (GPa) = 150.84957 87.51059 74.09215
#
# Poissons Ratio (x) = 0.10163 0.14609
# Poissons Ratio (y) = 0.17519 0.29545
# Poissons Ratio (z) = 0.29744 0.34896
#
# Static dielectric constant tensor:
#      x y z
#    x 1.904540 -0.128160 0.010760 
#    y -0.128160 3.843760 -1.189210 
#    z 0.010760 -1.189210 2.584100 
# 
# From -- ./inp_files/71946.got.cif
#   From: 2010.05.17/outbox.cif.g08.bks.cpg/sg2_36_cif.got.tgz:71946.got - 2010.06.03 11:33:40.
