data_PCOD9035899
_publ_section_title
;
Structure prediction by ZEFSAII (Michael W. Deem and Ramdas Pophale) SiO2 
 PCOD9035899
Probable space group: P -1
;
_chemical_formula_sum "Si O2"
_cell_formula_units_Z 16
_cell_length_a 6.949520
_cell_length_b 8.778927
_cell_length_c 21.657360
_cell_angle_alpha 42.781014
_cell_angle_beta 111.620138
_cell_angle_gamma 125.742457
_cell_volume 724.027735
_symmetry_space_group_name_H-M "P -1"
_symmetry_group_IT_number 2
_symmetry_cell_setting 'triclinic'
loop_
_space_group_symop_operation_xyz
x,y,z
-x,-y,-z
loop_
_atom_site_type_symbol
_atom_site_label
_atom_site_fract_x
_atom_site_fract_y
_atom_site_fract_z
Si Si1 0.547085 0.194068 0.140520
Si Si2 0.711962 0.488164 0.292225
Si Si3 0.862817 0.097009 0.410352
Si Si4 0.994575 0.838205 0.406429
Si Si5 0.673264 0.840396 0.756609
Si Si6 0.368282 0.689183 0.529520
Si Si7 0.083934 0.903888 0.861017
Si Si8 0.139736 0.203432 0.009793
O O1 0.449411 0.070203 0.232808
O O2 0.325074 0.140149 0.086411
O O3 0.715642 0.115731 0.147618
O O4 0.701745 0.501651 0.080912
O O5 0.894863 0.379451 0.336663
O O6 0.520481 0.368003 0.250286
O O7 0.583429 0.375042 0.376836
O O8 0.841049 0.794862 0.216670
O O9 0.588297 0.905638 0.453445
O O10 0.000000 0.000000 0.500000
O O11 0.936493 0.044954 0.367655
O O12 0.169101 0.776754 0.486117
O O13 0.753437 0.573466 0.445366
O O14 0.134546 0.932551 0.330866
O O15 0.831274 0.749913 0.841325
O O16 0.039874 0.805955 0.955246
O O17 0.000000 0.000000 0.000000
#
# Coordination Sequence:
#
# PCOD9035899 Si02
#       8
#     2   2   2   2   2   2   2   2
#     4  10  24  45  72 101 138 174 211 268 331 397
#     4  12  24  43  63  94 138 170 233 283 326 400
#     4  12  24  41  65  92 125 183 234 286 343 391
#     4  11  23  43  66  90 131 179 228 289 341 390
#     4  11  24  43  63  97 137 169 222 279 327 399
#     4  11  23  44  62  92 129 175 239 285 332 406
#     4  11  25  45  66 104 136 177 214 270 336 395
#     4  10  22  46  75 104 136 169 218 262 320 411
#
# _framework density 22.098600999999999
#
# number of rings (size 3 to 8) (size 9 to 14) (size 15 to 20)
#    0.000    1.000    3.750    2.625    1.750    1.500 
#   15.750    0.000    0.000    0.000    0.000    0.000 
#    0.000    0.000    0.000    0.000    0.000    0.000 
#
# Total GULP energy -89470.521116 kJ/mol
# GULP energy per Si atom -5591.907570 kJ/mol
# Density = 2.204830 g / cm^3
# Si number density = 22.098601 Si / 1000 Ang^3
#
#
#
# Elastic Constant Matrix: (Units=GPa)
#
#
# Indices 1 2 3 4 5 6 
#
# 1 123.0947 38.0643 18.6550 8.7884 -7.4967 -19.0587
# 2 38.0643 109.2784 31.2015 9.7929 8.0499 10.2326
# 3 18.6550 31.2015 59.6935 8.0149 -17.5419 -4.7420
# 4 8.7884 9.7929 8.0149 33.4111 -4.2762 4.4076
# 5 -7.4967 8.0499 -17.5419 -4.2762 38.2687 1.6143
# 6 -19.0587 10.2326 -4.7420 4.4076 1.6143 19.6196
#
#
#
# Elastic Compliance Matrix: (Units=1/GPa)
#
#
# Indices 1 2 3 4 5 6 
#
# 1 0.013082 -0.006888 0.002600 -0.003832 0.004039 0.017458
# 2 -0.006888 0.016886 -0.010804 0.000605 -0.009048 -0.017501
# 3 0.002600 -0.010804 0.027515 -0.004210 0.014309 0.014580
# 4 -0.003832 0.000605 -0.004210 0.033641 0.001489 -0.012736
# 5 0.004039 -0.009048 0.014309 0.001489 0.035177 0.008872
# 6 0.017458 -0.017501 0.014580 -0.012736 0.008872 0.082711
#
#
# Mechanical properties :
#
#
# Convention : Reuss Voigt Hill
#
# Bulk Modulus (GPa) = 36.63010 51.98978 44.30994
# Shear Modulus (GPa) = 20.13723 31.86961 26.00342
#
# Velocity S-wave (km/s) = 3.02196 3.80169 3.43403
# Velocity P-wave (km/s) = 5.36545 6.54583 5.98481
#
# Compressibility (1/GPa) = 0.02729996
#
# Stress axis : x y z
#
# Youngs Moduli (GPa) = 76.43886 59.22027 36.34346
#
# Poissons Ratio (x) = 0.40792 -0.09450
# Poissons Ratio (y) = 0.52653 0.39266
# Poissons Ratio (z) = -0.19877 0.63982
#
# Static dielectric constant tensor:
#      x y z
#    x 1.821440 -0.000680 0.009090 
#    y -0.000680 1.825030 0.029300 
#    z 0.009090 0.029300 1.874720 
# 
# From -- ./inp_files/582284.got.cif
#   From: 2010.05.17/outbox.cif.g08.bks.cpg/sg2_292_cif.got.tgz:582284.got - 2010.06.03 11:33:40.
