data_PCOD9035390
_publ_section_title
;
Structure prediction by ZEFSAII (Michael W. Deem and Ramdas Pophale) SiO2 
 PCOD9035390
Probable space group: P -1
;
_chemical_formula_sum "Si O2"
_cell_formula_units_Z 16
_cell_length_a 13.426715
_cell_length_b 5.497316
_cell_length_c 8.668520
_cell_angle_alpha 90.273810
_cell_angle_beta 92.855606
_cell_angle_gamma 81.889773
_cell_volume 632.643748
_symmetry_space_group_name_H-M "P -1"
_symmetry_group_IT_number 2
_symmetry_cell_setting 'triclinic'
loop_
_space_group_symop_operation_xyz
x,y,z
-x,-y,-z
loop_
_atom_site_type_symbol
_atom_site_label
_atom_site_fract_x
_atom_site_fract_y
_atom_site_fract_z
Si Si1 0.638352 0.950102 0.460581
Si Si2 0.471573 0.766913 0.825551
Si Si3 0.984627 0.046860 0.677251
Si Si4 0.201478 0.754116 0.178807
Si Si5 0.386683 0.534437 0.351946
Si Si6 0.811964 0.748402 0.256398
Si Si7 0.331532 0.048280 0.025801
Si Si8 0.937218 0.348301 0.110031
O O1 0.608863 0.712007 0.545209
O O2 0.749140 0.852739 0.399946
O O3 0.568979 0.032312 0.306739
O O4 0.629764 0.207424 0.555938
O O5 0.510682 0.512502 0.741195
O O6 0.571509 0.836677 0.913407
O O7 0.381377 0.794128 0.941903
O O8 0.976884 0.821776 0.790162
O O9 0.087282 0.127758 0.748831
O O10 0.000000 0.000000 0.500000
O O11 0.883122 0.228765 0.697206
O O12 0.289909 0.542665 0.233278
O O13 0.263119 0.982140 0.160107
O O14 0.140375 0.745650 0.015724
O O15 0.863259 0.468572 0.241430
O O16 0.738911 0.801233 0.104775
O O17 0.000000 0.500000 0.000000
#
# Coordination Sequence:
#
# PCOD9035390 Si02
#       8
#     2   2   2   2   2   2   2   2
#     4  11  27  46  75 111 157 201 251 316 390 463
#     4  10  23  45  75 109 149 197 255 316 384 455
#     4  12  27  46  72 108 151 199 250 318 387 464
#     4  12  25  45  75 107 150 202 253 315 377 465
#     4  12  26  47  73 110 155 202 254 313 388 459
#     4  11  24  45  73 105 147 193 254 314 377 457
#     4  10  22  45  75 110 145 194 257 316 380 455
#     4  12  25  45  75 105 146 200 262 315 381 455
#
# _framework density 25.290693999999998
#
# number of rings (size 3 to 8) (size 9 to 14) (size 15 to 20)
#    0.000    0.750    2.500    4.125    3.500    4.000 
#    0.000    1.250    0.000    0.000    0.000    0.000 
#    0.000    0.000    0.000    0.000    0.000    0.000 
#
# Total GULP energy -89432.484830 kJ/mol
# GULP energy per Si atom -5589.530302 kJ/mol
# Density = 2.523313 g / cm^3
# Si number density = 25.290694 Si / 1000 Ang^3
#
#
#
# Elastic Constant Matrix: (Units=GPa)
#
#
# Indices 1 2 3 4 5 6 
#
# 1 102.0701 19.5951 7.1245 8.9800 4.0541 -25.0869
# 2 19.5951 94.1725 32.0934 22.0049 -5.4094 -19.7044
# 3 7.1245 32.0934 93.7417 -5.2660 15.9425 -0.8363
# 4 8.9800 22.0049 -5.2660 43.8674 -20.5708 -9.0445
# 5 4.0541 -5.4094 15.9425 -20.5708 43.4777 6.2975
# 6 -25.0869 -19.7044 -0.8363 -9.0445 6.2975 48.2372
#
#
#
# Elastic Compliance Matrix: (Units=1/GPa)
#
#
# Indices 1 2 3 4 5 6 
#
# 1 0.011688 -0.000833 -0.000165 -0.002232 -0.003016 0.005711
# 2 -0.000833 0.015290 -0.005529 -0.007301 -0.000078 0.004358
# 3 -0.000165 -0.005529 0.013436 0.002104 -0.004439 -0.001137
# 4 -0.002232 -0.007301 0.002104 0.034095 0.014604 0.000380
# 5 -0.003016 -0.000078 -0.004439 0.014604 0.032266 -0.003152
# 6 0.005711 0.004358 -0.001137 0.000380 -0.003152 0.025944
#
#
# Mechanical properties :
#
#
# Convention : Reuss Voigt Hill
#
# Bulk Modulus (GPa) = 36.54856 45.29002 40.91929
# Shear Modulus (GPa) = 32.28036 42.52789 37.40413
#
# Velocity S-wave (km/s) = 3.57651 4.10513 3.84991
# Velocity P-wave (km/s) = 5.61587 6.35737 5.99809
#
# Compressibility (1/GPa) = 0.02736086
#
# Stress axis : x y z
#
# Youngs Moduli (GPa) = 85.55508 65.40287 74.42603
#
# Poissons Ratio (x) = 0.05447 0.01226
# Poissons Ratio (y) = 0.07125 0.41153
# Poissons Ratio (z) = 0.01409 0.36163
#
# Static dielectric constant tensor:
#      x y z
#    x 1.944430 0.041570 -0.099930 
#    y 0.041570 2.168710 0.031910 
#    z -0.099930 0.031910 1.855830 
# 
# From -- ./inp_files/288875.got.cif
#   From: 2010.05.17/outbox.cif.g08.bks.cpg/sg2_145_cif.got.tgz:288875.got - 2010.06.03 11:33:40.
