data_PCOD9035429
_publ_section_title
;
Structure prediction by ZEFSAII (Michael W. Deem and Ramdas Pophale) SiO2 
 PCOD9035429
Probable space group: P -1
;
_chemical_formula_sum "Si O2"
_cell_formula_units_Z 14
_cell_length_a 15.136135
_cell_length_b 9.310119
_cell_length_c 11.268651
_cell_angle_alpha 120.889360
_cell_angle_beta 148.315276
_cell_angle_gamma 49.142169
_cell_volume 627.080576
_symmetry_space_group_name_H-M "P -1"
_symmetry_group_IT_number 2
_symmetry_cell_setting 'triclinic'
loop_
_space_group_symop_operation_xyz
x,y,z
-x,-y,-z
loop_
_atom_site_type_symbol
_atom_site_label
_atom_site_fract_x
_atom_site_fract_y
_atom_site_fract_z
Si Si1 0.055589 0.711853 0.119107
Si Si2 0.873277 0.428213 0.598915
Si Si3 0.489296 0.577069 0.886230
Si Si4 0.601551 0.537968 0.745362
Si Si5 0.702710 0.863926 0.619527
Si Si6 0.722204 0.057746 0.484725
Si Si7 0.831677 0.678674 0.311578
O O1 0.081917 0.598469 0.221909
O O2 0.181675 0.575115 0.097745
O O3 0.136188 0.853888 0.307852
O O4 0.847539 0.825694 0.876298
O O5 0.739008 0.334480 0.366377
O O6 0.744366 0.656900 0.530606
O O7 0.068042 0.346565 0.712062
O O8 0.571993 0.460885 0.805597
O O9 0.500000 0.500000 0.000000
O O10 0.632124 0.670286 0.090370
O O11 0.500000 0.500000 0.500000
O O12 0.486300 0.768178 0.716257
O O13 0.500000 0.000000 0.500000
O O14 0.725152 0.977173 0.583774
O O15 0.791767 0.880478 0.402279
O O16 0.000000 0.500000 0.500000
#
# Coordination Sequence:
#
# PCOD9035429 Si02
#       7
#     2   2   2   2   2   2   2
#     4  11  25  49  76 106 153 194 244 318 383 438
#     4  12  25  50  73 107 148 204 248 309 383 443
#     4  12  24  45  76 106 146 205 251 301 373 451
#     4  10  22  45  78 107 144 192 246 310 374 440
#     4  12  26  42  73 113 146 188 253 309 377 452
#     4  11  24  47  72 109 146 192 251 307 371 447
#     4  12  26  46  71 106 153 198 251 305 371 452
#
# _framework density 22.325678
#
# number of rings (size 3 to 8) (size 9 to 14) (size 15 to 20)
#    0.000    0.571    5.714    2.571    2.000    3.429 
#    2.571    0.000    0.000    0.000    0.000    0.000 
#    0.000    0.000    0.000    0.000    0.000    0.000 
#
# Total GULP energy -78144.780365 kJ/mol
# GULP energy per Si atom -5581.770026 kJ/mol
# Density = 2.227486 g / cm^3
# Si number density = 22.325678 Si / 1000 Ang^3
#
#
#
# Elastic Constant Matrix: (Units=GPa)
#
#
# Indices 1 2 3 4 5 6 
#
# 1 181.8165 39.5060 49.7123 -0.3606 -11.2268 3.4341
# 2 39.5060 116.8770 48.1292 2.3943 13.0852 -13.0739
# 3 49.7123 48.1292 146.2426 -4.0508 7.2094 -3.5577
# 4 -0.3606 2.3943 -4.0508 41.9676 6.1141 -3.7596
# 5 -11.2268 13.0852 7.2094 6.1141 46.2801 1.7407
# 6 3.4341 -13.0739 -3.5577 -3.7596 1.7407 36.5147
#
#
#
# Elastic Compliance Matrix: (Units=1/GPa)
#
#
# Indices 1 2 3 4 5 6 
#
# 1 0.006602 -0.001962 -0.001780 -0.000527 0.002566 -0.001674
# 2 -0.001962 0.011185 -0.002751 -0.000067 -0.003354 0.004074
# 3 -0.001780 -0.002751 0.008440 0.001136 -0.001125 0.000175
# 4 -0.000527 -0.000067 0.001136 0.024726 -0.003660 0.002857
# 5 0.002566 -0.003354 -0.001125 -0.003660 0.023953 -0.003071
# 6 -0.001674 0.004074 0.000175 0.002857 -0.003071 0.029460
#
#
# Mechanical properties :
#
#
# Convention : Reuss Voigt Hill
#
# Bulk Modulus (GPa) = 75.53392 79.95900 77.74646
# Shear Modulus (GPa) = 41.06220 45.45838 43.26029
#
# Velocity S-wave (km/s) = 4.29328 4.51726 4.40670
# Velocity P-wave (km/s) = 7.64739 7.94356 7.79688
#
# Compressibility (1/GPa) = 0.01323909
#
# Stress axis : x y z
#
# Youngs Moduli (GPa) = 151.46421 89.40635 118.48568
#
# Poissons Ratio (x) = 0.17544 0.21094
# Poissons Ratio (y) = 0.29721 0.32600
# Poissons Ratio (z) = 0.26966 0.24599
#
# Static dielectric constant tensor:
#      x y z
#    x 1.814210 -0.007040 0.045220 
#    y -0.007040 1.819360 0.063130 
#    z 0.045220 0.063130 1.874970 
# 
# From -- ./inp_files/448113.got.cif
#   From: 2010.05.17/outbox.cif.g08.bks.cpg/sg2_225_cif.got.tgz:448113.got - 2010.06.03 11:33:40.
