data_PCOD9035125
_publ_section_title
;
Structure prediction by ZEFSAII (Michael W. Deem and Ramdas Pophale) SiO2 
 PCOD9035125
Probable space group: P -1
;
_chemical_formula_sum "Si O2"
_cell_formula_units_Z 16
_cell_length_a 10.489373
_cell_length_b 25.181611
_cell_length_c 9.605596
_cell_angle_alpha 41.916519
_cell_angle_beta 44.621236
_cell_angle_gamma 24.199907
_cell_volume 689.733212
_symmetry_space_group_name_H-M "P -1"
_symmetry_group_IT_number 2
_symmetry_cell_setting 'triclinic'
loop_
_space_group_symop_operation_xyz
x,y,z
-x,-y,-z
loop_
_atom_site_type_symbol
_atom_site_label
_atom_site_fract_x
_atom_site_fract_y
_atom_site_fract_z
Si Si1 0.916546 0.187454 0.738147
Si Si2 0.782709 0.104805 0.592692
Si Si3 0.576278 0.499932 0.096967
Si Si4 0.741602 0.093793 0.183728
Si Si5 0.320617 0.499229 0.543047
Si Si6 0.785836 0.820697 0.718296
Si Si7 0.410304 0.992622 0.941056
Si Si8 0.626838 0.672872 0.748316
O O1 0.566079 0.339851 0.680740
O O2 0.122658 0.149981 0.528932
O O3 0.904823 0.098470 0.945691
O O4 0.103067 0.145348 0.816570
O O5 0.519896 0.251352 0.436813
O O6 0.642373 0.079136 0.830810
O O7 0.000000 0.000000 0.500000
O O8 0.024907 0.046339 0.636653
O O9 0.401647 0.413219 0.057624
O O10 0.912554 0.341858 0.177131
O O11 0.500000 0.500000 0.000000
O O12 0.667219 0.459908 0.693215
O O13 0.481244 0.139124 0.216588
O O14 0.576961 0.210812 0.199928
O O15 0.500000 0.500000 0.500000
O O16 0.975268 0.586269 0.665421
O O17 0.667009 0.900003 0.800584
O O18 0.500000 0.000000 0.000000
#
# Coordination Sequence:
#
# PCOD9035125 Si02
#       8
#     2   2   2   2   2   2   2   2
#     4  10  23  44  66 105 137 182 229 295 350 416
#     4   9  23  43  67 107 135 184 234 295 352 424
#     4  11  27  46  67 106 146 190 243 294 356 436
#     4  10  22  45  71 105 141 181 244 289 357 425
#     4  11  24  41  73 106 138 189 244 288 357 429
#     4  11  25  46  71 105 140 184 236 300 357 421
#     4  11  26  45  72 101 140 185 232 290 359 428
#     4  11  23  46  74 102 150 192 235 302 358 418
#
# _framework density 23.197375000000001
#
# number of rings (size 3 to 8) (size 9 to 14) (size 15 to 20)
#    0.000    1.500    0.000    3.375    7.000    7.000 
#   11.250    0.000    0.000    0.000    0.000    0.000 
#    0.000    0.000    0.000    0.000    0.000    0.000 
#
# Total GULP energy -89414.271557 kJ/mol
# GULP energy per Si atom -5588.391972 kJ/mol
# Density = 2.314458 g / cm^3
# Si number density = 23.197375 Si / 1000 Ang^3
#
#
#
# Elastic Constant Matrix: (Units=GPa)
#
#
# Indices 1 2 3 4 5 6 
#
# 1 148.7901 32.1890 61.2779 -6.1090 4.7655 -6.6221
# 2 32.1890 88.3957 55.2426 -3.0009 -6.5412 -13.8037
# 3 61.2779 55.2426 167.0542 -6.4820 13.1423 -13.3578
# 4 -6.1090 -3.0009 -6.4820 33.4789 -0.9206 -4.2947
# 5 4.7655 -6.5412 13.1423 -0.9206 35.1841 3.2331
# 6 -6.6221 -13.8037 -13.3578 -4.2947 3.2331 28.7254
#
#
#
# Elastic Compliance Matrix: (Units=1/GPa)
#
#
# Indices 1 2 3 4 5 6 
#
# 1 0.008079 -0.001399 -0.002410 0.000903 -0.000454 0.000256
# 2 -0.001399 0.015841 -0.004656 0.000998 0.004461 0.004772
# 3 -0.002410 -0.004656 0.008922 0.001011 -0.004026 0.001960
# 4 0.000903 0.000998 0.001011 0.031063 -0.000035 0.005806
# 5 -0.000454 0.004461 -0.004026 -0.000035 0.031123 -0.003341
# 6 0.000256 0.004772 0.001960 0.005806 -0.003341 0.039320
#
#
# Mechanical properties :
#
#
# Convention : Reuss Voigt Hill
#
# Bulk Modulus (GPa) = 62.84136 77.96212 70.40174
# Shear Modulus (GPa) = 31.93211 36.51304 34.22258
#
# Velocity S-wave (km/s) = 3.71420 3.97169 3.84510
# Velocity P-wave (km/s) = 6.74851 7.39686 7.08011
#
# Compressibility (1/GPa) = 0.01591309
#
# Stress axis : x y z
#
# Youngs Moduli (GPa) = 123.77903 63.12688 112.07839
#
# Poissons Ratio (x) = 0.08832 0.27007
# Poissons Ratio (y) = 0.17318 0.52183
# Poissons Ratio (z) = 0.29826 0.29392
#
# Static dielectric constant tensor:
#      x y z
#    x 1.928790 0.032030 -0.017810 
#    y 0.032030 1.944050 -0.012260 
#    z -0.017810 -0.012260 1.888330 
# 
# From -- ./inp_files/226078.got.cif
#   From: 2010.05.17/outbox.cif.g08.bks.cpg/sg2_114_cif.got.tgz:226078.got - 2010.06.03 11:33:40.
