data_PCOD9035964
_publ_section_title
;
Structure prediction by ZEFSAII (Michael W. Deem and Ramdas Pophale) SiO2 
 PCOD9035964
Probable space group: P -1
;
_chemical_formula_sum "Si O2"
_cell_formula_units_Z 14
_cell_length_a 6.730889
_cell_length_b 6.745179
_cell_length_c 13.805350
_cell_angle_alpha 92.541022
_cell_angle_beta 102.166785
_cell_angle_gamma 59.805802
_cell_volume 528.159217
_symmetry_space_group_name_H-M "P -1"
_symmetry_group_IT_number 2
_symmetry_cell_setting 'triclinic'
loop_
_space_group_symop_operation_xyz
x,y,z
-x,-y,-z
loop_
_atom_site_type_symbol
_atom_site_label
_atom_site_fract_x
_atom_site_fract_y
_atom_site_fract_z
Si Si1 0.492817 0.561000 0.863207
Si Si2 0.135349 0.337109 0.601771
Si Si3 0.328564 0.264743 0.956126
Si Si4 0.631135 0.097638 0.711380
Si Si5 0.959313 0.961301 0.107820
Si Si6 0.728237 0.103914 0.501144
Si Si7 0.335611 0.391934 0.323767
O O1 0.570401 0.550239 0.761157
O O2 0.813895 0.090312 0.808347
O O3 0.252952 0.802769 0.864432
O O4 0.686448 0.583373 0.949163
O O5 0.353734 0.293821 0.690903
O O6 0.000000 0.500000 0.500000
O O7 0.916066 0.419276 0.654312
O O8 0.290724 0.105049 0.549797
O O9 0.439886 0.368184 0.895645
O O10 0.114466 0.234636 0.896204
O O11 0.500000 0.000000 0.000000
O O12 0.709048 0.129682 0.613445
O O13 0.669618 0.839454 0.709926
O O14 0.000000 0.000000 0.000000
O O15 0.537025 0.319449 0.425422
O O16 0.000000 0.000000 0.500000
#
# Coordination Sequence:
#
# PCOD9035964 Si02
#       7
#     2   2   2   2   2   2   2
#     4  10  22  46  82 118 161 216 266 341 423 486
#     4  11  21  46  80 112 153 215 277 334 406 491
#     4   9  21  47  80 115 159 210 273 335 410 499
#     4  11  23  45  76 117 164 213 271 339 410 486
#     4  11  24  46  79 116 166 215 271 344 414 493
#     4  11  23  42  74 111 162 208 265 340 407 486
#     4  11  22  45  78 120 162 209 274 339 408 496
#
# _framework density 26.507158
#
# number of rings (size 3 to 8) (size 9 to 14) (size 15 to 20)
#    0.000    1.429    2.857    2.571    0.000    1.143 
#    0.000   30.000    3.143    3.429    0.000    0.000 
#    0.000    0.000    0.000    0.000    0.000    0.000 
#
# Total GULP energy -78269.985676 kJ/mol
# GULP energy per Si atom -5590.713263 kJ/mol
# Density = 2.644683 g / cm^3
# Si number density = 26.507158 Si / 1000 Ang^3
#
#
#
# Elastic Constant Matrix: (Units=GPa)
#
#
# Indices 1 2 3 4 5 6 
#
# 1 200.5435 111.7626 113.7161 2.2019 12.6945 -0.1880
# 2 111.7626 170.0919 84.0111 -0.6963 -19.3297 -22.4950
# 3 113.7161 84.0111 267.7426 5.7073 -6.4609 -13.7766
# 4 2.2019 -0.6963 5.7073 28.0027 -11.2567 -11.8248
# 5 12.6945 -19.3297 -6.4609 -11.2567 67.3705 6.2575
# 6 -0.1880 -22.4950 -13.7766 -11.8248 6.2575 79.8868
#
#
#
# Elastic Compliance Matrix: (Units=1/GPa)
#
#
# Indices 1 2 3 4 5 6 
#
# 1 0.010215 -0.006268 -0.002527 -0.003136 -0.004275 -0.002306
# 2 -0.006268 0.011341 -0.000701 0.004232 0.004767 0.003311
# 3 -0.002527 -0.000701 0.005081 -0.000352 0.000650 0.000570
# 4 -0.003136 0.004232 -0.000352 0.042280 0.008210 0.006739
# 5 -0.004275 0.004767 0.000650 0.008210 0.018337 0.001223
# 6 -0.002306 0.003311 0.000570 0.006739 0.001223 0.014444
#
#
# Mechanical properties :
#
#
# Convention : Reuss Voigt Hill
#
# Bulk Modulus (GPa) = 130.80530 139.70639 135.25584
# Shear Modulus (GPa) = 40.57158 56.97787 48.77473
#
# Velocity S-wave (km/s) = 3.91652 4.64133 4.29424
# Velocity P-wave (km/s) = 8.36101 9.03007 8.70197
#
# Compressibility (1/GPa) = 0.00764495
#
# Stress axis : x y z
#
# Youngs Moduli (GPa) = 97.89321 88.17706 196.82208
#
# Poissons Ratio (x) = 0.55267 0.49736
# Poissons Ratio (y) = 0.61357 0.13802
# Poissons Ratio (z) = 0.24737 0.06184
#
# Static dielectric constant tensor:
#      x y z
#    x 6.917690 2.757480 2.460960 
#    y 2.757480 3.772640 1.385330 
#    z 2.460960 1.385330 3.328360 
# 
# From -- ./inp_files/382296.got.cif
#   From: 2010.05.17/outbox.cif.g08.bks.cpg/sg2_192_cif.got.tgz:382296.got - 2010.06.03 11:33:40.
