data_PCOD9035479
_publ_section_title
;
Structure prediction by ZEFSAII (Michael W. Deem and Ramdas Pophale) SiO2 
 PCOD9035479
Probable space group: P -1
;
_chemical_formula_sum "Si O2"
_cell_formula_units_Z 12
_cell_length_a 9.549025
_cell_length_b 7.366891
_cell_length_c 13.761860
_cell_angle_alpha 71.183013
_cell_angle_beta 147.021641
_cell_angle_gamma 121.596696
_cell_volume 434.320862
_symmetry_space_group_name_H-M "P -1"
_symmetry_group_IT_number 2
_symmetry_cell_setting 'triclinic'
loop_
_space_group_symop_operation_xyz
x,y,z
-x,-y,-z
loop_
_atom_site_type_symbol
_atom_site_label
_atom_site_fract_x
_atom_site_fract_y
_atom_site_fract_z
Si Si1 0.461370 0.691444 0.245132
Si Si2 0.784887 0.365340 0.690394
Si Si3 0.673093 0.787499 0.703110
Si Si4 0.218497 0.437608 0.778292
Si Si5 0.249417 0.832722 0.600420
Si Si6 0.206296 0.817210 0.911889
O O1 0.228429 0.666125 0.198149
O O2 0.477690 0.471811 0.309776
O O3 0.699810 0.942598 0.361299
O O4 0.336789 0.684375 0.068546
O O5 0.463807 0.232416 0.479859
O O6 0.971537 0.303516 0.739431
O O7 0.951856 0.631870 0.728814
O O8 0.522199 0.873608 0.678750
O O9 0.022957 0.881913 0.870967
O O10 0.246212 0.662146 0.709059
O O11 0.059694 0.276899 0.620783
O O12 0.500000 0.500000 0.000000
O O13 0.500000 0.000000 0.000000
#
# Coordination Sequence:
#
# PCOD9035479 Si02
#       6
#     2   2   2   2   2   2
#     4  11  23  43  70 100 137 180 237 284 344 424
#     4  10  22  46  66 100 139 186 232 282 358 415
#     4  10  23  46  73  92 145 188 220 300 345 411
#     4  10  23  44  72 100 151 179 226 306 342 409
#     4  10  24  47  68 107 138 186 238 277 360 421
#     4  11  23  41  66 102 139 177 238 286 344 417
#
# _framework density 27.629344
#
# number of rings (size 3 to 8) (size 9 to 14) (size 15 to 20)
#    0.000    1.667    0.000    5.000    4.667    3.333 
#   15.000   10.833    0.000    0.000    0.000    0.000 
#    0.000    0.000    0.000    0.000    0.000    0.000 
#
# Total GULP energy -66982.196209 kJ/mol
# GULP energy per Si atom -5581.849684 kJ/mol
# Density = 2.756646 g / cm^3
# Si number density = 27.629344 Si / 1000 Ang^3
#
#
#
# Elastic Constant Matrix: (Units=GPa)
#
#
# Indices 1 2 3 4 5 6 
#
# 1 88.6397 20.8739 24.8176 4.6069 7.0663 3.6595
# 2 20.8739 117.9645 10.1895 2.9995 10.7200 -24.0403
# 3 24.8176 10.1895 121.9094 -3.8329 17.0443 1.4017
# 4 4.6069 2.9995 -3.8329 46.9695 14.1446 -5.6815
# 5 7.0663 10.7200 17.0443 14.1446 39.7750 5.1946
# 6 3.6595 -24.0403 1.4017 -5.6815 5.1946 56.5491
#
#
#
# Elastic Compliance Matrix: (Units=1/GPa)
#
#
# Indices 1 2 3 4 5 6 
#
# 1 0.012679 -0.002419 -0.002446 -0.001612 0.000279 -0.001976
# 2 -0.002419 0.010180 0.000104 0.001226 -0.003437 0.004921
# 3 -0.002446 0.000104 0.009402 0.002457 -0.004579 0.000637
# 4 -0.001612 0.001226 0.002457 0.025260 -0.010612 0.004077
# 5 0.000279 -0.003437 -0.004579 -0.010612 0.032461 -0.005414
# 6 -0.001976 0.004921 0.000637 0.004077 -0.005414 0.020795
#
#
# Mechanical properties :
#
#
# Convention : Reuss Voigt Hill
#
# Bulk Modulus (GPa) = 43.97641 48.91951 46.44796
# Shear Modulus (GPa) = 39.09932 46.83424 42.96678
#
# Velocity S-wave (km/s) = 3.76591 4.12161 3.94777
# Velocity P-wave (km/s) = 5.90428 6.35565 6.13412
#
# Compressibility (1/GPa) = 0.02273946
#
# Stress axis : x y z
#
# Youngs Moduli (GPa) = 78.86875 98.22963 106.35827
#
# Poissons Ratio (x) = 0.23766 0.26014
# Poissons Ratio (y) = 0.19081 -0.01108
# Poissons Ratio (z) = 0.19290 -0.01023
#
# Static dielectric constant tensor:
#      x y z
#    x 2.236770 -0.041090 0.079460 
#    y -0.041090 2.273750 0.054700 
#    z 0.079460 0.054700 2.127810 
# 
# From -- ./inp_files/181996.got.cif
#   From: 2010.05.17/outbox.cif.g08.bks.cpg/sg2_91_cif.got.tgz:181996.got - 2010.06.03 11:33:40.
