data_PCOD9035720
_publ_section_title
;
Structure prediction by ZEFSAII (Michael W. Deem and Ramdas Pophale) SiO2 
 PCOD9035720
Probable space group: P -1
;
_chemical_formula_sum "Si O2"
_cell_formula_units_Z 16
_cell_length_a 16.270305
_cell_length_b 6.914328
_cell_length_c 7.850342
_cell_angle_alpha 84.878147
_cell_angle_beta 126.743869
_cell_angle_gamma 85.656460
_cell_volume 695.569059
_symmetry_space_group_name_H-M "P -1"
_symmetry_group_IT_number 2
_symmetry_cell_setting 'triclinic'
loop_
_space_group_symop_operation_xyz
x,y,z
-x,-y,-z
loop_
_atom_site_type_symbol
_atom_site_label
_atom_site_fract_x
_atom_site_fract_y
_atom_site_fract_z
Si Si1 0.387217 0.539277 0.435056
Si Si2 0.746829 0.735643 0.866638
Si Si3 0.156942 0.859154 0.567216
Si Si4 0.760423 0.099824 0.698690
Si Si5 0.653836 0.975080 0.048046
Si Si6 0.531071 0.683750 0.126071
Si Si7 0.964727 0.093736 0.133094
Si Si8 0.919879 0.449551 0.266151
O O1 0.500000 0.500000 0.500000
O O2 0.306711 0.451554 0.223794
O O3 0.347780 0.766253 0.405664
O O4 0.395829 0.413060 0.626254
O O5 0.756924 0.868485 0.702548
O O6 0.678363 0.881919 0.900616
O O7 0.855629 0.646842 0.093410
O O8 0.200725 0.812635 0.433985
O O9 0.150576 0.680825 0.702304
O O10 0.236993 0.990989 0.735408
O O11 0.038719 0.964079 0.371152
O O12 0.841046 0.106522 0.954011
O O13 0.595098 0.820027 0.085993
O O14 0.573069 0.179338 0.942511
O O15 0.500000 0.500000 0.000000
O O16 0.972779 0.314401 0.186866
O O17 0.000000 0.000000 0.000000
O O18 0.000000 0.500000 0.500000
#
# Coordination Sequence:
#
# PCOD9035720 Si02
#       8
#     2   2   2   2   2   2   2   2
#     4  12  26  43  70 100 144 194 239 295 368 433
#     4  12  26  43  71 101 145 183 243 295 366 435
#     4  11  24  44  76  99 148 188 240 304 370 436
#     4  11  24  47  68 103 144 187 243 299 365 442
#     4  11  25  43  70 107 139 191 239 307 364 438
#     4  11  25  45  71 101 147 184 251 301 368 430
#     4  10  22  46  71 103 143 190 233 305 366 439
#     4  12  25  45  73 112 145 192 250 306 369 444
#
# _framework density 23.002748
#
# number of rings (size 3 to 8) (size 9 to 14) (size 15 to 20)
#    0.000    0.750    1.250    5.625    5.250    4.000 
#    4.500    3.750    0.000    0.000    0.000    0.000 
#    0.000    0.000    0.000    0.000    0.000    0.000 
#
# Total GULP energy -89415.553883 kJ/mol
# GULP energy per Si atom -5588.472118 kJ/mol
# Density = 2.295039 g / cm^3
# Si number density = 23.002748 Si / 1000 Ang^3
#
#
#
# Elastic Constant Matrix: (Units=GPa)
#
#
# Indices 1 2 3 4 5 6 
#
# 1 75.9497 34.3282 23.1385 -11.2982 -11.1848 -10.0561
# 2 34.3282 120.4996 33.8113 -16.5834 -11.2919 -8.2173
# 3 23.1385 33.8113 94.1008 -7.5018 -1.0777 -0.7314
# 4 -11.2982 -16.5834 -7.5018 53.4138 2.4056 9.2881
# 5 -11.1848 -11.2919 -1.0777 2.4056 28.3116 5.2753
# 6 -10.0561 -8.2173 -0.7314 9.2881 5.2753 34.8794
#
#
#
# Elastic Compliance Matrix: (Units=1/GPa)
#
#
# Indices 1 2 3 4 5 6 
#
# 1 0.016719 -0.003152 -0.002788 0.001449 0.004570 0.002942
# 2 -0.003152 0.010544 -0.002821 0.001991 0.002572 0.000597
# 3 -0.002788 -0.002821 0.012341 0.000533 -0.001595 -0.001110
# 4 0.001449 0.001991 0.000533 0.020505 0.000509 -0.004639
# 5 0.004570 0.002572 -0.001595 0.000509 0.038816 -0.004116
# 6 0.002942 0.000597 -0.001110 -0.004639 -0.004116 0.031494
#
#
# Mechanical properties :
#
#
# Convention : Reuss Voigt Hill
#
# Bulk Modulus (GPa) = 45.28372 52.56735 48.92554
# Shear Modulus (GPa) = 32.19555 36.60576 34.40065
#
# Velocity S-wave (km/s) = 3.74523 3.99352 3.87137
# Velocity P-wave (km/s) = 6.19930 6.64579 6.42642
#
# Compressibility (1/GPa) = 0.02208299
#
# Stress axis : x y z
#
# Youngs Moduli (GPa) = 59.81277 94.84023 81.02811
#
# Poissons Ratio (x) = 0.29898 0.22587
# Poissons Ratio (y) = 0.18856 0.22855
# Poissons Ratio (z) = 0.16673 0.26751
#
# Static dielectric constant tensor:
#      x y z
#    x 1.750770 -0.095660 0.228730 
#    y -0.095660 1.796630 0.184610 
#    z 0.228730 0.184610 1.549240 
# 
# From -- ./inp_files/323749.got.cif
#   From: 2010.05.17/outbox.cif.g08.bks.cpg/sg2_162_cif.got.tgz:323749.got - 2010.06.03 11:33:40.
