data_PCOD9035333
_publ_section_title
;
Structure prediction by ZEFSAII (Michael W. Deem and Ramdas Pophale) SiO2 
 PCOD9035333
Probable space group: P -1
;
_chemical_formula_sum "Si O2"
_cell_formula_units_Z 14
_cell_length_a 8.568260
_cell_length_b 15.382469
_cell_length_c 8.466802
_cell_angle_alpha 136.257507
_cell_angle_beta 119.845506
_cell_angle_gamma 83.923139
_cell_volume 606.422472
_symmetry_space_group_name_H-M "P -1"
_symmetry_group_IT_number 2
_symmetry_cell_setting 'triclinic'
loop_
_space_group_symop_operation_xyz
x,y,z
-x,-y,-z
loop_
_atom_site_type_symbol
_atom_site_label
_atom_site_fract_x
_atom_site_fract_y
_atom_site_fract_z
Si Si1 0.263697 0.839356 0.108853
Si Si2 0.706322 0.622230 0.320957
Si Si3 0.714203 0.599854 0.674956
Si Si4 0.653000 0.154218 0.332545
Si Si5 0.985293 0.143096 0.692351
Si Si6 0.392117 0.133047 0.465663
Si Si7 0.111966 0.615047 0.487554
O O1 0.478381 0.854858 0.295951
O O2 0.143578 0.852830 0.215879
O O3 0.276843 0.966508 0.170567
O O4 0.159259 0.692423 0.780906
O O5 0.710322 0.626538 0.520539
O O6 0.724251 0.771139 0.463581
O O7 0.889037 0.593212 0.310460
O O8 0.500000 0.500000 0.000000
O O9 0.500000 0.500000 0.500000
O O10 0.858076 0.523694 0.676995
O O11 0.800530 0.736686 0.005108
O O12 0.544455 0.189004 0.470331
O O13 0.719845 0.273622 0.392903
O O14 0.859048 0.155779 0.498811
O O15 0.500000 0.000000 0.000000
O O16 0.000000 0.000000 0.500000
#
# Coordination Sequence:
#
# PCOD9035333 Si02
#       7
#     2   2   2   2   2   2   2
#     4  10  22  45  74 102 140 189 235 305 355 441
#     4  12  28  45  73 103 144 191 250 305 361 440
#     4  12  29  49  74 105 151 198 243 306 372 440
#     4  11  25  44  72 106 145 186 234 309 359 438
#     4  11  28  45  72 106 149 191 247 298 369 436
#     4  10  23  43  70 104 140 183 240 289 373 422
#     4  12  26  46  74 104 146 187 251 297 375 426
#
# _framework density 23.086214999999999
#
# number of rings (size 3 to 8) (size 9 to 14) (size 15 to 20)
#    0.000    0.857    2.857    2.143   12.000    1.143 
#    0.000    0.000    0.000    0.000    0.000    0.000 
#    0.000    0.000    0.000    0.000    0.000    0.000 
#
# Total GULP energy -78382.838780 kJ/mol
# GULP energy per Si atom -5598.774199 kJ/mol
# Density = 2.303367 g / cm^3
# Si number density = 23.086215 Si / 1000 Ang^3
#
#
#
# Elastic Constant Matrix: (Units=GPa)
#
#
# Indices 1 2 3 4 5 6 
#
# 1 73.9406 28.3111 16.6334 9.8641 10.5562 -10.6465
# 2 28.3111 109.8687 26.6039 16.7634 -4.9240 -9.9825
# 3 16.6334 26.6039 138.9319 9.9540 10.7115 -11.4644
# 4 9.8641 16.7634 9.9540 32.9174 -5.1567 -3.4491
# 5 10.5562 -4.9240 10.7115 -5.1567 37.2078 7.7432
# 6 -10.6465 -9.9825 -11.4644 -3.4491 7.7432 45.1447
#
#
#
# Elastic Compliance Matrix: (Units=1/GPa)
#
#
# Indices 1 2 3 4 5 6 
#
# 1 0.017004 -0.003687 -0.000222 -0.003767 -0.006599 0.003982
# 2 -0.003687 0.011144 -0.001569 -0.003673 0.002357 0.000511
# 3 -0.000222 -0.001569 0.008070 -0.001853 -0.003151 0.002049
# 4 -0.003767 -0.003673 -0.001853 0.034830 0.006058 -0.000549
# 5 -0.006599 0.002357 -0.003151 0.006058 0.032243 -0.006903
# 6 0.003982 0.000511 0.002049 -0.000549 -0.006903 0.024866
#
#
# Mechanical properties :
#
#
# Convention : Reuss Voigt Hill
#
# Bulk Modulus (GPa) = 39.58612 51.75976 45.67294
# Shear Modulus (GPa) = 33.89038 39.80018 36.84528
#
# Velocity S-wave (km/s) = 3.83559 4.15659 3.99931
# Velocity P-wave (km/s) = 6.06630 6.74575 6.41503
#
# Compressibility (1/GPa) = 0.02526138
#
# Stress axis : x y z
#
# Youngs Moduli (GPa) = 58.80906 89.73212 123.92161
#
# Poissons Ratio (x) = 0.33083 0.02757
# Poissons Ratio (y) = 0.21682 0.19443
# Poissons Ratio (z) = 0.01308 0.14078
#
# Static dielectric constant tensor:
#      x y z
#    x 1.864470 0.022700 0.024280 
#    y 0.022700 1.894820 -0.026750 
#    z 0.024280 -0.026750 1.871670 
# 
# From -- ./inp_files/209575.got.cif
#   From: 2010.05.17/outbox.cif.g08.bks.cpg/sg2_105_cif.got.tgz:209575.got - 2010.06.03 11:33:40.
