data_PCOD9035567
_publ_section_title
;
Structure prediction by ZEFSAII (Michael W. Deem and Ramdas Pophale) SiO2 
 PCOD9035567
Probable space group: P -1
;
_chemical_formula_sum "Si O2"
_cell_formula_units_Z 12
_cell_length_a 10.793341
_cell_length_b 8.659167
_cell_length_c 7.426939
_cell_angle_alpha 127.276750
_cell_angle_beta 70.408448
_cell_angle_gamma 119.867470
_cell_volume 478.401432
_symmetry_space_group_name_H-M "P -1"
_symmetry_group_IT_number 2
_symmetry_cell_setting 'triclinic'
loop_
_space_group_symop_operation_xyz
x,y,z
-x,-y,-z
loop_
_atom_site_type_symbol
_atom_site_label
_atom_site_fract_x
_atom_site_fract_y
_atom_site_fract_z
Si Si1 0.613601 0.740982 0.581834
Si Si2 0.138959 0.183678 0.765609
Si Si3 0.547883 0.984478 0.263484
Si Si4 0.780369 0.368565 0.532467
Si Si5 0.005487 0.698930 0.387953
Si Si6 0.312496 0.298362 0.112478
O O1 0.500000 0.500000 0.500000
O O2 0.710619 0.756448 0.372308
O O3 0.540472 0.909902 0.732234
O O4 0.719521 0.800622 0.743272
O O5 0.054843 0.305521 0.786730
O O6 0.048438 0.936929 0.604993
O O7 0.184401 0.226972 0.980950
O O8 0.712727 0.150201 0.304814
O O9 0.500000 0.000000 0.500000
O O10 0.556833 0.764611 0.053782
O O11 0.852460 0.341514 0.663625
O O12 0.659984 0.457902 0.698178
O O13 0.889713 0.534815 0.460717
#
# Coordination Sequence:
#
# PCOD9035567 Si02
#       6
#     2   2   2   2   2   2
#     4  12  24  45  70 102 141 173 227 287 334 406
#     4  11  23  44  70 102 134 183 227 277 340 398
#     4  12  24  45  70 102 141 173 227 287 334 406
#     4  11  23  44  70 102 134 183 227 277 340 398
#     4  10  22  46  68  94 150 170 224 300 314 398
#     4  12  25  43  74 101 130 190 223 268 359 399
#
# _framework density 25.083535999999999
#
# number of rings (size 3 to 8) (size 9 to 14) (size 15 to 20)
#    0.000    0.667    6.667    0.500    0.000    4.000 
#    0.000    5.000    0.000    0.000    0.000    0.000 
#    0.000    0.000    0.000    0.000    0.000    0.000 
#
# Total GULP energy -67078.166197 kJ/mol
# GULP energy per Si atom -5589.847183 kJ/mol
# Density = 2.502644 g / cm^3
# Si number density = 25.083536 Si / 1000 Ang^3
#
#
#
# Elastic Constant Matrix: (Units=GPa)
#
#
# Indices 1 2 3 4 5 6 
#
# 1 170.7618 33.8887 26.0300 -1.3548 4.8352 -67.3288
# 2 33.8887 103.9101 9.2672 4.0101 8.5083 -4.3288
# 3 26.0300 9.2672 65.4949 4.9746 0.7306 -22.1313
# 4 -1.3548 4.0101 4.9746 13.3849 -17.3636 2.1299
# 5 4.8352 8.5083 0.7306 -17.3636 61.2153 -2.1439
# 6 -67.3288 -4.3288 -22.1313 2.1299 -2.1439 69.1527
#
#
#
# Elastic Compliance Matrix: (Units=1/GPa)
#
#
# Indices 1 2 3 4 5 6 
#
# 1 0.010354 -0.002973 -0.000468 0.000774 0.000161 0.009726
# 2 -0.002973 0.011138 -0.000524 -0.007728 -0.003577 -0.002238
# 3 -0.000468 -0.000524 0.018379 -0.011877 -0.003280 0.005657
# 4 0.000774 -0.007728 -0.011877 0.132503 0.038514 -0.006418
# 5 0.000161 -0.003577 -0.003280 0.038514 0.027733 -0.001443
# 6 0.009726 -0.002238 0.005657 -0.006418 -0.001443 0.025753
#
#
# Mechanical properties :
#
#
# Convention : Reuss Voigt Hill
#
# Bulk Modulus (GPa) = 31.30828 53.17096 42.23962
# Shear Modulus (GPa) = 20.45515 46.81595 33.63555
#
# Velocity S-wave (km/s) = 2.85876 4.32487 3.66586
# Velocity P-wave (km/s) = 4.83791 6.79580 5.89866
#
# Compressibility (1/GPa) = 0.03194043
#
# Stress axis : x y z
#
# Youngs Moduli (GPa) = 96.58224 89.78345 54.41019
#
# Poissons Ratio (x) = 0.26692 0.02549
# Poissons Ratio (y) = 0.28713 0.02850
# Poissons Ratio (z) = 0.04525 0.04702
#
# Static dielectric constant tensor:
#      x y z
#    x 2.049800 0.009980 -0.000440 
#    y 0.009980 1.965990 -0.009220 
#    z -0.000440 -0.009220 1.974090 
# 
# From -- ./inp_files/236146.got.cif
#   From: 2010.05.17/outbox.cif.g08.bks.cpg/sg2_119_cif.got.tgz:236146.got - 2010.06.03 11:33:40.
