data_PCOD9035857
_publ_section_title
;
Structure prediction by ZEFSAII (Michael W. Deem and Ramdas Pophale) SiO2 
 PCOD9035857
Probable space group: P -1
;
_chemical_formula_sum "Si O2"
_cell_formula_units_Z 12
_cell_length_a 5.351859
_cell_length_b 5.023713
_cell_length_c 19.583277
_cell_angle_alpha 85.210155
_cell_angle_beta 59.376698
_cell_angle_gamma 97.430599
_cell_volume 442.346117
_symmetry_space_group_name_H-M "P -1"
_symmetry_group_IT_number 2
_symmetry_cell_setting 'triclinic'
loop_
_space_group_symop_operation_xyz
x,y,z
-x,-y,-z
loop_
_atom_site_type_symbol
_atom_site_label
_atom_site_fract_x
_atom_site_fract_y
_atom_site_fract_z
Si Si1 0.165517 0.707912 0.530172
Si Si2 0.994098 0.150548 0.238421
Si Si3 0.370596 0.995119 0.372430
Si Si4 0.064658 0.607433 0.314183
Si Si5 0.257184 0.262979 0.945472
Si Si6 0.857118 0.455001 0.907798
O O1 0.000000 0.500000 0.500000
O O2 0.924069 0.881822 0.583949
O O3 0.207713 0.532983 0.594698
O O4 0.415366 0.896617 0.445737
O O5 0.660131 0.185299 0.299105
O O6 0.169824 0.374345 0.261127
O O7 0.088153 0.266448 0.148653
O O8 0.007607 0.847991 0.267268
O O9 0.303219 0.750856 0.332762
O O10 0.597803 0.240912 0.910447
O O11 0.164429 0.360345 0.882679
O O12 0.239067 0.482388 0.003314
O O13 0.000000 0.000000 0.000000
#
# Coordination Sequence:
#
# PCOD9035857 Si02
#       6
#     2   2   2   2   2   2
#     4   9  20  43  68  91 135 182 234 296 343 421
#     4  12  28  41  69 102 137 183 229 288 364 414
#     4  10  23  45  65  96 137 180 234 297 352 413
#     4  11  25  44  63  99 136 178 233 285 353 418
#     4  10  22  46  74 101 142 182 237 278 354 422
#     4  10  25  43  69 109 137 185 233 289 346 433
#
# _framework density 27.128077999999999
#
# number of rings (size 3 to 8) (size 9 to 14) (size 15 to 20)
#    0.000    1.667    1.667    0.500    9.333    2.667 
#    0.000    0.000    0.000    0.000    0.000    0.000 
#    0.000    0.000    0.000    0.000    0.000    0.000 
#
# Total GULP energy -67095.628696 kJ/mol
# GULP energy per Si atom -5591.302391 kJ/mol
# Density = 2.706633 g / cm^3
# Si number density = 27.128078 Si / 1000 Ang^3
#
#
#
# Elastic Constant Matrix: (Units=GPa)
#
#
# Indices 1 2 3 4 5 6 
#
# 1 161.5162 36.0636 54.4744 -22.4217 11.2074 6.3645
# 2 36.0636 102.3863 18.2320 -21.2460 2.6995 -5.3314
# 3 54.4744 18.2320 123.9152 -39.6082 14.2396 -13.0152
# 4 -22.4217 -21.2460 -39.6082 48.8674 -7.4807 7.9030
# 5 11.2074 2.6995 14.2396 -7.4807 46.8859 -14.7302
# 6 6.3645 -5.3314 -13.0152 7.9030 -14.7302 43.7187
#
#
#
# Elastic Compliance Matrix: (Units=1/GPa)
#
#
# Indices 1 2 3 4 5 6 
#
# 1 0.008085 -0.002321 -0.003237 0.000307 -0.001729 -0.003062
# 2 -0.002321 0.011417 0.000824 0.004457 0.000812 0.001443
# 3 -0.003237 0.000824 0.012422 0.008403 -0.000941 0.002434
# 4 0.000307 0.004457 0.008403 0.029865 0.001263 -0.001973
# 5 -0.001729 0.000812 -0.000941 0.001263 0.024753 0.008182
# 6 -0.003062 0.001443 0.002434 -0.001973 0.008182 0.027333
#
#
# Mechanical properties :
#
#
# Convention : Reuss Voigt Hill
#
# Bulk Modulus (GPa) = 44.53826 67.26196 55.90011
# Shear Modulus (GPa) = 38.21783 46.49759 42.35771
#
# Velocity S-wave (km/s) = 3.75746 4.14454 3.95574
# Velocity P-wave (km/s) = 5.93954 6.91021 6.44318
#
# Compressibility (1/GPa) = 0.02245261
#
# Stress axis : x y z
#
# Youngs Moduli (GPa) = 123.69005 87.59240 80.50349
#
# Poissons Ratio (x) = 0.20334 0.26063
# Poissons Ratio (y) = 0.28713 -0.06631
# Poissons Ratio (z) = 0.40044 -0.07215
#
# Static dielectric constant tensor:
#      x y z
#    x 2.219770 -0.042550 -0.033120 
#    y -0.042550 2.199540 -0.047230 
#    z -0.033120 -0.047230 2.143950 
# 
# From -- ./inp_files/8640.got.cif
#   From: 2010.05.17/outbox.cif.g08.bks.cpg/sg2_5_cif.got.tgz:8640.got - 2010.06.03 11:33:40.
