data_PCOD9035244
_publ_section_title
;
Structure prediction by ZEFSAII (Michael W. Deem and Ramdas Pophale) SiO2 
 PCOD9035244
Probable space group: P -1
;
_chemical_formula_sum "Si O2"
_cell_formula_units_Z 16
_cell_length_a 8.583811
_cell_length_b 14.887927
_cell_length_c 8.337527
_cell_angle_alpha 120.040612
_cell_angle_beta 124.890861
_cell_angle_gamma 87.576280
_cell_volume 710.467509
_symmetry_space_group_name_H-M "P -1"
_symmetry_group_IT_number 2
_symmetry_cell_setting 'triclinic'
loop_
_space_group_symop_operation_xyz
x,y,z
-x,-y,-z
loop_
_atom_site_type_symbol
_atom_site_label
_atom_site_fract_x
_atom_site_fract_y
_atom_site_fract_z
Si Si1 0.083669 0.191468 0.131258
Si Si2 0.830947 0.905396 0.411459
Si Si3 0.452779 0.916414 0.043937
Si Si4 0.493038 0.574712 0.712076
Si Si5 0.806658 0.300327 0.470211
Si Si6 0.864892 0.577193 0.450481
Si Si7 0.260912 0.037930 0.234797
Si Si8 0.945461 0.731956 0.172717
O O1 0.106524 0.309685 0.329396
O O2 0.267588 0.143891 0.224361
O O3 0.031842 0.204482 0.927219
O O4 0.915385 0.081751 0.008461
O O5 0.775790 0.932538 0.579875
O O6 0.918173 0.807547 0.369388
O O7 0.631066 0.872846 0.157389
O O8 0.000000 0.000000 0.500000
O O9 0.269459 0.811410 0.779581
O O10 0.500000 0.000000 0.000000
O O11 0.442192 0.995823 0.257106
O O12 0.500000 0.500000 0.500000
O O13 0.360064 0.645583 0.628069
O O14 0.362840 0.502126 0.717443
O O15 0.726676 0.637971 0.946225
O O16 0.032019 0.377152 0.616330
O O17 0.849892 0.289113 0.674146
O O18 0.000000 0.500000 0.500000
#
# Coordination Sequence:
#
# PCOD9035244 Si02
#       8
#     2   2   2   2   2   2   2   2
#     4  11  22  42  70 102 140 181 235 292 353 421
#     4  12  24  43  67 102 141 185 235 285 353 428
#     4  12  25  42  67 102 144 184 233 287 352 423
#     4  11  24  45  73 101 136 183 239 299 349 412
#     4  11  25  45  69 102 142 182 232 293 353 420
#     4  10  22  45  72  96 138 185 231 294 354 408
#     4  11  25  41  70 103 140 189 234 288 357 424
#     4  12  24  43  73 105 141 184 236 294 356 423
#
# _framework density 22.520382999999999
#
# number of rings (size 3 to 8) (size 9 to 14) (size 15 to 20)
#    0.000    0.750    5.000    2.625    3.500    1.000 
#    0.000    0.000    0.000    0.000    0.000    0.000 
#    0.000    0.000    0.000    0.000    0.000    0.000 
#
# Total GULP energy -89092.537641 kJ/mol
# GULP energy per Si atom -5568.283603 kJ/mol
# Density = 2.246913 g / cm^3
# Si number density = 22.520383 Si / 1000 Ang^3
#
#
#
# Elastic Constant Matrix: (Units=GPa)
#
#
# Indices 1 2 3 4 5 6 
#
# 1 44.3421 19.8379 22.7981 -1.0508 -14.4926 -6.8136
# 2 19.8379 128.8444 48.6900 -3.5393 0.5859 -11.0285
# 3 22.7981 48.6900 105.5364 -7.7442 4.1637 -10.9557
# 4 -1.0508 -3.5393 -7.7442 41.7980 -7.7963 -3.9455
# 5 -14.4926 0.5859 4.1637 -7.7963 38.9828 6.3816
# 6 -6.8136 -11.0285 -10.9557 -3.9455 6.3816 32.9764
#
#
#
# Elastic Compliance Matrix: (Units=1/GPa)
#
#
# Indices 1 2 3 4 5 6 
#
# 1 0.030884 -0.002467 -0.005718 0.001940 0.012270 0.001514
# 2 -0.002467 0.009699 -0.003726 0.000054 -0.000930 0.001682
# 3 -0.005718 -0.003726 0.012971 0.001533 -0.003601 0.002762
# 4 0.001940 0.000054 0.001533 0.025508 0.005170 0.002980
# 5 0.012270 -0.000930 -0.003601 0.005170 0.032403 -0.004624
# 6 0.001514 0.001682 0.002762 0.002980 -0.004624 0.033369
#
#
# Mechanical properties :
#
#
# Convention : Reuss Voigt Hill
#
# Bulk Modulus (GPa) = 33.63475 51.26389 42.44932
# Shear Modulus (GPa) = 28.00044 35.24456 31.62250
#
# Velocity S-wave (km/s) = 3.52992 3.96031 3.75129
# Velocity P-wave (km/s) = 5.61974 6.61247 6.13622
#
# Compressibility (1/GPa) = 0.02973116
#
# Stress axis : x y z
#
# Youngs Moduli (GPa) = 32.37879 103.10208 77.09445
#
# Poissons Ratio (x) = 0.25439 0.44082
# Poissons Ratio (y) = 0.07989 0.28729
# Poissons Ratio (z) = 0.18514 0.38421
#
# Static dielectric constant tensor:
#      x y z
#    x 1.930130 -0.006570 0.046720 
#    y -0.006570 1.932900 0.020590 
#    z 0.046720 0.020590 1.875970 
# 
# From -- ./inp_files/203817.got.cif
#   From: 2010.05.17/outbox.cif.g08.bks.cpg/sg2_102_cif.got.tgz:203817.got - 2010.06.03 11:33:40.
