data_PCOD9035210
_publ_section_title
;
Structure prediction by ZEFSAII (Michael W. Deem and Ramdas Pophale) SiO2 
 PCOD9035210
Probable space group: P -1
;
_chemical_formula_sum "Si O2"
_cell_formula_units_Z 16
_cell_length_a 7.736409
_cell_length_b 23.243477
_cell_length_c 8.309924
_cell_angle_alpha 59.108432
_cell_angle_beta 84.743591
_cell_angle_gamma 38.555586
_cell_volume 651.428722
_symmetry_space_group_name_H-M "P -1"
_symmetry_group_IT_number 2
_symmetry_cell_setting 'triclinic'
loop_
_space_group_symop_operation_xyz
x,y,z
-x,-y,-z
loop_
_atom_site_type_symbol
_atom_site_label
_atom_site_fract_x
_atom_site_fract_y
_atom_site_fract_z
Si Si1 0.390945 0.498391 0.779025
Si Si2 0.588985 0.740699 0.182929
Si Si3 0.826640 0.213518 0.663729
Si Si4 0.331134 0.936923 0.096880
Si Si5 0.187309 0.868593 0.714884
Si Si6 0.058863 0.774964 0.722307
Si Si7 0.692817 0.514547 0.560614
Si Si8 0.713790 0.768421 0.627410
O O1 0.642175 0.477266 0.759181
O O2 0.283489 0.519306 0.575165
O O3 0.072726 0.626512 0.727017
O O4 0.600454 0.368399 0.022840
O O5 0.469008 0.744457 0.352095
O O6 0.602588 0.815072 0.121227
O O7 0.916028 0.594156 0.295426
O O8 0.298968 0.828675 0.947282
O O9 0.870082 0.228319 0.463093
O O10 0.650110 0.327974 0.625749
O O11 0.179208 0.060990 0.901195
O O12 0.488642 0.873834 0.349444
O O13 0.000000 0.000000 0.000000
O O14 0.985710 0.868964 0.683303
O O15 0.526936 0.767353 0.725063
O O16 0.000000 0.000000 0.500000
O O17 0.788278 0.804249 0.694782
#
# Coordination Sequence:
#
# PCOD9035210 Si02
#       8
#     2   2   2   2   2   2   2   2
#     4  11  25  46  70 107 151 189 244 307 368 438
#     4  11  22  43  71 103 146 198 243 305 369 429
#     4  11  23  41  69 104 144 186 246 303 357 437
#     4  10  22  45  72 102 146 189 245 299 360 440
#     4  12  27  48  74 108 151 194 247 307 363 444
#     4  12  27  46  74 112 149 190 244 303 370 444
#     4  11  23  44  71 104 145 190 251 308 359 433
#     4  12  25  49  76 105 150 199 239 305 377 430
#
# _framework density 24.561398000000001
#
# number of rings (size 3 to 8) (size 9 to 14) (size 15 to 20)
#    0.000    0.750    2.500    6.000    1.750    1.500 
#    0.000    2.500    0.000    0.000    0.000    0.000 
#    0.000    0.000    0.000    0.000    0.000    0.000 
#
# Total GULP energy -89411.507573 kJ/mol
# GULP energy per Si atom -5588.219223 kJ/mol
# Density = 2.450550 g / cm^3
# Si number density = 24.561398 Si / 1000 Ang^3
#
#
#
# Elastic Constant Matrix: (Units=GPa)
#
#
# Indices 1 2 3 4 5 6 
#
# 1 56.8680 6.2095 12.2453 -9.3487 6.0589 20.2304
# 2 6.2095 82.2132 22.4102 -13.9642 -4.4199 16.3897
# 3 12.2453 22.4102 118.9937 -17.4641 -9.3477 4.0291
# 4 -9.3487 -13.9642 -17.4641 43.2985 6.5918 -7.7541
# 5 6.0589 -4.4199 -9.3477 6.5918 37.0159 2.2898
# 6 20.2304 16.3897 4.0291 -7.7541 2.2898 38.3818
#
#
#
# Elastic Compliance Matrix: (Units=1/GPa)
#
#
# Indices 1 2 3 4 5 6 
#
# 1 0.022947 0.001475 -0.002100 0.003098 -0.003942 -0.011643
# 2 0.001475 0.014403 -0.002173 0.002860 0.000802 -0.006170
# 3 -0.002100 -0.002173 0.009520 0.002654 0.001926 0.001456
# 4 0.003098 0.002860 0.002654 0.026893 -0.004443 0.002565
# 5 -0.003942 0.000802 0.001926 -0.004443 0.029102 -0.001101
# 6 -0.011643 -0.006170 0.001456 0.002565 -0.001101 0.035257
#
#
# Mechanical properties :
#
#
# Convention : Reuss Voigt Hill
#
# Bulk Modulus (GPa) = 24.22763 37.75609 30.99186
# Shear Modulus (GPa) = 31.75078 38.21989 34.98533
#
# Velocity S-wave (km/s) = 3.59933 3.94902 3.77822
# Velocity P-wave (km/s) = 5.21144 6.01652 5.62839
#
# Compressibility (1/GPa) = 0.04127518
#
# Stress axis : x y z
#
# Youngs Moduli (GPa) = 43.57868 69.42873 105.03650
#
# Poissons Ratio (x) = -0.10239 0.22056
# Poissons Ratio (y) = -0.06427 0.22821
# Poissons Ratio (z) = 0.09151 0.15084
#
# Static dielectric constant tensor:
#      x y z
#    x 2.083340 0.029980 -0.029080 
#    y 0.029980 2.032050 -0.077770 
#    z -0.029080 -0.077770 1.926570 
# 
# From -- ./inp_files/227378.got.cif
#   From: 2010.05.17/outbox.cif.g08.bks.cpg/sg2_114_cif.got.tgz:227378.got - 2010.06.03 11:33:40.
