data_PCOD9035038
_publ_section_title
;
Structure prediction by ZEFSAII (Michael W. Deem and Ramdas Pophale) SiO2 
 PCOD9035038
Probable space group: P -1
;
_chemical_formula_sum "Si O2"
_cell_formula_units_Z 14
_cell_length_a 6.248909
_cell_length_b 14.960599
_cell_length_c 9.908805
_cell_angle_alpha 127.187533
_cell_angle_beta 114.038875
_cell_angle_gamma 46.026195
_cell_volume 530.974682
_symmetry_space_group_name_H-M "P -1"
_symmetry_group_IT_number 2
_symmetry_cell_setting 'triclinic'
loop_
_space_group_symop_operation_xyz
x,y,z
-x,-y,-z
loop_
_atom_site_type_symbol
_atom_site_label
_atom_site_fract_x
_atom_site_fract_y
_atom_site_fract_z
Si Si1 0.338238 0.528337 0.123329
Si Si2 0.772236 0.633863 0.913194
Si Si3 0.184130 0.126314 0.220658
Si Si4 0.150773 0.550007 0.479019
Si Si5 0.796573 0.873423 0.068724
Si Si6 0.232229 0.791326 0.352382
Si Si7 0.735481 0.020712 0.626734
O O1 0.459402 0.381279 0.089343
O O2 0.372534 0.636636 0.305757
O O3 0.500000 0.500000 0.000000
O O4 0.000155 0.604263 0.061727
O O5 0.902004 0.505867 0.722633
O O6 0.690126 0.774022 0.947940
O O7 0.195086 0.023479 0.239851
O O8 0.036457 0.281123 0.386086
O O9 0.530492 0.035498 0.185700
O O10 0.065830 0.137178 0.049910
O O11 0.500000 0.500000 0.500000
O O12 0.000000 0.500000 0.500000
O O13 0.009003 0.819787 0.202003
O O14 0.044638 0.905924 0.524738
O O15 0.411510 0.825782 0.338863
O O16 0.500000 0.000000 0.500000
#
# Coordination Sequence:
#
# PCOD9035038 Si02
#       7
#     2   2   2   2   2   2   2
#     4  10  23  39  71 102 134 189 236 304 365 440
#     4  10  23  46  68 101 145 186 247 300 372 440
#     4  11  24  44  73 104 142 187 239 305 373 430
#     4  12  28  50  74 107 148 200 248 307 371 454
#     4  10  22  45  70 106 141 181 245 301 368 437
#     4  10  23  41  64 100 135 176 242 289 359 436
#     4  11  23  43  66  97 137 184 225 297 358 438
#
# _framework density 26.366603999999999
#
# number of rings (size 3 to 8) (size 9 to 14) (size 15 to 20)
#    0.000    1.429    2.857    0.857    4.000    4.000 
#    0.000    0.000    0.000    0.000    0.000    0.000 
#    0.000    0.000    0.000    0.000    0.000    0.000 
#
# Total GULP energy -77977.393137 kJ/mol
# GULP energy per Si atom -5569.813795 kJ/mol
# Density = 2.630659 g / cm^3
# Si number density = 26.366604 Si / 1000 Ang^3
#
#
#
# Elastic Constant Matrix: (Units=GPa)
#
#
# Indices 1 2 3 4 5 6 
#
# 1 113.3783 85.9592 49.0054 14.5455 7.7300 31.2296
# 2 85.9592 114.2184 36.6879 -7.2865 0.1659 29.5628
# 3 49.0054 36.6879 135.1380 2.7055 -10.6916 7.9340
# 4 14.5455 -7.2865 2.7055 50.3130 18.9283 -15.3484
# 5 7.7300 0.1659 -10.6916 18.9283 43.0161 3.4130
# 6 31.2296 29.5628 7.9340 -15.3484 3.4130 51.3551
#
#
#
# Elastic Compliance Matrix: (Units=1/GPa)
#
#
# Indices 1 2 3 4 5 6 
#
# 1 0.030902 -0.019767 -0.004788 -0.015371 0.000996 -0.011333
# 2 -0.019767 0.023821 0.000359 0.009865 -0.000891 0.001260
# 3 -0.004788 0.000359 0.009205 0.000164 0.002985 0.001133
# 4 -0.015371 0.009865 0.000164 0.035724 -0.014166 0.015261
# 5 0.000996 -0.000891 0.002985 -0.014166 0.030588 -0.006820
# 6 -0.011333 0.001260 0.001133 0.015261 -0.006820 0.030478
#
#
# Mechanical properties :
#
#
# Convention : Reuss Voigt Hill
#
# Bulk Modulus (GPa) = 64.36538 78.44887 71.40712
# Shear Modulus (GPa) = 23.33316 41.67564 32.50440
#
# Velocity S-wave (km/s) = 2.97804 3.98002 3.51492
# Velocity P-wave (km/s) = 6.02409 7.13712 6.60409
#
# Compressibility (1/GPa) = 0.01553630
#
# Stress axis : x y z
#
# Youngs Moduli (GPa) = 32.36052 41.98016 108.63917
#
# Poissons Ratio (x) = 0.82983 0.52012
# Poissons Ratio (y) = 0.63968 -0.03903
# Poissons Ratio (z) = 0.15493 -0.01508
#
# Static dielectric constant tensor:
#      x y z
#    x 2.223400 -0.011260 -0.047010 
#    y -0.011260 2.260470 -0.027150 
#    z -0.047010 -0.027150 1.946630 
# 
# From -- ./inp_files/368055.got.cif
#   From: 2010.05.17/outbox.cif.g08.bks.cpg/sg2_185_cif.got.tgz:368055.got - 2010.06.03 11:33:40.
