data_PCOD9035011
_publ_section_title
;
Structure prediction by ZEFSAII (Michael W. Deem and Ramdas Pophale) SiO2 
 PCOD9035011
Probable space group: P -1
;
_chemical_formula_sum "Si O2"
_cell_formula_units_Z 15
_cell_length_a 5.294830
_cell_length_b 9.505754
_cell_length_c 14.623250
_cell_angle_alpha 70.560948
_cell_angle_beta 68.211634
_cell_angle_gamma 93.478843
_cell_volume 630.047651
_symmetry_space_group_name_H-M "P -1"
_symmetry_group_IT_number 2
_symmetry_cell_setting 'triclinic'
loop_
_space_group_symop_operation_xyz
x,y,z
-x,-y,-z
loop_
_atom_site_type_symbol
_atom_site_label
_atom_site_fract_x
_atom_site_fract_y
_atom_site_fract_z
Si Si1 0.000000 0.500000 0.000000
Si Si2 0.310776 0.101446 0.624861
Si Si3 0.132955 0.182437 0.237771
Si Si4 0.386440 0.806067 0.951077
Si Si5 0.664719 0.864366 0.597739
Si Si6 0.064152 0.277516 0.759704
Si Si7 0.594846 0.850715 0.103485
Si Si8 0.181551 0.582840 0.778881
O O1 0.838913 0.346324 0.999823
O O2 0.746261 0.475207 0.119779
O O3 0.253787 0.125715 0.520686
O O4 0.256983 0.246208 0.656178
O O5 0.582010 0.025082 0.602414
O O6 0.087614 0.964943 0.731647
O O7 0.431312 0.163762 0.170926
O O8 0.118513 0.177968 0.350357
O O9 0.073305 0.338493 0.172536
O O10 0.303896 0.966253 0.948151
O O11 0.587546 0.792622 0.012708
O O12 0.402261 0.723980 0.677581
O O13 0.210671 0.213319 0.839347
O O14 0.093031 0.454530 0.743015
O O15 0.735287 0.199802 0.811968
#
# Coordination Sequence:
#
# PCOD9035011 Si02
#       8
#     1   2   2   2   2   2   2   2
#     4  12  24  42  66 100 146 188 238 286 360 422
#     4  10  23  43  74  99 134 183 242 295 367 419
#     4  11  22  42  69 102 134 180 239 299 353 430
#     4  11  24  43  71 105 140 194 237 303 359 431
#     4  10  22  45  70 102 135 180 239 303 354 431
#     4  12  26  48  69 104 145 194 238 297 361 437
#     4  11  27  45  72 104 147 187 248 294 363 430
#     4  11  27  40  66 101 143 184 237 290 359 425
#
# _framework density 23.807721999999998
#
# number of rings (size 3 to 8) (size 9 to 14) (size 15 to 20)
#    0.000    1.067    4.000    1.200    5.600    3.200 
#    0.000    0.667    0.000    0.000    0.000    0.000 
#    0.000    0.000    0.000    0.000    0.000    0.000 
#
# Total GULP energy -83572.448571 kJ/mol
# GULP energy per Si atom -5571.496571 kJ/mol
# Density = 2.375353 g / cm^3
# Si number density = 23.807722 Si / 1000 Ang^3
#
#
#
# Elastic Constant Matrix: (Units=GPa)
#
#
# Indices 1 2 3 4 5 6 
#
# 1 69.3042 18.1010 -0.4494 -8.9979 -2.6694 9.5832
# 2 18.1010 141.5095 24.1942 14.9046 -20.3216 18.8927
# 3 -0.4494 24.1942 84.2642 18.4254 -20.9178 3.2179
# 4 -8.9979 14.9046 18.4254 37.9102 4.2687 -3.3224
# 5 -2.6694 -20.3216 -20.9178 4.2687 26.2660 -7.1931
# 6 9.5832 18.8927 3.2179 -3.3224 -7.1931 28.5786
#
#
#
# Elastic Compliance Matrix: (Units=1/GPa)
#
#
# Indices 1 2 3 4 5 6 
#
# 1 0.016132 -0.002337 -0.000922 0.005172 -0.002802 -0.003864
# 2 -0.002337 0.009513 0.000467 -0.005721 0.007217 -0.004406
# 3 -0.000922 0.000467 0.018330 -0.011138 0.016922 0.000901
# 4 0.005172 -0.005721 -0.011138 0.037572 -0.018018 0.003134
# 5 -0.002802 0.007217 0.016922 -0.018018 0.061898 0.007747
# 6 -0.003864 -0.004406 0.000901 0.003134 0.007747 0.041413
#
#
# Mechanical properties :
#
#
# Convention : Reuss Voigt Hill
#
# Bulk Modulus (GPa) = 26.04789 42.08551 34.06670
# Shear Modulus (GPa) = 24.60167 35.43311 30.01739
#
# Velocity S-wave (km/s) = 3.21806 3.86204 3.55466
# Velocity P-wave (km/s) = 4.97721 6.13211 5.58459
#
# Compressibility (1/GPa) = 0.03839082
#
# Stress axis : x y z
#
# Youngs Moduli (GPa) = 61.99031 105.11891 54.55453
#
# Poissons Ratio (x) = 0.24567 0.05029
# Poissons Ratio (y) = 0.14487 -0.02547
# Poissons Ratio (z) = 0.05715 -0.04908
#
# Static dielectric constant tensor:
#      x y z
#    x 1.965410 0.004050 -0.049700 
#    y 0.004050 1.829970 0.092680 
#    z -0.049700 0.092680 1.802250 
# 
# From -- ./inp_files/36246.got.cif
#   From: 2010.05.17/outbox.cif.g08.bks.cpg/sg2_19_cif.got.tgz:36246.got - 2010.06.03 11:33:40.
