data_PCOD9035258
_publ_section_title
;
Structure prediction by ZEFSAII (Michael W. Deem and Ramdas Pophale) SiO2 
 PCOD9035258
Probable space group: P -1
;
_chemical_formula_sum "Si O2"
_cell_formula_units_Z 15
_cell_length_a 15.360220
_cell_length_b 7.284463
_cell_length_c 7.302895
_cell_angle_alpha 116.567064
_cell_angle_beta 103.012046
_cell_angle_gamma 115.612525
_cell_volume 563.371950
_symmetry_space_group_name_H-M "P -1"
_symmetry_group_IT_number 2
_symmetry_cell_setting 'triclinic'
loop_
_space_group_symop_operation_xyz
x,y,z
-x,-y,-z
loop_
_atom_site_type_symbol
_atom_site_label
_atom_site_fract_x
_atom_site_fract_y
_atom_site_fract_z
Si Si1 0.633310 0.423528 0.160479
Si Si2 0.240061 0.578491 0.278765
Si Si3 0.500000 0.500000 0.500000
Si Si4 0.313351 0.255092 0.991748
Si Si5 0.872908 0.754779 0.564047
Si Si6 0.526088 0.144723 0.331468
Si Si7 0.882214 0.227596 0.870458
Si Si8 0.917191 0.196024 0.293984
O O1 0.762877 0.534754 0.297558
O O2 0.579996 0.396835 0.326259
O O3 0.622709 0.596609 0.096822
O O4 0.560081 0.131544 0.919666
O O5 0.259418 0.398514 0.091846
O O6 0.153435 0.386544 0.312638
O O7 0.360275 0.799552 0.525318
O O8 0.203323 0.715483 0.199691
O O9 0.385407 0.284679 0.211935
O O10 0.481640 0.251523 0.495223
O O11 0.206976 0.966114 0.753318
O O12 0.001902 0.875854 0.638085
O O13 0.864224 0.987229 0.655252
O O14 0.886989 0.161543 0.051434
O O15 0.000000 0.500000 0.000000
O O16 0.000000 0.500000 0.500000
#
# Coordination Sequence:
#
# PCOD9035258 Si02
#       8
#     2   2   1   2   2   2   2   2
#     4  10  24  44  69  98 142 181 223 296 355 411
#     4  10  22  45  73 100 136 184 236 289 347 420
#     4  10  24  44  76  98 138 180 238 294 346 414
#     4  11  25  44  68 107 142 181 236 295 349 423
#     4  11  24  48  67 103 145 181 237 288 340 433
#     4   9  22  48  69 102 136 181 233 294 348 427
#     4  12  24  43  74  95 132 195 233 281 352 414
#     4  12  28  44  69 106 147 185 232 296 348 418
#
# _framework density 26.625397
#
# number of rings (size 3 to 8) (size 9 to 14) (size 15 to 20)
#    0.000    1.333    2.667    1.200    5.600    4.267 
#    4.800    0.000    0.000    0.000    0.000    0.000 
#    0.000    0.000    0.000    0.000    0.000    0.000 
#
# Total GULP energy -83791.215357 kJ/mol
# GULP energy per Si atom -5586.081024 kJ/mol
# Density = 2.656480 g / cm^3
# Si number density = 26.625397 Si / 1000 Ang^3
#
#
#
# Elastic Constant Matrix: (Units=GPa)
#
#
# Indices 1 2 3 4 5 6 
#
# 1 91.9169 38.9643 38.0571 -11.5233 39.3000 -27.9442
# 2 38.9643 107.9488 42.3015 3.3920 19.2106 5.7880
# 3 38.0571 42.3015 140.4961 11.0953 43.6128 -2.4783
# 4 -11.5233 3.3920 11.0953 47.1592 -2.3442 3.4331
# 5 39.3000 19.2106 43.6128 -2.3442 46.7251 -8.5505
# 6 -27.9442 5.7880 -2.4783 3.4331 -8.5505 48.2852
#
#
#
# Elastic Compliance Matrix: (Units=1/GPa)
#
#
# Indices 1 2 3 4 5 6 
#
# 1 0.024739 -0.006985 0.000050 0.004886 -0.015530 0.012059
# 2 -0.006985 0.012757 -0.002523 -0.001552 0.001948 -0.005246
# 3 0.000050 -0.002523 0.011047 -0.002838 -0.009567 -0.000594
# 4 0.004886 -0.001552 -0.002838 0.023110 0.000580 0.001327
# 5 -0.015530 0.001948 -0.009567 0.000580 0.042205 -0.002280
# 6 0.012059 -0.005246 -0.000594 0.001327 -0.002280 0.027790
#
#
# Mechanical properties :
#
#
# Convention : Reuss Voigt Hill
#
# Bulk Modulus (GPa) = 33.75510 64.33419 49.04465
# Shear Modulus (GPa) = 29.33564 43.16981 36.25272
#
# Velocity S-wave (km/s) = 3.32293 4.03100 3.69397
# Velocity P-wave (km/s) = 5.23715 6.77351 6.05426
#
# Compressibility (1/GPa) = 0.02962515
#
# Stress axis : x y z
#
# Youngs Moduli (GPa) = 40.42251 78.38625 90.51958
#
# Poissons Ratio (x) = 0.54756 -0.00450
# Poissons Ratio (y) = 0.28237 0.22842
# Poissons Ratio (z) = -0.00201 0.19781
#
# Static dielectric constant tensor:
#      x y z
#    x 0.688900 0.229910 0.429490 
#    y 0.229910 2.126830 -0.078970 
#    z 0.429490 -0.078970 1.872730 
# 
# From -- ./inp_files/324024.got.cif
#   From: 2010.05.17/outbox.cif.g08.bks.cpg/sg2_163_cif.got.tgz:324024.got - 2010.06.03 11:33:40.
