data_PCOD9035599
_publ_section_title
;
Structure prediction by ZEFSAII (Michael W. Deem and Ramdas Pophale) SiO2 
 PCOD9035599
Probable space group: P -1
;
_chemical_formula_sum "Si O2"
_cell_formula_units_Z 14
_cell_length_a 13.221379
_cell_length_b 5.217573
_cell_length_c 12.999704
_cell_angle_alpha 86.700207
_cell_angle_beta 41.026581
_cell_angle_gamma 98.476525
_cell_volume 562.200967
_symmetry_space_group_name_H-M "P -1"
_symmetry_group_IT_number 2
_symmetry_cell_setting 'triclinic'
loop_
_space_group_symop_operation_xyz
x,y,z
-x,-y,-z
loop_
_atom_site_type_symbol
_atom_site_label
_atom_site_fract_x
_atom_site_fract_y
_atom_site_fract_z
Si Si1 0.350697 0.838813 0.987485
Si Si2 0.643180 0.772931 0.872317
Si Si3 0.868119 0.417177 0.191976
Si Si4 0.643557 0.803348 0.351986
Si Si5 0.844104 0.926485 0.521186
Si Si6 0.987840 0.490848 0.691018
Si Si7 0.513138 0.885258 0.659521
O O1 0.207338 0.605274 0.154053
O O2 0.303518 0.098598 0.059737
O O3 0.533866 0.924831 0.887068
O O4 0.373528 0.769176 0.853465
O O5 0.785576 0.809770 0.681282
O O6 0.500000 0.500000 0.000000
O O7 0.759154 0.618228 0.260649
O O8 0.950504 0.452867 0.240146
O O9 0.762279 0.108534 0.266947
O O10 0.000000 0.500000 0.000000
O O11 0.533646 0.745681 0.539793
O O12 0.525553 0.838535 0.349464
O O13 0.934695 0.241673 0.439129
O O14 0.945716 0.746842 0.396901
O O15 0.682691 0.903586 0.580418
#
# Coordination Sequence:
#
# PCOD9035599 Si02
#       7
#     2   2   2   2   2   2   2
#     4  10  25  45  70 101 139 179 234 288 352 418
#     4  10  25  48  72 101 133 183 232 292 347 421
#     4  12  24  43  66 101 146 184 230 291 341 405
#     4  11  24  42  69 100 138 189 241 277 338 411
#     4  11  26  45  74  98 147 180 232 292 347 416
#     4  12  25  46  67 107 140 186 228 284 358 411
#     4  10  22  46  69 103 136 193 234 288 337 417
#
# _framework density 24.902125999999999
#
# number of rings (size 3 to 8) (size 9 to 14) (size 15 to 20)
#    0.000    1.143    2.857    1.286    8.000    5.714 
#    2.571    0.000    0.000    0.000    0.000    0.000 
#    0.000    0.000    0.000    0.000    0.000    0.000 
#
# Total GULP energy -78204.867520 kJ/mol
# GULP energy per Si atom -5586.061966 kJ/mol
# Density = 2.484545 g / cm^3
# Si number density = 24.902126 Si / 1000 Ang^3
#
#
#
# Elastic Constant Matrix: (Units=GPa)
#
#
# Indices 1 2 3 4 5 6 
#
# 1 87.0611 1.3376 41.6555 16.7428 -11.0974 -9.5082
# 2 1.3376 127.0681 61.9955 -0.2491 -3.6857 -4.8471
# 3 41.6555 61.9955 204.7116 5.3031 15.5773 3.1409
# 4 16.7428 -0.2491 5.3031 30.8499 -1.7875 0.0009
# 5 -11.0974 -3.6857 15.5773 -1.7875 48.3251 2.4590
# 6 -9.5082 -4.8471 3.1409 0.0009 2.4590 23.6163
#
#
#
# Elastic Compliance Matrix: (Units=1/GPa)
#
#
# Indices 1 2 3 4 5 6 
#
# 1 0.016401 0.002319 -0.004301 -0.007872 0.004674 0.007165
# 2 0.002319 0.009817 -0.003657 -0.000419 0.002282 0.003197
# 3 -0.004301 -0.003657 0.007149 0.000880 -0.003382 -0.003081
# 4 -0.007872 -0.000419 0.000880 0.036498 -0.000605 -0.003311
# 5 0.004674 0.002282 -0.003382 -0.000605 0.022988 0.000406
# 6 0.007165 0.003197 -0.003081 -0.003311 0.000406 0.046252
#
#
# Mechanical properties :
#
#
# Convention : Reuss Voigt Hill
#
# Bulk Modulus (GPa) = 45.27021 69.86868 57.56944
# Shear Modulus (GPa) = 31.69663 41.48173 36.58918
#
# Velocity S-wave (km/s) = 3.57157 4.08584 3.83733
# Velocity P-wave (km/s) = 5.93522 7.09767 6.54232
#
# Compressibility (1/GPa) = 0.02208958
#
# Stress axis : x y z
#
# Youngs Moduli (GPa) = 60.97259 101.86600 139.87131
#
# Poissons Ratio (x) = -0.23627 0.60164
# Poissons Ratio (y) = -0.14142 0.51148
# Poissons Ratio (z) = 0.26227 0.37250
#
# Static dielectric constant tensor:
#      x y z
#    x 2.131010 -0.009440 -0.006670 
#    y -0.009440 2.075980 0.028960 
#    z -0.006670 0.028960 1.980590 
# 
# From -- ./inp_files/525745.got.cif
#   From: 2010.05.17/outbox.cif.g08.bks.cpg/sg2_263_cif.got.tgz:525745.got - 2010.06.03 11:33:40.
