data_PCOD9035568
_publ_section_title
;
Structure prediction by ZEFSAII (Michael W. Deem and Ramdas Pophale) SiO2 
 PCOD9035568
Probable space group: P -1
;
_chemical_formula_sum "Si O2"
_cell_formula_units_Z 16
_cell_length_a 22.077337
_cell_length_b 27.687745
_cell_length_c 11.148604
_cell_angle_alpha 33.800164
_cell_angle_beta 34.592534
_cell_angle_gamma 11.626841
_cell_volume 761.419933
_symmetry_space_group_name_H-M "P -1"
_symmetry_group_IT_number 2
_symmetry_cell_setting 'triclinic'
loop_
_space_group_symop_operation_xyz
x,y,z
-x,-y,-z
loop_
_atom_site_type_symbol
_atom_site_label
_atom_site_fract_x
_atom_site_fract_y
_atom_site_fract_z
Si Si1 0.421865 0.802376 0.861269
Si Si2 0.289983 0.577495 0.682629
Si Si3 0.289433 0.989394 0.124073
Si Si4 0.236858 0.633621 0.191254
Si Si5 0.270565 0.485614 0.667818
Si Si6 0.290747 0.243036 0.487423
Si Si7 0.088079 0.609966 0.274991
Si Si8 0.628604 0.885155 0.892240
O O1 0.533203 0.805594 0.740126
O O2 0.601561 0.661739 0.730907
O O3 0.543945 0.624961 0.095602
O O4 0.062671 0.084958 0.861753
O O5 0.500000 0.500000 0.500000
O O6 0.236488 0.578310 0.639003
O O7 0.966707 0.848372 0.703870
O O8 0.445445 0.793270 0.204730
O O9 0.539250 0.854853 0.066337
O O10 0.103479 0.194436 0.917847
O O11 0.316372 0.508491 0.428072
O O12 0.159195 0.625611 0.227515
O O13 0.500000 0.500000 0.000000
O O14 0.974799 0.650124 0.809275
O O15 0.000000 0.500000 0.500000
O O16 0.145281 0.291887 0.521383
O O17 0.479699 0.053106 0.677916
O O18 0.500000 0.000000 0.000000
#
# Coordination Sequence:
#
# PCOD9035568 Si02
#       8
#     2   2   2   2   2   2   2   2
#     4  10  22  46  68  95 129 175 225 271 331 394
#     4  11  26  45  72  94 130 185 228 272 330 400
#     4  10  23  44  69  99 133 176 220 270 334 400
#     4  12  28  43  64  99 138 176 221 274 328 391
#     4  12  26  44  67 102 135 171 222 281 338 393
#     4   9  19  39  68  96 127 170 218 264 328 399
#     4   9  22  44  67  94 129 177 219 266 325 399
#     4  11  21  42  68 102 140 167 218 279 339 396
#
# _framework density 21.013370999999999
#
# number of rings (size 3 to 8) (size 9 to 14) (size 15 to 20)
#    0.000    1.500    2.500    1.875    5.250    4.500 
#    2.250    0.000    0.000    0.000    0.000    0.000 
#    0.000    0.000    0.000    0.000    0.000    0.000 
#
# Total GULP energy -89328.090094 kJ/mol
# GULP energy per Si atom -5583.005631 kJ/mol
# Density = 2.096554 g / cm^3
# Si number density = 21.013371 Si / 1000 Ang^3
#
#
#
# Elastic Constant Matrix: (Units=GPa)
#
#
# Indices 1 2 3 4 5 6 
#
# 1 -2664.0265 -452.1890 -966.9993 -693.9437 172.9318 72.3799
# 2 -452.1890 53.9686 -134.8877 -103.2824 10.5856 19.4036
# 3 -966.9993 -134.8877 -259.6856 -221.7868 43.5110 19.3384
# 4 -693.9437 -103.2824 -221.7868 -157.1704 37.7675 16.8619
# 5 172.9318 10.5856 43.5110 37.7675 4.4750 6.2409
# 6 72.3799 19.4036 19.3384 16.8619 6.2409 17.9042
#
#
#
# Elastic Compliance Matrix: (Units=1/GPa)
#
#
# Indices 1 2 3 4 5 6 
#
# 1 0.002639 -0.000798 -0.001141 -0.010438 -0.005198 0.003070
# 2 -0.000798 0.013448 0.001567 -0.002079 0.032694 -0.022477
# 3 -0.001141 0.001567 0.022597 -0.022772 0.025183 -0.008822
# 4 -0.010438 -0.002079 -0.022772 0.074397 0.006314 -0.003220
# 5 -0.005198 0.032694 0.025183 0.006314 0.224174 -0.125704
# 6 0.003070 -0.022477 -0.008822 -0.003220 -0.125704 0.124179
#
#
# Mechanical properties :
#
#
# Convention : Reuss Voigt Hill
#
# Bulk Modulus (GPa) = 26.35861 -664.21058 -318.92599
# Shear Modulus (GPa) = 10.53018 -114.66941 -52.06961
#
# Velocity S-wave (km/s) = 2.24100 -7.39515 -4.98328
# Velocity P-wave (km/s) = 4.38942 19.74065 13.60930
#
# Compressibility (1/GPa) = 0.03793827
#
# Stress axis : x y z
#
# Youngs Moduli (GPa) = 378.86757 74.36257 44.25372
#
# Poissons Ratio (x) = 0.05935 0.05051
# Poissons Ratio (y) = 0.30240 -0.06933
# Poissons Ratio (z) = 0.43246 -0.11651
#
# Static dielectric constant tensor:
#      x y z
#    x 1.784720 0.012580 0.063380 
#    y 0.012580 1.747160 0.024250 
#    z 0.063380 0.024250 1.891810 
# 
# From -- ./inp_files/405449.got.cif
#   From: 2010.05.17/outbox.cif.g08.bks.cpg/sg2_203_cif.got.tgz:405449.got - 2010.06.03 11:33:40.
