data_PCOD9035651
_publ_section_title
;
Structure prediction by ZEFSAII (Michael W. Deem and Ramdas Pophale) SiO2 
 PCOD9035651
Probable space group: P -1
;
_chemical_formula_sum "Si O2"
_cell_formula_units_Z 15
_cell_length_a 4.995858
_cell_length_b 12.350991
_cell_length_c 11.312349
_cell_angle_alpha 111.661778
_cell_angle_beta 62.086698
_cell_angle_gamma 104.029748
_cell_volume 571.182515
_symmetry_space_group_name_H-M "P -1"
_symmetry_group_IT_number 2
_symmetry_cell_setting 'triclinic'
loop_
_space_group_symop_operation_xyz
x,y,z
-x,-y,-z
loop_
_atom_site_type_symbol
_atom_site_label
_atom_site_fract_x
_atom_site_fract_y
_atom_site_fract_z
Si Si1 0.571873 0.088452 0.630115
Si Si2 0.955655 0.044810 0.189980
Si Si3 0.000000 0.500000 0.500000
Si Si4 0.141416 0.394626 0.996105
Si Si5 0.799815 0.772119 0.394767
Si Si6 0.785696 0.433904 0.763124
Si Si7 0.789877 0.163489 0.035583
Si Si8 0.743309 0.755330 0.663829
O O1 0.914570 0.128292 0.613826
O O2 0.424337 0.200552 0.651848
O O3 0.500000 0.000000 0.500000
O O4 0.364206 0.031000 0.754980
O O5 0.007114 0.136943 0.321873
O O6 0.961802 0.119050 0.098156
O O7 0.208067 0.951071 0.093062
O O8 0.773715 0.444095 0.629494
O O9 0.860502 0.628337 0.597753
O O10 0.123266 0.435997 0.152681
O O11 0.962035 0.269794 0.972790
O O12 0.484689 0.394222 0.881508
O O13 0.000000 0.500000 0.000000
O O14 0.954574 0.651793 0.297256
O O15 0.638081 0.765954 0.554018
O O16 0.501044 0.216114 0.175544
#
# Coordination Sequence:
#
# PCOD9035651 Si02
#       8
#     2   2   1   2   2   2   2   2
#     4  12  24  45  70 105 144 192 242 307 366 445
#     4  11  25  42  71  99 148 189 245 302 373 441
#     4  10  22  46  70 102 140 190 250 314 374 452
#     4  11  24  45  73 103 145 195 253 308 374 450
#     4  11  26  43  74 105 147 190 247 307 376 443
#     4  10  24  45  70 104 142 192 246 313 375 443
#     4  11  25  44  66 105 138 195 247 303 368 450
#     4  11  23  45  67 102 142 193 242 309 375 440
#
# _framework density 26.261306000000001
#
# number of rings (size 3 to 8) (size 9 to 14) (size 15 to 20)
#    0.000    1.067    1.333    4.000    5.600    1.067 
#    0.000    2.667    0.000    0.000    0.000    0.000 
#    0.000    0.000    0.000    0.000    0.000    0.000 
#
# Total GULP energy -83794.595619 kJ/mol
# GULP energy per Si atom -5586.306375 kJ/mol
# Density = 2.620153 g / cm^3
# Si number density = 26.261306 Si / 1000 Ang^3
#
#
#
# Elastic Constant Matrix: (Units=GPa)
#
#
# Indices 1 2 3 4 5 6 
#
# 1 68.6692 27.1610 24.9229 7.3974 -8.0170 -10.1945
# 2 27.1610 165.4277 44.7609 15.1715 -14.0617 -15.3406
# 3 24.9229 44.7609 122.3358 15.4946 -20.3304 -18.4799
# 4 7.3974 15.1715 15.4946 66.7079 -4.5749 -5.6247
# 5 -8.0170 -14.0617 -20.3304 -4.5749 39.8146 -2.9011
# 6 -10.1945 -15.3406 -18.4799 -5.6247 -2.9011 19.2765
#
#
#
# Elastic Compliance Matrix: (Units=1/GPa)
#
#
# Indices 1 2 3 4 5 6 
#
# 1 0.017026 -0.001530 -0.001405 -0.000471 0.002604 0.006694
# 2 -0.001530 0.007226 -0.001407 -0.000723 0.001707 0.003638
# 3 -0.001405 -0.001407 0.011521 -0.000987 0.005700 0.009751
# 4 -0.000471 -0.000723 -0.000987 0.015771 0.001177 0.003009
# 5 0.002604 0.001707 0.005700 0.001177 0.030244 0.013095
# 6 0.006694 0.003638 0.009751 0.003009 0.013095 0.070509
#
#
# Mechanical properties :
#
#
# Convention : Reuss Voigt Hill
#
# Bulk Modulus (GPa) = 36.91699 61.12472 49.02086
# Shear Modulus (GPa) = 29.40988 42.46568 35.93778
#
# Velocity S-wave (km/s) = 3.35011 4.02561 3.70330
# Velocity P-wave (km/s) = 5.39003 6.70325 6.08218
#
# Compressibility (1/GPa) = 0.02708780
#
# Stress axis : x y z
#
# Youngs Moduli (GPa) = 58.73266 138.39488 86.80061
#
# Poissons Ratio (x) = 0.21174 0.12198
# Poissons Ratio (y) = 0.08986 0.12215
# Poissons Ratio (z) = 0.08254 0.19475
#
# Static dielectric constant tensor:
#      x y z
#    x 2.088070 0.038540 0.016050 
#    y 0.038540 2.036980 0.038680 
#    z 0.016050 0.038680 2.101650 
# 
# From -- ./inp_files/363278.got.cif
#   From: 2010.05.17/outbox.cif.g08.bks.cpg/sg2_182_cif.got.tgz:363278.got - 2010.06.03 11:33:40.
