data_PCOD9035060
_publ_section_title
;
Structure prediction by ZEFSAII (Michael W. Deem and Ramdas Pophale) SiO2 
 PCOD9035060
Probable space group: P -1
;
_chemical_formula_sum "Si O2"
_cell_formula_units_Z 16
_cell_length_a 14.834918
_cell_length_b 5.054052
_cell_length_c 10.898165
_cell_angle_alpha 69.752675
_cell_angle_beta 88.077733
_cell_angle_gamma 110.980204
_cell_volume 704.134101
_symmetry_space_group_name_H-M "P -1"
_symmetry_group_IT_number 2
_symmetry_cell_setting 'triclinic'
loop_
_space_group_symop_operation_xyz
x,y,z
-x,-y,-z
loop_
_atom_site_type_symbol
_atom_site_label
_atom_site_fract_x
_atom_site_fract_y
_atom_site_fract_z
Si Si1 0.932404 0.363527 0.773548
Si Si2 0.224441 0.229693 0.584782
Si Si3 0.423675 0.167540 0.849560
Si Si4 0.840957 0.467589 0.241614
Si Si5 0.089275 0.049388 0.392731
Si Si6 0.589501 0.406511 0.972124
Si Si7 0.762063 0.819291 0.994877
Si Si8 0.439872 0.636090 0.563077
O O1 0.906612 0.659653 0.731031
O O2 0.044987 0.465624 0.792802
O O3 0.923121 0.224136 0.657406
O O4 0.855318 0.110255 0.903546
O O5 0.164401 0.357916 0.659754
O O6 0.180633 0.141715 0.465647
O O7 0.330130 0.507209 0.536500
O O8 0.219848 0.901634 0.689421
O O9 0.536429 0.243504 0.877186
O O10 0.328772 0.125904 0.945620
O O11 0.429949 0.443887 0.718785
O O12 0.399289 0.809681 0.884683
O O13 0.800150 0.620178 0.113537
O O14 0.000000 0.000000 0.500000
O O15 0.500000 0.500000 0.000000
O O16 0.699571 0.641918 0.907760
O O17 0.500000 0.500000 0.500000
O O18 0.500000 0.000000 0.500000
#
# Coordination Sequence:
#
# PCOD9035060 Si02
#       8
#     2   2   2   2   2   2   2   2
#     4  12  26  43  71 107 138 186 241 289 342 416
#     4  12  25  45  76  98 136 197 228 284 362 411
#     4  10  22  45  70  95 142 183 227 291 361 416
#     4  12  23  44  73 101 141 186 234 280 355 421
#     4  12  24  47  70  98 143 185 240 289 341 413
#     4   9  21  41  72  95 129 188 229 280 362 414
#     4  11  25  40  69 102 142 177 233 290 350 415
#     4  12  28  46  71 106 140 181 238 291 348 428
#
# _framework density 22.722943999999998
#
# number of rings (size 3 to 8) (size 9 to 14) (size 15 to 20)
#    0.000    0.750    3.750    3.000    5.250    2.000 
#    2.250    2.500    0.000    0.000    0.000    0.000 
#    0.000    0.000    0.000    0.000    0.000    0.000 
#
# Total GULP energy -89196.276131 kJ/mol
# GULP energy per Si atom -5574.767258 kJ/mol
# Density = 2.267123 g / cm^3
# Si number density = 22.722944 Si / 1000 Ang^3
#
#
#
# Elastic Constant Matrix: (Units=GPa)
#
#
# Indices 1 2 3 4 5 6 
#
# 1 97.2478 21.8886 32.2780 -12.8176 6.2860 19.9919
# 2 21.8886 83.9086 11.5909 -23.0757 -1.0950 9.0506
# 3 32.2780 11.5909 54.2615 -16.5585 -6.5123 10.5980
# 4 -12.8176 -23.0757 -16.5585 32.3969 0.3704 1.2098
# 5 6.2860 -1.0950 -6.5123 0.3704 35.9711 0.8606
# 6 19.9919 9.0506 10.5980 1.2098 0.8606 51.0482
#
#
#
# Elastic Compliance Matrix: (Units=1/GPa)
#
#
# Indices 1 2 3 4 5 6 
#
# 1 0.014393 -0.002270 -0.007762 0.000288 -0.003907 -0.003564
# 2 -0.002270 0.015657 0.002154 0.011440 0.001208 -0.002626
# 3 -0.007762 0.002154 0.027966 0.012817 0.006438 -0.003560
# 4 0.000288 0.011440 0.012817 0.045876 0.002288 -0.005928
# 5 -0.003907 0.001208 0.006438 0.002288 0.029675 -0.000575
# 6 -0.003564 -0.002626 -0.003560 -0.005928 -0.000575 0.022340
#
#
# Mechanical properties :
#
#
# Convention : Reuss Voigt Hill
#
# Bulk Modulus (GPa) = 23.66217 40.77031 32.21624
# Shear Modulus (GPa) = 26.91802 35.19393 31.05597
#
# Velocity S-wave (km/s) = 3.44556 3.93978 3.70093
# Velocity P-wave (km/s) = 5.12495 6.21910 5.69835
#
# Compressibility (1/GPa) = 0.04226156
#
# Stress axis : x y z
#
# Youngs Moduli (GPa) = 69.47584 63.86814 35.75827
#
# Poissons Ratio (x) = 0.14496 0.27756
# Poissons Ratio (y) = 0.15769 -0.07704
# Poissons Ratio (z) = 0.53928 -0.13760
#
# Static dielectric constant tensor:
#      x y z
#    x 1.810820 0.010370 0.062890 
#    y 0.010370 2.259730 0.181350 
#    z 0.062890 0.181350 1.996660 
# 
# From -- ./inp_files/441646.got.cif
#   From: 2010.05.17/outbox.cif.g08.bks.cpg/sg2_221_cif.got.tgz:441646.got - 2010.06.03 11:33:40.
