data_PCOD9035990
_publ_section_title
;
Structure prediction by ZEFSAII (Michael W. Deem and Ramdas Pophale) SiO2 
 PCOD9035990
Probable space group: P -1
;
_chemical_formula_sum "Si O2"
_cell_formula_units_Z 16
_cell_length_a 19.250664
_cell_length_b 5.342916
_cell_length_c 6.655397
_cell_angle_alpha 82.491115
_cell_angle_beta 75.738239
_cell_angle_gamma 101.217241
_cell_volume 639.179772
_symmetry_space_group_name_H-M "P -1"
_symmetry_group_IT_number 2
_symmetry_cell_setting 'triclinic'
loop_
_space_group_symop_operation_xyz
x,y,z
-x,-y,-z
loop_
_atom_site_type_symbol
_atom_site_label
_atom_site_fract_x
_atom_site_fract_y
_atom_site_fract_z
Si Si1 0.535432 0.418466 0.784975
Si Si2 0.976607 0.014748 0.745002
Si Si3 0.129994 0.929253 0.707129
Si Si4 0.333132 0.734823 0.447176
Si Si5 0.419866 0.140513 0.622298
Si Si6 0.264983 0.275256 0.817425
Si Si7 0.889138 0.430550 0.906956
Si Si8 0.219047 0.947530 0.250935
O O1 0.618166 0.377263 0.738181
O O2 0.476010 0.171898 0.762508
O O3 0.544737 0.651555 0.593948
O O4 0.500000 0.500000 0.000000
O O5 0.054667 0.015343 0.793831
O O6 0.946376 0.266816 0.795456
O O7 0.000000 0.000000 0.500000
O O8 0.918482 0.737260 0.841519
O O9 0.118704 0.646517 0.844795
O O10 0.155165 0.950269 0.457340
O O11 0.198290 0.095492 0.763207
O O12 0.278198 0.541729 0.655267
O O13 0.287290 0.903152 0.339460
O O14 0.394604 0.875400 0.548264
O O15 0.343237 0.199906 0.742881
O O16 0.243331 0.205552 0.071248
O O17 0.815015 0.294365 0.849453
#
# Coordination Sequence:
#
# PCOD9035990 Si02
#       8
#     2   2   2   2   2   2   2   2
#     4  10  24  45  73 106 146 188 242 301 365 443
#     4  12  25  46  75 105 149 195 253 309 383 445
#     4  11  24  46  72 102 149 188 246 306 376 440
#     4  11  24  46  78 102 146 197 239 305 376 435
#     4  10  22  47  67 106 145 184 244 298 362 445
#     4  10  25  46  68 107 146 185 239 309 358 442
#     4  11  27  48  72 109 146 200 247 318 373 453
#     4  11  25  47  72 108 143 189 254 295 372 450
#
# _framework density 25.032077999999998
#
# number of rings (size 3 to 8) (size 9 to 14) (size 15 to 20)
#    0.000    1.250    2.500    1.500    3.500    2.500 
#    9.000    0.000    0.000    0.000    0.000    0.000 
#    0.000    0.000    0.000    0.000    0.000    0.000 
#
# Total GULP energy -89505.130350 kJ/mol
# GULP energy per Si atom -5594.070647 kJ/mol
# Density = 2.497510 g / cm^3
# Si number density = 25.032078 Si / 1000 Ang^3
#
#
#
# Elastic Constant Matrix: (Units=GPa)
#
#
# Indices 1 2 3 4 5 6 
#
# 1 131.3104 26.9581 60.1484 5.2952 -8.9994 -1.3171
# 2 26.9581 90.4046 32.5334 -10.5195 -6.3573 14.0676
# 3 60.1484 32.5334 156.5430 -11.1234 -26.8788 -0.3198
# 4 5.2952 -10.5195 -11.1234 30.7993 2.0378 -6.8380
# 5 -8.9994 -6.3573 -26.8788 2.0378 39.2287 10.9673
# 6 -1.3171 14.0676 -0.3198 -6.8380 10.9673 35.0913
#
#
#
# Elastic Compliance Matrix: (Units=1/GPa)
#
#
# Indices 1 2 3 4 5 6 
#
# 1 0.009866 -0.002183 -0.003700 -0.003577 -0.000639 0.000714
# 2 -0.002183 0.013607 -0.001410 0.003126 0.002144 -0.005611
# 3 -0.003700 -0.001410 0.009214 0.003017 0.005229 -0.000536
# 4 -0.003577 0.003126 0.003017 0.036795 -0.001953 0.006421
# 5 -0.000639 0.002144 0.005229 -0.001953 0.032562 -0.011393
# 6 0.000714 -0.005611 -0.000536 0.006421 -0.011393 0.035580
#
#
# Mechanical properties :
#
#
# Convention : Reuss Voigt Hill
#
# Bulk Modulus (GPa) = 55.24455 68.61529 61.92992
# Shear Modulus (GPa) = 31.59670 38.26505 34.93088
#
# Velocity S-wave (km/s) = 3.55667 3.91402 3.73962
# Velocity P-wave (km/s) = 6.24371 6.92073 6.59092
#
# Compressibility (1/GPa) = 0.01810133
#
# Stress axis : x y z
#
# Youngs Moduli (GPa) = 101.35874 73.48894 108.53394
#
# Poissons Ratio (x) = 0.16042 0.40153
# Poissons Ratio (y) = 0.22126 0.15307
# Poissons Ratio (z) = 0.37499 0.10365
#
# Static dielectric constant tensor:
#      x y z
#    x 2.018050 -0.006700 0.016390 
#    y -0.006700 1.981270 0.003920 
#    z 0.016390 0.003920 2.036490 
# 
# From -- ./inp_files/121647.got.cif
#   From: 2010.05.17/outbox.cif.g08.bks.cpg/sg2_61_cif.got.tgz:121647.got - 2010.06.03 11:33:40.
