data_PCOD9035888
_publ_section_title
;
Structure prediction by ZEFSAII (Michael W. Deem and Ramdas Pophale) SiO2 
 PCOD9035888
Probable space group: P -1
;
_chemical_formula_sum "Si O2"
_cell_formula_units_Z 14
_cell_length_a 14.671259
_cell_length_b 14.354541
_cell_length_c 5.891656
_cell_angle_alpha 91.762002
_cell_angle_beta 104.891277
_cell_angle_gamma 29.508658
_cell_volume 539.955093
_symmetry_space_group_name_H-M "P -1"
_symmetry_group_IT_number 2
_symmetry_cell_setting 'triclinic'
loop_
_space_group_symop_operation_xyz
x,y,z
-x,-y,-z
loop_
_atom_site_type_symbol
_atom_site_label
_atom_site_fract_x
_atom_site_fract_y
_atom_site_fract_z
Si Si1 0.787820 0.215597 0.757286
Si Si2 0.232278 0.099173 0.127206
Si Si3 0.178423 0.311070 0.426461
Si Si4 0.500000 0.000000 0.000000
Si Si5 0.629926 0.209414 0.310836
Si Si6 0.349868 0.343893 0.414001
Si Si7 0.039249 0.766382 0.358553
Si Si8 0.500000 0.500000 0.000000
O O1 0.674536 0.230069 0.566310
O O2 0.837782 0.245062 0.588754
O O3 0.641996 0.393080 0.859915
O O4 0.000000 0.000000 0.000000
O O5 0.135919 0.255810 0.257212
O O6 0.312950 0.090229 0.966439
O O7 0.434359 0.869501 0.338155
O O8 0.061597 0.176182 0.940289
O O9 0.228237 0.354665 0.296923
O O10 0.000000 0.500000 0.500000
O O11 0.388095 0.111371 0.690919
O O12 0.425794 0.326923 0.232052
O O13 0.611633 0.296688 0.095833
O O14 0.837434 0.962890 0.396247
O O15 0.205711 0.538140 0.489912
#
# Coordination Sequence:
#
# PCOD9035888 Si02
#       8
#     2   2   2   1   2   2   2   1
#     4  12  26  50  73 109 149 201 250 315 380 450
#     4  11  27  48  74 110 153 196 253 309 377 456
#     4  11  26  49  76 110 151 201 248 311 380 447
#     4  10  22  46  74  96 148 192 236 304 374 434
#     4  12  28  48  77 112 155 195 262 311 381 458
#     4  11  26  47  75 111 151 194 253 315 368 449
#     4  12  27  47  76 112 149 199 253 312 376 453
#     4  12  26  48  78 102 152 204 240 312 388 444
#
# _framework density 25.928080000000001
#
# number of rings (size 3 to 8) (size 9 to 14) (size 15 to 20)
#    0.000    0.571    2.857    4.286    6.000    3.429 
#    5.143    0.000    0.000    0.000    0.000    0.000 
#    0.000    0.000    0.000    0.000    0.000    0.000 
#
# Total GULP energy -78037.913398 kJ/mol
# GULP energy per Si atom -5574.136671 kJ/mol
# Density = 2.586907 g / cm^3
# Si number density = 25.928080 Si / 1000 Ang^3
#
#
#
# Elastic Constant Matrix: (Units=GPa)
#
#
# Indices 1 2 3 4 5 6 
#
# 1 104.9632 25.5280 -0.1595 4.6512 -11.5863 2.1645
# 2 25.5280 180.5434 12.7752 0.8770 5.5870 2.5117
# 3 -0.1595 12.7752 45.8959 -17.4170 -2.8353 7.2856
# 4 4.6512 0.8770 -17.4170 29.5598 3.9485 -6.5100
# 5 -11.5863 5.5870 -2.8353 3.9485 44.1298 -1.1587
# 6 2.1645 2.5117 7.2856 -6.5100 -1.1587 35.9777
#
#
#
# Elastic Compliance Matrix: (Units=1/GPa)
#
#
# Indices 1 2 3 4 5 6 
#
# 1 0.010355 -0.001534 -0.000056 -0.002206 0.003086 -0.000804
# 2 -0.001534 0.005949 -0.002113 -0.001047 -0.001201 -0.000123
# 3 -0.000056 -0.002113 0.029129 0.016556 0.000571 -0.002734
# 4 -0.002206 -0.001047 0.016556 0.045504 -0.003324 0.004980
# 5 0.003086 -0.001201 0.000571 -0.003324 0.023955 -0.000047
# 6 -0.000804 -0.000123 -0.002734 0.004980 -0.000047 0.029305
#
#
# Mechanical properties :
#
#
# Convention : Reuss Voigt Hill
#
# Bulk Modulus (GPa) = 26.29730 45.29887 35.79808
# Shear Modulus (GPa) = 30.43613 41.48406 35.96009
#
# Velocity S-wave (km/s) = 3.42989 4.00430 3.72817
# Velocity P-wave (km/s) = 5.08429 6.23603 5.68938
#
# Compressibility (1/GPa) = 0.03802672
#
# Stress axis : x y z
#
# Youngs Moduli (GPa) = 96.57138 168.08958 34.33060
#
# Poissons Ratio (x) = 0.25781 0.00192
# Poissons Ratio (y) = 0.14812 0.07255
# Poissons Ratio (z) = 0.00541 0.35522
#
# Static dielectric constant tensor:
#      x y z
#    x 2.101480 0.069610 -0.007810 
#    y 0.069610 2.166310 -0.014420 
#    z -0.007810 -0.014420 2.025240 
# 
# From -- ./inp_files/98153.got.cif
#   From: 2010.05.17/outbox.cif.g08.bks.cpg/sg2_50_cif.got.tgz:98153.got - 2010.06.03 11:33:40.
