data_PCOD9035795
_publ_section_title
;
Structure prediction by ZEFSAII (Michael W. Deem and Ramdas Pophale) SiO2 
 PCOD9035795
Probable space group: P -1
;
_chemical_formula_sum "Si O2"
_cell_formula_units_Z 16
_cell_length_a 12.316060
_cell_length_b 8.879491
_cell_length_c 20.560137
_cell_angle_alpha 142.648895
_cell_angle_beta 149.049491
_cell_angle_gamma 49.892507
_cell_volume 696.481918
_symmetry_space_group_name_H-M "P -1"
_symmetry_group_IT_number 2
_symmetry_cell_setting 'triclinic'
loop_
_space_group_symop_operation_xyz
x,y,z
-x,-y,-z
loop_
_atom_site_type_symbol
_atom_site_label
_atom_site_fract_x
_atom_site_fract_y
_atom_site_fract_z
Si Si1 0.574774 0.457348 0.226595
Si Si2 0.172327 0.521089 0.252858
Si Si3 0.204214 0.217561 0.879367
Si Si4 0.577053 0.852383 0.827207
Si Si5 0.016317 0.732190 0.668914
Si Si6 0.091300 0.652164 0.817082
Si Si7 0.617611 0.944632 0.475152
Si Si8 0.812699 0.889708 0.316957
O O1 0.512601 0.284739 0.199142
O O2 0.824879 0.455860 0.339878
O O3 0.504067 0.730940 0.297317
O O4 0.439968 0.345238 0.056890
O O5 0.312057 0.348759 0.225798
O O6 0.970048 0.594945 0.133359
O O7 0.064062 0.391517 0.216393
O O8 0.306655 0.790818 0.428212
O O9 0.153814 0.103869 0.742486
O O10 0.167599 0.993531 0.834201
O O11 0.385710 0.955666 0.724822
O O12 0.748274 0.095765 0.009196
O O13 0.952015 0.658248 0.682950
O O14 0.814994 0.802418 0.551151
O O15 0.217543 0.409495 0.791609
O O16 0.500000 0.000000 0.500000
O O17 0.000000 0.000000 0.500000
#
# Coordination Sequence:
#
# PCOD9035795 Si02
#       8
#     2   2   2   2   2   2   2   2
#     4  12  23  42  80 108 143 188 245 304 356 423
#     4  10  25  47  71 103 152 189 243 296 365 438
#     4  10  22  46  72 108 142 183 244 296 359 428
#     4  12  23  45  77 108 144 193 247 294 365 429
#     4  11  23  42  72 104 143 186 246 297 360 427
#     4  11  25  45  71 105 146 193 235 301 364 434
#     4  11  25  45  70 108 146 191 242 303 360 428
#     4  11  26  46  72 104 147 188 240 303 362 427
#
# _framework density 22.972598999999999
#
# number of rings (size 3 to 8) (size 9 to 14) (size 15 to 20)
#    0.000    1.000    3.750    2.250    1.750    5.500 
#    0.000    8.125    0.000    0.000    0.000    0.000 
#    0.000    0.000    0.000    0.000    0.000    0.000 
#
# Total GULP energy -89405.830890 kJ/mol
# GULP energy per Si atom -5587.864431 kJ/mol
# Density = 2.292031 g / cm^3
# Si number density = 22.972599 Si / 1000 Ang^3
#
#
#
# Elastic Constant Matrix: (Units=GPa)
#
#
# Indices 1 2 3 4 5 6 
#
# 1 105.6637 46.5829 40.4487 -3.1031 -6.1292 -7.0349
# 2 46.5829 106.2711 23.4620 4.8466 -20.5523 -13.7714
# 3 40.4487 23.4620 80.9404 2.8535 -13.9243 0.5750
# 4 -3.1031 4.8466 2.8535 27.7049 2.5718 14.3197
# 5 -6.1292 -20.5523 -13.9243 2.5718 21.6897 4.7025
# 6 -7.0349 -13.7714 0.5750 14.3197 4.7025 46.2912
#
#
#
# Elastic Compliance Matrix: (Units=1/GPa)
#
#
# Indices 1 2 3 4 5 6 
#
# 1 0.014597 -0.006437 -0.006736 0.004198 -0.006748 -0.000226
# 2 -0.006437 0.015465 0.001282 -0.007105 0.013541 0.004429
# 3 -0.006736 0.001282 0.017376 -0.003299 0.011067 -0.000962
# 4 0.004198 -0.007105 -0.003299 0.046769 -0.009981 -0.014888
# 5 -0.006748 0.013541 0.011067 -0.009981 0.065468 -0.000698
# 6 -0.000226 0.004429 -0.000962 -0.014888 -0.000698 0.027574
#
#
# Mechanical properties :
#
#
# Convention : Reuss Voigt Hill
#
# Bulk Modulus (GPa) = 42.27090 57.09582 49.68336
# Shear Modulus (GPa) = 22.83971 31.29591 27.06781
#
# Velocity S-wave (km/s) = 3.15654 3.69496 3.43631
# Velocity P-wave (km/s) = 5.63254 6.56593 6.11706
#
# Compressibility (1/GPa) = 0.02365694
#
# Stress axis : x y z
#
# Youngs Moduli (GPa) = 68.50569 64.66198 57.54999
#
# Poissons Ratio (x) = 0.41624 0.38766
# Poissons Ratio (y) = 0.44099 -0.07381
# Poissons Ratio (z) = 0.46146 -0.08293
#
# Static dielectric constant tensor:
#      x y z
#    x 1.874850 0.005370 -0.017500 
#    y 0.005370 1.852130 0.020870 
#    z -0.017500 0.020870 1.964290 
# 
# From -- ./inp_files/594286.got.cif
#   From: 2010.05.17/outbox.cif.g08.bks.cpg/sg2_298_cif.got.tgz:594286.got - 2010.06.03 11:33:40.
