data_PCOD9035674
_publ_section_title
;
Structure prediction by ZEFSAII (Michael W. Deem and Ramdas Pophale) SiO2 
 PCOD9035674
Probable space group: P -1
;
_chemical_formula_sum "Si O2"
_cell_formula_units_Z 10
_cell_length_a 8.177142
_cell_length_b 6.363849
_cell_length_c 14.008942
_cell_angle_alpha 45.001224
_cell_angle_beta 55.807781
_cell_angle_gamma 57.622592
_cell_volume 414.331277
_symmetry_space_group_name_H-M "P -1"
_symmetry_group_IT_number 2
_symmetry_cell_setting 'triclinic'
loop_
_space_group_symop_operation_xyz
x,y,z
-x,-y,-z
loop_
_atom_site_type_symbol
_atom_site_label
_atom_site_fract_x
_atom_site_fract_y
_atom_site_fract_z
Si Si1 0.328364 0.752784 0.525970
Si Si2 0.391466 0.815650 0.698234
Si Si3 0.584056 0.720329 0.991116
Si Si4 0.959021 0.565903 0.378927
Si Si5 0.837659 0.301324 0.919037
O O1 0.500000 0.500000 0.500000
O O2 0.349153 0.677329 0.655119
O O3 0.129489 0.700431 0.556092
O O4 0.396619 0.074229 0.398903
O O5 0.382969 0.568684 0.857787
O O6 0.217797 0.123410 0.666456
O O7 0.383743 0.768419 0.976179
O O8 0.791320 0.626574 0.888998
O O9 0.500000 0.000000 0.000000
O O10 0.000000 0.500000 0.500000
O O11 0.118700 0.638767 0.225412
O O12 0.000000 0.000000 0.000000
#
# Coordination Sequence:
#
# PCOD9035674 Si02
#       5
#     2   2   2   2   2
#     4   9  22  40  71 100 146 187 238 305 373 430
#     4  10  22  46  70 108 146 192 251 304 375 443
#     4  11  27  47  76 106 148 201 248 307 375 447
#     4  11  25  46  73 111 146 192 251 311 373 441
#     4  11  26  50  72 107 151 194 255 306 371 450
#
# _framework density 24.135278
#
# number of rings (size 3 to 8) (size 9 to 14) (size 15 to 20)
#    0.000    1.600    2.000    0.000   11.200    4.800 
#    0.000    0.000    0.000    0.000    0.000    0.000 
#    0.000    0.000    0.000    0.000    0.000    0.000 
#
# Total GULP energy -55735.591206 kJ/mol
# GULP energy per Si atom -5573.559121 kJ/mol
# Density = 2.408034 g / cm^3
# Si number density = 24.135278 Si / 1000 Ang^3
#
#
#
# Elastic Constant Matrix: (Units=GPa)
#
#
# Indices 1 2 3 4 5 6 
#
# 1 103.0712 71.2247 43.6950 -5.6580 25.9597 13.3735
# 2 71.2247 199.5352 59.0058 19.7332 31.6609 -2.9163
# 3 43.6950 59.0058 114.6041 21.4674 42.0710 3.4335
# 4 -5.6580 19.7332 21.4674 43.1814 -5.3863 16.5350
# 5 25.9597 31.6609 42.0710 -5.3863 37.7535 1.2449
# 6 13.3735 -2.9163 3.4335 16.5350 1.2449 59.5809
#
#
#
# Elastic Compliance Matrix: (Units=1/GPa)
#
#
# Indices 1 2 3 4 5 6 
#
# 1 0.017352 -0.005799 -0.005836 0.010575 0.001168 -0.006801
# 2 -0.005799 0.008390 0.001181 -0.007324 -0.005535 0.003792
# 3 -0.005836 0.001181 0.022684 -0.017813 -0.024979 0.005526
# 4 0.010575 -0.007324 -0.017813 0.045668 0.025728 -0.014917
# 5 0.001168 -0.005535 -0.024979 0.025728 0.062081 -0.007531
# 6 -0.006801 0.003792 0.005526 -0.014917 -0.007531 0.022475
#
#
# Mechanical properties :
#
#
# Convention : Reuss Voigt Hill
#
# Bulk Modulus (GPa) = 36.33876 85.00684 60.67280
# Shear Modulus (GPa) = 23.95449 44.32217 34.13833
#
# Velocity S-wave (km/s) = 3.15383 4.28998 3.76501
# Velocity P-wave (km/s) = 5.32458 7.73537 6.64030
#
# Compressibility (1/GPa) = 0.02751883
#
# Stress axis : x y z
#
# Youngs Moduli (GPa) = 57.63058 119.18715 44.08468
#
# Poissons Ratio (x) = 0.69111 0.25729
# Poissons Ratio (y) = 0.33417 -0.05208
# Poissons Ratio (z) = 0.33634 -0.14079
#
# Static dielectric constant tensor:
#      x y z
#    x 2.043240 0.125070 -0.092320 
#    y 0.125070 2.207510 -0.009990 
#    z -0.092320 -0.009990 1.938320 
# 
# From -- ./inp_files/132020.got.cif
#   From: 2010.05.17/outbox.cif.g08.bks.cpg/sg2_67_cif.got.tgz:132020.got - 2010.06.03 11:33:40.
