data_PCOD9035842
_publ_section_title
;
Structure prediction by ZEFSAII (Michael W. Deem and Ramdas Pophale) SiO2 
 PCOD9035842
Probable space group: P -1
;
_chemical_formula_sum "Si O2"
_cell_formula_units_Z 12
_cell_length_a 9.221816
_cell_length_b 16.867424
_cell_length_c 12.979599
_cell_angle_alpha 24.128751
_cell_angle_beta 33.358387
_cell_angle_gamma 39.128155
_cell_volume 453.010115
_symmetry_space_group_name_H-M "P -1"
_symmetry_group_IT_number 2
_symmetry_cell_setting 'triclinic'
loop_
_space_group_symop_operation_xyz
x,y,z
-x,-y,-z
loop_
_atom_site_type_symbol
_atom_site_label
_atom_site_fract_x
_atom_site_fract_y
_atom_site_fract_z
Si Si1 0.737922 0.897532 0.183285
Si Si2 0.640700 0.983695 0.544427
Si Si3 0.469324 0.321292 0.623667
Si Si4 0.077672 0.402250 0.206364
Si Si5 0.035802 0.180809 0.189469
Si Si6 0.926923 0.314347 0.609389
O O1 0.544512 0.941121 0.342627
O O2 0.584147 0.826963 0.260110
O O3 0.952025 0.733799 0.293462
O O4 0.868036 0.102061 0.851519
O O5 0.889005 0.116556 0.248848
O O6 0.500000 0.000000 0.500000
O O7 0.735248 0.758050 0.770148
O O8 0.314530 0.524799 0.441566
O O9 0.225215 0.650375 0.570227
O O10 0.318586 0.243063 0.907157
O O11 0.126382 0.389679 0.315822
O O12 0.097392 0.627739 0.904030
O O13 0.000000 0.000000 0.500000
#
# Coordination Sequence:
#
# PCOD9035842 Si02
#       6
#     2   2   2   2   2   2
#     4  11  25  44  77 109 149 200 246 303 374 450
#     4  12  28  49  72 110 155 198 248 308 378 445
#     4  11  26  47  80 111 148 194 256 308 369 447
#     4  11  26  50  77 107 154 198 250 309 368 454
#     4  11  28  50  76 113 149 197 250 312 378 434
#     4  10  22  46  73 107 149 197 250 301 369 446
#
# _framework density 26.489477000000001
#
# number of rings (size 3 to 8) (size 9 to 14) (size 15 to 20)
#    0.000    1.000    1.667    3.500    9.333    4.000 
#    0.000    0.000    0.000    0.000    0.000    0.000 
#    0.000    0.000    0.000    0.000    0.000    0.000 
#
# Total GULP energy -67324.443631 kJ/mol
# GULP energy per Si atom -5610.370303 kJ/mol
# Density = 2.642919 g / cm^3
# Si number density = 26.489477 Si / 1000 Ang^3
#
#
#
# Elastic Constant Matrix: (Units=GPa)
#
#
# Indices 1 2 3 4 5 6 
#
# 1 128.5490 25.5351 49.8314 -17.4654 -0.1939 8.4214
# 2 25.5351 111.0498 46.7199 -27.7049 9.2803 0.8030
# 3 49.8314 46.7199 170.5631 -23.6674 13.6576 -8.3911
# 4 -17.4654 -27.7049 -23.6674 52.0733 1.0063 4.8443
# 5 -0.1939 9.2803 13.6576 1.0063 48.6524 -14.4057
# 6 8.4214 0.8030 -8.3911 4.8443 -14.4057 43.4582
#
#
#
# Elastic Compliance Matrix: (Units=1/GPa)
#
#
# Indices 1 2 3 4 5 6 
#
# 1 0.009249 -0.000635 -0.002389 0.001903 0.000070 -0.002431
# 2 -0.000635 0.011553 -0.002173 0.005160 -0.002245 -0.001829
# 3 -0.002389 -0.002173 0.007518 0.001358 -0.001330 0.001363
# 4 0.001903 0.005160 0.001358 0.023618 -0.002978 -0.003822
# 5 0.000070 -0.002245 -0.001330 -0.002978 0.023782 0.007987
# 6 -0.002431 -0.001829 0.001363 -0.003822 0.007987 0.026852
#
#
# Mechanical properties :
#
#
# Convention : Reuss Voigt Hill
#
# Bulk Modulus (GPa) = 55.78654 72.70384 64.24519
# Shear Modulus (GPa) = 42.03660 48.04180 45.03920
#
# Velocity S-wave (km/s) = 3.98793 4.26328 4.12790
# Velocity P-wave (km/s) = 6.50465 7.19305 6.85749
#
# Compressibility (1/GPa) = 0.01792547
#
# Stress axis : x y z
#
# Youngs Moduli (GPa) = 108.11408 86.55464 133.00706
#
# Poissons Ratio (x) = 0.05496 0.31781
# Poissons Ratio (y) = 0.06865 0.28909
# Poissons Ratio (z) = 0.25833 0.18812
#
# Static dielectric constant tensor:
#      x y z
#    x 2.122730 -0.033650 0.038660 
#    y -0.033650 2.120910 0.051230 
#    z 0.038660 0.051230 2.107320 
# 
# From -- ./inp_files/266108.got.cif
#   From: 2010.05.17/outbox.cif.g08.bks.cpg/sg2_134_cif.got.tgz:266108.got - 2010.06.03 11:33:40.
