data_PCOD9035303
_publ_section_title
;
Structure prediction by ZEFSAII (Michael W. Deem and Ramdas Pophale) SiO2 
 PCOD9035303
Probable space group: P -1
;
_chemical_formula_sum "Si O2"
_cell_formula_units_Z 12
_cell_length_a 9.537536
_cell_length_b 7.169183
_cell_length_c 7.354671
_cell_angle_alpha 70.939067
_cell_angle_beta 111.316736
_cell_angle_gamma 91.236631
_cell_volume 440.092030
_symmetry_space_group_name_H-M "P -1"
_symmetry_group_IT_number 2
_symmetry_cell_setting 'triclinic'
loop_
_space_group_symop_operation_xyz
x,y,z
-x,-y,-z
loop_
_atom_site_type_symbol
_atom_site_label
_atom_site_fract_x
_atom_site_fract_y
_atom_site_fract_z
Si Si1 0.576733 0.352464 0.734211
Si Si2 0.317447 0.611922 0.841645
Si Si3 0.471270 0.060589 0.263392
Si Si4 0.996141 0.555944 0.768165
Si Si5 0.812266 0.717840 0.322447
Si Si6 0.174434 0.977665 0.038443
O O1 0.500000 0.500000 0.500000
O O2 0.499682 0.144825 0.773071
O O3 0.852831 0.676616 0.564622
O O4 0.612708 0.452878 0.908870
O O5 0.140155 0.678601 0.768365
O O6 0.309101 0.430021 0.754396
O O7 0.413523 0.784622 0.774539
O O8 0.500000 0.000000 0.500000
O O9 0.289429 0.118207 0.143806
O O10 0.045641 0.371261 0.713730
O O11 0.000000 0.500000 0.000000
O O12 0.746206 0.241395 0.801124
O O13 0.797714 0.943934 0.177401
O O14 0.000000 0.000000 0.000000
#
# Coordination Sequence:
#
# PCOD9035303 Si02
#       6
#     2   2   2   2   2   2
#     4  10  25  46  72 106 152 203 256 315 383 456
#     4  10  22  45  73 109 151 196 256 317 380 470
#     4  10  25  44  74 108 149 201 257 313 386 457
#     4   9  21  40  74 109 156 203 245 308 399 463
#     4   9  22  42  71 111 154 195 259 308 395 455
#     4  10  25  44  75 108 155 199 263 317 381 459
#
# _framework density 27.267022999999998
#
# number of rings (size 3 to 8) (size 9 to 14) (size 15 to 20)
#    2.000    0.333    0.000    0.500    7.000    2.000 
#    3.000    2.500    0.000    0.000    0.000    0.000 
#    0.000    0.000    0.000    0.000    0.000    0.000 
#
# Total GULP energy -67010.821214 kJ/mol
# GULP energy per Si atom -5584.235101 kJ/mol
# Density = 2.720496 g / cm^3
# Si number density = 27.267023 Si / 1000 Ang^3
#
#
#
# Elastic Constant Matrix: (Units=GPa)
#
#
# Indices 1 2 3 4 5 6 
#
# 1 131.9780 86.9426 69.1558 -6.0739 7.4564 33.6296
# 2 86.9426 177.7260 80.9578 2.5609 3.4715 28.9075
# 3 69.1558 80.9578 243.5414 12.7882 12.7505 21.4183
# 4 -6.0739 2.5609 12.7882 45.1463 -0.2271 -0.5926
# 5 7.4564 3.4715 12.7505 -0.2271 43.7150 5.7285
# 6 33.6296 28.9075 21.4183 -0.5926 5.7285 55.0206
#
#
#
# Elastic Compliance Matrix: (Units=1/GPa)
#
#
# Indices 1 2 3 4 5 6 
#
# 1 0.013023 -0.004830 -0.001778 0.002465 -0.000700 -0.004631
# 2 -0.004830 0.008849 -0.001461 -0.000750 0.000702 -0.001209
# 3 -0.001778 -0.001461 0.005249 -0.001650 -0.001108 -0.000091
# 4 0.002465 -0.000750 -0.001650 0.022990 0.000273 -0.000251
# 5 -0.000700 0.000702 -0.001108 0.000273 0.023520 -0.001956
# 6 -0.004631 -0.001209 -0.000091 -0.000251 -0.001956 0.021878
#
#
# Mechanical properties :
#
#
# Convention : Reuss Voigt Hill
#
# Bulk Modulus (GPa) = 91.04350 114.15085 102.59717
# Shear Modulus (GPa) = 43.36222 49.85567 46.60894
#
# Velocity S-wave (km/s) = 3.99216 4.28065 4.13892
# Velocity P-wave (km/s) = 7.39675 8.14781 7.78135
#
# Compressibility (1/GPa) = 0.01098376
#
# Stress axis : x y z
#
# Youngs Moduli (GPa) = 76.78482 113.01239 190.49786
#
# Poissons Ratio (x) = 0.54580 0.33875
# Poissons Ratio (y) = 0.37084 0.27832
# Poissons Ratio (z) = 0.13654 0.16511
#
# Static dielectric constant tensor:
#      x y z
#    x 2.626510 -0.061890 -0.057240 
#    y -0.061890 2.193250 -0.030920 
#    z -0.057240 -0.030920 2.232720 
# 
# From -- ./inp_files/230317.got.cif
#   From: 2010.05.17/outbox.cif.g08.bks.cpg/sg2_116_cif.got.tgz:230317.got - 2010.06.03 11:33:40.
