data_PCOD9035717
_publ_section_title
;
Structure prediction by ZEFSAII (Michael W. Deem and Ramdas Pophale) SiO2 
 PCOD9035717
Probable space group: P -1
;
_chemical_formula_sum "Si O2"
_cell_formula_units_Z 12
_cell_length_a 11.864456
_cell_length_b 4.964215
_cell_length_c 9.742642
_cell_angle_alpha 106.520493
_cell_angle_beta 62.709312
_cell_angle_gamma 115.065309
_cell_volume 459.021097
_symmetry_space_group_name_H-M "P -1"
_symmetry_group_IT_number 2
_symmetry_cell_setting 'triclinic'
loop_
_space_group_symop_operation_xyz
x,y,z
-x,-y,-z
loop_
_atom_site_type_symbol
_atom_site_label
_atom_site_fract_x
_atom_site_fract_y
_atom_site_fract_z
Si Si1 0.803780 0.974256 0.141027
Si Si2 0.759205 0.466008 0.569715
Si Si3 0.072659 0.369899 0.780805
Si Si4 0.615259 0.442747 0.018506
Si Si5 0.793944 0.115542 0.746464
Si Si6 0.469761 0.367130 0.647233
O O1 0.901752 0.872745 0.169929
O O2 0.667273 0.911554 0.298412
O O3 0.874377 0.318858 0.121391
O O4 0.744555 0.749642 0.014900
O O5 0.832102 0.562841 0.398046
O O6 0.817851 0.267335 0.603799
O O7 0.599630 0.299916 0.616200
O O8 0.772007 0.770097 0.687398
O O9 0.924368 0.270321 0.787991
O O10 0.669413 0.194646 0.892177
O O11 0.500000 0.500000 0.000000
O O12 0.557764 0.392586 0.198576
O O13 0.500000 0.500000 0.500000
#
# Coordination Sequence:
#
# PCOD9035717 Si02
#       6
#     2   2   2   2   2   2
#     4  10  25  42  71 100 138 184 235 285 351 412
#     4  12  24  43  71 102 141 186 235 290 349 415
#     4  12  24  46  67 105 142 184 238 284 348 426
#     4  10  23  48  69 107 139 188 231 295 356 417
#     4  12  26  43  71 101 144 188 229 290 352 423
#     4  10  22  46  71 103 137 183 238 292 347 411
#
# _framework density 26.142586999999999
#
# number of rings (size 3 to 8) (size 9 to 14) (size 15 to 20)
#    1.000    0.000    3.333    3.000    0.000    6.667 
#    0.000    0.000    0.000    0.000    0.000    0.000 
#    0.000    0.000    0.000    0.000    0.000    0.000 
#
# Total GULP energy -67354.845222 kJ/mol
# GULP energy per Si atom -5612.903769 kJ/mol
# Density = 2.608309 g / cm^3
# Si number density = 26.142587 Si / 1000 Ang^3
#
#
#
# Elastic Constant Matrix: (Units=GPa)
#
#
# Indices 1 2 3 4 5 6 
#
# 1 164.0401 26.4452 10.5685 -0.1287 -1.7888 9.3586
# 2 26.4452 96.7720 9.1258 2.9321 0.7147 1.5033
# 3 10.5685 9.1258 122.0551 -13.0894 7.9083 -0.6859
# 4 -0.1287 2.9321 -13.0894 41.5095 -0.2076 6.0713
# 5 -1.7888 0.7147 7.9083 -0.2076 40.8045 -9.3683
# 6 9.3586 1.5033 -0.6859 6.0713 -9.3683 29.4091
#
#
#
# Elastic Compliance Matrix: (Units=1/GPa)
#
#
# Indices 1 2 3 4 5 6 
#
# 1 0.006518 -0.001719 -0.000408 0.000318 -0.000083 -0.002088
# 2 -0.001719 0.010906 -0.000772 -0.001043 -0.000085 0.000160
# 3 -0.000408 -0.000772 0.008715 0.002912 -0.001868 -0.000824
# 4 0.000318 -0.001043 0.002912 0.025937 -0.001753 -0.005893
# 5 -0.000083 -0.000085 -0.001868 -0.001753 0.026906 0.008920
# 6 -0.002088 0.000160 -0.000824 -0.005893 0.008920 0.038698
#
#
# Mechanical properties :
#
#
# Convention : Reuss Voigt Hill
#
# Bulk Modulus (GPa) = 49.16416 52.79404 50.97910
# Shear Modulus (GPa) = 38.38520 44.79314 41.58917
#
# Velocity S-wave (km/s) = 3.83600 4.14383 3.99288
# Velocity P-wave (km/s) = 6.20216 6.56762 6.38751
#
# Compressibility (1/GPa) = 0.02034002
#
# Stress axis : x y z
#
# Youngs Moduli (GPa) = 153.42154 91.69308 114.74729
#
# Poissons Ratio (x) = 0.15765 0.04683
# Poissons Ratio (y) = 0.26378 0.08858
# Poissons Ratio (z) = 0.06261 0.07078
#
# Static dielectric constant tensor:
#      x y z
#    x 1.979260 0.035590 -0.018360 
#    y 0.035590 2.015320 -0.023350 
#    z -0.018360 -0.023350 2.126190 
# 
# From -- ./inp_files/64108.got.cif
#   From: 2010.05.17/outbox.cif.g08.bks.cpg/sg2_33_cif.got.tgz:64108.got - 2010.06.03 11:33:40.
