data_PCOD9035066
_publ_section_title
;
Structure prediction by ZEFSAII (Michael W. Deem and Ramdas Pophale) SiO2 
 PCOD9035066
Probable space group: P -1
;
_chemical_formula_sum "Si O2"
_cell_formula_units_Z 14
_cell_length_a 21.721528
_cell_length_b 5.448490
_cell_length_c 9.040673
_cell_angle_alpha 103.090258
_cell_angle_beta 139.829083
_cell_angle_gamma 100.985973
_cell_volume 548.235118
_symmetry_space_group_name_H-M "P -1"
_symmetry_group_IT_number 2
_symmetry_cell_setting 'triclinic'
loop_
_space_group_symop_operation_xyz
x,y,z
-x,-y,-z
loop_
_atom_site_type_symbol
_atom_site_label
_atom_site_fract_x
_atom_site_fract_y
_atom_site_fract_z
Si Si1 0.022182 0.400683 0.184147
Si Si2 0.338853 0.057567 0.909670
Si Si3 0.572823 0.854223 0.618096
Si Si4 0.426263 0.443140 0.709639
Si Si5 0.782595 0.511279 0.600140
Si Si6 0.148578 0.057261 0.654255
Si Si7 0.096686 0.084466 0.882734
O O1 0.108165 0.298588 0.285707
O O2 0.911086 0.134376 0.032844
O O3 0.090638 0.702114 0.454055
O O4 0.000000 0.500000 0.000000
O O5 0.273460 0.231004 0.823571
O O6 0.280230 0.823112 0.634015
O O7 0.328446 0.950847 0.047137
O O8 0.476167 0.244784 0.155112
O O9 0.500000 0.500000 0.500000
O O10 0.603905 0.820604 0.501810
O O11 0.500000 0.000000 0.500000
O O12 0.313564 0.422334 0.550190
O O13 0.500000 0.500000 0.000000
O O14 0.841025 0.585383 0.879390
O O15 0.040570 0.080161 0.427000
O O16 0.164914 0.112691 0.866521
#
# Coordination Sequence:
#
# PCOD9035066 Si02
#       7
#     2   2   2   2   2   2   2
#     4  11  23  41  66  98 136 179 229 290 358 422
#     4  10  23  43  68 100 139 182 234 288 359 420
#     4  10  22  45  70  96 139 184 237 288 350 421
#     4  11  24  41  68 103 141 182 233 289 355 429
#     4  11  23  39  68  97 139 177 233 289 355 417
#     4  10  23  43  66  98 133 181 231 291 353 423
#     4  11  23  42  68  96 135 176 237 288 355 418
#
# _framework density 25.536487999999999
#
# number of rings (size 3 to 8) (size 9 to 14) (size 15 to 20)
#    0.000    1.429    1.429    3.000    2.000    2.286 
#    2.571    2.857    0.000    0.000    0.000    0.000 
#    0.000    0.000    0.000    0.000    0.000    0.000 
#
# Total GULP energy -78103.156308 kJ/mol
# GULP energy per Si atom -5578.796879 kJ/mol
# Density = 2.547837 g / cm^3
# Si number density = 25.536488 Si / 1000 Ang^3
#
#
#
# Elastic Constant Matrix: (Units=GPa)
#
#
# Indices 1 2 3 4 5 6 
#
# 1 183.0008 41.0653 38.8913 -7.5914 -29.9780 -24.2500
# 2 41.0653 64.8706 13.7419 -9.2051 -5.4240 -12.1991
# 3 38.8913 13.7419 103.3095 -3.3241 -29.4464 7.2366
# 4 -7.5914 -9.2051 -3.3241 39.8637 -9.9962 2.1474
# 5 -29.9780 -5.4240 -29.4464 -9.9962 71.2632 1.9645
# 6 -24.2500 -12.1991 7.2366 2.1474 1.9645 27.7459
#
#
#
# Elastic Compliance Matrix: (Units=1/GPa)
#
#
# Indices 1 2 3 4 5 6 
#
# 1 0.007787 -0.003052 -0.002334 0.000775 0.002026 0.005870
# 2 -0.003052 0.019323 -0.001813 0.003338 -0.000261 0.006061
# 3 -0.002334 -0.001813 0.012596 0.001670 0.004500 -0.006570
# 4 0.000775 0.003338 0.001670 0.027475 0.005146 -0.000781
# 5 0.002026 -0.000261 0.004500 0.005146 0.017478 -0.001154
# 6 0.005870 0.006061 -0.006570 -0.000781 -0.001154 0.045692
#
#
# Mechanical properties :
#
#
# Convention : Reuss Voigt Hill
#
# Bulk Modulus (GPa) = 39.51328 59.84199 49.67763
# Shear Modulus (GPa) = 32.63994 44.94005 38.78999
#
# Velocity S-wave (km/s) = 3.57903 4.19959 3.90167
# Velocity P-wave (km/s) = 5.70842 6.85567 6.30818
#
# Compressibility (1/GPa) = 0.02530795
#
# Stress axis : x y z
#
# Youngs Moduli (GPa) = 128.41528 51.75192 79.38875
#
# Poissons Ratio (x) = 0.15794 0.18532
# Poissons Ratio (y) = 0.39191 0.14394
# Poissons Ratio (z) = 0.29976 0.09383
#
# Static dielectric constant tensor:
#      x y z
#    x 2.033990 0.033370 0.044380 
#    y 0.033370 2.130610 -0.030710 
#    z 0.044380 -0.030710 2.191880 
# 
# From -- ./inp_files/323956.got.cif
#   From: 2010.05.17/outbox.cif.g08.bks.cpg/sg2_162_cif.got.tgz:323956.got - 2010.06.03 11:33:40.
