data_PCOD9035413
_publ_section_title
;
Structure prediction by ZEFSAII (Michael W. Deem and Ramdas Pophale) SiO2 
 PCOD9035413
Probable space group: P -1
;
_chemical_formula_sum "Si O2"
_cell_formula_units_Z 14
_cell_length_a 7.012663
_cell_length_b 9.597135
_cell_length_c 13.521240
_cell_angle_alpha 53.350608
_cell_angle_beta 44.631041
_cell_angle_gamma 72.243712
_cell_volume 501.196055
_symmetry_space_group_name_H-M "P -1"
_symmetry_group_IT_number 2
_symmetry_cell_setting 'triclinic'
loop_
_space_group_symop_operation_xyz
x,y,z
-x,-y,-z
loop_
_atom_site_type_symbol
_atom_site_label
_atom_site_fract_x
_atom_site_fract_y
_atom_site_fract_z
Si Si1 0.590374 0.949286 0.812259
Si Si2 0.177426 0.307090 0.026751
Si Si3 0.221398 0.670836 0.383832
Si Si4 0.443413 0.685043 0.796684
Si Si5 0.727356 0.533449 0.297117
Si Si6 0.910664 0.185876 0.824528
Si Si7 0.572243 0.826127 0.497356
O O1 0.750658 0.860071 0.874033
O O2 0.543762 0.821486 0.788896
O O3 0.760156 0.144634 0.641982
O O4 0.234822 0.368737 0.865986
O O5 0.846293 0.284651 0.155272
O O6 0.354385 0.479132 0.946748
O O7 0.285323 0.949994 0.971871
O O8 0.430264 0.580241 0.408209
O O9 0.000000 0.500000 0.500000
O O10 0.279905 0.764259 0.213786
O O11 0.649837 0.720605 0.611155
O O12 0.974958 0.639108 0.226415
O O13 0.678915 0.322055 0.392927
O O14 0.179783 0.139747 0.689616
O O15 0.500000 0.000000 0.500000
#
# Coordination Sequence:
#
# PCOD9035413 Si02
#       7
#     2   2   2   2   2   2   2
#     4  12  26  45  82 115 143 203 262 314 374 451
#     4  10  22  45  76 114 156 193 255 318 372 456
#     4  12  28  46  72 111 154 192 257 318 370 442
#     4  10  24  47  72 112 159 204 243 312 386 450
#     4  11  24  47  78 108 149 205 248 315 381 441
#     4  12  26  49  79 114 146 200 257 314 373 453
#     4  11  27  46  73 110 158 202 249 305 384 457
#
# _framework density 27.933181000000001
#
# number of rings (size 3 to 8) (size 9 to 14) (size 15 to 20)
#    0.000    0.857    4.286    1.286    4.000    0.571 
#    0.000    2.143    0.000    0.000    0.000    0.000 
#    0.000    0.000    0.000    0.000    0.000    0.000 
#
# Total GULP energy -78277.176761 kJ/mol
# GULP energy per Si atom -5591.226911 kJ/mol
# Density = 2.786960 g / cm^3
# Si number density = 27.933181 Si / 1000 Ang^3
#
#
#
# Elastic Constant Matrix: (Units=GPa)
#
#
# Indices 1 2 3 4 5 6 
#
# 1 121.7209 44.8389 21.1051 -15.9705 -1.6998 27.1882
# 2 44.8389 157.7605 67.5941 -37.6807 -6.8975 27.5241
# 3 21.1051 67.5941 132.4237 -27.5601 -20.0563 13.0180
# 4 -15.9705 -37.6807 -27.5601 58.5019 9.6033 0.7514
# 5 -1.6998 -6.8975 -20.0563 9.6033 48.1100 -12.7593
# 6 27.1882 27.5241 13.0180 0.7514 -12.7593 61.8244
#
#
#
# Elastic Compliance Matrix: (Units=1/GPa)
#
#
# Indices 1 2 3 4 5 6 
#
# 1 0.009960 -0.001710 -0.000160 0.001814 -0.001353 -0.003886
# 2 -0.001710 0.010094 -0.003905 0.004576 -0.002056 -0.003400
# 3 -0.000160 -0.003905 0.010442 0.001780 0.003516 0.000314
# 4 0.001814 0.004576 0.001780 0.022103 -0.004097 -0.004324
# 5 -0.001353 -0.002056 0.003516 -0.004097 0.024272 0.005829
# 6 -0.003886 -0.003400 0.000314 -0.004324 0.005829 0.020587
#
#
# Mechanical properties :
#
#
# Convention : Reuss Voigt Hill
#
# Bulk Modulus (GPa) = 52.77779 75.44238 64.11008
# Shear Modulus (GPa) = 43.35628 52.24505 47.80066
#
# Velocity S-wave (km/s) = 3.94400 4.32946 4.14121
# Velocity P-wave (km/s) = 6.29885 7.21519 6.77254
#
# Compressibility (1/GPa) = 0.01894736
#
# Stress axis : x y z
#
# Youngs Moduli (GPa) = 100.39671 99.06819 95.76708
#
# Poissons Ratio (x) = 0.16944 0.01529
# Poissons Ratio (y) = 0.17171 0.37393
# Poissons Ratio (z) = 0.01603 0.38682
#
# Static dielectric constant tensor:
#      x y z
#    x 2.142400 -0.070490 -0.010330 
#    y -0.070490 2.441450 0.231150 
#    z -0.010330 0.231150 2.424710 
# 
# From -- ./inp_files/555873.got.cif
#   From: 2010.05.17/outbox.cif.g08.bks.cpg/sg2_278_cif.got.tgz:555873.got - 2010.06.03 11:33:40.
