data_PCOD9035687
_publ_section_title
;
Structure prediction by ZEFSAII (Michael W. Deem and Ramdas Pophale) SiO2 
 PCOD9035687
Probable space group: P -1
;
_chemical_formula_sum "Si O2"
_cell_formula_units_Z 16
_cell_length_a 11.636619
_cell_length_b 6.633629
_cell_length_c 11.733506
_cell_angle_alpha 122.114543
_cell_angle_beta 100.221808
_cell_angle_gamma 79.777352
_cell_volume 751.213483
_symmetry_space_group_name_H-M "P -1"
_symmetry_group_IT_number 2
_symmetry_cell_setting 'triclinic'
loop_
_space_group_symop_operation_xyz
x,y,z
-x,-y,-z
loop_
_atom_site_type_symbol
_atom_site_label
_atom_site_fract_x
_atom_site_fract_y
_atom_site_fract_z
Si Si1 0.667113 0.946408 0.828690
Si Si2 0.028956 0.162566 0.660174
Si Si3 0.489964 0.279405 0.743192
Si Si4 0.091801 0.665459 0.843420
Si Si5 0.605344 0.432554 0.586532
Si Si6 0.708051 0.045969 0.333732
Si Si7 0.919939 0.105899 0.861303
Si Si8 0.647824 0.226622 0.129228
O O1 0.578637 0.135441 0.801643
O O2 0.797573 0.999219 0.832598
O O3 0.647378 0.676751 0.714117
O O4 0.645513 0.008516 0.976012
O O5 0.038605 0.437823 0.713707
O O6 0.939227 0.159354 0.748773
O O7 0.159951 0.066154 0.696445
O O8 0.000000 0.000000 0.500000
O O9 0.553130 0.284435 0.634189
O O10 0.451416 0.557267 0.847606
O O11 0.372929 0.142799 0.683031
O O12 0.227880 0.668076 0.838743
O O13 0.078081 0.677629 0.982406
O O14 0.023667 0.906570 0.855750
O O15 0.500000 0.500000 0.500000
O O16 0.703992 0.268764 0.486207
O O17 0.648701 0.138400 0.232522
#
# Coordination Sequence:
#
# PCOD9035687 Si02
#       8
#     2   2   2   2   2   2   2   2
#     4  11  27  43  70 104 136 177 229 280 334 405
#     4  12  27  42  69 105 134 176 227 278 335 408
#     4  12  24  44  72  98 138 176 231 270 343 395
#     4  10  22  46  70  95 133 180 222 276 339 397
#     4  12  26  45  65  97 137 185 217 276 336 402
#     4  12  26  45  69  97 139 181 225 278 342 401
#     4  10  24  45  69  99 135 174 223 280 338 395
#     4  11  23  46  71 100 134 177 229 284 336 395
#
# _framework density 21.298871999999999
#
# number of rings (size 3 to 8) (size 9 to 14) (size 15 to 20)
#    0.000    0.750    5.000    1.125    3.500    4.500 
#    0.000    0.000    0.000    0.000    0.000    0.000 
#    0.000    0.000    0.000    0.000    0.000    0.000 
#
# Total GULP energy -89523.012568 kJ/mol
# GULP energy per Si atom -5595.188285 kJ/mol
# Density = 2.125040 g / cm^3
# Si number density = 21.298872 Si / 1000 Ang^3
#
#
#
# Elastic Constant Matrix: (Units=GPa)
#
#
# Indices 1 2 3 4 5 6 
#
# 1 67.5543 7.5860 11.4347 -5.7060 -14.0593 2.3712
# 2 7.5860 58.9331 29.5350 -1.8707 -7.3264 11.1827
# 3 11.4347 29.5350 126.8669 9.1606 -2.3349 28.1862
# 4 -5.7060 -1.8707 9.1606 33.5330 1.7529 -3.7527
# 5 -14.0593 -7.3264 -2.3349 1.7529 32.5483 1.9721
# 6 2.3712 11.1827 28.1862 -3.7527 1.9721 32.7962
#
#
#
# Elastic Compliance Matrix: (Units=1/GPa)
#
#
# Indices 1 2 3 4 5 6 
#
# 1 0.016783 -0.000486 -0.001523 0.002906 0.006863 0.000181
# 2 -0.000486 0.020237 -0.003898 0.001489 0.004204 -0.003597
# 3 -0.001523 -0.003898 0.011184 -0.004506 0.000036 -0.008690
# 4 0.002906 0.001489 -0.004506 0.032452 -0.000900 0.006923
# 5 0.006863 0.004204 0.000036 -0.000900 0.034938 -0.004164
# 6 0.000181 -0.003597 -0.008690 0.006923 -0.004164 0.040216
#
#
# Mechanical properties :
#
#
# Convention : Reuss Voigt Hill
#
# Bulk Modulus (GPa) = 27.48116 38.94063 33.21090
# Shear Modulus (GPa) = 27.81580 33.42875 30.62228
#
# Velocity S-wave (km/s) = 3.61775 3.96600 3.79587
# Velocity P-wave (km/s) = 5.51194 6.26856 5.90239
#
# Compressibility (1/GPa) = 0.03638856
#
# Stress axis : x y z
#
# Youngs Moduli (GPa) = 59.58482 49.41430 89.41406
#
# Poissons Ratio (x) = 0.02400 0.13621
# Poissons Ratio (y) = 0.02895 0.34857
# Poissons Ratio (z) = 0.09077 0.19264
#
# Static dielectric constant tensor:
#      x y z
#    x 1.758610 -0.000570 -0.006460 
#    y -0.000570 1.738870 -0.000870 
#    z -0.006460 -0.000870 1.772880 
# 
# From -- ./inp_files/68576.got.cif
#   From: 2010.05.17/outbox.cif.g08.bks.cpg/sg2_35_cif.got.tgz:68576.got - 2010.06.03 11:33:40.
