data_PCOD9035519
_publ_section_title
;
Structure prediction by ZEFSAII (Michael W. Deem and Ramdas Pophale) SiO2 
 PCOD9035519
Probable space group: P -1
;
_chemical_formula_sum "Si O2"
_cell_formula_units_Z 16
_cell_length_a 13.079134
_cell_length_b 13.738844
_cell_length_c 10.707373
_cell_angle_alpha 41.984291
_cell_angle_beta 145.206061
_cell_angle_gamma 125.577106
_cell_volume 732.348385
_symmetry_space_group_name_H-M "P -1"
_symmetry_group_IT_number 2
_symmetry_cell_setting 'triclinic'
loop_
_space_group_symop_operation_xyz
x,y,z
-x,-y,-z
loop_
_atom_site_type_symbol
_atom_site_label
_atom_site_fract_x
_atom_site_fract_y
_atom_site_fract_z
Si Si1 0.486565 0.630492 0.960425
Si Si2 0.276518 0.934116 0.703700
Si Si3 0.827175 0.217985 0.636004
Si Si4 0.841570 0.513018 0.520130
Si Si5 0.037757 0.035266 0.813896
Si Si6 0.802669 0.392651 0.100041
Si Si7 0.312667 0.125033 0.802469
Si Si8 0.694729 0.541561 0.609160
O O1 0.365725 0.760329 0.648672
O O2 0.373412 0.584507 0.011216
O O3 0.500000 0.500000 0.000000
O O4 0.691987 0.635380 0.202590
O O5 0.206477 0.772628 0.798754
O O6 0.143041 0.010282 0.394558
O O7 0.274303 0.018031 0.751782
O O8 0.488403 0.913048 0.904670
O O9 0.861899 0.375635 0.578049
O O10 0.967751 0.150188 0.739758
O O11 0.848534 0.100490 0.879737
O O12 0.762695 0.465427 0.621128
O O13 0.029647 0.576681 0.675629
O O14 0.161600 0.104090 0.771389
O O15 0.811671 0.494614 0.891673
O O16 0.307944 0.287463 0.586852
O O17 0.500000 0.500000 0.500000
#
# Coordination Sequence:
#
# PCOD9035519 Si02
#       8
#     2   2   2   2   2   2   2   2
#     4  10  22  46  67 103 142 184 233 294 342 414
#     4  11  24  45  72 102 146 182 234 289 350 429
#     4  10  25  46  72 103 142 188 245 286 341 426
#     4  11  25  43  73 104 141 186 233 297 365 403
#     4  11  24  48  71 101 146 187 236 293 341 428
#     4  12  24  45  72 109 143 178 238 296 353 428
#     4  11  26  46  74 104 140 193 226 287 374 411
#     4  12  24  44  73 108 140 174 235 302 355 422
#
# _framework density 21.847524
#
# number of rings (size 3 to 8) (size 9 to 14) (size 15 to 20)
#    0.000    1.000    3.750    1.500    3.500    2.000 
#    2.250    3.750    0.000    0.000    0.000    0.000 
#    0.000    0.000    0.000    0.000    0.000    0.000 
#
# Total GULP energy -89455.609337 kJ/mol
# GULP energy per Si atom -5590.975584 kJ/mol
# Density = 2.179780 g / cm^3
# Si number density = 21.847524 Si / 1000 Ang^3
#
#
#
# Elastic Constant Matrix: (Units=GPa)
#
#
# Indices 1 2 3 4 5 6 
#
# 1 89.9912 51.5935 33.5286 -2.7776 6.0655 -7.7216
# 2 51.5935 118.4117 47.5850 17.3399 10.3910 -14.1327
# 3 33.5286 47.5850 156.0960 8.5683 -4.0371 -1.3008
# 4 -2.7776 17.3399 8.5683 39.0434 0.5170 -0.3801
# 5 6.0655 10.3910 -4.0371 0.5170 34.7064 0.0400
# 6 -7.7216 -14.1327 -1.3008 -0.3801 0.0400 28.4326
#
#
#
# Elastic Compliance Matrix: (Units=1/GPa)
#
#
# Indices 1 2 3 4 5 6 
#
# 1 0.015852 -0.006707 -0.001625 0.004486 -0.001019 0.000958
# 2 -0.006707 0.014197 -0.002594 -0.006120 -0.003295 0.005039
# 3 -0.001625 -0.002594 0.007622 -0.000676 0.001959 -0.001394
# 4 0.004486 -0.006120 -0.000676 0.028777 0.000543 -0.001471
# 5 -0.001019 -0.003295 0.001959 0.000543 0.030200 -0.001860
# 6 0.000958 0.005039 -0.001394 -0.001471 -0.001860 0.037855
#
#
# Mechanical properties :
#
#
# Convention : Reuss Voigt Hill
#
# Bulk Modulus (GPa) = 63.21719 69.99035 66.60377
# Shear Modulus (GPa) = 30.93503 35.88925 33.41214
#
# Velocity S-wave (km/s) = 3.76699 4.05744 3.91491
# Velocity P-wave (km/s) = 6.92234 7.35226 7.14054
#
# Compressibility (1/GPa) = 0.01581848
#
# Stress axis : x y z
#
# Youngs Moduli (GPa) = 63.08224 70.43778 131.19235
#
# Poissons Ratio (x) = 0.47244 0.21318
# Poissons Ratio (y) = 0.42310 0.34037
# Poissons Ratio (z) = 0.10251 0.18275
#
# Static dielectric constant tensor:
#      x y z
#    x 1.786380 -0.022710 0.000800 
#    y -0.022710 1.775450 0.018400 
#    z 0.000800 0.018400 1.888650 
# 
# From -- ./inp_files/455516.got.cif
#   From: 2010.05.17/outbox.cif.g08.bks.cpg/sg2_228_cif.got.tgz:455516.got - 2010.06.03 11:33:40.
