data_PCOD9035083
_publ_section_title
;
Structure prediction by ZEFSAII (Michael W. Deem and Ramdas Pophale) SiO2 
 PCOD9035083
Probable space group: P -1
;
_chemical_formula_sum "Si O2"
_cell_formula_units_Z 15
_cell_length_a 14.023302
_cell_length_b 7.843667
_cell_length_c 14.990530
_cell_angle_alpha 86.155607
_cell_angle_beta 26.837261
_cell_angle_gamma 99.929589
_cell_volume 636.369404
_symmetry_space_group_name_H-M "P -1"
_symmetry_group_IT_number 2
_symmetry_cell_setting 'triclinic'
loop_
_space_group_symop_operation_xyz
x,y,z
-x,-y,-z
loop_
_atom_site_type_symbol
_atom_site_label
_atom_site_fract_x
_atom_site_fract_y
_atom_site_fract_z
Si Si1 0.475643 0.130848 0.171696
Si Si2 0.506013 0.602920 0.697138
Si Si3 0.553617 0.706960 0.989478
Si Si4 0.006306 0.200753 0.142062
Si Si5 0.028553 0.814775 0.183779
Si Si6 0.185707 0.724795 0.867518
Si Si7 0.965142 0.265030 0.361510
Si Si8 0.000000 0.500000 0.500000
O O1 0.605235 0.859209 0.860802
O O2 0.271605 0.935286 0.398951
O O3 0.497535 0.316350 0.203648
O O4 0.735757 0.142566 0.956365
O O5 0.435233 0.731895 0.686384
O O6 0.774937 0.649263 0.446558
O O7 0.286770 0.375235 0.878939
O O8 0.302191 0.650959 0.249974
O O9 0.500000 0.500000 0.000000
O O10 0.805362 0.773258 0.828257
O O11 0.929865 0.290854 0.285838
O O12 0.828742 0.152684 0.207143
O O13 0.005018 0.005998 0.180557
O O14 0.081400 0.759242 0.044385
O O15 0.000000 0.500000 0.000000
O O16 0.027343 0.438284 0.374844
#
# Coordination Sequence:
#
# PCOD9035083 Si02
#       8
#     2   2   2   2   2   2   2   1
#     4  11  24  45  67  98 137 174 227 283 330 410
#     4  10  22  45  70  99 141 178 223 282 331 399
#     4  10  23  44  67  95 127 174 227 277 339 394
#     4  11  23  45  69 101 139 178 227 279 335 401
#     4  11  24  44  68 106 136 178 227 271 344 397
#     4   9  22  44  68 103 138 178 227 275 332 400
#     4  11  24  44  67  96 137 177 224 280 339 396
#     4  10  24  42  66 100 124 170 228 274 336 400
#
# _framework density 23.571216
#
# number of rings (size 3 to 8) (size 9 to 14) (size 15 to 20)
#    0.000    1.600    1.333    2.400    1.867    6.400 
#   12.000    0.000    0.000    0.000    0.000    0.000 
#    0.000    0.000    0.000    0.000    0.000    0.000 
#
# Total GULP energy -83649.208989 kJ/mol
# GULP energy per Si atom -5576.613933 kJ/mol
# Density = 2.351757 g / cm^3
# Si number density = 23.571216 Si / 1000 Ang^3
#
#
#
# Elastic Constant Matrix: (Units=GPa)
#
#
# Indices 1 2 3 4 5 6 
#
# 1 93.3936 6.3316 21.8790 17.0271 2.1707 -5.6935
# 2 6.3316 54.2906 -3.5266 0.5841 2.2626 7.3348
# 3 21.8790 -3.5266 159.5207 -5.0396 -16.5984 -13.4801
# 4 17.0271 0.5841 -5.0396 30.5206 3.4669 9.5028
# 5 2.1707 2.2626 -16.5984 3.4669 26.3132 -5.1079
# 6 -5.6935 7.3348 -13.4801 9.5028 -5.1079 22.6482
#
#
#
# Elastic Compliance Matrix: (Units=1/GPa)
#
#
# Indices 1 2 3 4 5 6 
#
# 1 0.013593 -0.002702 -0.001456 -0.010405 0.001125 0.008045
# 2 -0.002702 0.020260 -0.000376 0.004826 -0.004428 -0.010488
# 3 -0.001456 -0.000376 0.007576 -0.000440 0.006121 0.005830
# 4 -0.010405 0.004826 -0.000440 0.048192 -0.011473 -0.027248
# 5 0.001125 -0.004428 0.006121 -0.011473 0.047729 0.020938
# 6 0.008045 -0.010488 0.005830 -0.027248 0.020938 0.069198
#
#
# Mechanical properties :
#
#
# Convention : Reuss Voigt Hill
#
# Bulk Modulus (GPa) = 30.90146 39.61920 35.26033
# Shear Modulus (GPa) = 22.08476 34.73113 28.40794
#
# Velocity S-wave (km/s) = 3.06426 3.84273 3.47536
# Velocity P-wave (km/s) = 5.06536 6.04430 5.57635
#
# Compressibility (1/GPa) = 0.03236093
#
# Stress axis : x y z
#
# Youngs Moduli (GPa) = 73.56847 49.35934 131.99937
#
# Poissons Ratio (x) = 0.13335 0.19217
# Poissons Ratio (y) = 0.19876 0.04965
# Poissons Ratio (z) = 0.10711 0.01856
#
# Static dielectric constant tensor:
#      x y z
#    x 1.955190 -0.011160 0.006310 
#    y -0.011160 1.919060 -0.000590 
#    z 0.006310 -0.000590 1.857700 
# 
# From -- ./inp_files/575420.got.cif
#   From: 2010.05.17/outbox.cif.g08.bks.cpg/sg2_288_cif.got.tgz:575420.got - 2010.06.03 11:33:40.
