data_PCOD9035700
_publ_section_title
;
Structure prediction by ZEFSAII (Michael W. Deem and Ramdas Pophale) SiO2 
 PCOD9035700
Probable space group: P -1
;
_chemical_formula_sum "Si O2"
_cell_formula_units_Z 15
_cell_length_a 6.495864
_cell_length_b 7.948246
_cell_length_c 12.427209
_cell_angle_alpha 80.680248
_cell_angle_beta 102.695052
_cell_angle_gamma 90.518052
_cell_volume 617.442966
_symmetry_space_group_name_H-M "P -1"
_symmetry_group_IT_number 2
_symmetry_cell_setting 'triclinic'
loop_
_space_group_symop_operation_xyz
x,y,z
-x,-y,-z
loop_
_atom_site_type_symbol
_atom_site_label
_atom_site_fract_x
_atom_site_fract_y
_atom_site_fract_z
Si Si1 0.153821 0.042363 0.916751
Si Si2 0.223667 0.493435 0.092972
Si Si3 0.543132 0.236539 0.039086
Si Si4 0.838652 0.965523 0.598841
Si Si5 0.469000 0.122862 0.619242
Si Si6 0.106962 0.244450 0.693225
Si Si7 0.913571 0.589927 0.671856
Si Si8 0.500000 0.500000 0.500000
O O1 0.043385 0.173506 0.808728
O O2 0.259835 0.879716 0.883800
O O3 0.354409 0.131174 0.980246
O O4 0.000000 0.000000 0.000000
O O5 0.410339 0.357441 0.092865
O O6 0.158410 0.457702 0.211249
O O7 0.342939 0.663374 0.054923
O O8 0.000000 0.500000 0.000000
O O9 0.696310 0.955704 0.476456
O O10 0.966428 0.788583 0.648595
O O11 0.660024 0.987807 0.668767
O O12 0.970993 0.135782 0.605432
O O13 0.344839 0.182119 0.704193
O O14 0.554572 0.299320 0.563833
O O15 0.085803 0.448031 0.667069
O O16 0.715587 0.565020 0.574143
#
# Coordination Sequence:
#
# PCOD9035700 Si02
#       8
#     2   2   2   2   2   2   2   1
#     4  11  25  43  67 102 140 182 233 293 350 420
#     4  11  24  45  69 102 143 177 239 295 347 423
#     4  10  24  43  68  97 135 190 229 285 361 420
#     4  10  24  45  67 101 138 180 227 293 347 409
#     4  10  23  46  69  99 138 180 231 286 352 417
#     4  12  25  43  72 102 135 183 238 282 349 426
#     4  11  25  44  71 102 141 186 225 296 349 410
#     4  10  22  46  70  98 140 182 222 292 350 408
#
# _framework density 24.293742999999999
#
# number of rings (size 3 to 8) (size 9 to 14) (size 15 to 20)
#    0.000    1.333    1.333    2.800    7.467    3.200 
#    7.200    0.000    0.000    0.000    0.000    0.000 
#    0.000    0.000    0.000    0.000    0.000    0.000 
#
# Total GULP energy -83519.875788 kJ/mol
# GULP energy per Si atom -5567.991719 kJ/mol
# Density = 2.423845 g / cm^3
# Si number density = 24.293743 Si / 1000 Ang^3
#
#
#
# Elastic Constant Matrix: (Units=GPa)
#
#
# Indices 1 2 3 4 5 6 
#
# 1 109.0786 34.3306 23.8132 4.3910 -15.7492 -13.8612
# 2 34.3306 107.7656 18.2821 -18.2442 -2.2970 -26.1999
# 3 23.8132 18.2821 32.8910 -10.6019 -3.0345 -13.1551
# 4 4.3910 -18.2442 -10.6019 24.4305 -1.1109 6.4255
# 5 -15.7492 -2.2970 -3.0345 -1.1109 25.0595 4.7892
# 6 -13.8612 -26.1999 -13.1551 6.4255 4.7892 41.4007
#
#
#
# Elastic Compliance Matrix: (Units=1/GPa)
#
#
# Indices 1 2 3 4 5 6 
#
# 1 0.014208 -0.004426 -0.010687 -0.010001 0.006918 -0.000688
# 2 -0.004426 0.013617 0.001043 0.009684 -0.002166 0.006214
# 3 -0.010687 0.001043 0.047856 0.020965 -0.001660 0.009226
# 4 -0.010001 0.009684 0.020965 0.058960 -0.000308 0.000326
# 5 0.006918 -0.002166 -0.001660 -0.000308 0.044739 -0.004710
# 6 -0.000688 0.006214 0.009226 0.000326 -0.004710 0.031282
#
#
# Mechanical properties :
#
#
# Convention : Reuss Voigt Hill
#
# Bulk Modulus (GPa) = 21.03489 44.73189 32.88339
# Shear Modulus (GPa) = 19.63489 29.73208 24.68348
#
# Velocity S-wave (km/s) = 2.84602 3.50216 3.19100
# Velocity P-wave (km/s) = 4.41329 5.89970 5.20978
#
# Compressibility (1/GPa) = 0.04754006
#
# Stress axis : x y z
#
# Youngs Moduli (GPa) = 70.38384 73.44030 20.89601
#
# Poissons Ratio (x) = 0.32505 0.22332
# Poissons Ratio (y) = 0.31153 -0.02179
# Poissons Ratio (z) = 0.75219 -0.07659
#
# Static dielectric constant tensor:
#      x y z
#    x 1.951780 -0.088350 -0.031800 
#    y -0.088350 2.072740 -0.011600 
#    z -0.031800 -0.011600 1.948980 
# 
# From -- ./inp_files/480352.got.cif
#   From: 2010.05.17/outbox.cif.g08.bks.cpg/sg2_241_cif.got.tgz:480352.got - 2010.06.03 11:33:40.
