data_PCOD9035492
_publ_section_title
;
Structure prediction by ZEFSAII (Michael W. Deem and Ramdas Pophale) SiO2 
 PCOD9035492
Probable space group: P -1
;
_chemical_formula_sum "Si O2"
_cell_formula_units_Z 13
_cell_length_a 17.523600
_cell_length_b 14.919806
_cell_length_c 14.992157
_cell_angle_alpha 152.590811
_cell_angle_beta 161.325172
_cell_angle_gamma 24.346388
_cell_volume 508.311898
_symmetry_space_group_name_H-M "P -1"
_symmetry_group_IT_number 2
_symmetry_cell_setting 'triclinic'
loop_
_space_group_symop_operation_xyz
x,y,z
-x,-y,-z
loop_
_atom_site_type_symbol
_atom_site_label
_atom_site_fract_x
_atom_site_fract_y
_atom_site_fract_z
Si Si1 0.743350 0.740592 0.145269
Si Si2 0.473381 0.707693 0.364431
Si Si3 0.952518 0.694907 0.961044
Si Si4 0.977901 0.091880 0.258422
Si Si5 0.500000 0.000000 0.500000
Si Si6 0.908744 0.323323 0.212504
Si Si7 0.836577 0.880309 0.179288
O O1 0.775259 0.782299 0.113078
O O2 0.794199 0.489358 0.976296
O O3 0.945345 0.778475 0.468160
O O4 0.445506 0.931772 0.007910
O O5 0.731965 0.609357 0.628024
O O6 0.252597 0.909833 0.356077
O O7 0.578353 0.799452 0.479801
O O8 0.328155 0.589298 0.046004
O O9 0.997667 0.713213 0.131158
O O10 0.859927 0.941291 0.037851
O O11 0.815177 0.245731 0.130867
O O12 0.179994 0.123251 0.294653
O O13 0.000000 0.500000 0.500000
O O14 0.000000 0.000000 0.500000
#
# Coordination Sequence:
#
# PCOD9035492 Si02
#       7
#     2   2   2   2   1   2   2
#     4  11  26  46  73 105 141 182 238 289 354 423
#     4  11  23  45  69 100 143 183 233 289 343 411
#     4  12  25  46  75 104 143 190 228 293 358 410
#     4  11  24  46  71 106 144 180 246 291 335 429
#     4  10  22  46  66  92 140 188 230 288 340 404
#     4  11  26  47  70 104 143 191 238 284 350 417
#     4  11  24  50  71 105 142 182 233 293 352 428
#
# _framework density 25.574847999999999
#
# number of rings (size 3 to 8) (size 9 to 14) (size 15 to 20)
#    0.000    0.923    3.077    4.154    4.308    2.462 
#    8.308    0.000    0.000    0.000    0.000    0.000 
#    0.000    0.000    0.000    0.000    0.000    0.000 
#
# Total GULP energy -72485.048942 kJ/mol
# GULP energy per Si atom -5575.772996 kJ/mol
# Density = 2.551664 g / cm^3
# Si number density = 25.574848 Si / 1000 Ang^3
#
#
#
# Elastic Constant Matrix: (Units=GPa)
#
#
# Indices 1 2 3 4 5 6 
#
# 1 136.1086 22.6397 49.8933 18.7364 -15.5881 -1.8277
# 2 22.6397 60.8053 24.3411 16.6815 -19.9205 -3.7569
# 3 49.8933 24.3411 135.7413 12.6061 -50.6302 -5.2605
# 4 18.7364 16.6815 12.6061 39.6739 -6.8920 -4.0417
# 5 -15.5881 -19.9205 -50.6302 -6.8920 45.0557 6.6280
# 6 -1.8277 -3.7569 -5.2605 -4.0417 6.6280 32.0168
#
#
#
# Elastic Compliance Matrix: (Units=1/GPa)
#
#
# Indices 1 2 3 4 5 6 
#
# 1 0.009094 -0.001904 -0.003512 -0.002753 -0.002032 -0.000208
# 2 -0.001904 0.021593 0.000675 -0.006912 0.008608 -0.000118
# 3 -0.003512 0.000675 0.014173 -0.000613 0.015062 -0.000988
# 4 -0.002753 -0.006912 -0.000613 0.029796 -0.000552 0.002807
# 5 -0.002032 0.008608 0.015062 -0.000552 0.042962 -0.005595
# 6 -0.000208 -0.000118 -0.000988 0.002807 -0.005595 0.032558
#
#
# Mechanical properties :
#
#
# Convention : Reuss Voigt Hill
#
# Bulk Modulus (GPa) = 28.26378 58.48928 43.37653
# Shear Modulus (GPa) = 29.16299 39.06804 34.11552
#
# Velocity S-wave (km/s) = 3.38050 3.91269 3.65629
# Velocity P-wave (km/s) = 5.12956 6.58268 5.90102
#
# Compressibility (1/GPa) = 0.03538097
#
# Stress axis : x y z
#
# Youngs Moduli (GPa) = 109.95713 46.31116 70.55548
#
# Poissons Ratio (x) = 0.08816 0.24777
# Poissons Ratio (y) = 0.20932 -0.04766
# Poissons Ratio (z) = 0.38613 -0.03128
#
# Static dielectric constant tensor:
#      x y z
#    x 2.000420 0.028470 0.025580 
#    y 0.028470 2.098920 -0.022110 
#    z 0.025580 -0.022110 2.116810 
# 
# From -- ./inp_files/538767.got.cif
#   From: 2010.05.17/outbox.cif.g08.bks.cpg/sg2_270_cif.got.tgz:538767.got - 2010.06.03 11:33:40.
