data_PCOD9035490
_publ_section_title
;
Structure prediction by ZEFSAII (Michael W. Deem and Ramdas Pophale) SiO2 
 PCOD9035490
Probable space group: P -1
;
_chemical_formula_sum "Si O2"
_cell_formula_units_Z 13
_cell_length_a 19.129840
_cell_length_b 12.126093
_cell_length_c 12.845869
_cell_angle_alpha 32.860187
_cell_angle_beta 28.742357
_cell_angle_gamma 26.213633
_cell_volume 612.639098
_symmetry_space_group_name_H-M "P -1"
_symmetry_group_IT_number 2
_symmetry_cell_setting 'triclinic'
loop_
_space_group_symop_operation_xyz
x,y,z
-x,-y,-z
loop_
_atom_site_type_symbol
_atom_site_label
_atom_site_fract_x
_atom_site_fract_y
_atom_site_fract_z
Si Si1 0.472301 0.687380 0.476918
Si Si2 0.279375 0.824470 0.832375
Si Si3 0.500000 0.000000 0.500000
Si Si4 0.734594 0.737918 0.205740
Si Si5 0.933791 0.371865 0.759333
Si Si6 0.942909 0.816663 0.710467
Si Si7 0.296605 0.133593 0.203914
O O1 0.500000 0.500000 0.500000
O O2 0.401694 0.666550 0.695852
O O3 0.659192 0.649885 0.285868
O O4 0.325293 0.971802 0.396866
O O5 0.397041 0.863331 0.724564
O O6 0.187224 0.692120 0.093474
O O7 0.108500 0.110052 0.789963
O O8 0.433478 0.059613 0.661657
O O9 0.880778 0.485639 0.283647
O O10 0.831843 0.838631 0.940213
O O11 0.809871 0.574460 0.852374
O O12 0.000000 0.500000 0.500000
O O13 0.819210 0.884368 0.717433
O O14 0.000000 0.000000 0.500000
O O15 0.500000 0.000000 0.000000
#
# Coordination Sequence:
#
# PCOD9035490 Si02
#       7
#     2   2   1   2   2   2   2
#     4  11  21  40  67  99 129 171 214 274 326 380
#     4  10  23  42  67  93 131 174 213 270 328 390
#     4  10  22  46  66  92 128 174 220 260 326 390
#     4  10  23  44  66  91 134 170 213 269 325 390
#     4  11  23  42  64  96 132 168 219 265 331 388
#     4  11  24  42  64  97 130 172 215 265 331 389
#     4  12  23  40  65  97 132 167 224 275 315 393
#
# _framework density 21.219671000000002
#
# number of rings (size 3 to 8) (size 9 to 14) (size 15 to 20)
#    0.000    1.231    3.077    2.769    0.000    2.462 
#    2.769    1.538    0.000    0.000    0.000    0.000 
#    0.000    0.000    0.000    0.000    0.000    0.000 
#
# Total GULP energy -72398.621944 kJ/mol
# GULP energy per Si atom -5569.124765 kJ/mol
# Density = 2.117137 g / cm^3
# Si number density = 21.219671 Si / 1000 Ang^3
#
#
#
# Elastic Constant Matrix: (Units=GPa)
#
#
# Indices 1 2 3 4 5 6 
#
# 1 124.5712 11.1827 43.5026 4.2382 -42.8302 6.4365
# 2 11.1827 45.6878 15.3305 11.4509 -12.7662 11.2403
# 3 43.5026 15.3305 148.9308 -10.5391 -39.3201 6.1105
# 4 4.2382 11.4509 -10.5391 13.9800 2.8409 3.1810
# 5 -42.8302 -12.7662 -39.3201 2.8409 40.1054 -5.5663
# 6 6.4365 11.2403 6.1105 3.1810 -5.5663 37.9295
#
#
#
# Elastic Compliance Matrix: (Units=1/GPa)
#
#
# Indices 1 2 3 4 5 6 
#
# 1 0.013956 0.004498 -0.001148 -0.012004 0.016039 -0.000156
# 2 0.004498 0.036360 -0.003440 -0.035393 0.014699 -0.005859
# 3 -0.001148 -0.003440 0.009814 0.009258 0.006621 -0.000172
# 4 -0.012004 -0.035393 0.009258 0.116425 -0.023560 -0.002187
# 5 0.016039 0.014699 0.006621 -0.023560 0.055170 0.001928
# 6 -0.000156 -0.005859 -0.000172 -0.002187 0.001928 0.028621
#
#
# Mechanical properties :
#
#
# Convention : Reuss Voigt Hill
#
# Bulk Modulus (GPa) = 16.68062 51.02463 33.85262
# Shear Modulus (GPa) = 17.82462 35.01456 26.41959
#
# Velocity S-wave (km/s) = 2.90143 4.06655 3.53236
# Velocity P-wave (km/s) = 4.37063 6.79317 5.71181
#
# Compressibility (1/GPa) = 0.05994981
#
# Stress axis : x y z
#
# Youngs Moduli (GPa) = 71.65590 27.50242 101.89166
#
# Poissons Ratio (x) = -0.12371 0.11698
# Poissons Ratio (y) = -0.32231 0.35053
# Poissons Ratio (z) = 0.08227 0.09461
#
# Static dielectric constant tensor:
#      x y z
#    x 1.740470 0.002080 -0.010630 
#    y 0.002080 1.835380 0.010350 
#    z -0.010630 0.010350 1.798670 
# 
# From -- ./inp_files/82429.got.cif
#   From: 2010.05.17/outbox.cif.g08.bks.cpg/sg2_42_cif.got.tgz:82429.got - 2010.06.03 11:33:40.
