data_PCOD9035420
_publ_section_title
;
Structure prediction by ZEFSAII (Michael W. Deem and Ramdas Pophale) SiO2 
 PCOD9035420
Probable space group: P -1
;
_chemical_formula_sum "Si O2"
_cell_formula_units_Z 13
_cell_length_a 11.937122
_cell_length_b 11.885381
_cell_length_c 11.459377
_cell_angle_alpha 76.223186
_cell_angle_beta 46.392224
_cell_angle_gamma 37.508151
_cell_volume 511.279936
_symmetry_space_group_name_H-M "P -1"
_symmetry_group_IT_number 2
_symmetry_cell_setting 'triclinic'
loop_
_space_group_symop_operation_xyz
x,y,z
-x,-y,-z
loop_
_atom_site_type_symbol
_atom_site_label
_atom_site_fract_x
_atom_site_fract_y
_atom_site_fract_z
Si Si1 0.690500 0.114302 0.331955
Si Si2 0.149283 0.311280 0.682591
Si Si3 0.792297 0.858843 0.905129
Si Si4 0.930842 0.209225 0.088293
Si Si5 0.813235 0.245513 0.536891
Si Si6 0.000000 0.500000 0.000000
Si Si7 0.162026 0.666127 0.255809
O O1 0.300041 0.336575 0.532359
O O2 0.781513 0.186545 0.245530
O O3 0.821795 0.971325 0.393809
O O4 0.940115 0.891677 0.110379
O O5 0.031378 0.397541 0.879933
O O6 0.896663 0.417213 0.746228
O O7 0.500000 0.000000 0.500000
O O8 0.737988 0.978635 0.026196
O O9 0.008790 0.801144 0.682153
O O10 0.945601 0.647581 0.917431
O O11 0.500000 0.000000 0.000000
O O12 0.581396 0.518166 0.270450
O O13 0.804405 0.341099 0.628774
O O14 0.000000 0.000000 0.500000
O O15 0.500000 0.500000 0.000000
#
# Coordination Sequence:
#
# PCOD9035420 Si02
#       7
#     2   2   2   2   2   1   2
#     4  10  22  45  77 105 153 211 266 339 403 486
#     4  10  24  45  78 110 156 215 268 335 403 488
#     4  12  30  48  78 122 156 214 275 335 415 489
#     4  11  24  48  73 111 158 212 269 336 413 481
#     4  12  28  48  79 118 164 214 274 338 410 501
#     4  12  28  52  82 110 172 212 268 340 414 474
#     4  11  23  45  73 114 156 204 269 333 409 490
#
# _framework density 25.426386000000001
#
# number of rings (size 3 to 8) (size 9 to 14) (size 15 to 20)
#    0.000    0.923    1.538    4.154    8.615    1.231 
#    0.000    1.538    0.000    0.000    0.000    0.000 
#    0.000    0.000    0.000    0.000    0.000    0.000 
#
# Total GULP energy -72387.728908 kJ/mol
# GULP energy per Si atom -5568.286839 kJ/mol
# Density = 2.536851 g / cm^3
# Si number density = 25.426386 Si / 1000 Ang^3
#
#
#
# Elastic Constant Matrix: (Units=GPa)
#
#
# Indices 1 2 3 4 5 6 
#
# 1 212.1355 44.2509 47.8669 -1.2240 -12.0053 -15.6211
# 2 44.2509 133.7445 36.1107 -22.3820 -8.3150 5.4706
# 3 47.8669 36.1107 63.8339 -14.1709 -10.2936 5.4262
# 4 -1.2240 -22.3820 -14.1709 38.0775 -0.6788 0.2341
# 5 -12.0053 -8.3150 -10.2936 -0.6788 59.1153 -6.4888
# 6 -15.6211 5.4706 5.4262 0.2341 -6.4888 33.5584
#
#
#
# Elastic Compliance Matrix: (Units=1/GPa)
#
#
# Indices 1 2 3 4 5 6 
#
# 1 0.006412 -0.001347 -0.004815 -0.002391 0.000701 0.004135
# 2 -0.001347 0.009633 -0.003256 0.004424 0.000387 -0.001627
# 3 -0.004815 -0.003256 0.023390 0.006706 0.002151 -0.005123
# 4 -0.002391 0.004424 0.006706 0.031323 0.001348 -0.002876
# 5 0.000701 0.000387 0.002151 0.001348 0.017872 0.003362
# 6 0.004135 -0.001627 -0.005123 -0.002876 0.003362 0.033487
#
#
# Mechanical properties :
#
#
# Convention : Reuss Voigt Hill
#
# Bulk Modulus (GPa) = 48.55108 74.01899 61.28503
# Shear Modulus (GPa) = 33.82505 44.91592 39.37048
#
# Velocity S-wave (km/s) = 3.65130 4.20754 3.93925
# Velocity P-wave (km/s) = 6.07554 7.26491 6.69668
#
# Compressibility (1/GPa) = 0.02059687
#
# Stress axis : x y z
#
# Youngs Moduli (GPa) = 155.96211 103.81265 42.75383
#
# Poissons Ratio (x) = 0.13983 0.20587
# Poissons Ratio (y) = 0.21007 0.13923
# Poissons Ratio (z) = 0.75100 0.33807
#
# Static dielectric constant tensor:
#      x y z
#    x 2.138870 0.060490 -0.080500 
#    y 0.060490 2.079250 0.073420 
#    z -0.080500 0.073420 2.043810 
# 
# From -- ./inp_files/423573.got.cif
#   From: 2010.05.17/outbox.cif.g08.bks.cpg/sg2_212_cif.got.tgz:423573.got - 2010.06.03 11:33:40.
