data_PCOD9035787
_publ_section_title
;
Structure prediction by ZEFSAII (Michael W. Deem and Ramdas Pophale) SiO2 
 PCOD9035787
Probable space group: P -1
;
_chemical_formula_sum "Si O2"
_cell_formula_units_Z 16
_cell_length_a 9.758682
_cell_length_b 14.346112
_cell_length_c 12.315498
_cell_angle_alpha 151.955888
_cell_angle_beta 115.821098
_cell_angle_gamma 67.188222
_cell_volume 729.660442
_symmetry_space_group_name_H-M "P -1"
_symmetry_group_IT_number 2
_symmetry_cell_setting 'triclinic'
loop_
_space_group_symop_operation_xyz
x,y,z
-x,-y,-z
loop_
_atom_site_type_symbol
_atom_site_label
_atom_site_fract_x
_atom_site_fract_y
_atom_site_fract_z
Si Si1 0.913469 0.146805 0.863886
Si Si2 0.365547 0.932025 0.459639
Si Si3 0.923756 0.695231 0.477625
Si Si4 0.930468 0.565805 0.928139
Si Si5 0.433685 0.995773 0.092836
Si Si6 0.576367 0.653837 0.390490
Si Si7 0.381211 0.286479 0.978937
Si Si8 0.109144 0.808634 0.851104
O O1 0.761411 0.162515 0.756387
O O2 0.939750 0.920292 0.672809
O O3 0.893883 0.248980 0.081326
O O4 0.038049 0.219937 0.895783
O O5 0.445889 0.773486 0.402692
O O6 0.500000 0.000000 0.500000
O O7 0.314415 0.137435 0.711565
O O8 0.744797 0.668524 0.412898
O O9 0.987760 0.566045 0.269381
O O10 0.030725 0.664932 0.589258
O O11 0.749413 0.563030 0.872522
O O12 0.000000 0.500000 0.000000
O O13 0.414617 0.218566 0.363568
O O14 0.555831 0.868066 0.071102
O O15 0.274200 0.881910 0.942375
O O16 0.500000 0.000000 0.000000
O O17 0.521463 0.427957 0.142207
O O18 0.000000 0.000000 0.000000
#
# Coordination Sequence:
#
# PCOD9035787 Si02
#       8
#     2   2   2   2   2   2   2   2
#     4  11  23  46  74  98 143 187 243 295 350 430
#     4  11  22  42  72 102 136 185 234 295 365 417
#     4  11  25  44  75 103 143 188 240 297 354 429
#     4  12  29  46  68 110 146 192 239 296 364 421
#     4  11  25  46  72 104 147 189 240 299 363 426
#     4  11  24  45  71 107 143 183 242 297 360 435
#     4  11  28  45  67 107 146 182 239 294 367 426
#     4  10  22  46  72 105 135 186 246 286 353 428
#
# _framework density 21.928008999999999
#
# number of rings (size 3 to 8) (size 9 to 14) (size 15 to 20)
#    0.000    1.000    3.750    2.250    8.750    4.500 
#    0.000    0.000    0.000    0.000    0.000    0.000 
#    0.000    0.000    0.000    0.000    0.000    0.000 
#
# Total GULP energy -89327.750194 kJ/mol
# GULP energy per Si atom -5582.984387 kJ/mol
# Density = 2.187810 g / cm^3
# Si number density = 21.928009 Si / 1000 Ang^3
#
#
#
# Elastic Constant Matrix: (Units=GPa)
#
#
# Indices 1 2 3 4 5 6 
#
# 1 122.1335 38.9066 36.4788 -18.2398 -6.9737 9.5373
# 2 38.9066 102.0404 49.1848 -15.6274 -0.1974 19.8780
# 3 36.4788 49.1848 97.6214 -22.1865 -7.1846 7.5101
# 4 -18.2398 -15.6274 -22.1865 38.7513 1.4066 0.6349
# 5 -6.9737 -0.1974 -7.1846 1.4066 43.3424 2.5430
# 6 9.5373 19.8780 7.5101 0.6349 2.5430 38.9748
#
#
#
# Elastic Compliance Matrix: (Units=1/GPa)
#
#
# Indices 1 2 3 4 5 6 
#
# 1 0.010026 -0.002346 -0.001769 0.002731 0.001282 -0.001044
# 2 -0.002346 0.014930 -0.005886 0.001679 -0.000995 -0.005869
# 3 -0.001769 -0.005886 0.015233 0.005437 0.002021 0.000279
# 4 0.002731 0.001679 0.005437 0.030913 0.000528 -0.003110
# 5 0.001282 -0.000995 0.002021 0.000528 0.023694 -0.001750
# 6 -0.001044 -0.005869 0.000279 -0.003110 -0.001750 0.029017
#
#
# Mechanical properties :
#
#
# Convention : Reuss Voigt Hill
#
# Bulk Modulus (GPa) = 49.53567 63.43729 56.48648
# Shear Modulus (GPa) = 33.21268 37.36206 35.28737
#
# Velocity S-wave (km/s) = 3.89604 4.13225 4.01588
# Velocity P-wave (km/s) = 6.54813 7.19444 6.87888
#
# Compressibility (1/GPa) = 0.02018747
#
# Stress axis : x y z
#
# Youngs Moduli (GPa) = 99.74018 66.97919 65.64608
#
# Poissons Ratio (x) = 0.15713 0.11615
# Poissons Ratio (y) = 0.23398 0.38638
# Poissons Ratio (z) = 0.17647 0.39422
#
# Static dielectric constant tensor:
#      x y z
#    x 1.656430 -0.022510 -0.022030 
#    y -0.022510 1.833180 0.055200 
#    z -0.022030 0.055200 1.911800 
# 
# From -- ./inp_files/400144.got.cif
#   From: 2010.05.17/outbox.cif.g08.bks.cpg/sg2_201_cif.got.tgz:400144.got - 2010.06.03 11:33:40.
