data_PCOD9035547
_publ_section_title
;
Structure prediction by ZEFSAII (Michael W. Deem and Ramdas Pophale) SiO2 
 PCOD9035547
Probable space group: P -1
;
_chemical_formula_sum "Si O2"
_cell_formula_units_Z 16
_cell_length_a 8.649316
_cell_length_b 11.934961
_cell_length_c 17.755424
_cell_angle_alpha 29.329868
_cell_angle_beta 127.753404
_cell_angle_gamma 130.554484
_cell_volume 677.044215
_symmetry_space_group_name_H-M "P -1"
_symmetry_group_IT_number 2
_symmetry_cell_setting 'triclinic'
loop_
_space_group_symop_operation_xyz
x,y,z
-x,-y,-z
loop_
_atom_site_type_symbol
_atom_site_label
_atom_site_fract_x
_atom_site_fract_y
_atom_site_fract_z
Si Si1 0.739940 0.425827 0.410010
Si Si2 0.357593 0.746339 0.360984
Si Si3 0.878694 0.139116 0.063060
Si Si4 0.713480 0.560009 0.771641
Si Si5 0.081825 0.965410 0.359119
Si Si6 0.180656 0.178254 0.900868
Si Si7 0.219281 0.361033 0.424948
Si Si8 0.324606 0.283246 0.038617
O O1 0.759102 0.428928 0.503637
O O2 0.520641 0.455951 0.305565
O O3 0.761403 0.170619 0.543252
O O4 0.888790 0.635572 0.281427
O O5 0.284428 0.621349 0.332352
O O6 0.591110 0.744676 0.443204
O O7 0.347774 0.015711 0.210151
O O8 0.105386 0.268701 0.019644
O O9 0.754690 0.982315 0.048674
O O10 0.761957 0.319947 0.951053
O O11 0.923717 0.981146 0.237079
O O12 0.818743 0.620968 0.684971
O O13 0.805388 0.767837 0.736563
O O14 0.969694 0.813305 0.485613
O O15 0.325265 0.319441 0.927309
O O16 0.000000 0.000000 0.000000
O O17 0.500000 0.500000 0.000000
#
# Coordination Sequence:
#
# PCOD9035547 Si02
#       8
#     2   2   2   2   2   2   2   2
#     4  11  25  44  73  99 139 183 237 297 351 410
#     4  10  22  46  68 103 137 176 240 282 352 417
#     4  11  25  45  68 102 142 186 234 288 350 423
#     4  11  26  45  66 103 145 182 236 289 357 419
#     4  12  25  42  73 101 141 182 239 288 356 413
#     4  10  25  44  69 105 140 183 234 288 353 429
#     4  10  24  41  71  99 136 183 227 296 344 411
#     4  11  25  41  72 102 146 183 232 288 355 417
#
# _framework density 23.632135000000002
#
# number of rings (size 3 to 8) (size 9 to 14) (size 15 to 20)
#    0.000    1.250    1.250    2.625   10.500    4.500 
#    0.000    0.000    0.000    0.000    0.000    0.000 
#    0.000    0.000    0.000    0.000    0.000    0.000 
#
# Total GULP energy -89552.981449 kJ/mol
# GULP energy per Si atom -5597.061341 kJ/mol
# Density = 2.357835 g / cm^3
# Si number density = 23.632135 Si / 1000 Ang^3
#
#
#
# Elastic Constant Matrix: (Units=GPa)
#
#
# Indices 1 2 3 4 5 6 
#
# 1 77.0284 17.4249 45.1628 0.4871 13.4840 -10.1584
# 2 17.4249 125.5805 43.7044 -14.0907 8.7917 -16.8009
# 3 45.1628 43.7044 133.6677 -8.9454 22.8246 -13.6148
# 4 0.4871 -14.0907 -8.9454 35.4870 -15.5911 4.7280
# 5 13.4840 8.7917 22.8246 -15.5911 54.8582 3.4786
# 6 -10.1584 -16.8009 -13.6148 4.7280 3.4786 28.5538
#
#
#
# Elastic Compliance Matrix: (Units=1/GPa)
#
#
# Indices 1 2 3 4 5 6 
#
# 1 0.017158 -0.000222 -0.004900 -0.003718 -0.003497 0.004679
# 2 -0.000222 0.009703 -0.002524 0.002723 0.000072 0.003968
# 3 -0.004900 -0.002524 0.010698 0.000181 -0.002930 0.002200
# 4 -0.003718 0.002723 0.000181 0.034988 0.010773 -0.006740
# 5 -0.003497 0.000072 -0.002930 0.010773 0.023820 -0.007285
# 6 0.004679 0.003968 0.002200 -0.006740 -0.007285 0.042073
#
#
# Mechanical properties :
#
#
# Convention : Reuss Voigt Hill
#
# Bulk Modulus (GPa) = 44.90530 60.98452 52.94491
# Shear Modulus (GPa) = 31.02601 39.11212 35.06907
#
# Velocity S-wave (km/s) = 3.62729 4.07263 3.85640
# Velocity P-wave (km/s) = 6.04864 6.92653 6.50242
#
# Compressibility (1/GPa) = 0.02226909
#
# Stress axis : x y z
#
# Youngs Moduli (GPa) = 58.28214 103.05723 93.47114
#
# Poissons Ratio (x) = 0.02287 0.45799
# Poissons Ratio (y) = 0.01294 0.23588
# Poissons Ratio (z) = 0.28557 0.26007
#
# Static dielectric constant tensor:
#      x y z
#    x 1.940340 0.029320 -0.021440 
#    y 0.029320 1.882740 -0.007620 
#    z -0.021440 -0.007620 1.875230 
# 
# From -- ./inp_files/278693.got.cif
#   From: 2010.05.17/outbox.cif.g08.bks.cpg/sg2_140_cif.got.tgz:278693.got - 2010.06.03 11:33:40.
