data_PCOD9035074
_publ_section_title
;
Structure prediction by ZEFSAII (Michael W. Deem and Ramdas Pophale) SiO2 
 PCOD9035074
Probable space group: P -1
;
_chemical_formula_sum "Si O2"
_cell_formula_units_Z 14
_cell_length_a 25.475234
_cell_length_b 8.634226
_cell_length_c 11.419106
_cell_angle_alpha 39.284953
_cell_angle_beta 149.755923
_cell_angle_gamma 151.576041
_cell_volume 601.121728
_symmetry_space_group_name_H-M "P -1"
_symmetry_group_IT_number 2
_symmetry_cell_setting 'triclinic'
loop_
_space_group_symop_operation_xyz
x,y,z
-x,-y,-z
loop_
_atom_site_type_symbol
_atom_site_label
_atom_site_fract_x
_atom_site_fract_y
_atom_site_fract_z
Si Si1 0.253142 0.478755 0.538722
Si Si2 0.056602 0.358680 0.047916
Si Si3 0.303100 0.629705 0.212965
Si Si4 0.508272 0.336585 0.280922
Si Si5 0.604268 0.338156 0.067753
Si Si6 0.976872 0.201755 0.419294
Si Si7 0.809550 0.652002 0.082739
O O1 0.152280 0.511560 0.259410
O O2 0.381133 0.601669 0.632590
O O3 0.307477 0.655288 0.664599
O O4 0.164952 0.094256 0.615935
O O5 0.155137 0.354364 0.152217
O O6 0.032122 0.573557 0.808439
O O7 0.915980 0.008783 0.021375
O O8 0.419857 0.614587 0.484637
O O9 0.366720 0.973729 0.191743
O O10 0.277164 0.598656 0.043579
O O11 0.478037 0.573040 0.079956
O O12 0.708156 0.605177 0.013219
O O13 0.500000 0.000000 0.000000
O O14 0.095984 0.392354 0.635999
O O15 0.000000 0.000000 0.500000
#
# Coordination Sequence:
#
# PCOD9035074 Si02
#       7
#     2   2   2   2   2   2   2
#     4  10  22  45  70  98 133 184 232 272 345 407
#     4  10  24  44  74  93 139 181 226 282 341 408
#     4  10  22  46  70 101 132 184 236 276 338 407
#     4  10  23  45  70  96 138 186 229 278 339 408
#     4  12  25  43  67 106 143 176 229 284 341 407
#     4  11  23  45  67 105 136 177 225 278 350 405
#     4  11  25  43  68 107 138 172 233 282 345 398
#
# _framework density 23.289791000000001
#
# number of rings (size 3 to 8) (size 9 to 14) (size 15 to 20)
#    0.000    1.429    1.429    2.571    0.000    5.714 
#    7.714    1.429    0.000    0.000    0.000    0.000 
#    0.000    0.000    0.000    0.000    0.000    0.000 
#
# Total GULP energy -78317.818186 kJ/mol
# GULP energy per Si atom -5594.129870 kJ/mol
# Density = 2.323678 g / cm^3
# Si number density = 23.289791 Si / 1000 Ang^3
#
#
#
# Elastic Constant Matrix: (Units=GPa)
#
#
# Indices 1 2 3 4 5 6 
#
# 1 76.0744 29.9775 27.5386 15.5387 -28.6526 15.8709
# 2 29.9775 92.7484 62.0980 9.2564 -13.3599 16.0023
# 3 27.5386 62.0980 183.6094 2.1054 -51.3548 -12.5620
# 4 15.5387 9.2564 2.1054 40.2561 -5.3464 -10.7329
# 5 -28.6526 -13.3599 -51.3548 -5.3464 43.0151 12.9423
# 6 15.8709 16.0023 -12.5620 -10.7329 12.9423 38.6153
#
#
#
# Elastic Compliance Matrix: (Units=1/GPa)
#
#
# Indices 1 2 3 4 5 6 
#
# 1 0.033319 -0.001926 0.002630 -0.015581 0.030834 -0.026706
# 2 -0.001926 0.018145 -0.006922 -0.005974 -0.001615 -0.010099
# 3 0.002630 -0.006922 0.010964 0.002128 0.012420 0.001784
# 4 -0.015581 -0.005974 0.002128 0.036866 -0.012316 0.023946
# 5 0.030834 -0.001615 0.012420 -0.012316 0.066737 -0.033754
# 6 -0.026706 -0.010099 0.001784 0.023946 -0.033754 0.059606
#
#
# Mechanical properties :
#
#
# Convention : Reuss Voigt Hill
#
# Bulk Modulus (GPa) = 20.00325 65.74004 42.87164
# Shear Modulus (GPa) = 19.62802 39.89850 29.76326
#
# Velocity S-wave (km/s) = 2.90621 4.14349 3.57873
# Velocity P-wave (km/s) = 4.45745 7.15399 5.96022
#
# Compressibility (1/GPa) = 0.04999188
#
# Stress axis : x y z
#
# Youngs Moduli (GPa) = 30.01277 55.11271 91.20428
#
# Poissons Ratio (x) = 0.10613 -0.23983
# Poissons Ratio (y) = 0.05780 0.63132
# Poissons Ratio (z) = -0.07892 0.38149
#
# Static dielectric constant tensor:
#      x y z
#    x 1.908830 0.044470 -0.018770 
#    y 0.044470 1.867670 0.015690 
#    z -0.018770 0.015690 1.897490 
# 
# From -- ./inp_files/476374.got.cif
#   From: 2010.05.17/outbox.cif.g08.bks.cpg/sg2_239_cif.got.tgz:476374.got - 2010.06.03 11:33:40.
