data_PCOD9035240
_publ_section_title
;
Structure prediction by ZEFSAII (Michael W. Deem and Ramdas Pophale) SiO2 
 PCOD9035240
Probable space group: P -1
;
_chemical_formula_sum "Si O2"
_cell_formula_units_Z 14
_cell_length_a 10.848082
_cell_length_b 5.399598
_cell_length_c 11.245013
_cell_angle_alpha 112.600020
_cell_angle_beta 59.880917
_cell_angle_gamma 99.842497
_cell_volume 525.799023
_symmetry_space_group_name_H-M "P -1"
_symmetry_group_IT_number 2
_symmetry_cell_setting 'triclinic'
loop_
_space_group_symop_operation_xyz
x,y,z
-x,-y,-z
loop_
_atom_site_type_symbol
_atom_site_label
_atom_site_fract_x
_atom_site_fract_y
_atom_site_fract_z
Si Si1 0.948657 0.381244 0.161746
Si Si2 0.694059 0.108471 0.355674
Si Si3 0.661765 0.113113 0.955912
Si Si4 0.089882 0.826844 0.327103
Si Si5 0.661194 0.338601 0.670648
Si Si6 0.771387 0.628338 0.081729
Si Si7 0.509937 0.143091 0.248089
O O1 0.845955 0.216265 0.263566
O O2 0.866069 0.439990 0.090511
O O3 0.985806 0.656592 0.263828
O O4 0.102071 0.249117 0.034151
O O5 0.681743 0.165393 0.509386
O O6 0.564771 0.240395 0.367103
O O7 0.688504 0.807906 0.251918
O O8 0.797674 0.030553 0.792797
O O9 0.675949 0.438679 0.010795
O O10 0.655757 0.066450 0.092728
O O11 0.500000 0.000000 0.000000
O O12 0.192086 0.633739 0.323789
O O13 0.000000 0.000000 0.500000
O O14 0.583352 0.615854 0.721556
O O15 0.574601 0.131073 0.754306
#
# Coordination Sequence:
#
# PCOD9035240 Si02
#       7
#     2   2   2   2   2   2   2
#     4  10  23  44  75 108 156 211 263 322 402 481
#     4  12  25  45  78 111 157 206 264 337 398 476
#     4  11  23  49  83 112 156 209 263 332 394 479
#     4  11  26  51  78 119 162 210 266 331 404 480
#     4  12  29  50  80 116 166 208 270 331 406 472
#     4  10  22  45  72 115 155 202 273 324 398 480
#     4  12  27  51  78 119 154 211 273 330 399 480
#
# _framework density 26.626145999999999
#
# number of rings (size 3 to 8) (size 9 to 14) (size 15 to 20)
#    0.000    0.857    2.857    3.000    4.000    1.143 
#   10.286    0.000    0.000    0.000    0.000    0.000 
#    0.000    0.000    0.000    0.000    0.000    0.000 
#
# Total GULP energy -78182.298133 kJ/mol
# GULP energy per Si atom -5584.449867 kJ/mol
# Density = 2.656554 g / cm^3
# Si number density = 26.626146 Si / 1000 Ang^3
#
#
#
# Elastic Constant Matrix: (Units=GPa)
#
#
# Indices 1 2 3 4 5 6 
#
# 1 128.8036 53.8192 21.2633 13.1374 1.5128 20.6532
# 2 53.8192 119.8726 41.6655 6.3420 -24.8481 22.3730
# 3 21.2633 41.6655 154.8069 9.9300 -13.0872 11.3964
# 4 13.1374 6.3420 9.9300 42.7928 2.1307 1.1519
# 5 1.5128 -24.8481 -13.0872 2.1307 42.1379 7.8969
# 6 20.6532 22.3730 11.3964 1.1519 7.8969 57.8402
#
#
#
# Elastic Compliance Matrix: (Units=1/GPa)
#
#
# Indices 1 2 3 4 5 6 
#
# 1 0.010263 -0.004789 -0.000120 -0.002234 -0.002863 -0.001353
# 2 -0.004789 0.013792 -0.001983 -0.000420 0.008533 -0.004391
# 3 -0.000120 -0.001983 0.007267 -0.001400 0.001308 -0.000773
# 4 -0.002234 -0.000420 -0.001400 0.024515 -0.002034 0.001026
# 5 -0.002863 0.008533 0.001308 -0.002034 0.030627 -0.006677
# 6 -0.001353 -0.004391 -0.000773 0.001026 -0.006677 0.020514
#
#
# Mechanical properties :
#
#
# Convention : Reuss Voigt Hill
#
# Bulk Modulus (GPa) = 57.01494 70.77544 63.89519
# Shear Modulus (GPa) = 39.49233 47.66986 43.58110
#
# Velocity S-wave (km/s) = 3.85543 4.23583 4.05010
# Velocity P-wave (km/s) = 6.42486 7.11069 6.77646
#
# Compressibility (1/GPa) = 0.01753926
#
# Stress axis : x y z
#
# Youngs Moduli (GPa) = 97.43746 72.50624 137.60840
#
# Poissons Ratio (x) = 0.34722 0.01650
# Poissons Ratio (y) = 0.46661 0.27283
# Poissons Ratio (z) = 0.01168 0.14376
#
# Static dielectric constant tensor:
#      x y z
#    x 2.190840 -0.012460 0.054580 
#    y -0.012460 2.210710 -0.000880 
#    z 0.054580 -0.000880 2.190930 
# 
# From -- ./inp_files/408807.got.cif
#   From: 2010.05.17/outbox.cif.g08.bks.cpg/sg2_205_cif.got.tgz:408807.got - 2010.06.03 11:33:40.
