data_PCOD9035137
_publ_section_title
;
Structure prediction by ZEFSAII (Michael W. Deem and Ramdas Pophale) SiO2 
 PCOD9035137
Probable space group: P -1
;
_chemical_formula_sum "Si O2"
_cell_formula_units_Z 16
_cell_length_a 18.376609
_cell_length_b 10.201379
_cell_length_c 16.147323
_cell_angle_alpha 34.182495
_cell_angle_beta 154.586035
_cell_angle_gamma 143.148746
_cell_volume 712.020360
_symmetry_space_group_name_H-M "P -1"
_symmetry_group_IT_number 2
_symmetry_cell_setting 'triclinic'
loop_
_space_group_symop_operation_xyz
x,y,z
-x,-y,-z
loop_
_atom_site_type_symbol
_atom_site_label
_atom_site_fract_x
_atom_site_fract_y
_atom_site_fract_z
Si Si1 0.309913 0.605018 0.908866
Si Si2 0.662592 0.078379 0.523723
Si Si3 0.252405 0.053955 0.141580
Si Si4 0.089527 0.604792 0.125806
Si Si5 0.099209 0.794766 0.734332
Si Si6 0.475273 0.728936 0.402777
Si Si7 0.361226 0.105725 0.965505
Si Si8 0.192018 0.506623 0.661709
O O1 0.195908 0.731002 0.785016
O O2 0.301657 0.625575 0.790423
O O3 0.237232 0.324624 0.994086
O O4 0.513887 0.725658 0.061380
O O5 0.457224 0.087574 0.309274
O O6 0.767411 0.312912 0.466111
O O7 0.745694 0.059595 0.707116
O O8 0.641492 0.837235 0.574164
O O9 0.107270 0.886271 0.022256
O O10 0.296559 0.625574 0.321945
O O11 0.012644 0.434940 0.212089
O O12 0.000000 0.500000 0.000000
O O13 0.234951 0.913741 0.880821
O O14 0.000000 0.000000 0.500000
O O15 0.500000 0.500000 0.500000
O O16 0.445934 0.939843 0.201022
O O17 0.255026 0.268241 0.824173
O O18 0.000000 0.500000 0.500000
#
# Coordination Sequence:
#
# PCOD9035137 Si02
#       8
#     2   2   2   2   2   2   2   2
#     4  12  26  48  74 107 146 196 252 305 371 444
#     4  10  22  45  71 107 139 185 247 303 359 443
#     4  10  24  44  75 104 142 188 246 309 363 428
#     4  11  25  49  72 103 151 196 243 304 377 448
#     4  12  30  47  71 111 154 195 244 314 381 433
#     4  11  25  44  76 105 141 200 251 297 364 450
#     4  12  25  49  76 106 150 199 253 302 368 460
#     4  12  25  44  77 106 145 191 245 310 375 439
#
# _framework density 22.471267999999998
#
# number of rings (size 3 to 8) (size 9 to 14) (size 15 to 20)
#    0.000    0.750    3.750    3.000    7.000    2.500 
#    2.250    0.000    0.000    0.000    0.000    0.000 
#    0.000    0.000    0.000    0.000    0.000    0.000 
#
# Total GULP energy -89304.422115 kJ/mol
# GULP energy per Si atom -5581.526382 kJ/mol
# Density = 2.242012 g / cm^3
# Si number density = 22.471268 Si / 1000 Ang^3
#
#
#
# Elastic Constant Matrix: (Units=GPa)
#
#
# Indices 1 2 3 4 5 6 
#
# 1 165.3161 76.9868 46.1560 -18.3657 -2.8608 13.6668
# 2 76.9868 160.3947 40.8538 -10.3462 13.2972 2.8609
# 3 46.1560 40.8538 47.4850 -10.4719 -5.9211 1.6408
# 4 -18.3657 -10.3462 -10.4719 40.0729 -11.5300 4.7810
# 5 -2.8608 13.2972 -5.9211 -11.5300 34.5043 -6.1695
# 6 13.6668 2.8609 1.6408 4.7810 -6.1695 53.1527
#
#
#
# Elastic Compliance Matrix: (Units=1/GPa)
#
#
# Indices 1 2 3 4 5 6 
#
# 1 0.009613 -0.003025 -0.005865 0.002784 0.001492 -0.002205
# 2 -0.003025 0.009730 -0.006682 -0.002323 -0.005927 -0.000019
# 3 -0.005865 -0.006682 0.035590 0.007916 0.011082 0.001343
# 4 0.002784 -0.002323 0.007916 0.031603 0.012650 -0.002210
# 5 0.001492 -0.005927 0.011082 0.012650 0.038032 0.002870
# 6 -0.002205 -0.000019 0.001343 -0.002210 0.002870 0.019872
#
#
# Mechanical properties :
#
#
# Convention : Reuss Voigt Hill
#
# Bulk Modulus (GPa) = 42.03571 77.90991 59.97281
# Shear Modulus (GPa) = 27.24616 39.49259 33.36937
#
# Velocity S-wave (km/s) = 3.48586 4.19677 3.85772
# Velocity P-wave (km/s) = 5.91174 7.63086 6.82564
#
# Compressibility (1/GPa) = 0.02378930
#
# Stress axis : x y z
#
# Youngs Moduli (GPa) = 104.03064 102.77147 28.09793
#
# Poissons Ratio (x) = 0.31087 0.16479
# Poissons Ratio (y) = 0.31468 0.18775
# Poissons Ratio (z) = 0.61011 0.68673
#
# Static dielectric constant tensor:
#      x y z
#    x 1.967930 0.071180 0.194250 
#    y 0.071180 2.007980 0.105190 
#    z 0.194250 0.105190 1.906500 
# 
# From -- ./inp_files/333731.got.cif
#   From: 2010.05.17/outbox.cif.g08.bks.cpg/sg2_167_cif.got.tgz:333731.got - 2010.06.03 11:33:40.
