data_PCOD9035157
_publ_section_title
;
Structure prediction by ZEFSAII (Michael W. Deem and Ramdas Pophale) SiO2 
 PCOD9035157
Probable space group: P -1
;
_chemical_formula_sum "Si O2"
_cell_formula_units_Z 12
_cell_length_a 17.543879
_cell_length_b 5.508894
_cell_length_c 8.273564
_cell_angle_alpha 57.696482
_cell_angle_beta 48.067719
_cell_angle_gamma 54.747102
_cell_volume 470.996934
_symmetry_space_group_name_H-M "P -1"
_symmetry_group_IT_number 2
_symmetry_cell_setting 'triclinic'
loop_
_space_group_symop_operation_xyz
x,y,z
-x,-y,-z
loop_
_atom_site_type_symbol
_atom_site_label
_atom_site_fract_x
_atom_site_fract_y
_atom_site_fract_z
Si Si1 0.856051 0.487655 0.005604
Si Si2 0.718635 0.625717 0.473529
Si Si3 0.067459 0.157412 0.458552
Si Si4 0.598981 0.207378 0.894157
Si Si5 0.484375 0.832036 0.333366
Si Si6 0.893087 0.868602 0.237123
O O1 0.773931 0.589058 0.233539
O O2 0.849610 0.160035 0.074778
O O3 0.843385 0.761173 0.803170
O O4 0.988126 0.363378 0.899899
O O5 0.695787 0.340633 0.687378
O O6 0.804686 0.709270 0.432632
O O7 0.603090 0.904610 0.531888
O O8 0.098669 0.995998 0.644872
O O9 0.000000 0.500000 0.500000
O O10 0.000000 0.000000 0.500000
O O11 0.571248 0.148286 0.770608
O O12 0.500000 0.500000 0.000000
O O13 0.590540 0.925372 0.112941
O O14 0.500000 0.500000 0.500000
#
# Coordination Sequence:
#
# PCOD9035157 Si02
#       6
#     2   2   2   2   2   2
#     4  10  23  41  67  94 138 188 226 278 341 409
#     4  11  22  40  68 103 135 177 235 284 347 420
#     4  10  24  42  66  96 136 193 241 282 342 411
#     4   9  21  43  68  96 130 173 225 286 354 417
#     4  10  22  45  71  95 134 177 223 287 358 421
#     4  10  23  41  67  95 139 186 228 285 341 404
#
# _framework density 25.477875000000001
#
# number of rings (size 3 to 8) (size 9 to 14) (size 15 to 20)
#    0.000    2.000    0.000    1.500   11.667    2.667 
#    0.000   21.667    3.667    0.000    0.000    0.000 
#    0.000    0.000    0.000    0.000    0.000    0.000 
#
# Total GULP energy -67036.143806 kJ/mol
# GULP energy per Si atom -5586.345317 kJ/mol
# Density = 2.541989 g / cm^3
# Si number density = 25.477875 Si / 1000 Ang^3
#
#
#
# Elastic Constant Matrix: (Units=GPa)
#
#
# Indices 1 2 3 4 5 6 
#
# 1 72.5023 26.4999 61.2067 -19.6044 -20.7952 16.8377
# 2 26.4999 127.6369 95.2104 -22.9753 -1.3390 -12.9436
# 3 61.2067 95.2104 268.2019 -28.9908 -26.2070 -2.2666
# 4 -19.6044 -22.9753 -28.9908 72.6964 7.5704 -3.5862
# 5 -20.7952 -1.3390 -26.2070 7.5704 47.1392 -16.4099
# 6 16.8377 -12.9436 -2.2666 -3.5862 -16.4099 37.9829
#
#
#
# Elastic Compliance Matrix: (Units=1/GPa)
#
#
# Indices 1 2 3 4 5 6 
#
# 1 0.021413 -0.002132 -0.003494 0.002870 0.004057 -0.008404
# 2 -0.002132 0.011723 -0.003553 0.002073 -0.001414 0.004313
# 3 -0.003494 -0.003553 0.006045 0.000192 0.002280 0.001702
# 4 0.002870 0.002073 0.000192 0.015377 -0.000853 0.000529
# 5 0.004057 -0.001414 0.002280 -0.000853 0.027770 0.009773
# 6 -0.008404 0.004313 0.001702 0.000529 0.009773 0.035897
#
#
# Mechanical properties :
#
#
# Convention : Reuss Voigt Hill
#
# Bulk Modulus (GPa) = 48.02362 92.68613 70.35488
# Shear Modulus (GPa) = 34.83732 50.59197 42.71465
#
# Velocity S-wave (km/s) = 3.70179 4.46098 4.09900
# Velocity P-wave (km/s) = 6.09599 7.93674 7.07647
#
# Compressibility (1/GPa) = 0.02082308
#
# Stress axis : x y z
#
# Youngs Moduli (GPa) = 46.70029 85.29986 165.42338
#
# Poissons Ratio (x) = 0.18189 0.57801
# Poissons Ratio (y) = 0.09958 0.58771
# Poissons Ratio (z) = 0.16318 0.30305
#
# Static dielectric constant tensor:
#      x y z
#    x 2.117000 -0.034630 0.012470 
#    y -0.034630 2.135030 -0.031680 
#    z 0.012470 -0.031680 2.037150 
# 
# From -- ./inp_files/338964.got.cif
#   From: 2010.05.17/outbox.cif.g08.bks.cpg/sg2_170_cif.got.tgz:338964.got - 2010.06.03 11:33:40.
