data_PCOD9035115
_publ_section_title
;
Structure prediction by ZEFSAII (Michael W. Deem and Ramdas Pophale) SiO2 
 PCOD9035115
Probable space group: P -1
;
_chemical_formula_sum "Si O2"
_cell_formula_units_Z 14
_cell_length_a 17.311049
_cell_length_b 7.659616
_cell_length_c 5.173527
_cell_angle_alpha 65.887353
_cell_angle_beta 111.159380
_cell_angle_gamma 85.031104
_cell_volume 561.405343
_symmetry_space_group_name_H-M "P -1"
_symmetry_group_IT_number 2
_symmetry_cell_setting 'triclinic'
loop_
_space_group_symop_operation_xyz
x,y,z
-x,-y,-z
loop_
_atom_site_type_symbol
_atom_site_label
_atom_site_fract_x
_atom_site_fract_y
_atom_site_fract_z
Si Si1 0.251320 0.967196 0.815011
Si Si2 0.050628 0.628673 0.314761
Si Si3 0.756255 0.625764 0.229287
Si Si4 0.937757 0.960349 0.666007
Si Si5 0.512425 0.734164 0.435547
Si Si6 0.587211 0.100622 0.303706
Si Si7 0.686701 0.474589 0.725625
O O1 0.155776 0.029409 0.554104
O O2 0.318295 0.935707 0.677795
O O3 0.261160 0.138375 0.915171
O O4 0.269259 0.757612 0.102997
O O5 0.146469 0.482758 0.492332
O O6 0.070134 0.839892 0.294492
O O7 0.000000 0.500000 0.500000
O O8 0.981301 0.735043 0.950580
O O9 0.694101 0.573997 0.400967
O O10 0.737800 0.551534 0.970432
O O11 0.000000 0.000000 0.500000
O O12 0.442099 0.768083 0.556603
O O13 0.586438 0.527851 0.652106
O O14 0.568383 0.890890 0.468333
O O15 0.474034 0.800031 0.068402
#
# Coordination Sequence:
#
# PCOD9035115 Si02
#       7
#     2   2   2   2   2   2   2
#     4  12  27  46  79 111 151 199 260 305 384 450
#     4  11  26  46  78 108 151 201 252 311 391 453
#     4  12  28  48  74 114 153 198 250 311 381 442
#     4  11  25  50  73 113 152 196 254 321 373 466
#     4  10  22  45  71 103 154 190 253 304 379 437
#     4  10  23  42  73 107 142 202 244 312 368 452
#     4  12  27  49  76 111 153 201 249 317 368 460
#
# _framework density 24.937417
#
# number of rings (size 3 to 8) (size 9 to 14) (size 15 to 20)
#    0.000    0.857    2.857    2.571    6.000    5.714 
#    5.143    0.000    0.000    0.000    0.000    0.000 
#    0.000    0.000    0.000    0.000    0.000    0.000 
#
# Total GULP energy -78406.987528 kJ/mol
# GULP energy per Si atom -5600.499109 kJ/mol
# Density = 2.488066 g / cm^3
# Si number density = 24.937417 Si / 1000 Ang^3
#
#
#
# Elastic Constant Matrix: (Units=GPa)
#
#
# Indices 1 2 3 4 5 6 
#
# 1 98.5215 4.2793 23.4885 -2.5842 22.0388 0.0388
# 2 4.2793 145.7752 44.7414 -24.3348 -6.0585 0.3657
# 3 23.4885 44.7414 115.8622 -19.8420 17.0429 1.1219
# 4 -2.5842 -24.3348 -19.8420 42.8098 -1.8675 -0.7056
# 5 22.0388 -6.0585 17.0429 -1.8675 40.1771 -13.7895
# 6 0.0388 0.3657 1.1219 -0.7056 -13.7895 32.4257
#
#
#
# Elastic Compliance Matrix: (Units=1/GPa)
#
#
# Indices 1 2 3 4 5 6 
#
# 1 0.012071 -0.000311 -0.001315 -0.000420 -0.007167 -0.003022
# 2 -0.000311 0.008581 -0.003173 0.003568 0.003522 0.001589
# 3 -0.001315 -0.003173 0.011478 0.003161 -0.005361 -0.002571
# 4 -0.000420 0.003568 0.003161 0.026883 0.000968 0.000848
# 5 -0.007167 0.003522 -0.005361 0.000968 0.037155 0.015976
# 6 -0.003022 0.001589 -0.002571 0.000848 0.015976 0.037727
#
#
# Mechanical properties :
#
#
# Convention : Reuss Voigt Hill
#
# Bulk Modulus (GPa) = 44.38452 56.13081 50.25767
# Shear Modulus (GPa) = 33.11203 42.25917 37.68560
#
# Velocity S-wave (km/s) = 3.64786 4.12103 3.89164
# Velocity P-wave (km/s) = 5.96486 6.72320 6.35535
#
# Compressibility (1/GPa) = 0.02253038
#
# Stress axis : x y z
#
# Youngs Moduli (GPa) = 82.84612 116.53874 87.12626
#
# Poissons Ratio (x) = 0.03625 0.11460
# Poissons Ratio (y) = 0.02577 0.27644
# Poissons Ratio (z) = 0.10897 0.36976
#
# Static dielectric constant tensor:
#      x y z
#    x 1.929060 0.053340 0.037340 
#    y 0.053340 2.004700 0.068550 
#    z 0.037340 0.068550 1.968250 
# 
# From -- ./inp_files/104596.got.cif
#   From: 2010.05.17/outbox.cif.g08.bks.cpg/sg2_53_cif.got.tgz:104596.got - 2010.06.03 11:33:40.
