data_PCOD9035710
_publ_section_title
;
Structure prediction by ZEFSAII (Michael W. Deem and Ramdas Pophale) SiO2 
 PCOD9035710
Probable space group: P -1
;
_chemical_formula_sum "Si O2"
_cell_formula_units_Z 14
_cell_length_a 11.640636
_cell_length_b 11.337168
_cell_length_c 5.455239
_cell_angle_alpha 75.621684
_cell_angle_beta 51.821987
_cell_angle_gamma 86.517536
_cell_volume 544.130600
_symmetry_space_group_name_H-M "P -1"
_symmetry_group_IT_number 2
_symmetry_cell_setting 'triclinic'
loop_
_space_group_symop_operation_xyz
x,y,z
-x,-y,-z
loop_
_atom_site_type_symbol
_atom_site_label
_atom_site_fract_x
_atom_site_fract_y
_atom_site_fract_z
Si Si1 0.393957 0.282341 0.797393
Si Si2 0.448464 0.761370 0.946281
Si Si3 0.366342 0.422151 0.350261
Si Si4 0.159258 0.669758 0.064146
Si Si5 0.678189 0.999931 0.994202
Si Si6 0.143105 0.933578 0.777146
Si Si7 0.137594 0.398131 0.266459
O O1 0.539893 0.299164 0.770795
O O2 0.387131 0.414390 0.610869
O O3 0.228572 0.288548 0.122328
O O4 0.391578 0.138949 0.825015
O O5 0.314944 0.705816 0.978607
O O6 0.439990 0.903371 0.916076
O O7 0.596500 0.720613 0.653957
O O8 0.215782 0.434545 0.409758
O O9 0.500000 0.500000 0.000000
O O10 0.148349 0.530401 0.048243
O O11 0.029609 0.655863 0.444423
O O12 0.126025 0.783335 0.878372
O O13 0.783569 0.023243 0.602988
O O14 0.757646 0.032686 0.130944
O O15 0.000000 0.000000 0.000000
#
# Coordination Sequence:
#
# PCOD9035710 Si02
#       7
#     2   2   2   2   2   2   2
#     4  11  26  42  73  99 141 187 236 293 357 427
#     4  10  24  44  68 103 138 184 233 293 356 422
#     4  11  24  44  68  98 140 180 232 288 354 421
#     4  10  22  46  71 100 143 180 239 292 359 420
#     4  11  26  44  73 106 142 189 243 295 356 423
#     4  11  25  45  73 105 148 190 234 297 360 431
#     4  10  23  46  68 103 137 186 234 294 353 431
#
# _framework density 25.729116999999999
#
# number of rings (size 3 to 8) (size 9 to 14) (size 15 to 20)
#    0.000    1.429    1.429    1.714   10.000    5.143 
#    0.000    1.429    0.000    0.000    0.000    0.000 
#    0.000    0.000    0.000    0.000    0.000    0.000 
#
# Total GULP energy -77998.043058 kJ/mol
# GULP energy per Si atom -5571.288790 kJ/mol
# Density = 2.567056 g / cm^3
# Si number density = 25.729117 Si / 1000 Ang^3
#
#
#
# Elastic Constant Matrix: (Units=GPa)
#
#
# Indices 1 2 3 4 5 6 
#
# 1 103.9647 12.1268 51.6345 24.8649 52.7722 -26.7191
# 2 12.1268 134.0702 29.2706 -5.3497 8.6941 -23.5370
# 3 51.6345 29.2706 113.1476 8.2700 56.3828 -5.4229
# 4 24.8649 -5.3497 8.2700 67.5387 10.9549 -0.0003
# 5 52.7722 8.6941 56.3828 10.9549 73.7881 3.5890
# 6 -26.7191 -23.5370 -5.4229 -0.0003 3.5890 43.8409
#
#
#
# Elastic Compliance Matrix: (Units=1/GPa)
#
#
# Indices 1 2 3 4 5 6 
#
# 1 0.024396 0.002125 -0.002657 -0.005956 -0.015608 0.016958
# 2 0.002125 0.008928 -0.002544 0.000394 -0.000971 0.005853
# 3 -0.002657 -0.002544 0.015491 0.000452 -0.009691 -0.000275
# 4 -0.005956 0.000394 0.000452 0.016723 0.001555 -0.003490
# 5 -0.015608 -0.000971 -0.009691 0.001555 0.032681 -0.013908
# 6 0.016958 0.005853 -0.000275 -0.003490 -0.013908 0.037392
#
#
# Mechanical properties :
#
#
# Convention : Reuss Voigt Hill
#
# Bulk Modulus (GPa) = 23.43850 59.69405 41.56627
# Shear Modulus (GPa) = 32.05473 54.24357 43.14915
#
# Velocity S-wave (km/s) = 3.53350 4.59656 4.09963
# Velocity P-wave (km/s) = 5.07710 7.17094 6.21287
#
# Compressibility (1/GPa) = 0.04266484
#
# Stress axis : x y z
#
# Youngs Moduli (GPa) = 40.99061 112.00463 64.55159
#
# Poissons Ratio (x) = -0.23801 0.17149
# Poissons Ratio (y) = -0.08711 0.16420
# Poissons Ratio (z) = 0.10890 0.28490
#
# Static dielectric constant tensor:
#      x y z
#    x 1.804620 0.048690 -0.597790 
#    y 0.048690 2.126250 0.048490 
#    z -0.597790 0.048490 0.871880 
# 
# From -- ./inp_files/68860.got.cif
#   From: 2010.05.17/outbox.cif.g08.bks.cpg/sg2_35_cif.got.tgz:68860.got - 2010.06.03 11:33:40.
