data_PCOD9035442
_publ_section_title
;
Structure prediction by ZEFSAII (Michael W. Deem and Ramdas Pophale) SiO2 
 PCOD9035442
Probable space group: P -1
;
_chemical_formula_sum "Si O2"
_cell_formula_units_Z 15
_cell_length_a 14.841205
_cell_length_b 8.598173
_cell_length_c 11.988916
_cell_angle_alpha 35.091748
_cell_angle_beta 63.836390
_cell_angle_gamma 48.235261
_cell_volume 636.397386
_symmetry_space_group_name_H-M "P -1"
_symmetry_group_IT_number 2
_symmetry_cell_setting 'triclinic'
loop_
_space_group_symop_operation_xyz
x,y,z
-x,-y,-z
loop_
_atom_site_type_symbol
_atom_site_label
_atom_site_fract_x
_atom_site_fract_y
_atom_site_fract_z
Si Si1 0.500000 0.000000 0.500000
Si Si2 0.820895 0.056683 0.375621
Si Si3 0.729949 0.755400 0.127778
Si Si4 0.506283 0.801686 0.856525
Si Si5 0.201817 0.603105 0.030049
Si Si6 0.231041 0.444525 0.339028
Si Si7 0.099497 0.640413 0.531664
Si Si8 0.127793 0.216332 0.157292
O O1 0.465718 0.034979 0.633122
O O2 0.634578 0.645497 0.661429
O O3 0.757124 0.417845 0.255635
O O4 0.740866 0.911111 0.506519
O O5 0.841472 0.106917 0.205390
O O6 0.955712 0.792792 0.509963
O O7 0.822656 0.634421 0.254475
O O8 0.591403 0.996295 0.109192
O O9 0.767747 0.909197 0.921676
O O10 0.647475 0.636633 0.912719
O O11 0.500000 0.500000 0.000000
O O12 0.164542 0.696012 0.124687
O O13 0.155356 0.391790 0.133100
O O14 0.155002 0.533206 0.440350
O O15 0.113087 0.939233 0.372747
O O16 0.000000 0.500000 0.000000
#
# Coordination Sequence:
#
# PCOD9035442 Si02
#       8
#     1   2   2   2   2   2   2   2
#     4  10  22  46  60  98 132 170 218 270 340 386
#     4  11  24  43  63  99 135 170 225 273 330 407
#     4  11  25  42  71  97 130 182 218 272 341 392
#     4  11  24  44  70  98 134 173 225 281 330 400
#     4  10  24  43  65  97 133 176 218 277 334 390
#     4  11  24  41  67  96 135 175 221 278 330 393
#     4  12  24  42  68 100 133 180 221 274 337 395
#     4  11  24  45  65  99 140 174 222 275 329 404
#
# _framework density 23.570177000000001
#
# number of rings (size 3 to 8) (size 9 to 14) (size 15 to 20)
#    0.000    1.067    4.000    2.400    5.600    2.667 
#    2.400    2.000    0.000    0.000    0.000    0.000 
#    0.000    0.000    0.000    0.000    0.000    0.000 
#
# Total GULP energy -83738.591667 kJ/mol
# GULP energy per Si atom -5582.572778 kJ/mol
# Density = 2.351653 g / cm^3
# Si number density = 23.570177 Si / 1000 Ang^3
#
#
#
# Elastic Constant Matrix: (Units=GPa)
#
#
# Indices 1 2 3 4 5 6 
#
# 1 62.3049 -9.0206 21.3213 -7.6523 11.4298 6.8221
# 2 -9.0206 83.1174 -9.7135 18.4891 2.7503 -0.1123
# 3 21.3213 -9.7135 73.8790 27.1537 7.8235 12.6633
# 4 -7.6523 18.4891 27.1537 42.8587 7.9355 2.1783
# 5 11.4298 2.7503 7.8235 7.9355 31.6181 8.2243
# 6 6.8221 -0.1123 12.6633 2.1783 8.2243 24.6472
#
#
#
# Elastic Compliance Matrix: (Units=1/GPa)
#
#
# Indices 1 2 3 4 5 6 
#
# 1 0.022667 -0.001413 -0.010776 0.013090 -0.008975 0.001094
# 2 -0.001413 0.015112 0.006788 -0.011123 0.000920 -0.002352
# 3 -0.010776 0.006788 0.027044 -0.022371 0.004976 -0.010565
# 4 0.013090 -0.011123 -0.022371 0.046452 -0.011885 0.007681
# 5 -0.008975 0.000920 0.004976 -0.011885 0.039737 -0.012277
# 6 0.001094 -0.002352 -0.010565 0.007681 -0.012277 0.049105
#
#
# Mechanical properties :
#
#
# Convention : Reuss Voigt Hill
#
# Bulk Modulus (GPa) = 18.51019 24.94175 21.72597
# Shear Modulus (GPa) = 21.84129 34.27240 28.05685
#
# Velocity S-wave (km/s) = 3.04739 3.81735 3.45389
# Velocity P-wave (km/s) = 4.50027 5.48037 5.01432
#
# Compressibility (1/GPa) = 0.05402430
#
# Stress axis : x y z
#
# Youngs Moduli (GPa) = 44.11624 66.17308 36.97655
#
# Poissons Ratio (x) = 0.09347 0.39844
# Poissons Ratio (y) = 0.06231 -0.25101
# Poissons Ratio (z) = 0.47538 -0.44921
#
# Static dielectric constant tensor:
#      x y z
#    x 1.920830 0.017630 0.004360 
#    y 0.017630 1.970450 0.010560 
#    z 0.004360 0.010560 1.949880 
# 
# From -- ./inp_files/252952.got.cif
#   From: 2010.05.17/outbox.cif.g08.bks.cpg/sg2_127_cif.got.tgz:252952.got - 2010.06.03 11:33:40.
