data_PCOD9035770
_publ_section_title
;
Structure prediction by ZEFSAII (Michael W. Deem and Ramdas Pophale) SiO2 
 PCOD9035770
Probable space group: P -1
;
_chemical_formula_sum "Si O2"
_cell_formula_units_Z 12
_cell_length_a 9.242692
_cell_length_b 9.923069
_cell_length_c 8.170611
_cell_angle_alpha 46.679436
_cell_angle_beta 91.236081
_cell_angle_gamma 122.436815
_cell_volume 379.907313
_symmetry_space_group_name_H-M "P -1"
_symmetry_group_IT_number 2
_symmetry_cell_setting 'triclinic'
loop_
_space_group_symop_operation_xyz
x,y,z
-x,-y,-z
loop_
_atom_site_type_symbol
_atom_site_label
_atom_site_fract_x
_atom_site_fract_y
_atom_site_fract_z
Si Si1 0.000000 0.500000 0.500000
Si Si2 0.740563 0.465164 0.790152
Si Si3 0.812881 0.149416 0.445456
Si Si4 0.772792 0.953152 0.132875
Si Si5 0.500000 0.500000 0.000000
Si Si6 0.522154 0.116031 0.627604
Si Si7 0.821098 0.783594 0.951319
O O1 0.866131 0.554524 0.548905
O O2 0.869729 0.228300 0.831548
O O3 0.947278 0.627265 0.774572
O O4 0.623969 0.535909 0.802382
O O5 0.564460 0.150004 0.063700
O O6 0.650490 0.037909 0.393601
O O7 0.761801 0.264765 0.483976
O O8 0.752491 0.889068 0.735515
O O9 0.780497 0.814362 0.104458
O O10 0.546926 0.785659 0.335395
O O11 0.940845 0.047411 0.195751
O O12 0.353593 0.514067 0.868352
#
# Coordination Sequence:
#
# PCOD9035770 Si02
#       7
#     1   2   2   2   1   2   2
#     4  10  22  46  72 102 138 194 242 296 364 432
#     4  11  23  43  70 104 146 191 240 304 357 442
#     4  11  22  43  70 102 140 191 239 294 370 424
#     4  10  23  46  75 100 145 194 242 300 366 435
#     4  12  26  44  68 108 152 184 238 310 360 428
#     4  10  23  42  70 107 137 187 248 303 354 438
#     4  11  24  46  69 106 145 192 237 302 363 436
#
# _framework density 31.586653999999999
#
# number of rings (size 3 to 8) (size 9 to 14) (size 15 to 20)
#    0.000    1.333    3.333    1.500    0.000    6.000 
#    0.000    0.833    0.000    0.000    0.000    0.000 
#    0.000    0.000    0.000    0.000    0.000    0.000 
#
# Total GULP energy -66976.586854 kJ/mol
# GULP energy per Si atom -5581.382238 kJ/mol
# Density = 3.151476 g / cm^3
# Si number density = 31.586654 Si / 1000 Ang^3
#
#
#
# Elastic Constant Matrix: (Units=GPa)
#
#
# Indices 1 2 3 4 5 6 
#
# 1 261.0569 53.7670 73.2124 5.4721 -65.7010 22.8850
# 2 53.7670 134.4669 29.6525 -3.8690 -21.4771 11.1591
# 3 73.2124 29.6525 96.1521 -20.8412 -27.8705 11.5722
# 4 5.4721 -3.8690 -20.8412 58.3031 8.7663 -9.8364
# 5 -65.7010 -21.4771 -27.8705 8.7663 86.9760 0.9086
# 6 22.8850 11.1591 11.5722 -9.8364 0.9086 77.1672
#
#
#
# Elastic Compliance Matrix: (Units=1/GPa)
#
#
# Indices 1 2 3 4 5 6 
#
# 1 0.006176 -0.001030 -0.003795 -0.002784 0.003492 -0.001510
# 2 -0.001030 0.008366 -0.001499 -0.000127 0.000828 -0.000706
# 3 -0.003795 -0.001499 0.015302 0.005515 0.001113 -0.000263
# 4 -0.002784 -0.000127 0.005515 0.020183 -0.002429 0.002618
# 5 0.003492 0.000828 0.001113 -0.002429 0.014960 -0.001808
# 6 -0.001510 -0.000706 -0.000263 0.002618 -0.001808 0.013903
#
#
# Mechanical properties :
#
#
# Convention : Reuss Voigt Hill
#
# Bulk Modulus (GPa) = 58.14875 89.43773 73.79324
# Shear Modulus (GPa) = 51.40353 66.82554 59.11454
#
# Velocity S-wave (km/s) = 4.03846 4.60458 4.33078
# Velocity P-wave (km/s) = 6.33993 7.52636 6.95848
#
# Compressibility (1/GPa) = 0.01719728
#
# Stress axis : x y z
#
# Youngs Moduli (GPa) = 161.90491 119.52886 65.35264
#
# Poissons Ratio (x) = 0.12311 0.24801
# Poissons Ratio (y) = 0.16675 0.09793
# Poissons Ratio (z) = 0.61443 0.17912
#
# Static dielectric constant tensor:
#      x y z
#    x 2.459400 0.108020 0.047050 
#    y 0.108020 7.097730 -3.701930 
#    z 0.047050 -3.701930 5.784910 
# 
# From -- ./inp_files/174368.got.cif
#   From: 2010.05.17/outbox.cif.g08.bks.cpg/sg2_88_cif.got.tgz:174368.got - 2010.06.03 11:33:40.
