data_PCOD9035216
_publ_section_title
;
Structure prediction by ZEFSAII (Michael W. Deem and Ramdas Pophale) SiO2 
 PCOD9035216
Probable space group: P -1
;
_chemical_formula_sum "Si O2"
_cell_formula_units_Z 15
_cell_length_a 11.174673
_cell_length_b 11.012853
_cell_length_c 17.095892
_cell_angle_alpha 148.990338
_cell_angle_beta 136.772786
_cell_angle_gamma 35.946207
_cell_volume 632.053377
_symmetry_space_group_name_H-M "P -1"
_symmetry_group_IT_number 2
_symmetry_cell_setting 'triclinic'
loop_
_space_group_symop_operation_xyz
x,y,z
-x,-y,-z
loop_
_atom_site_type_symbol
_atom_site_label
_atom_site_fract_x
_atom_site_fract_y
_atom_site_fract_z
Si Si1 0.000000 0.000000 0.000000
Si Si2 0.755753 0.051291 0.724930
Si Si3 0.618913 0.950744 0.279388
Si Si4 0.022281 0.239160 0.767625
Si Si5 0.811709 0.672652 0.691424
Si Si6 0.144748 0.123722 0.936495
Si Si7 0.174587 0.100139 0.497045
Si Si8 0.575777 0.325161 0.061173
O O1 0.778993 0.248340 0.067387
O O2 0.072649 0.224642 0.140863
O O3 0.559893 0.358565 0.803143
O O4 0.955884 0.079786 0.842426
O O5 0.770754 0.875687 0.710319
O O6 0.770144 0.901432 0.567804
O O7 0.821314 0.902655 0.307278
O O8 0.668572 0.906755 0.370229
O O9 0.406773 0.245611 0.332893
O O10 0.563077 0.742284 0.097388
O O11 0.152731 0.120861 0.844534
O O12 0.849324 0.161869 0.645939
O O13 0.918121 0.568016 0.900122
O O14 0.955034 0.366176 0.560423
O O15 0.344357 0.879757 0.939222
#
# Coordination Sequence:
#
# PCOD9035216 Si02
#       8
#     1   2   2   2   2   2   2   2
#     4  10  24  42  70 102 136 174 220 292 336 398
#     4  11  24  46  73 104 133 182 229 280 344 413
#     4  11  26  43  67 105 134 180 233 275 341 406
#     4  10  23  47  70  96 142 182 228 283 333 406
#     4  11  26  43  71 102 137 182 224 283 344 407
#     4  10  22  45  72 104 133 177 232 286 339 393
#     4  11  27  47  66  99 148 183 220 282 342 407
#     4  11  24  42  75 103 135 176 230 288 337 405
#
# _framework density 23.732174000000001
#
# number of rings (size 3 to 8) (size 9 to 14) (size 15 to 20)
#    0.000    1.333    2.667    0.800    7.467    4.800 
#    2.400    0.000    0.000    0.000    0.000    0.000 
#    0.000    0.000    0.000    0.000    0.000    0.000 
#
# Total GULP energy -83769.384071 kJ/mol
# GULP energy per Si atom -5584.625605 kJ/mol
# Density = 2.367816 g / cm^3
# Si number density = 23.732174 Si / 1000 Ang^3
#
#
#
# Elastic Constant Matrix: (Units=GPa)
#
#
# Indices 1 2 3 4 5 6 
#
# 1 -425.8796 -201.8533 6.2686 448.4029 -102.8180 391.8900
# 2 -201.8533 -1.2231 34.6031 201.4215 -53.0243 189.4558
# 3 6.2686 34.6031 79.6319 -0.4173 -17.4889 19.9129
# 4 448.4029 201.4215 -0.4173 -415.6657 96.6301 -379.8861
# 5 -102.8180 -53.0243 -17.4889 96.6301 10.7733 90.0145
# 6 391.8900 189.4558 19.9129 -379.8861 90.0145 -269.2087
#
#
#
# Elastic Compliance Matrix: (Units=1/GPa)
#
#
# Indices 1 2 3 4 5 6 
#
# 1 0.020046 -0.002901 -0.002231 0.014577 -0.002859 0.005449
# 2 -0.002901 0.012725 -0.005314 0.003112 -0.000306 -0.000154
# 3 -0.002231 -0.005314 0.018320 0.001778 0.009059 -0.005112
# 4 0.014577 0.003112 0.001778 0.025206 0.008364 -0.009231
# 5 -0.002859 -0.000306 0.009059 0.008364 0.035138 -0.003760
# 6 0.005449 -0.000154 -0.005112 -0.009231 -0.003760 0.015499
#
#
# Mechanical properties :
#
#
# Convention : Reuss Voigt Hill
#
# Bulk Modulus (GPa) = 33.11361 -74.38156 -20.63397
# Shear Modulus (GPa) = 31.66704 -147.25283 -57.79289
#
# Velocity S-wave (km/s) = 3.65684 -7.88559 -4.94014
# Velocity P-wave (km/s) = 5.64033 10.69206 6.42288
#
# Compressibility (1/GPa) = 0.03019906
#
# Stress axis : x y z
#
# Youngs Moduli (GPa) = 49.88584 78.58250 54.58576
#
# Poissons Ratio (x) = 0.22795 0.12180
# Poissons Ratio (y) = 0.14470 0.29006
# Poissons Ratio (z) = 0.11132 0.41757
#
# Static dielectric constant tensor:
#      x y z
#    x 1.930550 0.045190 -0.034610 
#    y 0.045190 1.919020 -0.005450 
#    z -0.034610 -0.005450 1.769770 
# 
# From -- ./inp_files/71435.got.cif
#   From: 2010.05.17/outbox.cif.g08.bks.cpg/sg2_36_cif.got.tgz:71435.got - 2010.06.03 11:33:40.
