data_PCOD9035512
_publ_section_title
;
Structure prediction by ZEFSAII (Michael W. Deem and Ramdas Pophale) SiO2 
 PCOD9035512
Probable space group: P -1
;
_chemical_formula_sum "Si O2"
_cell_formula_units_Z 15
_cell_length_a 24.741605
_cell_length_b 8.646698
_cell_length_c 5.624306
_cell_angle_alpha 53.640608
_cell_angle_beta 71.492561
_cell_angle_gamma 39.443349
_cell_volume 591.971004
_symmetry_space_group_name_H-M "P -1"
_symmetry_group_IT_number 2
_symmetry_cell_setting 'triclinic'
loop_
_space_group_symop_operation_xyz
x,y,z
-x,-y,-z
loop_
_atom_site_type_symbol
_atom_site_label
_atom_site_fract_x
_atom_site_fract_y
_atom_site_fract_z
Si Si1 0.104267 0.834271 0.963930
Si Si2 0.045945 0.323946 0.848491
Si Si3 0.000000 0.000000 0.500000
Si Si4 0.677495 0.876496 0.178876
Si Si5 0.379554 0.658232 0.515901
Si Si6 0.294646 0.489819 0.895399
Si Si7 0.553584 0.158236 0.475247
Si Si8 0.843620 0.617594 0.393126
O O1 0.045068 0.007704 0.657194
O O2 0.198477 0.692962 0.944927
O O3 0.057889 0.060965 0.052648
O O4 0.121690 0.568459 0.243402
O O5 0.137333 0.207758 0.817030
O O6 0.000000 0.500000 0.500000
O O7 0.000000 0.500000 0.000000
O O8 0.095868 0.638119 0.658770
O O9 0.709849 0.593614 0.284174
O O10 0.744795 0.793409 0.348152
O O11 0.580730 0.087020 0.228269
O O12 0.674171 0.049333 0.828573
O O13 0.319286 0.647865 0.712839
O O14 0.455159 0.368034 0.507501
O O15 0.427883 0.670412 0.625769
O O16 0.374968 0.168260 0.204696
#
# Coordination Sequence:
#
# PCOD9035512 Si02
#       8
#     2   2   1   2   2   2   2   2
#     4  12  27  46  73 105 145 192 253 297 380 444
#     4  12  30  48  74 110 144 194 259 311 375 453
#     4  12  24  48  74  98 140 196 236 306 368 434
#     4  11  24  42  68 101 142 182 241 296 367 435
#     4  10  24  42  71 102 138 187 236 294 368 438
#     4  11  24  42  69 106 139 187 238 304 355 442
#     4  10  22  46  67 100 143 184 233 294 370 444
#     4  12  26  46  71 100 145 188 239 307 369 435
#
# _framework density 25.339078000000001
#
# number of rings (size 3 to 8) (size 9 to 14) (size 15 to 20)
#    0.000    0.800    4.000    2.000    3.733    3.733 
#    0.000    0.000    0.000    0.000    0.000    0.000 
#    0.000    0.000    0.000    0.000    0.000    0.000 
#
# Total GULP energy -83743.890325 kJ/mol
# GULP energy per Si atom -5582.926022 kJ/mol
# Density = 2.528141 g / cm^3
# Si number density = 25.339078 Si / 1000 Ang^3
#
#
#
# Elastic Constant Matrix: (Units=GPa)
#
#
# Indices 1 2 3 4 5 6 
#
# 1 80.3869 5.1460 16.1405 4.9117 -19.1487 -5.7956
# 2 5.1460 105.5821 -10.4396 14.0046 2.1306 -0.8110
# 3 16.1405 -10.4396 74.4694 6.0733 3.9779 13.5275
# 4 4.9117 14.0046 6.0733 20.4516 -1.1527 -1.2541
# 5 -19.1487 2.1306 3.9779 -1.1527 41.8411 2.1649
# 6 -5.7956 -0.8110 13.5275 -1.2541 2.1649 46.8025
#
#
#
# Elastic Compliance Matrix: (Units=1/GPa)
#
#
# Indices 1 2 3 4 5 6 
#
# 1 0.015391 -0.001166 -0.004309 -0.001035 0.007341 0.002764
# 2 -0.001166 0.010894 0.002683 -0.008116 -0.001521 -0.000878
# 3 -0.004309 0.002683 0.016382 -0.006188 -0.003566 -0.005223
# 4 -0.001035 -0.008116 -0.006188 0.056830 0.001941 0.002953
# 5 0.007341 -0.001521 -0.003566 0.001941 0.027694 0.000684
# 6 0.002764 -0.000878 -0.005223 0.002953 0.000684 0.023250
#
#
# Mechanical properties :
#
#
# Convention : Reuss Voigt Hill
#
# Bulk Modulus (GPa) = 26.96701 31.34801 29.15751
# Shear Modulus (GPa) = 29.69344 38.45848 34.07596
#
# Velocity S-wave (km/s) = 3.42693 3.90006 3.67113
# Velocity P-wave (km/s) = 5.13070 5.71655 5.43153
#
# Compressibility (1/GPa) = 0.03708235
#
# Stress axis : x y z
#
# Youngs Moduli (GPa) = 64.97352 91.79508 61.04159
#
# Poissons Ratio (x) = 0.10701 0.26303
# Poissons Ratio (y) = 0.07575 -0.16374
# Poissons Ratio (z) = 0.27997 -0.24624
#
# Static dielectric constant tensor:
#      x y z
#    x 1.927100 0.048150 0.099250 
#    y 0.048150 2.001440 -0.089570 
#    z 0.099250 -0.089570 1.700840 
# 
# From -- ./inp_files/126364.got.cif
#   From: 2010.05.17/outbox.cif.g08.bks.cpg/sg2_64_cif.got.tgz:126364.got - 2010.06.03 11:33:40.
