data_PCOD9035230
_publ_section_title
;
Structure prediction by ZEFSAII (Michael W. Deem and Ramdas Pophale) SiO2 
 PCOD9035230
Probable space group: P -1
;
_chemical_formula_sum "Si O2"
_cell_formula_units_Z 14
_cell_length_a 25.297074
_cell_length_b 6.454901
_cell_length_c 5.376693
_cell_angle_alpha 102.660857
_cell_angle_beta 109.682444
_cell_angle_gamma 124.415448
_cell_volume 579.478340
_symmetry_space_group_name_H-M "P -1"
_symmetry_group_IT_number 2
_symmetry_cell_setting 'triclinic'
loop_
_space_group_symop_operation_xyz
x,y,z
-x,-y,-z
loop_
_atom_site_type_symbol
_atom_site_label
_atom_site_fract_x
_atom_site_fract_y
_atom_site_fract_z
Si Si1 0.237057 0.300746 0.659732
Si Si2 0.004923 0.865887 0.726122
Si Si3 0.120828 0.842283 0.704616
Si Si4 0.673561 0.165494 0.408642
Si Si5 0.543887 0.542878 0.830766
Si Si6 0.382331 0.627401 0.327866
Si Si7 0.731140 0.958766 0.737551
O O1 0.259431 0.530378 0.548324
O O2 0.247118 0.097880 0.498727
O O3 0.152651 0.070709 0.588796
O O4 0.307902 0.503238 0.017633
O O5 0.937876 0.506146 0.533488
O O6 0.081349 0.913187 0.840778
O O7 0.000000 0.000000 0.500000
O O8 0.000000 0.000000 0.000000
O O9 0.198187 0.926369 0.947291
O O10 0.607873 0.152408 0.410704
O O11 0.715329 0.156469 0.698779
O O12 0.627878 0.880295 0.086048
O O13 0.500000 0.500000 0.500000
O O14 0.558123 0.328765 0.752639
O O15 0.500000 0.500000 0.000000
O O16 0.349660 0.353428 0.378396
#
# Coordination Sequence:
#
# PCOD9035230 Si02
#       7
#     2   2   2   2   2   2   2
#     4  10  23  43  74 108 141 186 249 312 371 429
#     4  11  28  50  78 110 158 205 252 294 373 452
#     4  10  26  48  74 110 154 191 253 312 363 445
#     4  11  25  45  76 104 149 190 248 313 381 437
#     4  12  28  48  74 104 150 202 246 302 378 454
#     4  10  24  46  68 105 145 183 249 306 370 442
#     4  10  22  45  72 108 146 190 241 322 370 430
#
# _framework density 24.159659999999999
#
# number of rings (size 3 to 8) (size 9 to 14) (size 15 to 20)
#    0.000    1.429    1.429    0.857   10.000    6.857 
#    0.000    0.000    0.000    0.000    0.000    0.000 
#    0.000    0.000    0.000    0.000    0.000    0.000 
#
# Total GULP energy -78199.281361 kJ/mol
# GULP energy per Si atom -5585.662954 kJ/mol
# Density = 2.410467 g / cm^3
# Si number density = 24.159660 Si / 1000 Ang^3
#
#
#
# Elastic Constant Matrix: (Units=GPa)
#
#
# Indices 1 2 3 4 5 6 
#
# 1 143.6791 77.2315 46.6059 3.2560 -27.1125 -2.1663
# 2 77.2315 127.8325 37.4231 -9.5857 2.8240 -5.7756
# 3 46.6059 37.4231 79.9686 -6.3068 -18.8371 -3.5755
# 4 3.2560 -9.5857 -6.3068 36.6907 -5.5229 -1.8292
# 5 -27.1125 2.8240 -18.8371 -5.5229 47.9951 1.5321
# 6 -2.1663 -5.7756 -3.5755 -1.8292 1.5321 38.9006
#
#
#
# Elastic Compliance Matrix: (Units=1/GPa)
#
#
# Indices 1 2 3 4 5 6 
#
# 1 0.013223 -0.007529 -0.002915 -0.002716 0.006489 -0.001033
# 2 -0.007529 0.013719 -0.003145 0.002891 -0.006017 0.001701
# 3 -0.002915 -0.003145 0.017317 0.003314 0.005688 0.000894
# 4 -0.002716 0.002891 0.003314 0.029352 0.002915 0.001848
# 5 0.006489 -0.006017 0.005688 0.002915 0.027453 -0.000953
# 6 -0.001033 0.001701 0.000894 0.001848 -0.000953 0.026108
#
#
# Mechanical properties :
#
#
# Convention : Reuss Voigt Hill
#
# Bulk Modulus (GPa) = 58.54730 74.88901 66.71816
# Shear Modulus (GPa) = 31.24135 37.39859 34.31997
#
# Velocity S-wave (km/s) = 3.59990 3.93870 3.77311
# Velocity P-wave (km/s) = 6.44710 7.19370 6.83061
#
# Compressibility (1/GPa) = 0.01708021
#
# Stress axis : x y z
#
# Youngs Moduli (GPa) = 75.62475 72.89169 57.74782
#
# Poissons Ratio (x) = 0.54883 0.16832
# Poissons Ratio (y) = 0.56940 0.18163
# Poissons Ratio (z) = 0.22043 0.22926
#
# Static dielectric constant tensor:
#      x y z
#    x 1.967960 0.039470 0.002200 
#    y 0.039470 2.032220 -0.088020 
#    z 0.002200 -0.088020 1.985220 
# 
# From -- ./inp_files/11049.got.cif
#   From: 2010.05.17/outbox.cif.g08.bks.cpg/sg2_6_cif.got.tgz:11049.got - 2010.06.03 11:33:40.
