data_PCOD9035596
_publ_section_title
;
Structure prediction by ZEFSAII (Michael W. Deem and Ramdas Pophale) SiO2 
 PCOD9035596
Probable space group: P -1
;
_chemical_formula_sum "Si O2"
_cell_formula_units_Z 14
_cell_length_a 19.878599
_cell_length_b 17.910763
_cell_length_c 15.530708
_cell_angle_alpha 20.943118
_cell_angle_beta 21.947344
_cell_angle_gamma 21.469904
_cell_volume 647.351827
_symmetry_space_group_name_H-M "P -1"
_symmetry_group_IT_number 2
_symmetry_cell_setting 'triclinic'
loop_
_space_group_symop_operation_xyz
x,y,z
-x,-y,-z
loop_
_atom_site_type_symbol
_atom_site_label
_atom_site_fract_x
_atom_site_fract_y
_atom_site_fract_z
Si Si1 0.358671 0.604449 0.306409
Si Si2 0.554174 0.338282 0.524985
Si Si3 0.526085 0.631153 0.746152
Si Si4 0.147925 0.119282 0.701406
Si Si5 0.043257 0.411542 0.686598
Si Si6 0.984983 0.875587 0.815685
Si Si7 0.182288 0.326542 0.908383
O O1 0.497568 0.527557 0.309655
O O2 0.500400 0.485386 0.184078
O O3 0.219358 0.478504 0.626728
O O4 0.196709 0.879986 0.194099
O O5 0.500000 0.500000 0.500000
O O6 0.396945 0.232950 0.806824
O O7 0.794202 0.144628 0.445847
O O8 0.755570 0.582963 0.526029
O O9 0.371836 0.908073 0.641608
O O10 0.500000 0.500000 0.000000
O O11 0.114017 0.227641 0.720519
O O12 0.097500 0.331001 0.465852
O O13 0.000000 0.000000 0.000000
O O14 0.966765 0.321144 0.955607
O O15 0.889784 0.835882 0.883007
O O16 0.000000 0.500000 0.000000
#
# Coordination Sequence:
#
# PCOD9035596 Si02
#       7
#     2   2   2   2   2   2   2
#     4  10  26  43  66 106 135 177 235 283 332 419
#     4  10  23  43  70 101 134 180 220 284 353 397
#     4  12  23  44  69  95 141 180 221 282 340 397
#     4  11  25  42  66  97 137 170 234 281 322 411
#     4  11  25  42  67 100 125 190 221 271 352 393
#     4  12  23  46  70  96 145 175 227 285 341 412
#     4  10  22  46  69 101 135 172 233 277 342 423
#
# _framework density 21.626570000000001
#
# number of rings (size 3 to 8) (size 9 to 14) (size 15 to 20)
#    0.857    0.286    4.286    1.286    2.000    3.429 
#    2.571    1.429    0.000    0.000    0.000    0.000 
#    0.000    0.000    0.000    0.000    0.000    0.000 
#
# Total GULP energy -78137.172957 kJ/mol
# GULP energy per Si atom -5581.226640 kJ/mol
# Density = 2.157735 g / cm^3
# Si number density = 21.626570 Si / 1000 Ang^3
#
#
#
# Elastic Constant Matrix: (Units=GPa)
#
#
# Indices 1 2 3 4 5 6 
#
# 1 143.7244 52.1403 27.9330 -4.7521 -7.5910 11.5702
# 2 52.1403 126.1639 13.8695 -5.1444 1.5334 -2.8395
# 3 27.9330 13.8695 43.8804 14.2573 -12.9208 -3.8913
# 4 -4.7521 -5.1444 14.2573 30.9476 -0.2287 -3.4573
# 5 -7.5910 1.5334 -12.9208 -0.2287 27.8773 6.7989
# 6 11.5702 -2.8395 -3.8913 -3.4573 6.7989 29.7873
#
#
#
# Elastic Compliance Matrix: (Units=1/GPa)
#
#
# Indices 1 2 3 4 5 6 
#
# 1 0.010037 -0.003414 -0.006535 0.003441 0.001124 -0.004935
# 2 -0.003414 0.009822 -0.002477 0.002560 -0.003327 0.002995
# 3 -0.006535 -0.002477 0.038656 -0.018933 0.015737 0.001563
# 4 0.003441 0.002560 -0.018933 0.042291 -0.008428 0.003266
# 5 0.001124 -0.003327 0.015737 -0.008428 0.046071 -0.010192
# 6 -0.004935 0.002995 0.001563 0.003266 -0.010192 0.038683
#
#
# Mechanical properties :
#
#
# Convention : Reuss Voigt Hill
#
# Bulk Modulus (GPa) = 29.70640 55.73938 42.72289
# Shear Modulus (GPa) = 22.55992 32.37750 27.46871
#
# Velocity S-wave (km/s) = 3.23330 3.87346 3.56776
# Velocity P-wave (km/s) = 5.26354 6.77011 6.06380
#
# Compressibility (1/GPa) = 0.03366278
#
# Stress axis : x y z
#
# Youngs Moduli (GPa) = 99.63426 101.81632 25.86927
#
# Poissons Ratio (x) = 0.34759 0.16905
# Poissons Ratio (y) = 0.34014 0.06408
# Poissons Ratio (z) = 0.65109 0.25219
#
# Static dielectric constant tensor:
#      x y z
#    x 1.309150 -0.644840 0.271180 
#    y -0.644840 0.930920 0.375980 
#    z 0.271180 0.375980 1.651440 
# 
# From -- ./inp_files/578389.got.cif
#   From: 2010.05.17/outbox.cif.g08.bks.cpg/sg2_290_cif.got.tgz:578389.got - 2010.06.03 11:33:40.
