data_PCOD9035482
_publ_section_title
;
Structure prediction by ZEFSAII (Michael W. Deem and Ramdas Pophale) SiO2 
 PCOD9035482
Probable space group: P -1
;
_chemical_formula_sum "Si O2"
_cell_formula_units_Z 12
_cell_length_a 11.905408
_cell_length_b 7.342100
_cell_length_c 8.931891
_cell_angle_alpha 79.936240
_cell_angle_beta 45.808765
_cell_angle_gamma 56.355418
_cell_volume 435.812193
_symmetry_space_group_name_H-M "P -1"
_symmetry_group_IT_number 2
_symmetry_cell_setting 'triclinic'
loop_
_space_group_symop_operation_xyz
x,y,z
-x,-y,-z
loop_
_atom_site_type_symbol
_atom_site_label
_atom_site_fract_x
_atom_site_fract_y
_atom_site_fract_z
Si Si1 0.228613 0.321401 0.259716
Si Si2 0.133605 0.027185 0.267047
Si Si3 0.556119 0.701067 0.236062
Si Si4 0.251137 0.996318 0.696123
Si Si5 0.099314 0.685509 0.838823
Si Si6 0.479143 0.672608 0.799440
O O1 0.259442 0.079784 0.240076
O O2 0.353225 0.349233 0.258575
O O3 0.000000 0.500000 0.500000
O O4 0.306709 0.334888 0.023043
O O5 0.003556 0.240254 0.238387
O O6 0.000000 0.000000 0.500000
O O7 0.286276 0.790066 0.068027
O O8 0.378921 0.946764 0.439233
O O9 0.704439 0.561237 0.259109
O O10 0.471646 0.561307 0.283234
O O11 0.159738 0.857922 0.774166
O O12 0.395555 0.866439 0.721011
O O13 0.066281 0.246001 0.891973
#
# Coordination Sequence:
#
# PCOD9035482 Si02
#       6
#     2   2   2   2   2   2
#     4  12  28  43  65 106 141 180 232 286 346 409
#     4  11  25  45  72  96 138 188 227 288 344 411
#     4  11  23  44  76 102 138 181 226 291 345 410
#     4   9  20  39  74  99 138 181 226 282 339 415
#     4   9  20  41  70 107 132 177 237 274 348 411
#     4  10  22  46  66 101 138 179 229 278 347 411
#
# _framework density 27.534797999999999
#
# number of rings (size 3 to 8) (size 9 to 14) (size 15 to 20)
#    0.000    1.667    0.000    5.000    7.000    0.667 
#    3.000    1.667    0.000    0.000    0.000    0.000 
#    0.000    0.000    0.000    0.000    0.000    0.000 
#
# Total GULP energy -67284.219844 kJ/mol
# GULP energy per Si atom -5607.018320 kJ/mol
# Density = 2.747213 g / cm^3
# Si number density = 27.534798 Si / 1000 Ang^3
#
#
#
# Elastic Constant Matrix: (Units=GPa)
#
#
# Indices 1 2 3 4 5 6 
#
# 1 170.7601 22.1773 72.6191 -20.9867 -16.7280 -17.7087
# 2 22.1773 42.5441 46.1292 -7.5652 1.9057 2.1686
# 3 72.6191 46.1292 240.2035 24.4126 18.7122 -14.9321
# 4 -20.9867 -7.5652 24.4126 41.2480 12.6288 1.8476
# 5 -16.7280 1.9057 18.7122 12.6288 35.8096 -8.8785
# 6 -17.7087 2.1686 -14.9321 1.8476 -8.8785 52.7098
#
#
#
# Elastic Compliance Matrix: (Units=1/GPa)
#
#
# Indices 1 2 3 4 5 6 
#
# 1 0.008565 -0.000601 -0.003139 0.004538 0.004730 0.002651
# 2 -0.000601 0.034715 -0.007724 0.011917 -0.003491 -0.004824
# 3 -0.003139 -0.007724 0.007546 -0.006840 -0.002274 0.001258
# 4 0.004538 0.011917 -0.006840 0.035499 -0.008340 -0.003552
# 5 0.004730 -0.003491 -0.002274 -0.008340 0.036309 0.007497
# 6 0.002651 -0.004824 0.001258 -0.003552 0.007497 0.021804
#
#
# Mechanical properties :
#
#
# Convention : Reuss Voigt Hill
#
# Bulk Modulus (GPa) = 35.84569 81.70656 58.77612
# Shear Modulus (GPa) = 28.30186 46.79229 37.54707
#
# Velocity S-wave (km/s) = 3.20950 4.12683 3.69673
# Velocity P-wave (km/s) = 5.17505 7.24196 6.29393
#
# Compressibility (1/GPa) = 0.02789736
#
# Stress axis : x y z
#
# Youngs Moduli (GPa) = 116.75133 28.80605 132.52139
#
# Poissons Ratio (x) = 0.01732 0.41597
# Poissons Ratio (y) = 0.07021 1.02360
# Poissons Ratio (z) = 0.36647 0.22250
#
# Static dielectric constant tensor:
#      x y z
#    x 2.120050 -0.023570 0.016130 
#    y -0.023570 2.175000 0.026400 
#    z 0.016130 0.026400 2.151370 
# 
# From -- ./inp_files/173593.got.cif
#   From: 2010.05.17/outbox.cif.g08.bks.cpg/sg2_87_cif.got.tgz:173593.got - 2010.06.03 11:33:40.
