data_PCOD9035887
_publ_section_title
;
Structure prediction by ZEFSAII (Michael W. Deem and Ramdas Pophale) SiO2 
 PCOD9035887
Probable space group: P -1
;
_chemical_formula_sum "Si O2"
_cell_formula_units_Z 15
_cell_length_a 14.432762
_cell_length_b 8.982748
_cell_length_c 12.469240
_cell_angle_alpha 97.767882
_cell_angle_beta 151.387440
_cell_angle_gamma 66.854596
_cell_volume 625.764532
_symmetry_space_group_name_H-M "P -1"
_symmetry_group_IT_number 2
_symmetry_cell_setting 'triclinic'
loop_
_space_group_symop_operation_xyz
x,y,z
-x,-y,-z
loop_
_atom_site_type_symbol
_atom_site_label
_atom_site_fract_x
_atom_site_fract_y
_atom_site_fract_z
Si Si1 0.363604 0.524480 0.255171
Si Si2 0.500000 0.000000 0.000000
Si Si3 0.116535 0.154057 0.815669
Si Si4 0.651282 0.556041 0.381472
Si Si5 0.560334 0.838436 0.683439
Si Si6 0.808946 0.758116 0.701319
Si Si7 0.303807 0.787176 0.871012
Si Si8 0.917281 0.708758 0.431488
O O1 0.500000 0.500000 0.500000
O O2 0.442188 0.605632 0.253746
O O3 0.443404 0.322154 0.282825
O O4 0.083251 0.650645 0.996593
O O5 0.312928 0.137534 0.722478
O O6 0.386544 0.866254 0.871960
O O7 0.854940 0.338515 0.571336
O O8 0.222197 0.184765 0.814580
O O9 0.150063 0.964700 0.810425
O O10 0.263515 0.138577 0.065632
O O11 0.773643 0.649678 0.562793
O O12 0.529186 0.625668 0.149616
O O13 0.672470 0.768859 0.671792
O O14 0.312029 0.032632 0.436294
O O15 0.131955 0.727060 0.660889
O O16 0.000000 0.500000 0.500000
#
# Coordination Sequence:
#
# PCOD9035887 Si02
#       8
#     2   1   2   2   2   2   2   2
#     4  12  25  42  68 103 139 188 230 279 351 417
#     4  10  22  46  74  92 138 180 228 290 356 410
#     4  11  23  44  69  97 135 185 231 287 350 413
#     4  12  25  43  70 103 140 181 232 287 347 420
#     4  11  23  44  70  96 138 187 230 285 346 403
#     4  11  24  46  68  97 147 182 228 290 340 409
#     4  11  26  47  69 104 138 184 239 293 357 422
#     4  11  26  46  70 104 140 180 235 294 360 424
#
# _framework density 23.970676999999998
#
# number of rings (size 3 to 8) (size 9 to 14) (size 15 to 20)
#    0.000    0.800    4.000    3.600    1.867    5.867 
#    4.800    0.000    0.000    0.000    0.000    0.000 
#    0.000    0.000    0.000    0.000    0.000    0.000 
#
# Total GULP energy -83784.525022 kJ/mol
# GULP energy per Si atom -5585.635001 kJ/mol
# Density = 2.391612 g / cm^3
# Si number density = 23.970677 Si / 1000 Ang^3
#
#
#
# Elastic Constant Matrix: (Units=GPa)
#
#
# Indices 1 2 3 4 5 6 
#
# 1 39.9196 21.1312 21.8399 4.1847 -0.8919 4.4992
# 2 21.1312 158.4036 113.6238 -11.8324 14.7351 2.4980
# 3 21.8399 113.6238 186.6563 -8.0236 6.7570 5.4537
# 4 4.1847 -11.8324 -8.0236 49.8563 3.0313 0.1065
# 5 -0.8919 14.7351 6.7570 3.0313 37.3198 2.1722
# 6 4.4992 2.4980 5.4537 0.1065 2.1722 35.5144
#
#
#
# Elastic Compliance Matrix: (Units=1/GPa)
#
#
# Indices 1 2 3 4 5 6 
#
# 1 0.028360 -0.003113 -0.001575 -0.003528 0.002670 -0.003285
# 2 -0.003113 0.012124 -0.006802 0.002277 -0.003862 0.000816
# 3 -0.001575 -0.006802 0.009674 0.000019 0.000945 -0.000865
# 4 -0.003528 0.002277 0.000019 0.021062 -0.002720 0.000387
# 5 0.002670 -0.003862 0.000945 -0.002720 0.028547 -0.001950
# 6 -0.003285 0.000816 -0.000865 0.000387 -0.001950 0.028767
#
#
# Mechanical properties :
#
#
# Convention : Reuss Voigt Hill
#
# Bulk Modulus (GPa) = 36.79638 77.57436 57.18537
# Shear Modulus (GPa) = 31.13796 39.76374 35.45085
#
# Velocity S-wave (km/s) = 3.60808 4.07732 3.84985
# Velocity P-wave (km/s) = 5.72202 7.38908 6.60833
#
# Compressibility (1/GPa) = 0.02717659
#
# Stress axis : x y z
#
# Youngs Moduli (GPa) = 35.26091 82.48087 103.36601
#
# Poissons Ratio (x) = 0.25679 0.16285
# Poissons Ratio (y) = 0.10978 0.70311
# Poissons Ratio (z) = 0.05555 0.56105
#
# Static dielectric constant tensor:
#      x y z
#    x 2.077300 -0.048640 0.075390 
#    y -0.048640 1.947470 -0.022820 
#    z 0.075390 -0.022820 1.957640 
# 
# From -- ./inp_files/537465.got.cif
#   From: 2010.05.17/outbox.cif.g08.bks.cpg/sg2_269_cif.got.tgz:537465.got - 2010.06.03 11:33:40.
