data_PCOD9035814
_publ_section_title
;
Structure prediction by ZEFSAII (Michael W. Deem and Ramdas Pophale) SiO2 
 PCOD9035814
Probable space group: P -1
;
_chemical_formula_sum "Si O2"
_cell_formula_units_Z 15
_cell_length_a 8.806060
_cell_length_b 15.433511
_cell_length_c 18.401093
_cell_angle_alpha 159.887723
_cell_angle_beta 101.575625
_cell_angle_gamma 66.876558
_cell_volume 669.865622
_symmetry_space_group_name_H-M "P -1"
_symmetry_group_IT_number 2
_symmetry_cell_setting 'triclinic'
loop_
_space_group_symop_operation_xyz
x,y,z
-x,-y,-z
loop_
_atom_site_type_symbol
_atom_site_label
_atom_site_fract_x
_atom_site_fract_y
_atom_site_fract_z
Si Si1 0.432008 0.823117 0.710334
Si Si2 0.925719 0.681146 0.285983
Si Si3 0.889131 0.946139 0.258250
Si Si4 0.500000 0.000000 0.000000
Si Si5 0.715477 0.280074 0.651622
Si Si6 0.085034 0.291878 0.530951
Si Si7 0.665362 0.013482 0.814711
Si Si8 0.859617 0.906442 0.893762
O O1 0.500000 0.500000 0.500000
O O2 0.395737 0.051081 0.952265
O O3 0.252290 0.948575 0.740842
O O4 0.598014 0.798692 0.661175
O O5 0.898495 0.609077 0.308960
O O6 0.123286 0.654751 0.277608
O O7 0.756535 0.043087 0.533525
O O8 0.953514 0.429041 0.032648
O O9 0.764742 0.078178 0.423841
O O10 0.986017 0.121485 0.399788
O O11 0.637658 0.095025 0.050697
O O12 0.507735 0.616953 0.899266
O O13 0.957912 0.575137 0.684218
O O14 0.279772 0.049678 0.313885
O O15 0.835960 0.911891 0.808635
O O16 0.000000 0.000000 0.000000
#
# Coordination Sequence:
#
# PCOD9035814 Si02
#       8
#     2   2   2   1   2   2   2   2
#     4  11  24  38  67  96 137 179 232 280 344 419
#     4  10  22  46  72  97 139 186 230 307 350 416
#     4  11  22  42  71  99 134 184 232 286 355 415
#     4  10  24  42  64 102 134 186 242 278 342 424
#     4  10  23  44  71 104 135 178 249 289 350 431
#     4  11  26  43  67 105 144 181 235 288 356 432
#     4  11  25  44  65 107 141 179 234 288 352 435
#     4  11  26  43  73  99 150 190 231 296 360 421
#
# _framework density 22.392552999999999
#
# number of rings (size 3 to 8) (size 9 to 14) (size 15 to 20)
#    0.000    1.333    1.333    3.200   14.933    0.533 
#    0.000    0.667    0.000    0.000    0.000    0.000 
#    0.000    0.000    0.000    0.000    0.000    0.000 
#
# Total GULP energy -83547.036112 kJ/mol
# GULP energy per Si atom -5569.802407 kJ/mol
# Density = 2.234159 g / cm^3
# Si number density = 22.392553 Si / 1000 Ang^3
#
#
#
# Elastic Constant Matrix: (Units=GPa)
#
#
# Indices 1 2 3 4 5 6 
#
# 1 66.2490 5.6847 21.4136 -9.9051 5.5151 4.3331
# 2 5.6847 76.1602 36.5379 6.8312 -15.8934 13.5885
# 3 21.4136 36.5379 112.9328 10.6524 -3.2161 0.9662
# 4 -9.9051 6.8312 10.6524 45.7962 3.8611 -5.8284
# 5 5.5151 -15.8934 -3.2161 3.8611 22.4926 -5.4846
# 6 4.3331 13.5885 0.9662 -5.8284 -5.4846 16.6704
#
#
#
# Elastic Compliance Matrix: (Units=1/GPa)
#
#
# Indices 1 2 3 4 5 6 
#
# 1 0.018054 -0.000667 -0.003845 0.004934 -0.007427 -0.004645
# 2 -0.000667 0.021577 -0.005933 -0.004871 0.011764 -0.014904
# 3 -0.003845 -0.005933 0.011658 -0.002088 -0.000156 0.004378
# 4 0.004934 -0.004871 -0.002088 0.025927 -0.007073 0.009547
# 5 -0.007427 0.011764 -0.000156 -0.007073 0.057967 0.008949
# 6 -0.004645 -0.014904 0.004378 0.009547 0.008949 0.079371
#
#
# Mechanical properties :
#
#
# Convention : Reuss Voigt Hill
#
# Bulk Modulus (GPa) = 32.89308 42.51270 37.70289
# Shear Modulus (GPa) = 20.36030 29.77219 25.06625
#
# Velocity S-wave (km/s) = 3.01864 3.65027 3.34937
# Velocity P-wave (km/s) = 5.18370 6.06567 5.64195
#
# Compressibility (1/GPa) = 0.03040153
#
# Stress axis : x y z
#
# Youngs Moduli (GPa) = 55.38844 46.34542 85.77590
#
# Poissons Ratio (x) = 0.03090 0.32979
# Poissons Ratio (y) = 0.03693 0.50887
# Poissons Ratio (z) = 0.21296 0.27495
#
# Static dielectric constant tensor:
#      x y z
#    x 1.862900 0.042660 -0.070460 
#    y 0.042660 1.848700 -0.043480 
#    z -0.070460 -0.043480 1.947860 
# 
# From -- ./inp_files/561255.got.cif
#   From: 2010.05.17/outbox.cif.g08.bks.cpg/sg2_281_cif.got.tgz:561255.got - 2010.06.03 11:33:40.
