data_PCOD9035556
_publ_section_title
;
Structure prediction by ZEFSAII (Michael W. Deem and Ramdas Pophale) SiO2 
 PCOD9035556
Probable space group: P -1
;
_chemical_formula_sum "Si O2"
_cell_formula_units_Z 16
_cell_length_a 6.241364
_cell_length_b 8.095429
_cell_length_c 22.010289
_cell_angle_alpha 48.980901
_cell_angle_beta 118.965174
_cell_angle_gamma 90.347009
_cell_volume 647.072654
_symmetry_space_group_name_H-M "P -1"
_symmetry_group_IT_number 2
_symmetry_cell_setting 'triclinic'
loop_
_space_group_symop_operation_xyz
x,y,z
-x,-y,-z
loop_
_atom_site_type_symbol
_atom_site_label
_atom_site_fract_x
_atom_site_fract_y
_atom_site_fract_z
Si Si1 0.345776 0.324145 0.294012
Si Si2 0.522179 0.710375 0.197245
Si Si3 0.695414 0.128714 0.996151
Si Si4 0.798745 0.367488 0.162114
Si Si5 0.191444 0.569038 0.421519
Si Si6 0.848343 0.978215 0.367454
Si Si7 0.113291 0.243178 0.397573
Si Si8 0.119758 0.035383 0.815739
O O1 0.438986 0.534237 0.267400
O O2 0.552453 0.108886 0.328659
O O3 0.336556 0.211321 0.384957
O O4 0.045191 0.432719 0.194737
O O5 0.295646 0.813041 0.087475
O O6 0.832995 0.491059 0.275293
O O7 0.608055 0.924920 0.172045
O O8 0.500948 0.399859 0.931423
O O9 0.921018 0.973798 0.115326
O O10 0.500000 0.000000 0.000000
O O11 0.823055 0.165030 0.264152
O O12 0.845972 0.222821 0.141305
O O13 0.500000 0.500000 0.500000
O O14 0.162827 0.335517 0.447150
O O15 0.982048 0.719517 0.411638
O O16 0.115924 0.750683 0.308665
O O17 0.049479 0.014571 0.434857
#
# Coordination Sequence:
#
# PCOD9035556 Si02
#       8
#     2   2   2   2   2   2   2   2
#     4  10  17  34  66  88 120 157 198 237 291 356
#     4   9  17  35  56  83 120 154 190 234 288 353
#     4  10  17  32  59  80 117 163 187 227 296 355
#     4  10  18  35  57  83 123 156 190 235 293 353
#     4  10  21  39  62  85 114 157 205 249 298 352
#     4   9  19  37  62  87 122 156 193 247 301 350
#     4   9  18  36  62  86 119 157 195 239 302 355
#     4   9  20  34  58  81 113 158 192 238 296 344
#
# _framework density 24.726745000000001
#
# number of rings (size 3 to 8) (size 9 to 14) (size 15 to 20)
#    0.000    2.500    3.750    0.375    0.000    0.500 
#    0.000   23.750    0.000   19.500    0.000    0.000 
#    0.000    0.000    0.000    0.000    0.000    0.000 
#
# Total GULP energy -89233.122817 kJ/mol
# GULP energy per Si atom -5577.070176 kJ/mol
# Density = 2.467047 g / cm^3
# Si number density = 24.726745 Si / 1000 Ang^3
#
#
#
# Elastic Constant Matrix: (Units=GPa)
#
#
# Indices 1 2 3 4 5 6 
#
# 1 80.2099 28.8581 18.9826 3.2323 -1.1737 -7.4542
# 2 28.8581 147.3662 17.5799 19.3570 3.8769 -8.3482
# 3 18.9826 17.5799 123.0641 23.5637 4.9374 4.1450
# 4 3.2323 19.3570 23.5637 34.5150 3.6277 -0.4663
# 5 -1.1737 3.8769 4.9374 3.6277 35.6939 -11.0467
# 6 -7.4542 -8.3482 4.1450 -0.4663 -11.0467 35.7657
#
#
#
# Elastic Compliance Matrix: (Units=1/GPa)
#
#
# Indices 1 2 3 4 5 6 
#
# 1 0.014206 -0.002575 -0.002302 0.001528 0.001912 0.003237
# 2 -0.002575 0.007908 0.000034 -0.004185 -0.000150 0.001204
# 3 -0.002302 0.000034 0.009830 -0.006391 -0.001453 -0.002143
# 4 0.001528 -0.004185 -0.006391 0.035780 -0.002297 -0.000161
# 5 0.001912 -0.000150 -0.001453 -0.002297 0.031717 0.010298
# 6 0.003237 0.001204 -0.002143 -0.000161 0.010298 0.032342
#
#
# Mechanical properties :
#
#
# Convention : Reuss Voigt Hill
#
# Bulk Modulus (GPa) = 44.92503 53.49793 49.21148
# Shear Modulus (GPa) = 33.58270 40.20958 36.89614
#
# Velocity S-wave (km/s) = 3.68931 4.03694 3.86703
# Velocity P-wave (km/s) = 6.02960 6.58876 6.31537
#
# Compressibility (1/GPa) = 0.02225931
#
# Stress axis : x y z
#
# Youngs Moduli (GPa) = 70.39481 126.45651 101.72759
#
# Poissons Ratio (x) = 0.32561 0.23414
# Poissons Ratio (y) = 0.18126 -0.00350
# Poissons Ratio (z) = 0.16202 -0.00434
#
# Static dielectric constant tensor:
#      x y z
#    x 1.957820 -0.011540 0.007180 
#    y -0.011540 2.026740 -0.015780 
#    z 0.007180 -0.015780 2.044010 
# 
# From -- ./inp_files/603999.got.cif
#   From: 2010.05.17/outbox.cif.g08.bks.cpg/sg2_302_cif.got.tgz:603999.got - 2010.06.03 11:33:40.
