data_PCOD9035364
_publ_section_title
;
Structure prediction by ZEFSAII (Michael W. Deem and Ramdas Pophale) SiO2 
 PCOD9035364
Probable space group: P -1
;
_chemical_formula_sum "Si O2"
_cell_formula_units_Z 13
_cell_length_a 4.704056
_cell_length_b 5.789563
_cell_length_c 18.874113
_cell_angle_alpha 69.135838
_cell_angle_beta 79.512854
_cell_angle_gamma 75.688129
_cell_volume 462.899189
_symmetry_space_group_name_H-M "P -1"
_symmetry_group_IT_number 2
_symmetry_cell_setting 'triclinic'
loop_
_space_group_symop_operation_xyz
x,y,z
-x,-y,-z
loop_
_atom_site_type_symbol
_atom_site_label
_atom_site_fract_x
_atom_site_fract_y
_atom_site_fract_z
Si Si1 0.877528 0.802643 0.195901
Si Si2 0.364792 0.508236 0.270503
Si Si3 0.000000 0.500000 0.000000
Si Si4 0.220498 0.287225 0.557256
Si Si5 0.690036 0.200535 0.953966
Si Si6 0.578517 0.686151 0.861383
Si Si7 0.652390 0.269660 0.414707
O O1 0.101492 0.753421 0.257683
O O2 0.111195 0.794759 0.123288
O O3 0.671231 0.595801 0.230811
O O4 0.646373 0.057314 0.166373
O O5 0.299264 0.361031 0.218964
O O6 0.408951 0.338055 0.356346
O O7 0.575655 0.548067 0.077853
O O8 0.891272 0.248892 0.003799
O O9 0.518901 0.232849 0.502101
O O10 0.261208 0.453928 0.606511
O O11 0.000000 0.500000 0.500000
O O12 0.152095 0.001590 0.590157
O O13 0.813749 0.657397 0.917569
O O14 0.500000 0.000000 0.000000
#
# Coordination Sequence:
#
# PCOD9035364 Si02
#       7
#     2   2   1   2   2   2   2
#     4  11  26  52  79 113 158 208 277 333 421 504
#     4  11  27  50  79 113 159 218 272 339 409 507
#     4   8  20  50  86 116 156 202 268 356 422 504
#     4  10  22  45  74 126 165 213 276 336 401 495
#     4   9  21  49  87 119 152 200 271 348 431 506
#     4   9  23  50  80 115 151 207 273 343 418 507
#     4  10  24  43  77 119 167 217 275 335 411 489
#
# _framework density 28.083863999999998
#
# number of rings (size 3 to 8) (size 9 to 14) (size 15 to 20)
#    0.923    1.231    0.000    0.462    4.308    3.692 
#    5.538    6.154    6.769    1.846    0.000    0.000 
#    0.000    0.000    0.000    0.000    0.000    0.000 
#
# Total GULP energy -72427.212658 kJ/mol
# GULP energy per Si atom -5571.324051 kJ/mol
# Density = 2.801994 g / cm^3
# Si number density = 28.083864 Si / 1000 Ang^3
#
#
#
# Elastic Constant Matrix: (Units=GPa)
#
#
# Indices 1 2 3 4 5 6 
#
# 1 170.4881 69.3128 49.2099 -17.2915 20.1449 2.9821
# 2 69.3128 183.1854 55.9252 -9.8630 11.3738 13.4621
# 3 49.2099 55.9252 138.7550 -1.5034 27.8783 5.1223
# 4 -17.2915 -9.8630 -1.5034 34.4162 -2.9283 9.3086
# 5 20.1449 11.3738 27.8783 -2.9283 68.1855 -10.5878
# 6 2.9821 13.4621 5.1223 9.3086 -10.5878 48.4140
#
#
#
# Elastic Compliance Matrix: (Units=1/GPa)
#
#
# Indices 1 2 3 4 5 6 
#
# 1 0.007664 -0.002130 -0.001555 0.003231 -0.001228 -0.000605
# 2 -0.002130 0.007095 -0.002028 0.001388 0.000042 -0.001885
# 3 -0.001555 -0.002028 0.009226 -0.001008 -0.003144 -0.000810
# 4 0.003231 0.001388 -0.001008 0.032860 -0.000433 -0.006891
# 5 -0.001228 0.000042 -0.003144 -0.000433 0.016938 0.004184
# 6 -0.000605 -0.001885 -0.000810 -0.006891 0.004184 0.023542
#
#
# Mechanical properties :
#
#
# Convention : Reuss Voigt Hill
#
# Bulk Modulus (GPa) = 79.62923 93.48051 86.55487
# Shear Modulus (GPa) = 44.27185 51.40184 47.83685
#
# Velocity S-wave (km/s) = 3.97472 4.28284 4.13165
# Velocity P-wave (km/s) = 7.03421 7.60364 7.32446
#
# Compressibility (1/GPa) = 0.01255820
#
# Stress axis : x y z
#
# Youngs Moduli (GPa) = 130.48076 140.95032 108.38391
#
# Poissons Ratio (x) = 0.30027 0.16857
# Poissons Ratio (y) = 0.27797 0.21978
# Poissons Ratio (z) = 0.20294 0.28582
#
# Static dielectric constant tensor:
#      x y z
#    x 2.077320 0.028980 0.051830 
#    y 0.028980 2.717540 -0.159190 
#    z 0.051830 -0.159190 2.146330 
# 
# From -- ./inp_files/6764.got.cif
#   From: 2010.05.17/outbox.cif.g08.bks.cpg/sg2_4_cif.got.tgz:6764.got - 2010.06.03 11:33:40.
