data_PCOD9035872
_publ_section_title
;
Structure prediction by ZEFSAII (Michael W. Deem and Ramdas Pophale) SiO2 
 PCOD9035872
Probable space group: P -1
;
_chemical_formula_sum "Si O2"
_cell_formula_units_Z 15
_cell_length_a 11.136008
_cell_length_b 11.879029
_cell_length_c 10.488533
_cell_angle_alpha 112.366024
_cell_angle_beta 152.479490
_cell_angle_gamma 60.497928
_cell_volume 552.500990
_symmetry_space_group_name_H-M "P -1"
_symmetry_group_IT_number 2
_symmetry_cell_setting 'triclinic'
loop_
_space_group_symop_operation_xyz
x,y,z
-x,-y,-z
loop_
_atom_site_type_symbol
_atom_site_label
_atom_site_fract_x
_atom_site_fract_y
_atom_site_fract_z
Si Si1 0.523081 0.157362 0.740175
Si Si2 0.204928 0.754928 0.165254
Si Si3 0.089198 0.157843 0.832096
Si Si4 0.500000 0.500000 0.500000
Si Si5 0.746666 0.622588 0.015563
Si Si6 0.705324 0.992158 0.369081
Si Si7 0.026922 0.617064 0.703068
Si Si8 0.217224 0.760212 0.744050
O O1 0.671784 0.145126 0.740571
O O2 0.359002 0.063534 0.581120
O O3 0.297132 0.305337 0.592270
O O4 0.712308 0.155447 0.040725
O O5 0.421839 0.641068 0.406565
O O6 0.941614 0.824184 0.036168
O O7 0.114009 0.692725 0.931105
O O8 0.053964 0.302353 0.811734
O O9 0.860685 0.094079 0.562209
O O10 0.402540 0.064776 0.056560
O O11 0.667762 0.551636 0.790745
O O12 0.461691 0.714092 0.853171
O O13 0.900446 0.523797 0.230020
O O14 0.922399 0.858738 0.454322
O O15 0.181932 0.638531 0.732052
#
# Coordination Sequence:
#
# PCOD9035872 Si02
#       8
#     2   2   2   1   2   2   2   2
#     4  10  22  46  74 105 150 200 248 317 362 432
#     4  10  24  42  73 106 151 196 245 306 379 441
#     4  12  27  46  73 115 151 203 248 303 382 445
#     4  10  24  48  72 110 154 186 242 302 378 466
#     4  11  25  46  77 111 152 197 242 311 384 455
#     4  11  25  50  72 109 152 195 267 306 358 447
#     4   9  22  43  74 110 147 187 255 312 372 445
#     4  10  22  49  74 110 146 199 252 311 373 434
#
# _framework density 27.149273000000001
#
# number of rings (size 3 to 8) (size 9 to 14) (size 15 to 20)
#    0.000    1.600    1.333    1.200    5.600    3.733 
#   12.000    0.000    0.000    0.000    0.000    0.000 
#    0.000    0.000    0.000    0.000    0.000    0.000 
#
# Total GULP energy -83849.122988 kJ/mol
# GULP energy per Si atom -5589.941533 kJ/mol
# Density = 2.708748 g / cm^3
# Si number density = 27.149273 Si / 1000 Ang^3
#
#
#
# Elastic Constant Matrix: (Units=GPa)
#
#
# Indices 1 2 3 4 5 6 
#
# 1 160.9683 84.4300 41.6013 26.4972 19.4347 43.3229
# 2 84.4300 125.3931 57.2144 12.1277 -3.3128 43.0685
# 3 41.6013 57.2144 148.7314 0.5493 -7.3145 25.4200
# 4 26.4972 12.1277 0.5493 49.8111 3.5651 -10.6227
# 5 19.4347 -3.3128 -7.3145 3.5651 42.2714 9.1080
# 6 43.3229 43.0685 25.4200 -10.6227 9.1080 42.1937
#
#
#
# Elastic Compliance Matrix: (Units=1/GPa)
#
#
# Indices 1 2 3 4 5 6 
#
# 1 0.013002 -0.004753 -0.000369 -0.007479 -0.003770 -0.009346
# 2 -0.004753 0.018344 -0.002797 -0.005608 0.006855 -0.015051
# 3 -0.000369 -0.002797 0.008361 0.000194 0.001844 -0.002152
# 4 -0.007479 -0.005608 0.000194 0.030380 -0.004237 0.021849
# 5 -0.003770 0.006855 0.001844 -0.004237 0.029100 -0.011586
# 6 -0.009346 -0.015051 -0.002152 0.021849 -0.011586 0.057957
#
#
# Mechanical properties :
#
#
# Convention : Reuss Voigt Hill
#
# Bulk Modulus (GPa) = 41.89468 89.06492 65.47980
# Shear Modulus (GPa) = 27.63376 43.64503 35.63939
#
# Velocity S-wave (km/s) = 3.19383 4.01383 3.62708
# Velocity P-wave (km/s) = 5.39124 7.37279 6.45846
#
# Compressibility (1/GPa) = 0.02386938
#
# Stress axis : x y z
#
# Youngs Moduli (GPa) = 76.91103 54.51302 119.60883
#
# Poissons Ratio (x) = 0.25907 0.04414
# Poissons Ratio (y) = 0.36552 0.33457
# Poissons Ratio (z) = 0.02838 0.15248
#
# Static dielectric constant tensor:
#      x y z
#    x 2.057580 -0.017280 0.003980 
#    y -0.017280 2.157260 -0.023530 
#    z 0.003980 -0.023530 2.140390 
# 
# From -- ./inp_files/426415.got.cif
#   From: 2010.05.17/outbox.cif.g08.bks.cpg/sg2_214_cif.got.tgz:426415.got - 2010.06.03 11:33:40.
