data_PCOD9035306
_publ_section_title
;
Structure prediction by ZEFSAII (Michael W. Deem and Ramdas Pophale) SiO2 
 PCOD9035306
Probable space group: P -1
;
_chemical_formula_sum "Si O2"
_cell_formula_units_Z 13
_cell_length_a 14.613008
_cell_length_b 11.438330
_cell_length_c 13.667346
_cell_angle_alpha 41.851715
_cell_angle_beta 19.279508
_cell_angle_gamma 43.345222
_cell_volume 500.231707
_symmetry_space_group_name_H-M "P -1"
_symmetry_group_IT_number 2
_symmetry_cell_setting 'triclinic'
loop_
_space_group_symop_operation_xyz
x,y,z
-x,-y,-z
loop_
_atom_site_type_symbol
_atom_site_label
_atom_site_fract_x
_atom_site_fract_y
_atom_site_fract_z
Si Si1 0.276975 0.766520 0.390827
Si Si2 0.500000 0.500000 0.500000
Si Si3 0.954781 0.563501 0.695173
Si Si4 0.811379 0.000475 0.093546
Si Si5 0.500550 0.386891 0.169811
Si Si6 0.629451 0.152352 0.464243
Si Si7 0.319592 0.087411 0.268518
O O1 0.447749 0.648307 0.372788
O O2 0.058290 0.643995 0.641497
O O3 0.166639 0.943496 0.452018
O O4 0.468073 0.831909 0.070543
O O5 0.594187 0.346930 0.419149
O O6 0.185461 0.423009 0.502579
O O7 0.885803 0.746318 0.590388
O O8 0.677137 0.470439 0.024820
O O9 0.650521 0.193445 0.119097
O O10 0.565877 0.872931 0.415923
O O11 0.000000 0.000000 0.000000
O O12 0.048578 0.918753 0.830245
O O13 0.500000 0.500000 0.000000
O O14 0.526867 0.019777 0.731890
#
# Coordination Sequence:
#
# PCOD9035306 Si02
#       7
#     2   1   2   2   2   2   2
#     4  10  23  44  72 108 149 185 249 296 388 429
#     4  10  26  50  76 114 140 202 234 322 360 460
#     4  12  23  42  72 101 146 183 245 302 359 434
#     4  12  28  48  74 107 151 205 241 305 369 447
#     4  12  26  44  69 106 141 191 249 300 363 424
#     4  11  26  49  77 107 152 187 257 294 378 436
#     4  10  22  45  73 110 144 195 234 315 367 440
#
# _framework density 25.987957000000002
#
# number of rings (size 3 to 8) (size 9 to 14) (size 15 to 20)
#    0.000    0.923    1.538    4.154    6.462    0.615 
#    8.308    0.000    0.000    0.000    0.000    0.000 
#    0.000    0.000    0.000    0.000    0.000    0.000 
#
# Total GULP energy -72532.474443 kJ/mol
# GULP energy per Si atom -5579.421111 kJ/mol
# Density = 2.592881 g / cm^3
# Si number density = 25.987957 Si / 1000 Ang^3
#
#
#
# Elastic Constant Matrix: (Units=GPa)
#
#
# Indices 1 2 3 4 5 6 
#
# 1 89.6230 40.2940 31.0190 -0.6448 -8.1149 8.9488
# 2 40.2940 259.9909 40.6124 16.7919 -8.1681 21.4871
# 3 31.0190 40.6124 85.7500 14.4718 -12.5468 -1.0294
# 4 -0.6448 16.7919 14.4718 28.9326 -7.1737 -2.4362
# 5 -8.1149 -8.1681 -12.5468 -7.1737 15.6183 -10.0924
# 6 8.9488 21.4871 -1.0294 -2.4362 -10.0924 53.8948
#
#
#
# Elastic Compliance Matrix: (Units=1/GPa)
#
#
# Indices 1 2 3 4 5 6 
#
# 1 0.013885 -0.001552 -0.004399 0.004447 0.004434 -0.000740
# 2 -0.001552 0.004605 -0.001520 -0.002683 -0.002239 -0.002148
# 3 -0.004399 -0.001520 0.016251 -0.004583 0.010011 0.003314
# 4 0.004447 -0.002683 -0.004583 0.044428 0.021715 0.006318
# 5 0.004434 -0.002239 0.010011 0.021715 0.095605 0.019232
# 6 -0.000740 -0.002148 0.003314 0.006318 0.019232 0.023484
#
#
# Mechanical properties :
#
#
# Convention : Reuss Voigt Hill
#
# Bulk Modulus (GPa) = 50.50509 73.24609 61.87559
# Shear Modulus (GPa) = 22.74815 41.25169 31.99992
#
# Velocity S-wave (km/s) = 2.96181 3.98846 3.51285
# Velocity P-wave (km/s) = 5.58325 7.03252 6.34937
#
# Compressibility (1/GPa) = 0.01979998
#
# Stress axis : x y z
#
# Youngs Moduli (GPa) = 72.01931 217.17107 61.53468
#
# Poissons Ratio (x) = 0.33698 0.27066
# Poissons Ratio (y) = 0.11175 0.09355
# Poissons Ratio (z) = 0.31678 0.33015
#
# Static dielectric constant tensor:
#      x y z
#    x 2.114210 -0.021800 0.001530 
#    y -0.021800 2.000440 -0.010670 
#    z 0.001530 -0.010670 2.061960 
# 
# From -- ./inp_files/531597.got.cif
#   From: 2010.05.17/outbox.cif.g08.bks.cpg/sg2_266_cif.got.tgz:531597.got - 2010.06.03 11:33:40.
