data_PCOD9035553
_publ_section_title
;
Structure prediction by ZEFSAII (Michael W. Deem and Ramdas Pophale) SiO2 
 PCOD9035553
Probable space group: P -1
;
_chemical_formula_sum "Si O2"
_cell_formula_units_Z 16
_cell_length_a 10.081506
_cell_length_b 11.211586
_cell_length_c 9.145062
_cell_angle_alpha 139.453645
_cell_angle_beta 79.125653
_cell_angle_gamma 85.382541
_cell_volume 617.979621
_symmetry_space_group_name_H-M "P -1"
_symmetry_group_IT_number 2
_symmetry_cell_setting 'triclinic'
loop_
_space_group_symop_operation_xyz
x,y,z
-x,-y,-z
loop_
_atom_site_type_symbol
_atom_site_label
_atom_site_fract_x
_atom_site_fract_y
_atom_site_fract_z
Si Si1 0.586740 0.838901 0.604088
Si Si2 0.583950 0.402849 0.749256
Si Si3 0.891909 0.359550 0.024107
Si Si4 0.649263 0.766256 0.984205
Si Si5 0.148871 0.808590 0.648473
Si Si6 0.664750 0.446044 0.364568
Si Si7 0.195776 0.227812 0.734060
Si Si8 0.059821 0.258341 0.181225
O O1 0.498111 0.731888 0.425676
O O2 0.664324 0.665894 0.538459
O O3 0.700952 0.891901 0.527847
O O4 0.466720 0.036194 0.866734
O O5 0.754220 0.266886 0.585173
O O6 0.500000 0.500000 0.000000
O O7 0.585468 0.595361 0.844129
O O8 0.038636 0.210890 0.779171
O O9 0.745245 0.334439 0.093328
O O10 0.841917 0.548041 0.105525
O O11 0.958694 0.386870 0.194127
O O12 0.706686 0.799994 0.165986
O O13 0.797353 0.693760 0.798280
O O14 0.249833 0.700959 0.663246
O O15 0.011295 0.747907 0.653503
O O16 0.103243 0.037652 0.902072
O O17 0.500000 0.500000 0.500000
#
# Coordination Sequence:
#
# PCOD9035553 Si02
#       8
#     2   2   2   2   2   2   2   2
#     4  11  21  37  57  85 115 154 196 229 286 339
#     4  12  24  35  55  90 120 148 190 239 287 343
#     4   8  17  28  51  87 100 146 197 225 282 332
#     4  11  21  35  59  86 112 156 192 231 289 339
#     4  10  20  37  59  89 113 149 199 233 290 340
#     4  10  17  32  59  80 113 149 189 244 282 330
#     4   9  17  32  51  79 114 145 189 233 270 344
#     4   9  18  36  62  84 109 152 197 240 279 341
#
# _framework density 25.890820999999999
#
# number of rings (size 3 to 8) (size 9 to 14) (size 15 to 20)
#    0.000    2.000    3.750    0.375    0.000    0.500 
#    0.000    0.625    0.000    0.750   42.250    0.000 
#    0.000    0.000    0.000    0.000    0.000    0.000 
#
# Total GULP energy -89277.425824 kJ/mol
# GULP energy per Si atom -5579.839114 kJ/mol
# Density = 2.583189 g / cm^3
# Si number density = 25.890821 Si / 1000 Ang^3
#
#
#
# Elastic Constant Matrix: (Units=GPa)
#
#
# Indices 1 2 3 4 5 6 
#
# 1 92.5148 45.8347 42.9341 -15.6184 -34.8402 27.9724
# 2 45.8347 105.6624 35.7771 -3.9403 -16.8201 11.5210
# 3 42.9341 35.7771 118.1524 12.4148 -19.8246 9.6383
# 4 -15.6184 -3.9403 12.4148 46.2310 7.3312 -27.0320
# 5 -34.8402 -16.8201 -19.8246 7.3312 43.5201 -8.3319
# 6 27.9724 11.5210 9.6383 -27.0320 -8.3319 54.4535
#
#
#
# Elastic Compliance Matrix: (Units=1/GPa)
#
#
# Indices 1 2 3 4 5 6 
#
# 1 0.022557 -0.005609 -0.004155 0.002473 0.012326 -0.006551
# 2 -0.005609 0.012392 -0.001836 0.000037 -0.000441 0.000535
# 3 -0.004155 -0.001836 0.011732 -0.006457 0.001924 -0.002465
# 4 0.002473 0.000037 -0.006457 0.034341 -0.003600 0.016361
# 5 0.012326 -0.000441 0.001924 -0.003600 0.033539 -0.003234
# 6 -0.006551 0.000535 -0.002465 0.016361 -0.003234 0.029680
#
#
# Mechanical properties :
#
#
# Convention : Reuss Voigt Hill
#
# Bulk Modulus (GPa) = 42.58949 62.82462 52.70706
# Shear Modulus (GPa) = 28.52808 41.62649 35.07729
#
# Velocity S-wave (km/s) = 3.32303 4.01405 3.68478
# Velocity P-wave (km/s) = 5.58648 6.76767 6.20524
#
# Compressibility (1/GPa) = 0.02347997
#
# Stress axis : x y z
#
# Youngs Moduli (GPa) = 44.33282 80.70032 85.23867
#
# Poissons Ratio (x) = 0.45265 0.35420
# Poissons Ratio (y) = 0.24866 0.15646
# Poissons Ratio (z) = 0.18422 0.14813
#
# Static dielectric constant tensor:
#      x y z
#    x 2.114780 0.005660 -0.063550 
#    y 0.005660 2.098630 -0.111480 
#    z -0.063550 -0.111480 2.109300 
# 
# From -- ./inp_files/426886.got.cif
#   From: 2010.05.17/outbox.cif.g08.bks.cpg/sg2_214_cif.got.tgz:426886.got - 2010.06.03 11:33:40.
