data_PCOD9035247
_publ_section_title
;
Structure prediction by ZEFSAII (Michael W. Deem and Ramdas Pophale) SiO2 
 PCOD9035247
Probable space group: P -1
;
_chemical_formula_sum "Si O2"
_cell_formula_units_Z 10
_cell_length_a 6.445429
_cell_length_b 9.033003
_cell_length_c 14.548444
_cell_angle_alpha 30.146930
_cell_angle_beta 95.088984
_cell_angle_gamma 96.743324
_cell_volume 422.313656
_symmetry_space_group_name_H-M "P -1"
_symmetry_group_IT_number 2
_symmetry_cell_setting 'triclinic'
loop_
_space_group_symop_operation_xyz
x,y,z
-x,-y,-z
loop_
_atom_site_type_symbol
_atom_site_label
_atom_site_fract_x
_atom_site_fract_y
_atom_site_fract_z
Si Si1 0.133669 0.720204 0.659842
Si Si2 0.851406 0.928037 0.176668
Si Si3 0.418854 0.633215 0.548798
Si Si4 0.640207 0.230332 0.165565
Si Si5 0.210707 0.762966 0.170660
O O1 0.319199 0.738074 0.583383
O O2 0.226865 0.703001 0.773430
O O3 0.973841 0.449464 0.768852
O O4 0.000000 0.000000 0.500000
O O5 0.756714 0.599252 0.377759
O O6 0.094486 0.916286 0.167178
O O7 0.791333 0.161322 0.124321
O O8 0.736746 0.008468 0.033067
O O9 0.612661 0.439400 0.681592
O O10 0.496184 0.924423 0.339862
O O11 0.500000 0.500000 0.000000
#
# Coordination Sequence:
#
# PCOD9035247 Si02
#       5
#     2   2   2   2   2
#     4  11  24  44  70  98 134 181 221 275 339 400
#     4  10  24  43  68 103 133 178 225 280 331 403
#     4  11  23  46  70  94 139 183 223 269 343 404
#     4  12  26  43  69 105 139 173 225 286 333 391
#     4  10  22  45  72  97 134 183 225 270 340 408
#
# _framework density 23.679084
#
# number of rings (size 3 to 8) (size 9 to 14) (size 15 to 20)
#    0.000    1.200    2.000    3.000    2.800    4.800 
#    3.600    0.000    0.000    0.000    0.000    0.000 
#    0.000    0.000    0.000    0.000    0.000    0.000 
#
# Total GULP energy -56021.853883 kJ/mol
# GULP energy per Si atom -5602.185388 kJ/mol
# Density = 2.362519 g / cm^3
# Si number density = 23.679084 Si / 1000 Ang^3
#
#
#
# Elastic Constant Matrix: (Units=GPa)
#
#
# Indices 1 2 3 4 5 6 
#
# 1 109.2438 65.9914 55.0027 8.5424 32.6970 -41.9448
# 2 65.9914 148.3219 24.7755 3.6610 19.6752 -56.3589
# 3 55.0027 24.7755 140.5802 -9.1897 21.6102 -24.9128
# 4 8.5424 3.6610 -9.1897 31.5791 -1.6608 3.6382
# 5 32.6970 19.6752 21.6102 -1.6608 55.0458 -12.7138
# 6 -41.9448 -56.3589 -24.9128 3.6382 -12.7138 55.1021
#
#
#
# Elastic Compliance Matrix: (Units=1/GPa)
#
#
# Indices 1 2 3 4 5 6 
#
# 1 0.019584 -0.003918 -0.005096 -0.007549 -0.006717 0.007545
# 2 -0.003918 0.012144 0.001111 -0.001184 -0.000181 0.009978
# 3 -0.005096 0.001111 0.009471 0.003839 -0.000714 0.001121
# 4 -0.007549 -0.001184 0.003839 0.035913 0.002883 -0.006927
# 5 -0.006717 -0.000181 -0.000714 0.002883 0.022442 -0.000633
# 6 0.007545 0.009978 0.001121 -0.006927 -0.000633 0.034915
#
#
# Mechanical properties :
#
#
# Convention : Reuss Voigt Hill
#
# Bulk Modulus (GPa) = 39.37907 76.63166 58.00537
# Shear Modulus (GPa) = 31.49867 45.17050 38.33459
#
# Velocity S-wave (km/s) = 3.65119 4.37236 4.02795
# Velocity P-wave (km/s) = 5.86868 7.61071 6.79574
#
# Compressibility (1/GPa) = 0.02539420
#
# Stress axis : x y z
#
# Youngs Moduli (GPa) = 51.06311 82.34510 105.59021
#
# Poissons Ratio (x) = 0.32260 0.53804
# Poissons Ratio (y) = 0.20005 -0.11733
# Poissons Ratio (z) = 0.26019 -0.09150
#
# Static dielectric constant tensor:
#      x y z
#    x 1.894660 -0.015640 -0.049880 
#    y -0.015640 1.894030 0.009640 
#    z -0.049880 0.009640 1.924900 
# 
# From -- ./inp_files/16128.got.cif
#   From: 2010.05.17/outbox.cif.g08.bks.cpg/sg2_9_cif.got.tgz:16128.got - 2010.06.03 11:33:40.
