data_PCOD9035575
_publ_section_title
;
Structure prediction by ZEFSAII (Michael W. Deem and Ramdas Pophale) SiO2 
 PCOD9035575
Probable space group: P -1
;
_chemical_formula_sum "Si O2"
_cell_formula_units_Z 14
_cell_length_a 9.340015
_cell_length_b 8.117861
_cell_length_c 9.392565
_cell_angle_alpha 59.056538
_cell_angle_beta 96.636075
_cell_angle_gamma 73.389768
_cell_volume 554.640626
_symmetry_space_group_name_H-M "P -1"
_symmetry_group_IT_number 2
_symmetry_cell_setting 'triclinic'
loop_
_space_group_symop_operation_xyz
x,y,z
-x,-y,-z
loop_
_atom_site_type_symbol
_atom_site_label
_atom_site_fract_x
_atom_site_fract_y
_atom_site_fract_z
Si Si1 0.770800 0.273284 0.824057
Si Si2 0.692831 0.688605 0.920375
Si Si3 0.507615 0.175391 0.737370
Si Si4 0.826540 0.510349 0.472970
Si Si5 0.813418 0.271466 0.306666
Si Si6 0.528639 0.209089 0.399543
Si Si7 0.035881 0.152284 0.141379
O O1 0.597764 0.269478 0.814587
O O2 0.782138 0.453819 0.646793
O O3 0.861384 0.062330 0.832176
O O4 0.877610 0.247742 0.985599
O O5 0.609340 0.650565 0.785765
O O6 0.855240 0.717229 0.897533
O O7 0.578968 0.922147 0.861515
O O8 0.729941 0.496174 0.116226
O O9 0.319043 0.276592 0.686028
O O10 0.540659 0.252735 0.549240
O O11 0.837548 0.335615 0.438235
O O12 0.000000 0.500000 0.500000
O O13 0.689507 0.168021 0.354598
O O14 0.970616 0.142615 0.294510
O O15 0.500000 0.000000 0.500000
#
# Coordination Sequence:
#
# PCOD9035575 Si02
#       7
#     2   2   2   2   2   2   2
#     4  10  22  46  68  97 142 195 226 279 363 415
#     4  10  23  43  69 102 143 186 234 286 353 416
#     4  10  23  45  68  94 143 193 227 283 358 422
#     4  12  27  42  70 104 141 181 238 295 356 417
#     4  12  25  42  70 111 136 185 243 289 348 415
#     4  10  23  43  67 101 138 185 233 288 353 409
#     4  10  24  43  73 102 145 186 232 294 351 415
#
# _framework density 25.241569999999999
#
# number of rings (size 3 to 8) (size 9 to 14) (size 15 to 20)
#    0.000    1.429    1.429    2.143    4.000    4.571 
#    0.000    0.000    0.000    0.000    0.000    0.000 
#    0.000    0.000    0.000    0.000    0.000    0.000 
#
# Total GULP energy -78393.242010 kJ/mol
# GULP energy per Si atom -5599.517286 kJ/mol
# Density = 2.518412 g / cm^3
# Si number density = 25.241570 Si / 1000 Ang^3
#
#
#
# Elastic Constant Matrix: (Units=GPa)
#
#
# Indices 1 2 3 4 5 6 
#
# 1 197.8118 42.4534 22.9346 -6.9503 2.5257 6.6196
# 2 42.4534 69.5044 5.4524 2.2606 -0.7125 -4.4287
# 3 22.9346 5.4524 65.9310 2.8671 1.9248 9.9893
# 4 -6.9503 2.2606 2.8671 50.3772 0.6113 10.5445
# 5 2.5257 -0.7125 1.9248 0.6113 51.2091 0.3625
# 6 6.6196 -4.4287 9.9893 10.5445 0.3625 46.5402
#
#
#
# Elastic Compliance Matrix: (Units=1/GPa)
#
#
# Indices 1 2 3 4 5 6 
#
# 1 0.006147 -0.003743 -0.001702 0.001362 -0.000299 -0.001171
# 2 -0.003743 0.016940 -0.000434 -0.001811 0.000439 0.002644
# 3 -0.001702 -0.000434 0.016314 -0.000470 -0.000507 -0.003190
# 4 0.001362 -0.001811 -0.000470 0.021211 -0.000292 -0.005068
# 5 -0.000299 0.000439 -0.000507 -0.000292 0.019570 0.000107
# 6 -0.001171 0.002644 -0.003190 -0.005068 0.000107 0.023737
#
#
# Mechanical properties :
#
#
# Convention : Reuss Voigt Hill
#
# Bulk Modulus (GPa) = 36.17448 52.76978 44.47213
# Shear Modulus (GPa) = 40.03539 47.11908 43.57724
#
# Velocity S-wave (km/s) = 3.98689 4.32525 4.15951
# Velocity P-wave (km/s) = 5.96290 6.77458 6.38166
#
# Compressibility (1/GPa) = 0.02764380
#
# Stress axis : x y z
#
# Youngs Moduli (GPa) = 162.68737 59.03299 61.29792
#
# Poissons Ratio (x) = 0.22096 0.10431
# Poissons Ratio (y) = 0.60893 0.02658
# Poissons Ratio (z) = 0.27684 0.02560
#
# Static dielectric constant tensor:
#      x y z
#    x 2.169520 0.032700 0.224810 
#    y 0.032700 2.127510 0.093230 
#    z 0.224810 0.093230 2.230490 
# 
# From -- ./inp_files/156763.got.cif
#   From: 2010.05.17/outbox.cif.g08.bks.cpg/sg2_79_cif.got.tgz:156763.got - 2010.06.03 11:33:40.
