data_PCOD9035629
_publ_section_title
;
Structure prediction by ZEFSAII (Michael W. Deem and Ramdas Pophale) SiO2 
 PCOD9035629
Probable space group: P -1
;
_chemical_formula_sum "Si O2"
_cell_formula_units_Z 16
_cell_length_a 17.414874
_cell_length_b 4.937941
_cell_length_c 9.306463
_cell_angle_alpha 91.208637
_cell_angle_beta 125.085755
_cell_angle_gamma 90.094917
_cell_volume 654.638104
_symmetry_space_group_name_H-M "P -1"
_symmetry_group_IT_number 2
_symmetry_cell_setting 'triclinic'
loop_
_space_group_symop_operation_xyz
x,y,z
-x,-y,-z
loop_
_atom_site_type_symbol
_atom_site_label
_atom_site_fract_x
_atom_site_fract_y
_atom_site_fract_z
Si Si1 0.739302 0.003025 0.240137
Si Si2 0.171971 0.304654 0.093879
Si Si3 0.500252 0.533538 0.168167
Si Si4 0.460662 0.758052 0.542129
Si Si5 0.683156 0.357903 0.423235
Si Si6 0.049593 0.828197 0.925241
Si Si7 0.850255 0.732622 0.605750
Si Si8 0.298195 0.530801 0.989686
O O1 0.817943 0.906297 0.436811
O O2 0.702733 0.732278 0.118389
O O3 0.667667 0.154322 0.272151
O O4 0.762255 0.238328 0.151182
O O5 0.184908 0.191431 0.268633
O O6 0.122115 0.058586 0.949985
O O7 0.258900 0.420728 0.097026
O O8 0.103170 0.562869 0.032866
O O9 0.496279 0.253057 0.251479
O O10 0.608213 0.605027 0.329454
O O11 0.500000 0.500000 0.000000
O O12 0.402870 0.660182 0.112817
O O13 0.500000 0.500000 0.500000
O O14 0.350262 0.755648 0.460395
O O15 0.500000 0.000000 0.500000
O O16 0.789530 0.455863 0.524739
O O17 0.962448 0.730325 0.732653
O O18 0.000000 0.000000 0.000000
#
# Coordination Sequence:
#
# PCOD9035629 Si02
#       8
#     2   2   2   2   2   2   2   2
#     4  12  25  45  69 100 139 186 239 271 345 417
#     4  11  26  45  73 108 140 176 231 292 354 408
#     4  10  22  46  69  98 135 196 233 277 336 415
#     4  10  25  43  62  97 139 169 228 286 342 396
#     4  10  25  42  73  99 139 179 243 275 344 410
#     4  10  23  46  74 107 137 178 231 285 350 428
#     4  11  24  44  79  99 138 179 237 284 346 416
#     4  12  26  46  68 102 148 183 230 294 346 402
#
# _framework density 24.440987
#
# number of rings (size 3 to 8) (size 9 to 14) (size 15 to 20)
#    0.750    0.500    2.500    2.250    8.750    1.500 
#    2.250    3.750    0.000    0.000    0.000    0.000 
#    0.000    0.000    0.000    0.000    0.000    0.000 
#
# Total GULP energy -89166.497234 kJ/mol
# GULP energy per Si atom -5572.906077 kJ/mol
# Density = 2.438536 g / cm^3
# Si number density = 24.440987 Si / 1000 Ang^3
#
#
#
# Elastic Constant Matrix: (Units=GPa)
#
#
# Indices 1 2 3 4 5 6 
#
# 1 59.8979 23.7933 10.3146 15.3930 -15.0227 -6.2934
# 2 23.7933 136.5495 24.0788 7.3267 0.1296 9.7547
# 3 10.3146 24.0788 101.1585 -1.9294 0.3921 3.7890
# 4 15.3930 7.3267 -1.9294 31.1319 5.3681 -7.3213
# 5 -15.0227 0.1296 0.3921 5.3681 36.7406 -9.8152
# 6 -6.2934 9.7547 3.7890 -7.3213 -9.8152 39.1383
#
#
#
# Elastic Compliance Matrix: (Units=1/GPa)
#
#
# Indices 1 2 3 4 5 6 
#
# 1 0.026410 -0.003974 -0.002304 -0.013212 0.014540 0.006635
# 2 -0.003974 0.008549 -0.001505 -0.000500 -0.002457 -0.003334
# 3 -0.002304 -0.001505 0.010565 0.002191 -0.001642 -0.001020
# 4 -0.013212 -0.000500 0.002191 0.041426 -0.010715 0.002850
# 5 0.014540 -0.002457 -0.001642 -0.010715 0.037567 0.010526
# 6 0.006635 -0.003334 -0.001020 0.002850 0.010526 0.030720
#
#
# Mechanical properties :
#
#
# Convention : Reuss Voigt Hill
#
# Bulk Modulus (GPa) = 33.38056 45.99770 39.68913
# Shear Modulus (GPa) = 27.65675 37.36341 32.51008
#
# Velocity S-wave (km/s) = 3.36754 3.91413 3.65107
# Velocity P-wave (km/s) = 5.36728 6.26801 5.83505
#
# Compressibility (1/GPa) = 0.02995756
#
# Stress axis : x y z
#
# Youngs Moduli (GPa) = 37.86453 116.97870 94.65298
#
# Poissons Ratio (x) = 0.46493 0.21805
# Poissons Ratio (y) = 0.15049 0.14243
# Poissons Ratio (z) = 0.08723 0.17602
#
# Static dielectric constant tensor:
#      x y z
#    x 2.044700 0.027170 0.032130 
#    y 0.027170 2.027740 0.034530 
#    z 0.032130 0.034530 2.042900 
# 
# From -- ./inp_files/322534.got.cif
#   From: 2010.05.17/outbox.cif.g08.bks.cpg/sg2_162_cif.got.tgz:322534.got - 2010.06.03 11:33:40.
