data_PCOD9035958
_publ_section_title
;
Structure prediction by ZEFSAII (Michael W. Deem and Ramdas Pophale) SiO2 
 PCOD9035958
Probable space group: P -1
;
_chemical_formula_sum "Si O2"
_cell_formula_units_Z 14
_cell_length_a 5.475850
_cell_length_b 7.479354
_cell_length_c 13.709091
_cell_angle_alpha 96.582771
_cell_angle_beta 80.354091
_cell_angle_gamma 66.230919
_cell_volume 496.143588
_symmetry_space_group_name_H-M "P -1"
_symmetry_group_IT_number 2
_symmetry_cell_setting 'triclinic'
loop_
_space_group_symop_operation_xyz
x,y,z
-x,-y,-z
loop_
_atom_site_type_symbol
_atom_site_label
_atom_site_fract_x
_atom_site_fract_y
_atom_site_fract_z
Si Si1 0.912184 0.362059 0.378988
Si Si2 0.000000 0.500000 0.000000
Si Si3 0.000000 0.000000 0.500000
Si Si4 0.422051 0.212133 0.573412
Si Si5 0.332404 0.801925 0.168129
Si Si6 0.558154 0.601121 0.744700
Si Si7 0.186934 0.179810 0.787320
Si Si8 0.254315 0.788192 0.958295
O O1 0.737114 0.579099 0.456888
O O2 0.687672 0.366611 0.312964
O O3 0.774614 0.779095 0.324653
O O4 0.184383 0.374217 0.318192
O O5 0.953842 0.637698 0.115634
O O6 0.883957 0.360697 0.052549
O O7 0.013911 0.830509 0.570809
O O8 0.274305 0.826482 0.419659
O O9 0.500000 0.000000 0.500000
O O10 0.377516 0.609461 0.217693
O O11 0.502449 0.911879 0.204177
O O12 0.007898 0.929879 0.200387
O O13 0.427166 0.743250 0.045345
O O14 0.452051 0.751145 0.852916
O O15 0.000000 0.000000 0.000000
#
# Coordination Sequence:
#
# PCOD9035958 Si02
#       8
#     2   1   1   2   2   2   2   2
#     4  12  30  57  90 124 175 233 309 376 466 545
#     4  10  22  46  80 114 172 222 280 356 426 524
#     4  12  34  56  90 122 172 234 302 392 456 540
#     4  12  29  52  87 129 175 231 295 377 455 545
#     4  11  22  45  80 116 169 222 285 349 428 525
#     4  12  25  52  88 126 174 240 293 368 455 546
#     4  11  24  44  83 119 165 226 283 352 445 520
#     4  11  26  44  81 130 180 231 298 362 450 547
#
# _framework density 28.217637
#
# number of rings (size 3 to 8) (size 9 to 14) (size 15 to 20)
#    0.000    0.571    4.286    0.857   10.000    5.143 
#    0.000    3.571    0.000    0.000    0.000    0.000 
#    0.000    0.000    0.000    0.000    0.000    0.000 
#
# Total GULP energy -77981.241811 kJ/mol
# GULP energy per Si atom -5570.088701 kJ/mol
# Density = 2.815341 g / cm^3
# Si number density = 28.217637 Si / 1000 Ang^3
#
#
#
# Elastic Constant Matrix: (Units=GPa)
#
#
# Indices 1 2 3 4 5 6 
#
# 1 191.4084 68.4418 59.5620 -24.0985 -15.1402 -4.2991
# 2 68.4418 234.6275 73.8050 -6.2280 -12.4828 2.0966
# 3 59.5620 73.8050 196.8158 -12.4660 -33.9425 -1.7723
# 4 -24.0985 -6.2280 -12.4660 49.4791 3.9451 -11.2525
# 5 -15.1402 -12.4828 -33.9425 3.9451 54.3606 -8.6373
# 6 -4.2991 2.0966 -1.7723 -11.2525 -8.6373 35.0248
#
#
#
# Elastic Compliance Matrix: (Units=1/GPa)
#
#
# Indices 1 2 3 4 5 6 
#
# 1 0.006603 -0.001476 -0.001063 0.003163 0.000939 0.002093
# 2 -0.001476 0.005168 -0.001592 -0.000639 -0.000308 -0.000852
# 3 -0.001063 -0.001592 0.006718 0.001031 0.003704 0.001550
# 4 0.003163 -0.000639 0.001031 0.023752 0.000981 0.008351
# 5 0.000939 -0.000308 0.003704 0.000981 0.021783 0.006008
# 6 0.002093 -0.000852 0.001550 0.008351 0.006008 0.033102
#
#
# Mechanical properties :
#
#
# Convention : Reuss Voigt Hill
#
# Bulk Modulus (GPa) = 97.80643 114.05215 105.92929
# Shear Modulus (GPa) = 45.95687 55.84242 50.89964
#
# Velocity S-wave (km/s) = 4.04004 4.45341 4.25175
# Velocity P-wave (km/s) = 7.51660 8.18232 7.85651
#
# Compressibility (1/GPa) = 0.01022428
#
# Stress axis : x y z
#
# Youngs Moduli (GPa) = 151.45203 193.50188 148.85492
#
# Poissons Ratio (x) = 0.28567 0.15830
# Poissons Ratio (y) = 0.22359 0.23704
# Poissons Ratio (z) = 0.16106 0.30813
#
# Static dielectric constant tensor:
#      x y z
#    x 2.676380 -0.490380 0.094450 
#    y -0.490380 2.450690 -0.106210 
#    z 0.094450 -0.106210 2.208610 
# 
# From -- ./inp_files/581632.got.cif
#   From: 2010.05.17/outbox.cif.g08.bks.cpg/sg2_291_cif.got.tgz:581632.got - 2010.06.03 11:33:40.
