data_PCOD9035093
_publ_section_title
;
Structure prediction by ZEFSAII (Michael W. Deem and Ramdas Pophale) SiO2 
 PCOD9035093
Probable space group: P -1
;
_chemical_formula_sum "Si O2"
_cell_formula_units_Z 16
_cell_length_a 12.985594
_cell_length_b 18.679553
_cell_length_c 21.014317
_cell_angle_alpha 18.067536
_cell_angle_beta 26.754006
_cell_angle_gamma 34.129215
_cell_volume 703.441115
_symmetry_space_group_name_H-M "P -1"
_symmetry_group_IT_number 2
_symmetry_cell_setting 'triclinic'
loop_
_space_group_symop_operation_xyz
x,y,z
-x,-y,-z
loop_
_atom_site_type_symbol
_atom_site_label
_atom_site_fract_x
_atom_site_fract_y
_atom_site_fract_z
Si Si1 0.785930 0.061852 0.484749
Si Si2 0.439383 0.408224 0.377136
Si Si3 0.821669 0.729143 0.479575
Si Si4 0.689261 0.928262 0.796736
Si Si5 0.038570 0.757925 0.992495
Si Si6 0.213036 0.551683 0.493987
Si Si7 0.538438 0.771667 0.227796
Si Si8 0.404797 0.453897 0.019883
O O1 0.643246 0.261769 0.372345
O O2 0.060641 0.108891 0.282060
O O3 0.742713 0.037804 0.604983
O O4 0.681986 0.816756 0.716837
O O5 0.217402 0.309536 0.540819
O O6 0.366842 0.394962 0.502134
O O7 0.530844 0.679475 0.085643
O O8 0.610513 0.559983 0.770770
O O9 0.052542 0.657784 0.442334
O O10 0.815339 0.997636 0.273861
O O11 0.563990 0.085145 0.780992
O O12 0.943301 0.606373 0.235043
O O13 0.814389 0.818996 0.027813
O O14 0.192406 0.597747 0.005808
O O15 0.382118 0.755874 0.264209
O O16 0.500000 0.500000 0.500000
O O17 0.500000 0.500000 0.000000
#
# Coordination Sequence:
#
# PCOD9035093 Si02
#       8
#     2   2   2   2   2   2   2   2
#     4  11  24  45  70  98 140 185 225 283 342 399
#     4  12  26  44  68 104 138 181 233 274 342 413
#     4  12  26  45  68 104 138 183 227 279 345 406
#     4  11  24  45  70 100 141 179 229 285 339 406
#     4  11  24  44  73 102 135 180 230 280 345 400
#     4  11  25  46  69 102 140 178 226 286 339 404
#     4  10  22  45  71 101 131 177 228 281 342 397
#     4  12  24  47  71  99 143 179 229 283 339 406
#
# _framework density 22.745329000000002
#
# number of rings (size 3 to 8) (size 9 to 14) (size 15 to 20)
#    0.000    0.750    2.500    5.625    0.000    3.500 
#    2.250    0.000    0.000    0.000    0.000    0.000 
#    0.000    0.000    0.000    0.000    0.000    0.000 
#
# Total GULP energy -89596.516269 kJ/mol
# GULP energy per Si atom -5599.782267 kJ/mol
# Density = 2.269356 g / cm^3
# Si number density = 22.745329 Si / 1000 Ang^3
#
#
#
# Elastic Constant Matrix: (Units=GPa)
#
#
# Indices 1 2 3 4 5 6 
#
# 1 105.2003 42.8801 5.1533 -7.2185 -28.4907 -8.4174
# 2 42.8801 155.9672 22.9630 -19.9945 -24.6080 -15.0053
# 3 5.1533 22.9630 67.8489 -12.7127 -23.2368 0.3262
# 4 -7.2185 -19.9945 -12.7127 42.4912 3.6925 -3.0560
# 5 -28.4907 -24.6080 -23.2368 3.6925 33.1657 -0.7744
# 6 -8.4174 -15.0053 0.3262 -3.0560 -0.7744 37.1028
#
#
#
# Elastic Compliance Matrix: (Units=1/GPa)
#
#
# Indices 1 2 3 4 5 6 
#
# 1 0.014164 -0.001865 0.004664 0.001922 0.013905 0.002867
# 2 -0.001865 0.008379 -0.000804 0.003297 0.003762 0.003323
# 3 0.004664 -0.000804 0.021903 0.005486 0.018177 0.001372
# 4 0.001922 0.003297 0.005486 0.026907 0.005040 0.004043
# 5 0.013905 0.003762 0.018177 0.005040 0.057205 0.006125
# 6 0.002867 0.003323 0.001372 0.004043 0.006125 0.029395
#
#
# Mechanical properties :
#
#
# Convention : Reuss Voigt Hill
#
# Bulk Modulus (GPa) = 20.64581 52.33435 36.49008
# Shear Modulus (GPa) = 29.39319 39.75325 34.57322
#
# Velocity S-wave (km/s) = 3.59872 4.18515 3.90297
# Velocity P-wave (km/s) = 5.13463 6.81269 6.03229
#
# Compressibility (1/GPa) = 0.04843597
#
# Stress axis : x y z
#
# Youngs Moduli (GPa) = 70.60023 119.35191 45.65582
#
# Poissons Ratio (x) = 0.22257 -0.21292
# Poissons Ratio (y) = 0.13166 0.03670
# Poissons Ratio (z) = -0.32925 0.09593
#
# Static dielectric constant tensor:
#      x y z
#    x 1.934130 -0.023000 0.021370 
#    y -0.023000 1.837020 -0.000220 
#    z 0.021370 -0.000220 1.822420 
# 
# From -- ./inp_files/595917.got.cif
#   From: 2010.05.17/outbox.cif.g08.bks.cpg/sg2_298_cif.got.tgz:595917.got - 2010.06.03 11:33:40.
