data_PCOD9035405
_publ_section_title
;
Structure prediction by ZEFSAII (Michael W. Deem and Ramdas Pophale) SiO2 
 PCOD9035405
Probable space group: P -1
;
_chemical_formula_sum "Si O2"
_cell_formula_units_Z 15
_cell_length_a 8.075529
_cell_length_b 19.716266
_cell_length_c 9.322003
_cell_angle_alpha 148.855171
_cell_angle_beta 47.782787
_cell_angle_gamma 137.536063
_cell_volume 514.753560
_symmetry_space_group_name_H-M "P -1"
_symmetry_group_IT_number 2
_symmetry_cell_setting 'triclinic'
loop_
_space_group_symop_operation_xyz
x,y,z
-x,-y,-z
loop_
_atom_site_type_symbol
_atom_site_label
_atom_site_fract_x
_atom_site_fract_y
_atom_site_fract_z
Si Si1 0.240058 0.558500 0.171384
Si Si2 0.726653 0.074848 0.349342
Si Si3 0.430607 0.665548 0.642739
Si Si4 0.030947 0.116795 0.985295
Si Si5 0.000000 0.500000 0.500000
Si Si6 0.262135 0.253142 0.639420
Si Si7 0.209258 0.875749 0.138359
Si Si8 0.557269 0.300721 0.971055
O O1 0.487661 0.700288 0.331479
O O2 0.037909 0.549727 0.390306
O O3 0.229837 0.399656 0.903772
O O4 0.260926 0.581561 0.029087
O O5 0.914468 0.161307 0.270019
O O6 0.471134 0.970319 0.230051
O O7 0.339145 0.822174 0.322168
O O8 0.850579 0.985531 0.200069
O O9 0.663943 0.773693 0.613682
O O10 0.202520 0.713601 0.830789
O O11 0.457733 0.659841 0.783442
O O12 0.293429 0.518149 0.370149
O O13 0.821266 0.066363 0.893660
O O14 0.269345 0.232509 0.974903
O O15 0.017797 0.143604 0.662588
#
# Coordination Sequence:
#
# PCOD9035405 Si02
#       8
#     2   2   2   2   1   2   2   2
#     4  10  22  45  76 109 155 197 250 318 389 450
#     4  11  28  50  74 113 161 196 265 322 377 463
#     4  11  26  44  75 111 154 199 257 311 385 454
#     4  11  26  48  74 112 157 202 257 320 379 457
#     4  10  22  46  72 112 152 196 258 310 370 476
#     4  10  23  45  73 112 151 196 258 316 374 471
#     4  12  24  48  81 111 150 212 253 313 394 459
#     4  12  26  50  73 114 155 204 252 320 388 451
#
# _framework density 29.140156999999999
#
# number of rings (size 3 to 8) (size 9 to 14) (size 15 to 20)
#    0.000    1.067    4.000    0.800    3.733    3.733 
#    0.000    0.000    0.000    0.000    0.000    0.000 
#    0.000    0.000    0.000    0.000    0.000    0.000 
#
# Total GULP energy -83899.457596 kJ/mol
# GULP energy per Si atom -5593.297173 kJ/mol
# Density = 2.907383 g / cm^3
# Si number density = 29.140157 Si / 1000 Ang^3
#
#
#
# Elastic Constant Matrix: (Units=GPa)
#
#
# Indices 1 2 3 4 5 6 
#
# 1 133.4085 58.9171 26.0850 -9.0068 25.5081 4.4864
# 2 58.9171 162.4464 55.0194 -57.5273 8.0121 -1.4300
# 3 26.0850 55.0194 118.3370 -53.5031 12.3032 -14.4308
# 4 -9.0068 -57.5273 -53.5031 72.0052 -11.7860 0.6679
# 5 25.5081 8.0121 12.3032 -11.7860 52.5721 -4.1908
# 6 4.4864 -1.4300 -14.4308 0.6679 -4.1908 64.4860
#
#
#
# Elastic Compliance Matrix: (Units=1/GPa)
#
#
# Indices 1 2 3 4 5 6 
#
# 1 0.010632 -0.004590 -0.001952 -0.004617 -0.005163 -0.001566
# 2 -0.004590 0.010717 -0.000566 0.007981 0.002556 0.000514
# 3 -0.001952 -0.000566 0.013843 0.009592 0.000194 0.003134
# 4 -0.004617 0.007981 0.009592 0.027639 0.005190 0.002696
# 5 -0.005163 0.002556 0.000194 0.005190 0.022403 0.001861
# 6 -0.001566 0.000514 0.003134 0.002696 0.001861 0.016422
#
#
# Mechanical properties :
#
#
# Convention : Reuss Voigt Hill
#
# Bulk Modulus (GPa) = 47.66847 77.13723 62.40285
# Shear Modulus (GPa) = 40.69587 56.09067 48.39327
#
# Velocity S-wave (km/s) = 3.74111 4.39208 4.07960
# Velocity P-wave (km/s) = 5.92073 7.22835 6.60697
#
# Compressibility (1/GPa) = 0.02097823
#
# Stress axis : x y z
#
# Youngs Moduli (GPa) = 94.05319 93.31070 72.24085
#
# Poissons Ratio (x) = 0.42825 0.14099
# Poissons Ratio (y) = 0.43166 0.04085
# Poissons Ratio (z) = 0.18357 0.05277
#
# Static dielectric constant tensor:
#      x y z
#    x 2.237560 -0.254260 -0.180110 
#    y -0.254260 1.598950 -0.504860 
#    z -0.180110 -0.504860 1.673590 
# 
# From -- ./inp_files/221073.got.cif
#   From: 2010.05.17/outbox.cif.g08.bks.cpg/sg2_111_cif.got.tgz:221073.got - 2010.06.03 11:33:40.
