data_PCOD9035855
_publ_section_title
;
Structure prediction by ZEFSAII (Michael W. Deem and Ramdas Pophale) SiO2 
 PCOD9035855
Probable space group: P -1
;
_chemical_formula_sum "Si O2"
_cell_formula_units_Z 12
_cell_length_a 5.338406
_cell_length_b 4.820982
_cell_length_c 17.772811
_cell_angle_alpha 65.535132
_cell_angle_beta 87.735171
_cell_angle_gamma 92.614541
_cell_volume 415.046877
_symmetry_space_group_name_H-M "P -1"
_symmetry_group_IT_number 2
_symmetry_cell_setting 'triclinic'
loop_
_space_group_symop_operation_xyz
x,y,z
-x,-y,-z
loop_
_atom_site_type_symbol
_atom_site_label
_atom_site_fract_x
_atom_site_fract_y
_atom_site_fract_z
Si Si1 0.135530 0.209106 0.262503
Si Si2 0.293182 0.127760 0.042387
Si Si3 0.139753 0.415237 0.876771
Si Si4 0.836847 0.255500 0.405651
Si Si5 0.344472 0.366889 0.445226
Si Si6 0.449505 0.836857 0.210800
O O1 0.955354 0.264109 0.186881
O O2 0.242521 0.553952 0.238049
O O3 0.956610 0.125594 0.344216
O O4 0.365082 0.994573 0.271997
O O5 0.072474 0.861589 0.081406
O O6 0.398939 0.128827 0.124931
O O7 0.227470 0.421710 0.962599
O O8 0.500000 0.000000 0.000000
O O9 0.321069 0.306452 0.820122
O O10 0.569458 0.398133 0.377378
O O11 0.068564 0.467397 0.414620
O O12 0.746254 0.983194 0.493823
O O13 0.500000 0.500000 0.500000
#
# Coordination Sequence:
#
# PCOD9035855 Si02
#       6
#     2   2   2   2   2   2
#     4  11  25  42  63 100 140 180 232 292 361 426
#     4   8  16  37  64  91 127 176 234 287 342 420
#     4   9  19  39  64  93 131 180 230 291 353 414
#     4  10  24  43  68 108 140 187 241 298 358 444
#     4  10  22  46  74 101 139 186 241 292 364 434
#     4  10  23  41  62  95 135 180 235 288 357 421
#
# _framework density 28.912400000000002
#
# number of rings (size 3 to 8) (size 9 to 14) (size 15 to 20)
#    0.000    2.333    0.000    0.500    4.667    3.333 
#    0.000   28.333    0.000    0.000    0.000    0.000 
#    0.000    0.000    0.000    0.000    0.000    0.000 
#
# Total GULP energy -66964.065300 kJ/mol
# GULP energy per Si atom -5580.338775 kJ/mol
# Density = 2.884659 g / cm^3
# Si number density = 28.912400 Si / 1000 Ang^3
#
#
#
# Elastic Constant Matrix: (Units=GPa)
#
#
# Indices 1 2 3 4 5 6 
#
# 1 202.2023 44.4897 64.4516 5.2680 -47.6098 -16.2280
# 2 44.4897 110.3138 26.4337 6.3360 -13.0037 -14.6785
# 3 64.4516 26.4337 79.7585 5.1044 -37.8815 -31.9515
# 4 5.2680 6.3360 5.1044 36.9522 -11.4941 -16.0342
# 5 -47.6098 -13.0037 -37.8815 -11.4941 73.4976 7.1221
# 6 -16.2280 -14.6785 -31.9515 -16.0342 7.1221 56.3770
#
#
#
# Elastic Compliance Matrix: (Units=1/GPa)
#
#
# Indices 1 2 3 4 5 6 
#
# 1 0.007238 -0.001694 -0.004900 -0.000053 0.001991 -0.001401
# 2 -0.001694 0.010315 -0.001835 -0.001016 -0.000467 0.000928
# 3 -0.004900 -0.001835 0.027144 0.006526 0.010149 0.014070
# 4 -0.000053 -0.001016 0.006526 0.033868 0.007270 0.012133
# 5 0.001991 -0.000467 0.010149 0.007270 0.020632 0.005665
# 6 -0.001401 0.000928 0.014070 0.012133 0.005665 0.028285
#
#
# Mechanical properties :
#
#
# Convention : Reuss Voigt Hill
#
# Bulk Modulus (GPa) = 35.91854 73.66938 54.79396
# Shear Modulus (GPa) = 32.54831 50.49202 41.52016
#
# Velocity S-wave (km/s) = 3.35887 4.18350 3.79366
# Velocity P-wave (km/s) = 5.24336 6.99079 6.17916
#
# Compressibility (1/GPa) = 0.02784078
#
# Stress axis : x y z
#
# Youngs Moduli (GPa) = 138.16709 96.95038 36.84000
#
# Poissons Ratio (x) = 0.16419 0.18050
# Poissons Ratio (y) = 0.23400 0.06759
# Poissons Ratio (z) = 0.67698 0.17787
#
# Static dielectric constant tensor:
#      x y z
#    x 2.534460 -0.044770 0.263160 
#    y -0.044770 2.157550 0.058700 
#    z 0.263160 0.058700 2.456170 
# 
# From -- ./inp_files/545562.got.cif
#   From: 2010.05.17/outbox.cif.g08.bks.cpg/sg2_273_cif.got.tgz:545562.got - 2010.06.03 11:33:40.
