data_PCOD9035854
_publ_section_title
;
Structure prediction by ZEFSAII (Michael W. Deem and Ramdas Pophale) SiO2 
 PCOD9035854
Probable space group: P -1
;
_chemical_formula_sum "Si O2"
_cell_formula_units_Z 16
_cell_length_a 15.304057
_cell_length_b 14.909290
_cell_length_c 9.190746
_cell_angle_alpha 82.378595
_cell_angle_beta 64.954503
_cell_angle_gamma 29.118736
_cell_volume 779.297264
_symmetry_space_group_name_H-M "P -1"
_symmetry_group_IT_number 2
_symmetry_cell_setting 'triclinic'
loop_
_space_group_symop_operation_xyz
x,y,z
-x,-y,-z
loop_
_atom_site_type_symbol
_atom_site_label
_atom_site_fract_x
_atom_site_fract_y
_atom_site_fract_z
Si Si1 0.761727 0.185046 0.543557
Si Si2 0.107165 0.607605 0.684315
Si Si3 0.348631 0.538982 0.339011
Si Si4 0.170608 0.918677 0.807144
Si Si5 0.146621 0.466533 0.391360
Si Si6 0.558396 0.053710 0.982105
Si Si7 0.423013 0.319759 0.806190
Si Si8 0.898890 0.319853 0.799067
O O1 0.595956 0.404956 0.674894
O O2 0.657214 0.176212 0.647537
O O3 0.787988 0.167221 0.356672
O O4 0.000000 0.000000 0.500000
O O5 0.177845 0.645223 0.561085
O O6 0.165865 0.490835 0.533890
O O7 0.269715 0.447651 0.741392
O O8 0.833258 0.833376 0.864558
O O9 0.230766 0.625686 0.248157
O O10 0.586987 0.280507 0.236273
O O11 0.077849 0.097512 0.793501
O O12 0.000000 0.000000 0.000000
O O13 0.026974 0.649645 0.340406
O O14 0.000000 0.500000 0.500000
O O15 0.390823 0.234204 0.189841
O O16 0.489432 0.167996 0.861605
O O17 0.500000 0.000000 0.000000
O O18 0.275715 0.499197 0.992000
#
# Coordination Sequence:
#
# PCOD9035854 Si02
#       8
#     2   2   2   2   2   2   2   2
#     4  12  24  43  67  96 138 185 228 280 346 404
#     4  11  24  44  72 100 139 177 230 282 349 408
#     4  11  24  44  66  96 139 181 229 285 340 409
#     4  12  26  40  66  98 134 181 236 278 340 410
#     4  10  22  46  74 101 138 179 228 288 351 421
#     4  11  24  46  74 100 135 181 225 285 354 411
#     4  11  26  44  67 100 138 174 233 285 339 414
#     4  10  25  44  65  97 135 177 227 284 346 406
#
# _framework density 20.531317999999999
#
# number of rings (size 3 to 8) (size 9 to 14) (size 15 to 20)
#    0.000    1.000    3.750    1.875    5.250    4.500 
#    0.000    0.625    0.000    0.000    0.000    0.000 
#    0.000    0.000    0.000    0.000    0.000    0.000 
#
# Total GULP energy -89437.603914 kJ/mol
# GULP energy per Si atom -5589.850245 kJ/mol
# Density = 2.048459 g / cm^3
# Si number density = 20.531318 Si / 1000 Ang^3
#
#
#
# Elastic Constant Matrix: (Units=GPa)
#
#
# Indices 1 2 3 4 5 6 
#
# 1 72.4620 36.8881 37.7821 -6.6596 -13.8260 24.0015
# 2 36.8881 131.6144 40.8682 3.6061 -12.9735 9.4983
# 3 37.7821 40.8682 99.4864 -10.9890 -9.0609 2.0593
# 4 -6.6596 3.6061 -10.9890 34.0603 -5.4847 -2.0152
# 5 -13.8260 -12.9735 -9.0609 -5.4847 34.4171 5.1879
# 6 24.0015 9.4983 2.0593 -2.0152 5.1879 35.2594
#
#
#
# Elastic Compliance Matrix: (Units=1/GPa)
#
#
# Indices 1 2 3 4 5 6 
#
# 1 0.028524 -0.003168 -0.007574 0.004224 0.011903 -0.019631
# 2 -0.003168 0.009617 -0.002881 -0.002393 0.001302 -0.000594
# 3 -0.007574 -0.002881 0.014354 0.003681 -0.000575 0.005389
# 4 0.004224 -0.002393 0.003681 0.032693 0.007221 -0.001640
# 5 0.011903 0.001302 -0.000575 0.007221 0.037363 -0.013504
# 6 -0.019631 -0.000594 0.005389 -0.001640 -0.013504 0.043463
#
#
# Mechanical properties :
#
#
# Convention : Reuss Voigt Hill
#
# Bulk Modulus (GPa) = 39.60580 59.40439 49.50510
# Shear Modulus (GPa) = 24.79222 33.28230 29.03726
#
# Velocity S-wave (km/s) = 3.47873 4.03059 3.76479
# Velocity P-wave (km/s) = 5.95548 7.11739 6.56220
#
# Compressibility (1/GPa) = 0.02524882
#
# Stress axis : x y z
#
# Youngs Moduli (GPa) = 35.05823 103.97912 69.66617
#
# Poissons Ratio (x) = 0.32945 0.52766
# Poissons Ratio (y) = 0.11108 0.20069
# Poissons Ratio (z) = 0.26553 0.29954
#
# Static dielectric constant tensor:
#      x y z
#    x 1.718330 0.035370 -0.017320 
#    y 0.035370 1.791500 0.052040 
#    z -0.017320 0.052040 1.761550 
# 
# From -- ./inp_files/315221.got.cif
#   From: 2010.05.17/outbox.cif.g08.bks.cpg/sg2_158_cif.got.tgz:315221.got - 2010.06.03 11:33:40.
