data_PCOD9035602
_publ_section_title
;
Structure prediction by ZEFSAII (Michael W. Deem and Ramdas Pophale) SiO2 
 PCOD9035602
Probable space group: P -1
;
_chemical_formula_sum "Si O2"
_cell_formula_units_Z 16
_cell_length_a 9.218317
_cell_length_b 11.632989
_cell_length_c 14.432679
_cell_angle_alpha 75.451993
_cell_angle_beta 29.917146
_cell_angle_gamma 87.153632
_cell_volume 700.429237
_symmetry_space_group_name_H-M "P -1"
_symmetry_group_IT_number 2
_symmetry_cell_setting 'triclinic'
loop_
_space_group_symop_operation_xyz
x,y,z
-x,-y,-z
loop_
_atom_site_type_symbol
_atom_site_label
_atom_site_fract_x
_atom_site_fract_y
_atom_site_fract_z
Si Si1 0.869146 0.337449 0.852140
Si Si2 0.102608 0.391468 0.916212
Si Si3 0.325792 0.084313 0.628285
Si Si4 0.643146 0.033563 0.015539
Si Si5 0.826032 0.467094 0.506356
Si Si6 0.539056 0.788665 0.652196
Si Si7 0.299110 0.934479 0.410851
Si Si8 0.769190 0.695864 0.721206
O O1 0.752331 0.184701 0.943769
O O2 0.060199 0.388818 0.829522
O O3 0.067625 0.409086 0.641704
O O4 0.547378 0.364925 0.035199
O O5 0.457388 0.410411 0.735881
O O6 0.000000 0.500000 0.000000
O O7 0.833830 0.263058 0.123826
O O8 0.371893 0.199341 0.507435
O O9 0.478760 0.115411 0.637882
O O10 0.963612 0.007214 0.850475
O O11 0.500000 0.000000 0.500000
O O12 0.500000 0.000000 0.000000
O O13 0.414752 0.955005 0.237385
O O14 0.000000 0.500000 0.500000
O O15 0.979792 0.371747 0.395947
O O16 0.665007 0.706303 0.669720
O O17 0.671495 0.929251 0.592738
O O18 0.951939 0.837368 0.627476
#
# Coordination Sequence:
#
# PCOD9035602 Si02
#       8
#     2   2   2   2   2   2   2   2
#     4  11  27  49  71 105 142 192 238 288 357 423
#     4  11  25  48  77  98 139 191 235 294 353 419
#     4  10  25  40  68 100 144 178 233 284 347 418
#     4  12  26  43  74 102 147 189 233 284 359 429
#     4  12  28  46  71 109 139 184 247 295 350 419
#     4  10  22  46  69 103 143 184 230 284 363 423
#     4  11  23  43  73 106 144 177 236 288 359 417
#     4  11  24  43  76  98 146 185 232 294 350 421
#
# _framework density 22.843136000000001
#
# number of rings (size 3 to 8) (size 9 to 14) (size 15 to 20)
#    0.000    1.000    2.500    3.750   10.500    4.000 
#    0.000    0.000    0.000    0.000    0.000    0.000 
#    0.000    0.000    0.000    0.000    0.000    0.000 
#
# Total GULP energy -89513.337111 kJ/mol
# GULP energy per Si atom -5594.583569 kJ/mol
# Density = 2.279114 g / cm^3
# Si number density = 22.843136 Si / 1000 Ang^3
#
#
#
# Elastic Constant Matrix: (Units=GPa)
#
#
# Indices 1 2 3 4 5 6 
#
# 1 138.9639 11.1583 40.5143 -5.7602 -6.1183 21.5057
# 2 11.1583 83.0345 15.0115 6.3423 -16.6135 4.0139
# 3 40.5143 15.0115 111.8910 -1.7075 -31.5216 -3.4990
# 4 -5.7602 6.3423 -1.7075 35.9139 -5.6362 -6.5554
# 5 -6.1183 -16.6135 -31.5216 -5.6362 57.2371 -0.3552
# 6 21.5057 4.0139 -3.4990 -6.5554 -0.3552 31.7006
#
#
#
# Elastic Compliance Matrix: (Units=1/GPa)
#
#
# Indices 1 2 3 4 5 6 
#
# 1 0.009359 -0.000490 -0.003913 -0.000040 -0.001342 -0.006742
# 2 -0.000490 0.013136 -0.000812 -0.002294 0.003076 -0.001860
# 3 -0.003913 -0.000812 0.012446 0.001956 0.006422 0.004607
# 4 -0.000040 -0.002294 0.001956 0.030113 0.003415 0.006799
# 5 -0.001342 0.003076 0.006422 0.003415 0.022107 0.002184
# 6 -0.006742 -0.001860 0.004607 0.006799 0.002184 0.038293
#
#
# Mechanical properties :
#
#
# Convention : Reuss Voigt Hill
#
# Bulk Modulus (GPa) = 40.79483 51.91748 46.35616
# Shear Modulus (GPa) = 34.70937 42.78400 38.74669
#
# Velocity S-wave (km/s) = 3.90226 4.33245 4.12297
# Velocity P-wave (km/s) = 6.18069 6.91404 6.55763
#
# Compressibility (1/GPa) = 0.02451291
#
# Stress axis : x y z
#
# Youngs Moduli (GPa) = 106.85154 76.12455 80.34811
#
# Poissons Ratio (x) = 0.03730 0.31437
# Poissons Ratio (y) = 0.05235 0.06521
# Poissons Ratio (z) = 0.41806 0.06178
#
# Static dielectric constant tensor:
#      x y z
#    x 1.864610 -0.027520 0.010770 
#    y -0.027520 1.948140 0.041460 
#    z 0.010770 0.041460 1.823020 
# 
# From -- ./inp_files/500346.got.cif
#   From: 2010.05.17/outbox.cif.g08.bks.cpg/sg2_251_cif.got.tgz:500346.got - 2010.06.03 11:33:40.
