data_PCOD9035041
_publ_section_title
;
Structure prediction by ZEFSAII (Michael W. Deem and Ramdas Pophale) SiO2 
 PCOD9035041
Probable space group: P -1
;
_chemical_formula_sum "Si O2"
_cell_formula_units_Z 15
_cell_length_a 6.968298
_cell_length_b 12.494365
_cell_length_c 7.363790
_cell_angle_alpha 91.380424
_cell_angle_beta 86.188614
_cell_angle_gamma 96.607398
_cell_volume 635.369979
_symmetry_space_group_name_H-M "P -1"
_symmetry_group_IT_number 2
_symmetry_cell_setting 'triclinic'
loop_
_space_group_symop_operation_xyz
x,y,z
-x,-y,-z
loop_
_atom_site_type_symbol
_atom_site_label
_atom_site_fract_x
_atom_site_fract_y
_atom_site_fract_z
Si Si1 0.706866 0.788414 0.849768
Si Si2 0.077276 0.722804 0.662923
Si Si3 0.587820 0.005550 0.793408
Si Si4 0.054756 0.891396 0.399106
Si Si5 0.359224 0.184516 0.716062
Si Si6 0.612217 0.399392 0.154353
Si Si7 0.000000 0.500000 0.500000
Si Si8 0.592763 0.411363 0.725095
O O1 0.587392 0.675189 0.810009
O O2 0.929057 0.780885 0.796494
O O3 0.623567 0.883123 0.745037
O O4 0.672839 0.807343 0.064447
O O5 0.224038 0.663897 0.772478
O O6 0.159942 0.816864 0.526292
O O7 0.964700 0.623193 0.558484
O O8 0.451670 0.072205 0.683074
O O9 0.799354 0.073873 0.772401
O O10 0.500000 0.000000 0.000000
O O11 0.852228 0.824791 0.356870
O O12 0.000000 0.000000 0.500000
O O13 0.498604 0.292796 0.665656
O O14 0.580313 0.511067 0.258520
O O15 0.648606 0.412588 0.937125
O O16 0.785466 0.451872 0.605218
#
# Coordination Sequence:
#
# PCOD9035041 Si02
#       8
#     2   2   2   2   2   2   1   2
#     4  10  22  45  70 107 141 186 249 296 354 432
#     4  12  27  43  71 108 146 192 238 303 359 431
#     4  10  23  45  74 105 137 192 245 298 359 433
#     4  12  27  47  71 109 150 190 244 301 368 429
#     4  10  25  45  76 103 145 193 247 300 358 434
#     4  10  24  47  76  98 146 194 243 290 361 437
#     4  12  26  44  74 112 148 182 244 294 378 422
#     4  10  23  50  74 109 141 191 245 304 360 436
#
# _framework density 23.60829
#
# number of rings (size 3 to 8) (size 9 to 14) (size 15 to 20)
#    0.000    1.333    2.667    0.800    3.733   10.133 
#    0.000    0.000    0.000    0.000    0.000    0.000 
#    0.000    0.000    0.000    0.000    0.000    0.000 
#
# Total GULP energy -83638.782836 kJ/mol
# GULP energy per Si atom -5575.918856 kJ/mol
# Density = 2.355456 g / cm^3
# Si number density = 23.608290 Si / 1000 Ang^3
#
#
#
# Elastic Constant Matrix: (Units=GPa)
#
#
# Indices 1 2 3 4 5 6 
#
# 1 111.8936 41.4136 62.0544 -21.6241 -24.3804 -15.3864
# 2 41.4136 69.4750 46.5535 -14.2278 5.6880 -6.0721
# 3 62.0544 46.5535 79.1245 -20.4594 -23.0649 -0.4929
# 4 -21.6241 -14.2278 -20.4594 32.2793 -0.4172 -6.2186
# 5 -24.3804 5.6880 -23.0649 -0.4172 40.5070 -13.7860
# 6 -15.3864 -6.0721 -0.4929 -6.2186 -13.7860 51.4825
#
#
#
# Elastic Compliance Matrix: (Units=1/GPa)
#
#
# Indices 1 2 3 4 5 6 
#
# 1 0.020999 -0.006884 -0.005867 0.009470 0.013854 0.010262
# 2 -0.006884 0.034662 -0.023575 -0.005628 -0.024326 -0.005389
# 3 -0.005867 -0.023575 0.041974 0.013429 0.025266 0.004256
# 4 0.009470 -0.005628 0.013429 0.046096 0.019021 0.012956
# 5 0.013854 -0.024326 0.025266 0.019021 0.057568 0.019226
# 6 0.010262 -0.005389 0.004256 0.012956 0.019226 0.028609
#
#
# Mechanical properties :
#
#
# Convention : Reuss Voigt Hill
#
# Bulk Modulus (GPa) = 40.02703 62.28180 51.15441
# Shear Modulus (GPa) = 16.08297 32.21853 24.15075
#
# Velocity S-wave (km/s) = 2.61289 3.69821 3.20187
# Velocity P-wave (km/s) = 5.10827 6.68388 5.94847
#
# Compressibility (1/GPa) = 0.02498312
#
# Stress axis : x y z
#
# Youngs Moduli (GPa) = 47.62227 28.84994 23.82422
#
# Poissons Ratio (x) = 0.19860 0.13978
# Poissons Ratio (y) = 0.32782 0.56166
# Poissons Ratio (z) = 0.27940 0.68014
#
# Static dielectric constant tensor:
#      x y z
#    x 1.885340 -0.012100 0.014010 
#    y -0.012100 1.888760 0.011340 
#    z 0.014010 0.011340 1.923190 
# 
# From -- ./inp_files/131613.got.cif
#   From: 2010.05.17/outbox.cif.g08.bks.cpg/sg2_66_cif.got.tgz:131613.got - 2010.06.03 11:33:40.
