data_PCOD9035350
_publ_section_title
;
Structure prediction by ZEFSAII (Michael W. Deem and Ramdas Pophale) SiO2 
 PCOD9035350
Probable space group: P -1
;
_chemical_formula_sum "Si O2"
_cell_formula_units_Z 16
_cell_length_a 13.443163
_cell_length_b 17.568479
_cell_length_c 9.132782
_cell_angle_alpha 138.474073
_cell_angle_beta 29.410897
_cell_angle_gamma 136.781942
_cell_volume 682.506529
_symmetry_space_group_name_H-M "P -1"
_symmetry_group_IT_number 2
_symmetry_cell_setting 'triclinic'
loop_
_space_group_symop_operation_xyz
x,y,z
-x,-y,-z
loop_
_atom_site_type_symbol
_atom_site_label
_atom_site_fract_x
_atom_site_fract_y
_atom_site_fract_z
Si Si1 0.450836 0.946993 0.214970
Si Si2 0.537857 0.181160 0.288294
Si Si3 0.467369 0.543338 0.269178
Si Si4 0.123409 0.506168 0.198089
Si Si5 0.003567 0.722754 0.144242
Si Si6 0.933314 0.662142 0.479974
Si Si7 0.085924 0.911188 0.155978
Si Si8 0.951900 0.120494 0.181664
O O1 0.277879 0.887188 0.466464
O O2 0.400390 0.069217 0.388650
O O3 0.445854 0.860136 0.957777
O O4 0.682577 0.993714 0.043132
O O5 0.529832 0.316822 0.521004
O O6 0.779240 0.180445 0.041254
O O7 0.255130 0.452790 0.460556
O O8 0.500000 0.500000 0.000000
O O9 0.650949 0.513190 0.086303
O O10 0.000000 0.500000 0.500000
O O11 0.111176 0.619352 0.281749
O O12 0.005502 0.398550 0.094833
O O13 0.990946 0.710031 0.313030
O O14 0.874089 0.793482 0.321157
O O15 0.889740 0.767748 0.785389
O O16 0.042581 0.868743 0.982205
O O17 0.000000 0.000000 0.500000
O O18 0.000000 0.000000 0.000000
#
# Coordination Sequence:
#
# PCOD9035350 Si02
#       8
#     2   2   2   2   2   2   2   2
#     4  10  24  44  76 106 148 202 245 307 383 438
#     4  10  22  45  74 105 151 193 248 308 375 445
#     4  12  27  45  75 112 147 201 251 310 377 454
#     4  12  25  46  72 104 145 197 245 305 379 441
#     4  11  23  46  70 102 148 192 238 311 371 434
#     4  12  26  49  73 106 152 191 247 314 373 453
#     4  11  26  45  72 109 147 194 254 309 375 454
#     4  12  27  48  76 108 148 195 252 318 377 455
#
# _framework density 23.442999
#
# number of rings (size 3 to 8) (size 9 to 14) (size 15 to 20)
#    0.000    0.750    3.750    2.250    7.000    1.500 
#    4.500    0.000    0.000    0.000    0.000    0.000 
#    0.000    0.000    0.000    0.000    0.000    0.000 
#
# Total GULP energy -89163.829606 kJ/mol
# GULP energy per Si atom -5572.739350 kJ/mol
# Density = 2.338964 g / cm^3
# Si number density = 23.442999 Si / 1000 Ang^3
#
#
#
# Elastic Constant Matrix: (Units=GPa)
#
#
# Indices 1 2 3 4 5 6 
#
# 1 121.9976 52.6053 67.3444 1.4872 36.9642 -4.3081
# 2 52.6053 160.3434 67.9320 23.6327 16.9042 -10.3618
# 3 67.3444 67.9320 109.2805 16.6028 20.5027 -12.8687
# 4 1.4872 23.6327 16.6028 55.4288 7.2214 7.9657
# 5 36.9642 16.9042 20.5027 7.2214 57.6233 -10.0557
# 6 -4.3081 -10.3618 -12.8687 7.9657 -10.0557 43.7362
#
#
#
# Elastic Compliance Matrix: (Units=1/GPa)
#
#
# Indices 1 2 3 4 5 6 
#
# 1 0.015671 -0.001718 -0.008238 0.004359 -0.007841 -0.003884
# 2 -0.001718 0.008953 -0.004004 -0.002839 0.000501 0.001406
# 3 -0.008238 -0.004004 0.017603 -0.004193 0.001512 0.004531
# 4 0.004359 -0.002839 -0.004193 0.021885 -0.004342 -0.006461
# 5 -0.007841 0.000501 0.001512 -0.004342 0.023279 0.005934
# 6 -0.003884 0.001406 0.004531 -0.006461 0.005934 0.026689
#
#
# Mechanical properties :
#
#
# Convention : Reuss Voigt Hill
#
# Bulk Modulus (GPa) = 69.89229 85.26496 77.57863
# Shear Modulus (GPa) = 34.06749 44.94031 39.50390
#
# Velocity S-wave (km/s) = 3.81623 4.38311 4.10946
# Velocity P-wave (km/s) = 7.02115 7.87818 7.46198
#
# Compressibility (1/GPa) = 0.01430773
#
# Stress axis : x y z
#
# Youngs Moduli (GPa) = 63.81403 111.69382 56.80863
#
# Poissons Ratio (x) = 0.19189 0.46796
# Poissons Ratio (y) = 0.10964 0.22745
# Poissons Ratio (z) = 0.52567 0.44721
#
# Static dielectric constant tensor:
#      x y z
#    x 1.924230 0.042800 -0.109650 
#    y 0.042800 1.956780 -0.052840 
#    z -0.109650 -0.052840 1.911550 
# 
# From -- ./inp_files/318128.got.cif
#   From: 2010.05.17/outbox.cif.g08.bks.cpg/sg2_160_cif.got.tgz:318128.got - 2010.06.03 11:33:40.
