data_PCOD9035929
_publ_section_title
;
Structure prediction by ZEFSAII (Michael W. Deem and Ramdas Pophale) SiO2 
 PCOD9035929
Probable space group: P -1
;
_chemical_formula_sum "Si O2"
_cell_formula_units_Z 11
_cell_length_a 5.062393
_cell_length_b 14.808954
_cell_length_c 5.318007
_cell_angle_alpha 98.998951
_cell_angle_beta 94.308840
_cell_angle_gamma 88.790009
_cell_volume 392.646247
_symmetry_space_group_name_H-M "P -1"
_symmetry_group_IT_number 2
_symmetry_cell_setting 'triclinic'
loop_
_space_group_symop_operation_xyz
x,y,z
-x,-y,-z
loop_
_atom_site_type_symbol
_atom_site_label
_atom_site_fract_x
_atom_site_fract_y
_atom_site_fract_z
Si Si1 0.395249 0.115842 0.245154
Si Si2 0.500000 0.500000 0.000000
Si Si3 0.182450 0.582957 0.482607
Si Si4 0.696550 0.277104 0.078778
Si Si5 0.810730 0.676197 0.176169
Si Si6 0.219957 0.054886 0.693824
O O1 0.597930 0.194548 0.209657
O O2 0.274891 0.131520 0.519252
O O3 0.552428 0.020725 0.267251
O O4 0.191576 0.095885 0.991201
O O5 0.620058 0.445358 0.734026
O O6 0.239053 0.429662 0.946577
O O7 0.337336 0.621188 0.753229
O O8 0.000000 0.500000 0.500000
O O9 0.986543 0.667243 0.434262
O O10 0.475597 0.278123 0.846685
O O11 0.987943 0.278417 0.987957
O O12 0.000000 0.000000 0.500000
#
# Coordination Sequence:
#
# PCOD9035929 Si02
#       6
#     2   1   2   2   2   2
#     4  10  25  44  72 112 151 194 257 314 386 472
#     4  12  24  50  70 106 142 200 262 320 372 472
#     4  12  27  49  76 104 150 205 258 323 392 458
#     4  12  29  47  73 111 150 202 251 326 389 454
#     4  12  27  48  70 107 146 193 263 315 383 461
#     4  10  22  46  76 109 147 201 248 310 390 473
#
# _framework density 28.015038000000001
#
# number of rings (size 3 to 8) (size 9 to 14) (size 15 to 20)
#    0.000    0.727    3.636    2.182    7.636    2.909 
#    0.000    0.000    0.000    0.000    0.000    0.000 
#    0.000    0.000    0.000    0.000    0.000    0.000 
#
# Total GULP energy -61359.510808 kJ/mol
# GULP energy per Si atom -5578.137346 kJ/mol
# Density = 2.795127 g / cm^3
# Si number density = 28.015038 Si / 1000 Ang^3
#
#
#
# Elastic Constant Matrix: (Units=GPa)
#
#
# Indices 1 2 3 4 5 6 
#
# 1 97.0487 34.2510 49.8487 -4.2305 3.9034 17.3369
# 2 34.2510 175.8775 66.9579 -6.8295 -13.8861 46.0586
# 3 49.8487 66.9579 201.8898 18.9323 5.0831 25.6320
# 4 -4.2305 -6.8295 18.9323 65.6567 11.6840 -2.4267
# 5 3.9034 -13.8861 5.0831 11.6840 33.3655 -8.0939
# 6 17.3369 46.0586 25.6320 -2.4267 -8.0939 50.9952
#
#
#
# Elastic Compliance Matrix: (Units=1/GPa)
#
#
# Indices 1 2 3 4 5 6 
#
# 1 0.012602 -0.000972 -0.002583 0.001851 -0.002729 -0.002453
# 2 -0.000972 0.008337 -0.001907 0.000748 0.002191 -0.005858
# 3 -0.002583 -0.001907 0.006568 -0.002119 -0.000982 -0.000958
# 4 0.001851 0.000748 -0.002119 0.017028 -0.005623 -0.000322
# 5 -0.002729 0.002191 -0.000982 -0.005623 0.034447 0.004642
# 6 -0.002453 -0.005858 -0.000958 -0.000322 0.004642 0.026938
#
#
# Mechanical properties :
#
#
# Convention : Reuss Voigt Hill
#
# Bulk Modulus (GPa) = 60.29496 86.32569 73.31032
# Shear Modulus (GPa) = 40.85929 51.58736 46.22333
#
# Velocity S-wave (km/s) = 3.82314 4.29583 4.06636
# Velocity P-wave (km/s) = 6.40762 7.44892 6.94781
#
# Compressibility (1/GPa) = 0.01658514
#
# Stress axis : x y z
#
# Youngs Moduli (GPa) = 79.34981 119.94720 152.24573
#
# Poissons Ratio (x) = 0.11660 0.39319
# Poissons Ratio (y) = 0.07714 0.29027
# Poissons Ratio (z) = 0.20493 0.22869
#
# Static dielectric constant tensor:
#      x y z
#    x 2.165230 0.014840 -0.004320 
#    y 0.014840 2.110950 0.023570 
#    z -0.004320 0.023570 2.185860 
# 
# From -- ./inp_files/3633.got.cif
#   From: 2010.05.17/outbox.cif.g08.bks.cpg/sg2_2_cif.got.tgz:3633.got - 2010.06.03 11:33:40.
