data_PCOD9035225
_publ_section_title
;
Structure prediction by ZEFSAII (Michael W. Deem and Ramdas Pophale) SiO2 
 PCOD9035225
Probable space group: P -1
;
_chemical_formula_sum "Si O2"
_cell_formula_units_Z 15
_cell_length_a 29.889890
_cell_length_b 5.288634
_cell_length_c 6.439616
_cell_angle_alpha 106.920727
_cell_angle_beta 130.896265
_cell_angle_gamma 54.798224
_cell_volume 622.577071
_symmetry_space_group_name_H-M "P -1"
_symmetry_group_IT_number 2
_symmetry_cell_setting 'triclinic'
loop_
_space_group_symop_operation_xyz
x,y,z
-x,-y,-z
loop_
_atom_site_type_symbol
_atom_site_label
_atom_site_fract_x
_atom_site_fract_y
_atom_site_fract_z
Si Si1 0.906792 0.731943 0.668617
Si Si2 0.000000 0.500000 0.500000
Si Si3 0.651319 0.141911 0.996726
Si Si4 0.894264 0.366616 0.926627
Si Si5 0.667767 0.624707 0.649074
Si Si6 0.261445 0.280705 0.488483
Si Si7 0.454689 0.370093 0.921537
Si Si8 0.234977 0.810265 0.861934
O O1 0.971731 0.558051 0.669940
O O2 0.900193 0.508860 0.758343
O O3 0.906211 0.023650 0.847855
O O4 0.838832 0.892845 0.349268
O O5 0.948601 0.368845 0.249397
O O6 0.581963 0.452520 0.932720
O O7 0.699103 0.161353 0.974174
O O8 0.702354 0.016901 0.323062
O O9 0.639368 0.879421 0.808041
O O10 0.813557 0.612059 0.808945
O O11 0.682491 0.748625 0.512108
O O12 0.608448 0.554194 0.406556
O O13 0.745400 0.345818 0.890022
O O14 0.242698 0.556914 0.659076
O O15 0.500000 0.500000 0.000000
O O16 0.500000 0.000000 0.000000
#
# Coordination Sequence:
#
# PCOD9035225 Si02
#       8
#     2   1   2   2   2   2   2   2
#     4  11  26  48  70 107 148 189 245 304 366 423
#     4  12  28  44  76 102 154 200 244 284 376 438
#     4  11  24  45  75 104 141 182 245 300 358 423
#     4  11  26  46  71 106 148 193 243 301 361 431
#     4  11  26  44  77 108 140 188 245 303 359 430
#     4  10  22  45  72 106 144 186 241 313 364 412
#     4  12  29  50  71 105 152 195 232 288 368 446
#     4  10  23  43  74 107 137 184 246 309 353 422
#
# _framework density 24.093404
#
# number of rings (size 3 to 8) (size 9 to 14) (size 15 to 20)
#    0.000    1.067    2.667    1.600    7.467    5.333 
#    0.000    0.000    0.000    0.000    0.000    0.000 
#    0.000    0.000    0.000    0.000    0.000    0.000 
#
# Total GULP energy -83662.056000 kJ/mol
# GULP energy per Si atom -5577.470400 kJ/mol
# Density = 2.403857 g / cm^3
# Si number density = 24.093404 Si / 1000 Ang^3
#
#
#
# Elastic Constant Matrix: (Units=GPa)
#
#
# Indices 1 2 3 4 5 6 
#
# 1 99.1885 21.0959 3.8840 -3.2905 21.4082 2.6394
# 2 21.0959 77.0404 -0.2110 -2.6307 -2.3611 -2.5974
# 3 3.8840 -0.2110 86.9962 13.0468 15.2605 -2.5078
# 4 -3.2905 -2.6307 13.0468 34.5943 12.3013 -0.8478
# 5 21.4082 -2.3611 15.2605 12.3013 33.6588 -1.9095
# 6 2.6394 -2.5974 -2.5078 -0.8478 -1.9095 27.0820
#
#
#
# Elastic Compliance Matrix: (Units=1/GPa)
#
#
# Indices 1 2 3 4 5 6 
#
# 1 0.013462 -0.003938 0.000546 0.004593 -0.010893 -0.002263
# 2 -0.003938 0.014228 -0.000350 -0.000522 0.003964 0.001979
# 3 0.000546 -0.000350 0.012824 -0.002998 -0.005054 0.000651
# 4 0.004593 -0.000522 -0.002998 0.035630 -0.014660 -0.000694
# 5 -0.010893 0.003964 -0.005054 -0.014660 0.044774 0.003672
# 6 -0.002263 0.001979 0.000651 -0.000694 0.003672 0.037633
#
#
# Mechanical properties :
#
#
# Convention : Reuss Voigt Hill
#
# Bulk Modulus (GPa) = 30.27469 34.75144 32.51306
# Shear Modulus (GPa) = 28.24155 34.96410 31.60283
#
# Velocity S-wave (km/s) = 3.42741 3.81358 3.62564
# Velocity P-wave (km/s) = 5.31561 5.81774 5.57233
#
# Compressibility (1/GPa) = 0.03303090
#
# Stress axis : x y z
#
# Youngs Moduli (GPa) = 74.28509 70.28395 77.97617
#
# Poissons Ratio (x) = 0.27678 -0.04259
# Poissons Ratio (y) = 0.29254 0.02727
# Poissons Ratio (z) = -0.04058 0.02458
#
# Static dielectric constant tensor:
#      x y z
#    x 1.848710 -0.007800 0.037790 
#    y -0.007800 2.202160 0.131590 
#    z 0.037790 0.131590 2.013360 
# 
# From -- ./inp_files/12241.got.cif
#   From: 2010.05.17/outbox.cif.g08.bks.cpg/sg2_7_cif.got.tgz:12241.got - 2010.06.03 11:33:40.
