data_PCOD9035263
_publ_section_title
;
Structure prediction by ZEFSAII (Michael W. Deem and Ramdas Pophale) SiO2 
 PCOD9035263
Probable space group: P -1
;
_chemical_formula_sum "Si O2"
_cell_formula_units_Z 14
_cell_length_a 23.683889
_cell_length_b 7.712007
_cell_length_c 13.959538
_cell_angle_alpha 40.297193
_cell_angle_beta 159.731727
_cell_angle_gamma 137.888936
_cell_volume 567.280849
_symmetry_space_group_name_H-M "P -1"
_symmetry_group_IT_number 2
_symmetry_cell_setting 'triclinic'
loop_
_space_group_symop_operation_xyz
x,y,z
-x,-y,-z
loop_
_atom_site_type_symbol
_atom_site_label
_atom_site_fract_x
_atom_site_fract_y
_atom_site_fract_z
Si Si1 0.994523 0.799235 0.734891
Si Si2 0.015125 0.718862 0.346180
Si Si3 0.621936 0.363116 0.045873
Si Si4 0.457016 0.472633 0.553050
Si Si5 0.393613 0.226254 0.907093
Si Si6 0.102577 0.287201 0.044360
Si Si7 0.673002 0.994705 0.912352
O O1 0.801827 0.774398 0.415217
O O2 0.033241 0.490925 0.922826
O O3 0.024551 0.997662 0.790803
O O4 0.130597 0.929890 0.819582
O O5 0.000000 0.500000 0.500000
O O6 0.910585 0.622056 0.126631
O O7 0.206121 0.740352 0.612497
O O8 0.585743 0.371986 0.872224
O O9 0.476004 0.211277 0.940901
O O10 0.637814 0.684457 0.957325
O O11 0.500000 0.500000 0.500000
O O12 0.407422 0.774695 0.371158
O O13 0.288494 0.277105 0.373421
O O14 0.500000 0.500000 0.000000
O O15 0.397867 0.013445 0.089349
O O16 0.000000 0.000000 0.000000
#
# Coordination Sequence:
#
# PCOD9035263 Si02
#       7
#     2   2   2   2   2   2   2
#     4  11  25  45  79 102 146 197 248 291 370 435
#     4  12  26  46  80 109 142 194 253 296 358 456
#     4  11  24  46  70 113 144 185 244 305 367 431
#     4  11  26  44  70 104 147 192 238 303 370 427
#     4  10  23  41  70 108 145 186 239 308 363 428
#     4  11  28  51  71 106 149 191 247 303 364 437
#     4  10  22  45  73 100 142 195 245 292 366 442
#
# _framework density 24.679134000000001
#
# number of rings (size 3 to 8) (size 9 to 14) (size 15 to 20)
#    0.000    1.143    1.429    3.429    8.000    4.571 
#    2.571    0.000    0.000    0.000    0.000    0.000 
#    0.000    0.000    0.000    0.000    0.000    0.000 
#
# Total GULP energy -78267.342609 kJ/mol
# GULP energy per Si atom -5590.524472 kJ/mol
# Density = 2.462296 g / cm^3
# Si number density = 24.679134 Si / 1000 Ang^3
#
#
#
# Elastic Constant Matrix: (Units=GPa)
#
#
# Indices 1 2 3 4 5 6 
#
# 1 111.6313 45.1465 12.6841 -4.8228 1.3354 -9.3635
# 2 45.1465 126.2789 9.2431 -1.1609 21.7539 -1.9134
# 3 12.6841 9.2431 52.8644 9.7943 -1.8777 5.5075
# 4 -4.8228 -1.1609 9.7943 25.2307 -1.4196 7.4052
# 5 1.3354 21.7539 -1.8777 -1.4196 29.6669 3.1816
# 6 -9.3635 -1.9134 5.5075 7.4052 3.1816 64.8458
#
#
#
# Elastic Compliance Matrix: (Units=1/GPa)
#
#
# Indices 1 2 3 4 5 6 
#
# 1 0.011115 -0.004159 -0.002480 0.002656 0.002383 0.001273
# 2 -0.004159 0.010847 -0.001136 -0.000371 -0.007883 0.000245
# 3 -0.002480 -0.001136 0.021471 -0.008346 0.002050 -0.001363
# 4 0.002656 -0.000371 -0.008346 0.044701 0.002206 -0.004132
# 5 0.002383 -0.007883 0.002050 0.002206 0.039859 -0.002270
# 6 0.001273 0.000245 -0.001363 -0.004132 -0.002270 0.016311
#
#
# Mechanical properties :
#
#
# Convention : Reuss Voigt Hill
#
# Bulk Modulus (GPa) = 35.86255 47.21357 41.53806
# Shear Modulus (GPa) = 29.55988 38.86207 34.21097
#
# Velocity S-wave (km/s) = 3.46463 3.97255 3.72725
# Velocity P-wave (km/s) = 5.52883 6.34145 5.94903
#
# Compressibility (1/GPa) = 0.02788424
#
# Stress axis : x y z
#
# Youngs Moduli (GPa) = 89.96978 92.18917 46.57476
#
# Poissons Ratio (x) = 0.38342 0.11549
# Poissons Ratio (y) = 0.37419 0.05289
# Poissons Ratio (z) = 0.22310 0.10469
#
# Static dielectric constant tensor:
#      x y z
#    x 2.080630 -0.041730 0.021700 
#    y -0.041730 2.100500 -0.033390 
#    z 0.021700 -0.033390 1.905550 
# 
# From -- ./inp_files/542495.got.cif
#   From: 2010.05.17/outbox.cif.g08.bks.cpg/sg2_272_cif.got.tgz:542495.got - 2010.06.03 11:33:40.
