data_PCOD9035123
_publ_section_title
;
Structure prediction by ZEFSAII (Michael W. Deem and Ramdas Pophale) SiO2 
 PCOD9035123
Probable space group: P -1
;
_chemical_formula_sum "Si O2"
_cell_formula_units_Z 16
_cell_length_a 13.164819
_cell_length_b 5.780939
_cell_length_c 11.173421
_cell_angle_alpha 83.368387
_cell_angle_beta 105.203897
_cell_angle_gamma 118.657328
_cell_volume 720.017437
_symmetry_space_group_name_H-M "P -1"
_symmetry_group_IT_number 2
_symmetry_cell_setting 'triclinic'
loop_
_space_group_symop_operation_xyz
x,y,z
-x,-y,-z
loop_
_atom_site_type_symbol
_atom_site_label
_atom_site_fract_x
_atom_site_fract_y
_atom_site_fract_z
Si Si1 0.563595 0.314773 0.543268
Si Si2 0.500221 0.044502 0.773680
Si Si3 0.899680 0.592124 0.973462
Si Si4 0.702370 0.472264 0.348475
Si Si5 0.398453 0.292112 0.897035
Si Si6 0.724833 0.039823 0.916888
Si Si7 0.979950 0.743494 0.428239
Si Si8 0.926865 0.040475 0.809381
O O1 0.500000 0.500000 0.500000
O O2 0.570425 0.283371 0.688934
O O3 0.677139 0.465442 0.483283
O O4 0.500000 0.000000 0.500000
O O5 0.460459 0.125335 0.876585
O O6 0.593713 0.934739 0.828969
O O7 0.375102 0.832202 0.693260
O O8 0.773251 0.338376 0.960831
O O9 0.902659 0.744686 0.844234
O O10 0.000000 0.500000 0.000000
O O11 0.949402 0.785586 0.090412
O O12 0.644173 0.610674 0.238542
O O13 0.840902 0.602632 0.359452
O O14 0.500000 0.500000 0.000000
O O15 0.287431 0.132291 0.960238
O O16 0.817944 0.049342 0.846329
O O17 0.000000 0.500000 0.500000
O O18 0.059082 0.862153 0.326646
O O19 0.000000 0.000000 0.500000
#
# Coordination Sequence:
#
# PCOD9035123 Si02
#       8
#     2   2   2   2   2   2   2   2
#     4  10  22  45  71 105 138 194 248 295 369 439
#     4  11  25  44  72 106 151 194 241 309 378 458
#     4   9  22  42  70 104 140 194 245 311 372 451
#     4  11  27  48  75 104 151 193 250 315 379 450
#     4  12  26  43  69 118 152 191 244 301 390 460
#     4  11  25  40  72 109 150 190 244 304 377 464
#     4  12  33  53  79 112 149 203 264 320 381 449
#     4  10  25  47  73 103 145 196 257 309 381 446
#
# _framework density 22.221685999999998
#
# number of rings (size 3 to 8) (size 9 to 14) (size 15 to 20)
#    0.000    1.250    2.500    0.375   15.750    0.000 
#    2.250    0.000    0.000    0.000    0.000    0.000 
#    0.000    0.000    0.000    0.000    0.000    0.000 
#
# Total GULP energy -89208.959529 kJ/mol
# GULP energy per Si atom -5575.559971 kJ/mol
# Density = 2.217111 g / cm^3
# Si number density = 22.221686 Si / 1000 Ang^3
#
#
#
# Elastic Constant Matrix: (Units=GPa)
#
#
# Indices 1 2 3 4 5 6 
#
# 1 117.6148 32.9576 46.4410 -1.7756 -11.9171 4.3215
# 2 32.9576 100.3425 43.8031 -16.7580 -3.8391 5.2855
# 3 46.4410 43.8031 112.7384 -35.0152 -20.3651 1.9629
# 4 -1.7756 -16.7580 -35.0152 45.1051 2.6387 6.3752
# 5 -11.9171 -3.8391 -20.3651 2.6387 46.8541 -5.6595
# 6 4.3215 5.2855 1.9629 6.3752 -5.6595 35.8824
#
#
#
# Elastic Compliance Matrix: (Units=1/GPa)
#
#
# Indices 1 2 3 4 5 6 
#
# 1 0.011050 -0.002182 -0.004882 -0.004228 0.000764 0.000129
# 2 -0.002182 0.012657 -0.003549 0.002232 -0.001431 -0.002030
# 3 -0.004882 -0.003549 0.016681 0.011294 0.004958 -0.001026
# 4 -0.004228 0.002232 0.011294 0.032356 0.001475 -0.005953
# 5 0.000764 -0.001431 0.004958 0.001475 0.023897 0.003355
# 6 0.000129 -0.002030 -0.001026 -0.005953 0.003355 0.029795
#
#
# Mechanical properties :
#
#
# Convention : Reuss Voigt Hill
#
# Bulk Modulus (GPa) = 52.18368 64.12212 58.15290
# Shear Modulus (GPa) = 32.45727 39.40124 35.92926
#
# Velocity S-wave (km/s) = 3.82594 4.21539 4.02538
# Velocity P-wave (km/s) = 6.56135 7.25334 6.91601
#
# Compressibility (1/GPa) = 0.01916308
#
# Stress axis : x y z
#
# Youngs Moduli (GPa) = 90.49628 79.00988 59.94829
#
# Poissons Ratio (x) = 0.17241 0.29265
# Poissons Ratio (y) = 0.19748 0.21273
# Poissons Ratio (z) = 0.44178 0.28037
#
# Static dielectric constant tensor:
#      x y z
#    x 1.712820 -0.080440 0.154910 
#    y -0.080440 1.939810 0.027290 
#    z 0.154910 0.027290 1.626250 
# 
# From -- ./inp_files/410300.got.cif
#   From: 2010.05.17/outbox.cif.g08.bks.cpg/sg2_206_cif.got.tgz:410300.got - 2010.06.03 11:33:40.
