data_PCOD9035391
_publ_section_title
;
Structure prediction by ZEFSAII (Michael W. Deem and Ramdas Pophale) SiO2 
 PCOD9035391
Probable space group: P -1
;
_chemical_formula_sum "Si O2"
_cell_formula_units_Z 15
_cell_length_a 14.433075
_cell_length_b 5.084415
_cell_length_c 11.030055
_cell_angle_alpha 69.540967
_cell_angle_beta 131.023062
_cell_angle_gamma 110.716719
_cell_volume 563.229566
_symmetry_space_group_name_H-M "P -1"
_symmetry_group_IT_number 2
_symmetry_cell_setting 'triclinic'
loop_
_space_group_symop_operation_xyz
x,y,z
-x,-y,-z
loop_
_atom_site_type_symbol
_atom_site_label
_atom_site_fract_x
_atom_site_fract_y
_atom_site_fract_z
Si Si1 0.144362 0.821812 0.917526
Si Si2 0.138944 0.175021 0.083872
Si Si3 0.578078 0.254772 0.607878
Si Si4 0.916556 0.817574 0.561622
Si Si5 0.470073 0.861203 0.759342
Si Si6 0.305597 0.003222 0.796184
Si Si7 0.229071 0.763874 0.402486
Si Si8 0.500000 0.500000 0.000000
O O1 0.007188 0.874817 0.746151
O O2 0.223283 0.833343 0.858398
O O3 0.136304 0.507248 0.016584
O O4 0.189273 0.055854 0.021478
O O5 0.201729 0.055398 0.274332
O O6 0.000000 0.000000 0.000000
O O7 0.500000 0.500000 0.500000
O O8 0.710697 0.359265 0.644590
O O9 0.500000 0.000000 0.500000
O O10 0.564548 0.128682 0.751303
O O11 0.784176 0.916989 0.402221
O O12 0.877671 0.470126 0.590016
O O13 0.000000 0.000000 0.500000
O O14 0.346258 0.815223 0.583532
O O15 0.535190 0.592404 0.870151
O O16 0.415548 0.852017 0.853720
O O17 0.370972 0.287435 0.872107
#
# Coordination Sequence:
#
# PCOD9035391 Si02
#       8
#     2   2   2   2   2   2   2   1
#     4  11  28  48  77 117 155 199 260 311 387 457
#     4  12  27  48  76 113 159 202 253 318 381 461
#     4  10  24  45  71 108 145 194 250 305 366 450
#     4  10  22  45  75 110 146 198 247 308 378 458
#     4  11  26  46  75 105 148 197 258 310 385 455
#     4  11  26  47  77 106 151 203 251 324 382 456
#     4  11  24  46  77 109 156 203 250 315 385 460
#     4  12  26  48  70 108 146 198 256 318 384 448
#
# _framework density 26.632121000000001
#
# number of rings (size 3 to 8) (size 9 to 14) (size 15 to 20)
#    0.000    1.067    2.667    1.600    7.467    2.133 
#    0.000    3.333    0.000    0.000    0.000    0.000 
#    0.000    0.000    0.000    0.000    0.000    0.000 
#
# Total GULP energy -83625.005252 kJ/mol
# GULP energy per Si atom -5575.000350 kJ/mol
# Density = 2.657151 g / cm^3
# Si number density = 26.632121 Si / 1000 Ang^3
#
#
#
# Elastic Constant Matrix: (Units=GPa)
#
#
# Indices 1 2 3 4 5 6 
#
# 1 118.7919 41.2626 28.6406 -7.3060 -8.6175 5.7121
# 2 41.2626 132.6066 52.2621 -19.3378 -7.4820 8.3827
# 3 28.6406 52.2621 208.4514 -25.4258 -8.5018 12.5399
# 4 -7.3060 -19.3378 -25.4258 57.4495 9.3137 -4.1945
# 5 -8.6175 -7.4820 -8.5018 9.3137 33.1080 -4.9836
# 6 5.7121 8.3827 12.5399 -4.1945 -4.9836 37.8859
#
#
#
# Elastic Compliance Matrix: (Units=1/GPa)
#
#
# Indices 1 2 3 4 5 6 
#
# 1 0.009621 -0.002672 -0.000583 -0.000252 0.001752 -0.000464
# 2 -0.002672 0.009395 -0.001684 0.001964 0.000313 -0.000860
# 3 -0.000583 -0.001684 0.005588 0.001707 0.000247 -0.001168
# 4 -0.000252 0.001964 0.001707 0.019581 -0.004601 0.000601
# 5 0.001752 0.000313 0.000247 -0.004601 0.032595 0.003363
# 6 -0.000464 -0.000860 -0.001168 0.000601 0.003363 0.027551
#
#
# Mechanical properties :
#
#
# Convention : Reuss Voigt Hill
#
# Bulk Modulus (GPa) = 67.91642 78.24228 73.07935
# Shear Modulus (GPa) = 41.97523 48.20099 45.08811
#
# Velocity S-wave (km/s) = 3.97434 4.25889 4.11907
# Velocity P-wave (km/s) = 6.82770 7.32303 7.07970
#
# Compressibility (1/GPa) = 0.01472398
#
# Stress axis : x y z
#
# Youngs Moduli (GPa) = 103.94115 106.44175 178.94898
#
# Poissons Ratio (x) = 0.28446 0.10437
# Poissons Ratio (y) = 0.27777 0.30140
# Poissons Ratio (z) = 0.06062 0.17928
#
# Static dielectric constant tensor:
#      x y z
#    x 2.050210 0.410300 -0.427730 
#    y 0.410300 0.892260 1.081640 
#    z -0.427730 1.081640 1.153030 
# 
# From -- ./inp_files/440960.got.cif
#   From: 2010.05.17/outbox.cif.g08.bks.cpg/sg2_221_cif.got.tgz:440960.got - 2010.06.03 11:33:40.
