data_PCOD9035111
_publ_section_title
;
Structure prediction by ZEFSAII (Michael W. Deem and Ramdas Pophale) SiO2 
 PCOD9035111
Probable space group: P -1
;
_chemical_formula_sum "Si O2"
_cell_formula_units_Z 12
_cell_length_a 8.641506
_cell_length_b 8.210571
_cell_length_c 13.143395
_cell_angle_alpha 37.091434
_cell_angle_beta 75.791560
_cell_angle_gamma 65.702595
_cell_volume 506.746115
_symmetry_space_group_name_H-M "P -1"
_symmetry_group_IT_number 2
_symmetry_cell_setting 'triclinic'
loop_
_space_group_symop_operation_xyz
x,y,z
-x,-y,-z
loop_
_atom_site_type_symbol
_atom_site_label
_atom_site_fract_x
_atom_site_fract_y
_atom_site_fract_z
Si Si1 0.185122 0.026778 0.682079
Si Si2 0.624648 0.347818 0.348971
Si Si3 0.509727 0.810812 0.376872
Si Si4 0.373193 0.934621 0.129027
Si Si5 0.013388 0.790789 0.007258
Si Si6 0.033181 0.677402 0.617865
O O1 0.306482 0.177602 0.636488
O O2 0.041256 0.261940 0.515418
O O3 0.300901 0.778496 0.708453
O O4 0.119382 0.868387 0.860860
O O5 0.604753 0.100304 0.547563
O O6 0.432816 0.590659 0.264779
O O7 0.760272 0.465776 0.324758
O O8 0.500000 0.500000 0.500000
O O9 0.421442 0.001605 0.200099
O O10 0.176916 0.113649 0.054657
O O11 0.500000 0.000000 0.000000
O O12 0.052494 0.483322 0.211152
O O13 0.000000 0.000000 0.000000
O O14 0.000000 0.000000 0.500000
#
# Coordination Sequence:
#
# PCOD9035111 Si02
#       6
#     2   2   2   2   2   2
#     4  11  25  47  74 107 147 189 246 301 361 431
#     4  10  22  45  71 103 141 191 239 291 366 426
#     4  10  23  42  72 102 141 193 239 296 364 425
#     4  11  22  45  69 102 146 183 237 296 356 433
#     4  12  27  45  76 109 143 190 247 301 361 429
#     4  10  24  46  74 105 146 186 239 296 368 425
#
# _framework density 23.680496000000002
#
# number of rings (size 3 to 8) (size 9 to 14) (size 15 to 20)
#    0.000    1.333    1.667    2.500    7.000    3.333 
#    6.000    1.667    0.000    0.000    0.000    0.000 
#    0.000    0.000    0.000    0.000    0.000    0.000 
#
# Total GULP energy -66954.529948 kJ/mol
# GULP energy per Si atom -5579.544162 kJ/mol
# Density = 2.362660 g / cm^3
# Si number density = 23.680496 Si / 1000 Ang^3
#
#
#
# Elastic Constant Matrix: (Units=GPa)
#
#
# Indices 1 2 3 4 5 6 
#
# 1 104.4029 21.6490 66.8409 4.9838 -20.9802 27.9546
# 2 21.6490 93.3047 65.9166 24.5052 -12.2435 5.3683
# 3 66.8409 65.9166 197.2183 35.0068 -31.2863 -0.7049
# 4 4.9838 24.5052 35.0068 51.4842 -14.0185 -0.3083
# 5 -20.9802 -12.2435 -31.2863 -14.0185 48.4465 14.8628
# 6 27.9546 5.3683 -0.7049 -0.3083 14.8628 36.7197
#
#
#
# Elastic Compliance Matrix: (Units=1/GPa)
#
#
# Indices 1 2 3 4 5 6 
#
# 1 0.022621 0.001405 -0.006925 0.005655 0.014487 -0.023376
# 2 0.001405 0.015079 -0.004609 -0.003771 0.001590 -0.004038
# 3 -0.006925 -0.004609 0.009481 -0.003863 -0.001175 0.006571
# 4 0.005655 -0.003771 -0.003863 0.025591 0.008581 -0.007086
# 5 0.014487 0.001590 -0.001175 0.008581 0.037086 -0.026223
# 6 -0.023376 -0.004038 0.006571 -0.007086 -0.026223 0.056300
#
#
# Mechanical properties :
#
#
# Convention : Reuss Voigt Hill
#
# Bulk Modulus (GPa) = 37.14475 78.19321 57.66898
# Shear Modulus (GPa) = 25.58969 43.36470 34.47719
#
# Velocity S-wave (km/s) = 3.29085 4.28394 3.81981
# Velocity P-wave (km/s) = 5.49176 7.58692 6.62272
#
# Compressibility (1/GPa) = 0.02692171
#
# Stress axis : x y z
#
# Youngs Moduli (GPa) = 44.20654 66.31800 105.47600
#
# Poissons Ratio (x) = -0.09315 0.73046
# Poissons Ratio (y) = -0.06209 0.48611
# Poissons Ratio (z) = 0.30615 0.30564
#
# Static dielectric constant tensor:
#      x y z
#    x 1.742100 -0.491910 0.388890 
#    y -0.491910 1.113720 0.535880 
#    z 0.388890 0.535880 1.811850 
# 
# From -- ./inp_files/377490.got.cif
#   From: 2010.05.17/outbox.cif.g08.bks.cpg/sg2_189_cif.got.tgz:377490.got - 2010.06.03 11:33:40.
