data_PCOD9035525
_publ_section_title
;
Structure prediction by ZEFSAII (Michael W. Deem and Ramdas Pophale) SiO2 
 PCOD9035525
Probable space group: P -1
;
_chemical_formula_sum "Si O2"
_cell_formula_units_Z 16
_cell_length_a 8.999784
_cell_length_b 18.934112
_cell_length_c 9.149905
_cell_angle_alpha 57.644774
_cell_angle_beta 77.989023
_cell_angle_gamma 41.576834
_cell_volume 821.060908
_symmetry_space_group_name_H-M "P -1"
_symmetry_group_IT_number 2
_symmetry_cell_setting 'triclinic'
loop_
_space_group_symop_operation_xyz
x,y,z
-x,-y,-z
loop_
_atom_site_type_symbol
_atom_site_label
_atom_site_fract_x
_atom_site_fract_y
_atom_site_fract_z
Si Si1 0.670932 0.247106 0.165129
Si Si2 0.403108 0.472045 0.436703
Si Si3 0.118796 0.664899 0.016007
Si Si4 0.855062 0.478080 0.089936
Si Si5 0.223890 0.138324 0.897675
Si Si6 0.066097 0.350500 0.495667
Si Si7 0.040688 0.033439 0.101836
Si Si8 0.446751 0.756308 0.478906
O O1 0.620105 0.230082 0.353100
O O2 0.822520 0.125235 0.159475
O O3 0.819465 0.269853 0.129173
O O4 0.420118 0.378735 0.997799
O O5 0.500000 0.500000 0.500000
O O6 0.318856 0.555190 0.215681
O O7 0.567978 0.325168 0.516108
O O8 0.164807 0.532854 0.487731
O O9 0.872353 0.772122 0.038415
O O10 0.123553 0.594940 0.966876
O O11 0.967272 0.390393 0.308166
O O12 0.000000 0.500000 0.000000
O O13 0.161118 0.221839 0.679553
O O14 0.081187 0.112247 0.960383
O O15 0.500000 0.000000 0.000000
O O16 0.282945 0.323627 0.492685
O O17 0.271322 0.897941 0.285622
O O18 0.000000 0.000000 0.000000
#
# Coordination Sequence:
#
# PCOD9035525 Si02
#       8
#     2   2   2   2   2   2   2   2
#     4  11  24  44  66  94 138 173 216 274 335 395
#     4  11  24  40  68 101 132 175 223 274 328 392
#     4  10  23  41  65  96 131 172 217 272 331 388
#     4  12  23  40  66 103 136 167 218 275 337 394
#     4  10  22  46  67  90 133 175 218 272 326 394
#     4  11  24  41  68  99 135 171 224 265 339 387
#     4  11  27  44  69  98 126 177 229 275 327 397
#     4  12  24  44  67  95 140 175 218 275 335 396
#
# _framework density 19.486982999999999
#
# number of rings (size 3 to 8) (size 9 to 14) (size 15 to 20)
#    0.000    1.000    3.750    1.875    8.750    2.000 
#    0.000    0.625    0.000    0.000    0.000    0.000 
#    0.000    0.000    0.000    0.000    0.000    0.000 
#
# Total GULP energy -89433.645339 kJ/mol
# GULP energy per Si atom -5589.602834 kJ/mol
# Density = 1.944263 g / cm^3
# Si number density = 19.486983 Si / 1000 Ang^3
#
#
#
# Elastic Constant Matrix: (Units=GPa)
#
#
# Indices 1 2 3 4 5 6 
#
# 1 76.7600 49.4159 34.4759 19.6042 5.8580 5.3503
# 2 49.4159 121.5349 42.0834 0.8466 11.6915 10.0728
# 3 34.4759 42.0834 139.1283 15.6196 5.2957 7.5878
# 4 19.6042 0.8466 15.6196 26.9492 -7.6882 0.3953
# 5 5.8580 11.6915 5.2957 -7.6882 33.7806 2.5348
# 6 5.3503 10.0728 7.5878 0.3953 2.5348 34.4110
#
#
#
# Elastic Compliance Matrix: (Units=1/GPa)
#
#
# Indices 1 2 3 4 5 6 
#
# 1 0.024271 -0.008847 -0.001082 -0.018198 -0.005092 -0.000361
# 2 -0.008847 0.012822 -0.002365 0.007218 -0.000749 -0.001884
# 3 -0.001082 -0.002365 0.008790 -0.004605 -0.001351 -0.000925
# 4 -0.018198 0.007218 -0.004605 0.056873 0.014322 0.000024
# 5 -0.005092 -0.000749 -0.001351 0.014322 0.034320 -0.001384
# 6 -0.000361 -0.001884 -0.000925 0.000024 -0.001384 0.029974
#
#
# Mechanical properties :
#
#
# Convention : Reuss Voigt Hill
#
# Bulk Modulus (GPa) = 46.96028 65.48595 56.22312
# Shear Modulus (GPa) = 25.15902 33.12469 29.14185
#
# Velocity S-wave (km/s) = 3.59704 4.12738 3.87130
# Velocity P-wave (km/s) = 6.43445 7.50944 6.99263
#
# Compressibility (1/GPa) = 0.02129459
#
# Stress axis : x y z
#
# Youngs Moduli (GPa) = 41.20222 77.98919 113.76660
#
# Poissons Ratio (x) = 0.69000 0.12304
# Poissons Ratio (y) = 0.36453 0.26908
# Poissons Ratio (z) = 0.04456 0.18446
#
# Static dielectric constant tensor:
#      x y z
#    x 1.678280 -0.016120 -0.017430 
#    y -0.016120 1.694490 -0.001780 
#    z -0.017430 -0.001780 1.670570 
# 
# From -- ./inp_files/177766.got.cif
#   From: 2010.05.17/outbox.cif.g08.bks.cpg/sg2_89_cif.got.tgz:177766.got - 2010.06.03 11:33:40.
