data_PCOD9035432
_publ_section_title
;
Structure prediction by ZEFSAII (Michael W. Deem and Ramdas Pophale) SiO2 
 PCOD9035432
Probable space group: P -1
;
_chemical_formula_sum "Si O2"
_cell_formula_units_Z 13
_cell_length_a 7.196878
_cell_length_b 12.171682
_cell_length_c 8.709564
_cell_angle_alpha 109.319563
_cell_angle_beta 102.229663
_cell_angle_gamma 40.907077
_cell_volume 470.564642
_symmetry_space_group_name_H-M "P -1"
_symmetry_group_IT_number 2
_symmetry_cell_setting 'triclinic'
loop_
_space_group_symop_operation_xyz
x,y,z
-x,-y,-z
loop_
_atom_site_type_symbol
_atom_site_label
_atom_site_fract_x
_atom_site_fract_y
_atom_site_fract_z
Si Si1 0.676689 0.264669 0.130133
Si Si2 0.898318 0.407867 0.698793
Si Si3 0.500000 0.500000 0.500000
Si Si4 0.398477 0.319431 0.588968
Si Si5 0.710501 0.074429 0.795776
Si Si6 0.971217 0.743695 0.019013
Si Si7 0.521693 0.909010 0.757688
O O1 0.447541 0.407035 0.283291
O O2 0.577818 0.204018 0.977980
O O3 0.759189 0.328806 0.056249
O O4 0.233651 0.215148 0.128425
O O5 0.849622 0.317872 0.543542
O O6 0.951511 0.365920 0.868736
O O7 0.113904 0.401305 0.662966
O O8 0.374641 0.458968 0.585823
O O9 0.646714 0.184207 0.692058
O O10 0.457803 0.203486 0.408271
O O11 0.564680 0.014613 0.731184
O O12 0.033968 0.903465 0.815805
O O13 0.779235 0.937361 0.139861
#
# Coordination Sequence:
#
# PCOD9035432 Si02
#       7
#     2   2   1   2   2   2   2
#     4  10  24  45  77 124 166 204 265 332 399 492
#     4  12  27  50  81 118 161 214 263 335 409 470
#     4  12  32  52  70 120 160 208 266 334 406 468
#     4  12  27  53  84 112 160 214 272 334 403 478
#     4  10  22  47  80 118 159 214 264 323 404 481
#     4  10  22  45  78 122 161 211 263 323 405 480
#     4  10  23  46  80 121 158 206 270 329 393 486
#
# _framework density 27.626386
#
# number of rings (size 3 to 8) (size 9 to 14) (size 15 to 20)
#    0.000    1.231    1.538    2.308    4.308    5.538 
#    5.538    2.308    0.000    0.923    0.000    0.000 
#    0.000    0.000    0.000    0.000    0.000    0.000 
#
# Total GULP energy -72794.705736 kJ/mol
# GULP energy per Si atom -5599.592749 kJ/mol
# Density = 2.756351 g / cm^3
# Si number density = 27.626386 Si / 1000 Ang^3
#
#
#
# Elastic Constant Matrix: (Units=GPa)
#
#
# Indices 1 2 3 4 5 6 
#
# 1 123.7280 37.8626 50.6966 -13.0605 -24.2427 12.5479
# 2 37.8626 99.7758 76.1114 -23.7754 -9.5392 -4.2587
# 3 50.6966 76.1114 160.4825 -6.8866 -12.1421 17.7091
# 4 -13.0605 -23.7754 -6.8866 71.2058 7.8115 -1.8917
# 5 -24.2427 -9.5392 -12.1421 7.8115 48.5961 -5.0860
# 6 12.5479 -4.2587 17.7091 -1.8917 -5.0860 44.8968
#
#
#
# Elastic Compliance Matrix: (Units=1/GPa)
#
#
# Indices 1 2 3 4 5 6 
#
# 1 0.010532 -0.002279 -0.001694 0.000505 0.004092 -0.002007
# 2 -0.002279 0.019131 -0.008791 0.005259 0.000222 0.006166
# 3 -0.001694 -0.008791 0.011392 -0.002289 0.000127 -0.004936
# 4 0.000505 0.005259 -0.002289 0.015899 -0.001661 0.001742
# 5 0.004092 0.000222 0.000127 -0.001661 0.023106 0.001375
# 6 -0.002007 0.006166 -0.004936 0.001742 0.001375 0.025595
#
#
# Mechanical properties :
#
#
# Convention : Reuss Voigt Hill
#
# Bulk Modulus (GPa) = 64.40219 79.25861 71.83040
# Shear Modulus (GPa) = 36.66816 47.56080 42.11448
#
# Velocity S-wave (km/s) = 3.64715 4.15368 3.90863
# Velocity P-wave (km/s) = 6.41077 7.19415 6.81373
#
# Compressibility (1/GPa) = 0.01552742
#
# Stress axis : x y z
#
# Youngs Moduli (GPa) = 94.94669 52.27135 87.78382
#
# Poissons Ratio (x) = 0.11912 0.14867
# Poissons Ratio (y) = 0.21638 0.77172
# Poissons Ratio (z) = 0.16080 0.45953
#
# Static dielectric constant tensor:
#      x y z
#    x 2.322060 -0.006150 0.206430 
#    y -0.006150 2.177620 0.045560 
#    z 0.206430 0.045560 2.374510 
# 
# From -- ./inp_files/131728.got.cif
#   From: 2010.05.17/outbox.cif.g08.bks.cpg/sg2_66_cif.got.tgz:131728.got - 2010.06.03 11:33:40.
