data_PCOD9035049
_publ_section_title
;
Structure prediction by ZEFSAII (Michael W. Deem and Ramdas Pophale) SiO2 
 PCOD9035049
Probable space group: P -1
;
_chemical_formula_sum "Si O2"
_cell_formula_units_Z 16
_cell_length_a 7.981862
_cell_length_b 18.587558
_cell_length_c 7.255719
_cell_angle_alpha 85.080638
_cell_angle_beta 122.895187
_cell_angle_gamma 126.034373
_cell_volume 686.267116
_symmetry_space_group_name_H-M "P -1"
_symmetry_group_IT_number 2
_symmetry_cell_setting 'triclinic'
loop_
_space_group_symop_operation_xyz
x,y,z
-x,-y,-z
loop_
_atom_site_type_symbol
_atom_site_label
_atom_site_fract_x
_atom_site_fract_y
_atom_site_fract_z
Si Si1 0.584522 0.211921 0.947420
Si Si2 0.849096 0.787040 0.119711
Si Si3 0.776929 0.151259 0.326704
Si Si4 0.751937 0.991710 0.366368
Si Si5 0.205379 0.986646 0.178667
Si Si6 0.123543 0.622126 0.205456
Si Si7 0.285209 0.389327 0.845458
Si Si8 0.621196 0.461410 0.690135
O O1 0.365318 0.206814 0.928734
O O2 0.474102 0.110780 0.824509
O O3 0.690984 0.283831 0.827402
O O4 0.801345 0.230644 0.211146
O O5 0.720869 0.681481 0.006478
O O6 0.035784 0.804798 0.394674
O O7 0.042971 0.874398 0.079179
O O8 0.819349 0.081488 0.281652
O O9 0.472731 0.069649 0.220557
O O10 0.720862 0.998157 0.563725
O O11 0.000000 0.000000 0.500000
O O12 0.000000 0.000000 0.000000
O O13 0.278631 0.585036 0.352130
O O14 0.991389 0.634247 0.292414
O O15 0.878945 0.545758 0.941120
O O16 0.398685 0.387025 0.720684
O O17 0.500000 0.500000 0.000000
O O18 0.500000 0.500000 0.500000
#
# Coordination Sequence:
#
# PCOD9035049 Si02
#       8
#     2   2   2   2   2   2   2   2
#     4  12  23  40  64  95 129 175 221 271 329 393
#     4  11  22  42  65  91 135 173 221 277 329 395
#     4  11  24  40  64  92 132 180 216 264 335 387
#     4  11  21  40  59  88 131 170 215 269 318 385
#     4  11  22  41  63  94 130 178 219 267 327 387
#     4  10  24  41  66  98 129 170 215 271 338 392
#     4  10  23  45  67  95 135 173 217 279 337 393
#     4  10  22  45  70  92 129 168 216 279 333 395
#
# _framework density 23.314537000000001
#
# number of rings (size 3 to 8) (size 9 to 14) (size 15 to 20)
#    0.000    1.250    5.000    1.875    5.250    0.500 
#    0.000    3.750    0.000    0.000    0.000    0.000 
#    0.000    0.000    0.000    0.000    0.000    0.000 
#
# Total GULP energy -89321.220134 kJ/mol
# GULP energy per Si atom -5582.576258 kJ/mol
# Density = 2.326147 g / cm^3
# Si number density = 23.314537 Si / 1000 Ang^3
#
#
#
# Elastic Constant Matrix: (Units=GPa)
#
#
# Indices 1 2 3 4 5 6 
#
# 1 124.5220 17.7094 11.3708 -9.6446 25.9462 -11.2934
# 2 17.7094 118.8720 16.9813 -10.5067 4.6994 -13.4613
# 3 11.3708 16.9813 80.1236 -19.6526 25.5228 -13.5395
# 4 -9.6446 -10.5067 -19.6526 31.0439 -9.7127 9.8762
# 5 25.9462 4.6994 25.5228 -9.7127 34.2916 -9.8179
# 6 -11.2934 -13.4613 -13.5395 9.8762 -9.8179 41.1956
#
#
#
# Elastic Compliance Matrix: (Units=1/GPa)
#
#
# Indices 1 2 3 4 5 6 
#
# 1 0.009889 -0.001241 0.001840 0.001029 -0.008187 0.000713
# 2 -0.001241 0.009142 -0.001629 0.001597 0.001981 0.002201
# 3 0.001840 -0.001629 0.018608 0.007463 -0.012529 0.001313
# 4 0.001029 0.001597 0.007463 0.040651 0.003331 -0.005695
# 5 -0.008187 0.001981 -0.012529 0.003331 0.046673 0.004610
# 6 0.000713 0.002201 0.001313 -0.005695 0.004610 0.028084
#
#
# Mechanical properties :
#
#
# Convention : Reuss Voigt Hill
#
# Bulk Modulus (GPa) = 28.10515 46.18229 37.14372
# Shear Modulus (GPa) = 29.94599 39.80332 34.87466
#
# Velocity S-wave (km/s) = 3.58779 4.13635 3.87180
# Velocity P-wave (km/s) = 5.40776 6.53176 5.99616
#
# Compressibility (1/GPa) = 0.03558067
#
# Stress axis : x y z
#
# Youngs Moduli (GPa) = 101.11939 109.38481 53.73973
#
# Poissons Ratio (x) = 0.13573 -0.09889
# Poissons Ratio (y) = 0.12547 0.08753
# Poissons Ratio (z) = -0.18608 0.17816
#
# Static dielectric constant tensor:
#      x y z
#    x 1.941840 -0.049260 -0.030620 
#    y -0.049260 1.946660 0.036130 
#    z -0.030620 0.036130 1.953350 
# 
# From -- ./inp_files/214963.got.cif
#   From: 2010.05.17/outbox.cif.g08.bks.cpg/sg2_108_cif.got.tgz:214963.got - 2010.06.03 11:33:40.
