data_PCOD9035649
_publ_section_title
;
Structure prediction by ZEFSAII (Michael W. Deem and Ramdas Pophale) SiO2 
 PCOD9035649
Probable space group: P -1
;
_chemical_formula_sum "Si O2"
_cell_formula_units_Z 15
_cell_length_a 5.786683
_cell_length_b 15.127058
_cell_length_c 9.892022
_cell_angle_alpha 58.052374
_cell_angle_beta 97.528960
_cell_angle_gamma 122.098660
_cell_volume 608.698795
_symmetry_space_group_name_H-M "P -1"
_symmetry_group_IT_number 2
_symmetry_cell_setting 'triclinic'
loop_
_space_group_symop_operation_xyz
x,y,z
-x,-y,-z
loop_
_atom_site_type_symbol
_atom_site_label
_atom_site_fract_x
_atom_site_fract_y
_atom_site_fract_z
Si Si1 0.750179 0.964476 0.904368
Si Si2 0.052111 0.729661 0.720827
Si Si3 0.679332 0.728279 0.016719
Si Si4 0.759778 0.571922 0.360850
Si Si5 0.500000 0.500000 0.000000
Si Si6 0.829123 0.871330 0.429469
Si Si7 0.252115 0.652888 0.538576
Si Si8 0.728561 0.071838 0.232437
O O1 0.496563 0.985527 0.859377
O O2 0.580493 0.814316 0.997342
O O3 0.921425 0.046546 0.720191
O O4 0.000000 0.000000 0.000000
O O5 0.905360 0.798831 0.596562
O O6 0.168430 0.691235 0.636957
O O7 0.303343 0.839859 0.738554
O O8 0.815702 0.607850 0.880680
O O9 0.747843 0.672602 0.194049
O O10 0.498894 0.612174 0.997158
O O11 0.969072 0.831475 0.885002
O O12 0.500000 0.500000 0.500000
O O13 0.745202 0.470833 0.338159
O O14 0.031186 0.625696 0.428885
O O15 0.555117 0.760287 0.425146
O O16 0.739434 0.964054 0.396919
#
# Coordination Sequence:
#
# PCOD9035649 Si02
#       8
#     2   2   2   2   1   2   2   2
#     4  11  27  43  69 100 142 189 238 298 352 422
#     4  11  24  46  73 105 146 183 238 296 357 431
#     4  10  24  42  69  96 140 179 234 291 355 422
#     4  11  25  43  65 100 140 186 235 293 354 424
#     4  10  22  46  70 102 140 186 230 294 358 422
#     4  11  24  43  69 102 139 189 232 294 356 427
#     4  11  25  40  70 102 137 185 237 290 356 426
#     4  10  25  44  68 105 137 187 236 291 359 422
#
# _framework density 24.64273
#
# number of rings (size 3 to 8) (size 9 to 14) (size 15 to 20)
#    0.000    1.333    0.000    3.600    7.467    9.600 
#    0.000    4.667    0.000    0.000    0.000    0.000 
#    0.000    0.000    0.000    0.000    0.000    0.000 
#
# Total GULP energy -83616.888467 kJ/mol
# GULP energy per Si atom -5574.459231 kJ/mol
# Density = 2.458664 g / cm^3
# Si number density = 24.642730 Si / 1000 Ang^3
#
#
#
# Elastic Constant Matrix: (Units=GPa)
#
#
# Indices 1 2 3 4 5 6 
#
# 1 51.2907 24.7846 29.1661 -3.0542 24.0841 15.4484
# 2 24.7846 91.9906 15.8146 -1.1020 14.6504 13.2296
# 3 29.1661 15.8146 103.2347 -21.6336 6.9137 6.0534
# 4 -3.0542 -1.1020 -21.6336 23.8816 -2.6459 -11.3698
# 5 24.0841 14.6504 6.9137 -2.6459 36.7461 -2.9079
# 6 15.4484 13.2296 6.0534 -11.3698 -2.9079 41.7926
#
#
#
# Elastic Compliance Matrix: (Units=1/GPa)
#
#
# Indices 1 2 3 4 5 6 
#
# 1 0.050589 -0.002647 -0.014948 -0.022271 -0.032795 -0.024037
# 2 -0.002647 0.012983 -0.001471 -0.003446 -0.003738 -0.004116
# 3 -0.014948 -0.001471 0.016906 0.018793 0.009292 0.009302
# 4 -0.022271 -0.003446 0.018793 0.071076 0.019714 0.027309
# 5 -0.032795 -0.003738 0.009292 0.019714 0.051524 0.020908
# 6 -0.024037 -0.004116 0.009302 0.027309 0.020908 0.041653
#
#
# Mechanical properties :
#
#
# Convention : Reuss Voigt Hill
#
# Bulk Modulus (GPa) = 23.61614 42.89408 33.25511
# Shear Modulus (GPa) = 16.83626 32.26744 24.55185
#
# Velocity S-wave (km/s) = 2.61667 3.62250 3.15987
# Velocity P-wave (km/s) = 4.32822 5.91108 5.18046
#
# Compressibility (1/GPa) = 0.04234391
#
# Stress axis : x y z
#
# Youngs Moduli (GPa) = 19.76718 77.02504 59.15172
#
# Poissons Ratio (x) = 0.20389 0.88421
# Poissons Ratio (y) = 0.05233 0.08704
# Poissons Ratio (z) = 0.29548 0.11334
#
# Static dielectric constant tensor:
#      x y z
#    x 2.014230 -0.066130 0.034200 
#    y -0.066130 2.079850 0.055510 
#    z 0.034200 0.055510 1.899910 
# 
# From -- ./inp_files/366727.got.cif
#   From: 2010.05.17/outbox.cif.g08.bks.cpg/sg2_184_cif.got.tgz:366727.got - 2010.06.03 11:33:40.
