data_PCOD9035281
_publ_section_title
;
Structure prediction by ZEFSAII (Michael W. Deem and Ramdas Pophale) SiO2 
 PCOD9035281
Probable space group: P -1
;
_chemical_formula_sum "Si O2"
_cell_formula_units_Z 16
_cell_length_a 7.726288
_cell_length_b 13.335153
_cell_length_c 12.114647
_cell_angle_alpha 74.311610
_cell_angle_beta 35.381876
_cell_angle_gamma 87.947265
_cell_volume 656.526993
_symmetry_space_group_name_H-M "P -1"
_symmetry_group_IT_number 2
_symmetry_cell_setting 'triclinic'
loop_
_space_group_symop_operation_xyz
x,y,z
-x,-y,-z
loop_
_atom_site_type_symbol
_atom_site_label
_atom_site_fract_x
_atom_site_fract_y
_atom_site_fract_z
Si Si1 0.317576 0.180447 0.127787
Si Si2 0.245458 0.393462 0.110582
Si Si3 0.365517 0.566444 0.318863
Si Si4 0.681366 0.038874 0.081557
Si Si5 0.307964 0.790469 0.290266
Si Si6 0.435965 0.587159 0.588467
Si Si7 0.735606 0.104863 0.286181
Si Si8 0.810838 0.813214 0.397806
O O1 0.248049 0.279462 0.198978
O O2 0.399563 0.087915 0.183001
O O3 0.036094 0.137753 0.199171
O O4 0.612895 0.217983 0.879057
O O5 0.906463 0.405793 0.262775
O O6 0.500000 0.500000 0.000000
O O7 0.395143 0.383429 0.918539
O O8 0.342187 0.678594 0.357588
O O9 0.512954 0.473625 0.309527
O O10 0.000000 0.500000 0.500000
O O11 0.785308 0.080927 0.139341
O O12 0.529960 0.905608 0.192566
O O13 0.961338 0.088542 0.828913
O O14 0.973324 0.804642 0.432724
O O15 0.500000 0.500000 0.500000
O O16 0.713164 0.703557 0.406729
O O17 0.536923 0.186988 0.383238
O O18 0.500000 0.000000 0.500000
#
# Coordination Sequence:
#
# PCOD9035281 Si02
#       8
#     2   2   2   2   2   2   2   2
#     4  10  23  46  71 104 149 190 243 308 373 437
#     4  11  25  46  73 104 146 191 251 312 373 449
#     4  11  23  45  73 103 148 195 240 307 377 437
#     4  11  26  48  77 108 148 206 243 302 382 440
#     4  10  22  45  73 104 147 196 247 302 370 448
#     4  12  26  45  70 109 143 194 253 307 375 450
#     4  12  26  45  72 108 149 192 250 302 369 447
#     4  11  24  47  73 104 154 188 248 314 365 451
#
# _framework density 24.370667000000001
#
# number of rings (size 3 to 8) (size 9 to 14) (size 15 to 20)
#    0.000    1.000    2.500    4.125    3.500    8.000 
#    4.500    1.250    0.000    0.000    0.000    0.000 
#    0.000    0.000    0.000    0.000    0.000    0.000 
#
# Total GULP energy -89227.376384 kJ/mol
# GULP energy per Si atom -5576.711024 kJ/mol
# Density = 2.431520 g / cm^3
# Si number density = 24.370667 Si / 1000 Ang^3
#
#
#
# Elastic Constant Matrix: (Units=GPa)
#
#
# Indices 1 2 3 4 5 6 
#
# 1 119.9072 51.3432 60.7259 -0.3077 -30.8527 -10.2054
# 2 51.3432 174.2564 41.6380 -17.2199 -31.0286 -1.5827
# 3 60.7259 41.6380 99.0690 -0.6784 -20.1229 -6.7874
# 4 -0.3077 -17.2199 -0.6784 41.4228 3.6138 -11.4003
# 5 -30.8527 -31.0286 -20.1229 3.6138 46.3367 2.9986
# 6 -10.2054 -1.5827 -6.7874 -11.4003 2.9986 43.8606
#
#
#
# Elastic Compliance Matrix: (Units=1/GPa)
#
#
# Indices 1 2 3 4 5 6 
#
# 1 0.013888 -0.001625 -0.006665 -0.000695 0.005215 0.001604
# 2 -0.001625 0.007381 -0.001466 0.002824 0.002992 0.000191
# 3 -0.006665 -0.001466 0.015057 -0.000356 0.001111 0.000558
# 4 -0.000695 0.002824 -0.000356 0.027371 -0.001320 0.007090
# 5 0.005215 0.002992 0.001111 -0.001320 0.027690 -0.000743
# 6 0.001604 0.000191 0.000558 0.007090 -0.000743 0.025159
#
#
# Mechanical properties :
#
#
# Convention : Reuss Voigt Hill
#
# Bulk Modulus (GPa) = 59.47703 77.84963 68.66333
# Shear Modulus (GPa) = 35.29491 42.29239 38.79365
#
# Velocity S-wave (km/s) = 3.80972 4.17031 3.99409
# Velocity P-wave (km/s) = 6.61892 7.42980 7.03605
#
# Compressibility (1/GPa) = 0.01681321
#
# Stress axis : x y z
#
# Youngs Moduli (GPa) = 72.00645 135.47875 66.41282
#
# Poissons Ratio (x) = 0.22012 0.44267
# Poissons Ratio (y) = 0.11699 0.09738
# Poissons Ratio (z) = 0.47995 0.19865
#
# Static dielectric constant tensor:
#      x y z
#    x 1.741640 0.088860 0.081650 
#    y 0.088860 1.796450 -0.343720 
#    z 0.081650 -0.343720 1.501260 
# 
# From -- ./inp_files/500233.got.cif
#   From: 2010.05.17/outbox.cif.g08.bks.cpg/sg2_251_cif.got.tgz:500233.got - 2010.06.03 11:33:40.
