data_PCOD9035759
_publ_section_title
;
Structure prediction by ZEFSAII (Michael W. Deem and Ramdas Pophale) SiO2 
 PCOD9035759
Probable space group: P -1
;
_chemical_formula_sum "Si O2"
_cell_formula_units_Z 16
_cell_length_a 7.839258
_cell_length_b 12.094095
_cell_length_c 14.103358
_cell_angle_alpha 148.548050
_cell_angle_beta 79.984690
_cell_angle_gamma 93.861815
_cell_volume 678.463415
_symmetry_space_group_name_H-M "P -1"
_symmetry_group_IT_number 2
_symmetry_cell_setting 'triclinic'
loop_
_space_group_symop_operation_xyz
x,y,z
-x,-y,-z
loop_
_atom_site_type_symbol
_atom_site_label
_atom_site_fract_x
_atom_site_fract_y
_atom_site_fract_z
Si Si1 0.704791 0.875499 0.382973
Si Si2 0.177000 0.711212 0.393556
Si Si3 0.711599 0.914912 0.097947
Si Si4 0.573550 0.352738 0.492931
Si Si5 0.075993 0.909457 0.030417
Si Si6 0.659031 0.810818 0.823657
Si Si7 0.648203 0.611909 0.019771
Si Si8 0.804847 0.596904 0.357471
O O1 0.754828 0.727285 0.360575
O O2 0.500000 0.000000 0.500000
O O3 0.822552 0.058402 0.486291
O O4 0.734988 0.714338 0.173550
O O5 0.321744 0.696588 0.453077
O O6 0.236721 0.545263 0.179946
O O7 0.991292 0.663867 0.416748
O O8 0.908337 0.906727 0.111187
O O9 0.648112 0.165711 0.276528
O O10 0.730694 0.776502 0.899625
O O11 0.583343 0.817273 0.109301
O O12 0.613514 0.585614 0.631655
O O13 0.370045 0.345213 0.522115
O O14 0.204038 0.076973 0.167143
O O15 0.169465 0.663809 0.840008
O O16 0.000000 0.000000 0.000000
O O17 0.500000 0.000000 0.000000
O O18 0.500000 0.500000 0.000000
#
# Coordination Sequence:
#
# PCOD9035759 Si02
#       8
#     2   2   2   2   2   2   2   2
#     4  12  24  43  68 103 145 183 236 290 348 423
#     4  12  24  45  68 100 145 190 233 288 348 424
#     4  11  24  45  70 101 141 183 238 296 351 426
#     4  12  24  46  74 102 143 185 238 296 359 421
#     4  10  22  46  71  98 140 183 235 298 355 413
#     4  11  23  43  71 101 139 183 234 299 358 414
#     4  12  22  39  71  99 140 192 228 278 358 420
#     4  12  24  45  73 102 144 191 234 296 356 422
#
# _framework density 23.582699999999999
#
# number of rings (size 3 to 8) (size 9 to 14) (size 15 to 20)
#    0.000    0.500    7.500    1.125    0.000    1.500 
#    2.250    1.250    0.000    0.000    0.000    0.000 
#    0.000    0.000    0.000    0.000    0.000    0.000 
#
# Total GULP energy -89391.379126 kJ/mol
# GULP energy per Si atom -5586.961195 kJ/mol
# Density = 2.352902 g / cm^3
# Si number density = 23.582700 Si / 1000 Ang^3
#
#
#
# Elastic Constant Matrix: (Units=GPa)
#
#
# Indices 1 2 3 4 5 6 
#
# 1 121.1048 37.6177 40.0019 0.7139 3.6700 28.0260
# 2 37.6177 126.8932 29.8636 20.1345 13.1129 7.6325
# 3 40.0019 29.8636 133.2442 9.8366 21.2906 4.8056
# 4 0.7139 20.1345 9.8366 46.9334 6.7096 3.4647
# 5 3.6700 13.1129 21.2906 6.7096 40.5464 14.0685
# 6 28.0260 7.6325 4.8056 3.4647 14.0685 42.3871
#
#
#
# Elastic Compliance Matrix: (Units=1/GPa)
#
#
# Indices 1 2 3 4 5 6 
#
# 1 0.012254 -0.003030 -0.003534 0.001864 0.004468 -0.008791
# 2 -0.003030 0.009687 -0.000655 -0.003736 -0.002394 0.001433
# 3 -0.003534 -0.000655 0.009546 -0.001131 -0.005427 0.003266
# 4 0.001864 -0.003736 -0.001131 0.023484 -0.001624 -0.001812
# 5 0.004468 -0.002394 -0.005427 -0.001624 0.032511 -0.012566
# 6 -0.008791 0.001433 0.003266 -0.001812 -0.012566 0.033095
#
#
# Mechanical properties :
#
#
# Convention : Reuss Voigt Hill
#
# Bulk Modulus (GPa) = 58.65587 66.24541 62.45064
# Shear Modulus (GPa) = 35.53712 44.22398 39.88055
#
# Velocity S-wave (km/s) = 3.88611 4.33514 4.11675
# Velocity P-wave (km/s) = 6.71284 7.29449 7.00970
#
# Compressibility (1/GPa) = 0.01704859
#
# Stress axis : x y z
#
# Youngs Moduli (GPa) = 81.60659 103.23236 104.75926
#
# Poissons Ratio (x) = 0.31276 0.37025
# Poissons Ratio (y) = 0.24724 0.06861
# Poissons Ratio (z) = 0.28842 0.06761
#
# Static dielectric constant tensor:
#      x y z
#    x 1.990090 -0.069730 -0.001580 
#    y -0.069730 1.996350 0.028580 
#    z -0.001580 0.028580 1.883240 
# 
# From -- ./inp_files/501134.got.cif
#   From: 2010.05.17/outbox.cif.g08.bks.cpg/sg2_251_cif.got.tgz:501134.got - 2010.06.03 11:33:40.
