data_PCOD9035300
_publ_section_title
;
Structure prediction by ZEFSAII (Michael W. Deem and Ramdas Pophale) SiO2 
 PCOD9035300
Probable space group: P -1
;
_chemical_formula_sum "Si O2"
_cell_formula_units_Z 16
_cell_length_a 5.162214
_cell_length_b 11.455940
_cell_length_c 15.540040
_cell_angle_alpha 61.680259
_cell_angle_beta 82.676274
_cell_angle_gamma 55.314249
_cell_volume 652.225689
_symmetry_space_group_name_H-M "P -1"
_symmetry_group_IT_number 2
_symmetry_cell_setting 'triclinic'
loop_
_space_group_symop_operation_xyz
x,y,z
-x,-y,-z
loop_
_atom_site_type_symbol
_atom_site_label
_atom_site_fract_x
_atom_site_fract_y
_atom_site_fract_z
Si Si1 0.063384 0.647348 0.635669
Si Si2 0.700895 0.478948 0.753359
Si Si3 0.711890 0.372014 0.110637
Si Si4 0.368846 0.887627 0.051437
Si Si5 0.557720 0.794399 0.897358
Si Si6 0.737842 0.992930 0.562061
Si Si7 0.164229 0.306719 0.557180
Si Si8 0.719293 0.830246 0.211428
O O1 0.442036 0.525321 0.674710
O O2 0.878909 0.565765 0.694938
O O3 0.924376 0.804818 0.649207
O O4 0.007766 0.699067 0.519404
O O5 0.483872 0.550274 0.821652
O O6 0.967540 0.286974 0.819824
O O7 0.685255 0.224843 0.138789
O O8 0.076154 0.316061 0.111884
O O9 0.500000 0.500000 0.000000
O O10 0.450851 0.829824 0.167137
O O11 0.550260 0.757499 0.012292
O O12 0.500000 0.000000 0.000000
O O13 0.000000 0.000000 0.000000
O O14 0.420805 0.983476 0.832425
O O15 0.500000 0.000000 0.500000
O O16 0.534010 0.153188 0.573479
O O17 0.000000 0.000000 0.500000
O O18 0.151801 0.259876 0.671507
O O19 0.000000 0.500000 0.500000
#
# Coordination Sequence:
#
# PCOD9035300 Si02
#       8
#     2   2   2   2   2   2   2   2
#     4  11  25  49  71 108 148 210 244 320 368 455
#     4  12  27  47  76 106 159 193 258 303 395 441
#     4  12  27  49  77 111 147 193 248 321 379 454
#     4  10  22  45  73 108 150 184 239 307 381 446
#     4  11  25  49  77 111 149 190 257 308 378 459
#     4  10  23  46  73  97 140 198 251 300 380 431
#     4  11  24  49  74 113 154 195 263 313 370 442
#     4  11  26  47  76 116 147 208 245 317 378 455
#
# _framework density 24.531385
#
# number of rings (size 3 to 8) (size 9 to 14) (size 15 to 20)
#    0.000    1.000    1.250    4.875    3.500    5.500 
#    2.250    0.000    0.000    0.000    0.000    0.000 
#    0.000    0.000    0.000    0.000    0.000    0.000 
#
# Total GULP energy -89391.011315 kJ/mol
# GULP energy per Si atom -5586.938207 kJ/mol
# Density = 2.447555 g / cm^3
# Si number density = 24.531385 Si / 1000 Ang^3
#
#
#
# Elastic Constant Matrix: (Units=GPa)
#
#
# Indices 1 2 3 4 5 6 
#
# 1 138.7336 23.2052 18.7819 -6.8819 2.7582 -13.8710
# 2 23.2052 148.9723 28.9743 -7.3948 -4.1545 -12.5896
# 3 18.7819 28.9743 128.4355 -5.3550 12.0063 -1.5044
# 4 -6.8819 -7.3948 -5.3550 51.6497 -2.0465 -1.5608
# 5 2.7582 -4.1545 12.0063 -2.0465 30.3218 -6.4285
# 6 -13.8710 -12.5896 -1.5044 -1.5608 -6.4285 35.1431
#
#
#
# Elastic Compliance Matrix: (Units=1/GPa)
#
#
# Indices 1 2 3 4 5 6 
#
# 1 0.007783 -0.000740 -0.000920 0.000931 0.000222 0.002849
# 2 -0.000740 0.007523 -0.001744 0.000980 0.002453 0.002820
# 3 -0.000920 -0.001744 0.008672 0.000335 -0.003843 -0.001305
# 4 0.000931 0.000980 0.000335 0.019784 0.001658 0.001915
# 5 0.000222 0.002453 -0.003843 0.001658 0.036531 0.007558
# 6 0.002849 0.002820 -0.001305 0.001915 0.007558 0.032002
#
#
# Mechanical properties :
#
#
# Convention : Reuss Voigt Hill
#
# Bulk Modulus (GPa) = 58.24397 62.00715 60.12556
# Shear Modulus (GPa) = 40.05580 46.43491 43.24536
#
# Velocity S-wave (km/s) = 4.04522 4.35544 4.20320
# Velocity P-wave (km/s) = 6.75371 7.11510 6.93676
#
# Compressibility (1/GPa) = 0.01716916
#
# Stress axis : x y z
#
# Youngs Moduli (GPa) = 128.48466 132.93295 115.31459
#
# Poissons Ratio (x) = 0.09841 0.10605
# Poissons Ratio (y) = 0.09512 0.20113
# Poissons Ratio (z) = 0.11817 0.23186
#
# Static dielectric constant tensor:
#      x y z
#    x 1.977780 0.026430 -0.025600 
#    y 0.026430 2.032110 -0.023380 
#    z -0.025600 -0.023380 2.075960 
# 
# From -- ./inp_files/482788.got.cif
#   From: 2010.05.17/outbox.cif.g08.bks.cpg/sg2_242_cif.got.tgz:482788.got - 2010.06.03 11:33:40.
