data_PCOD9035696
_publ_section_title
;
Structure prediction by ZEFSAII (Michael W. Deem and Ramdas Pophale) SiO2 
 PCOD9035696
Probable space group: P -1
;
_chemical_formula_sum "Si O2"
_cell_formula_units_Z 16
_cell_length_a 19.087171
_cell_length_b 11.578123
_cell_length_c 6.348858
_cell_angle_alpha 129.649911
_cell_angle_beta 53.067147
_cell_angle_gamma 141.687846
_cell_volume 654.801573
_symmetry_space_group_name_H-M "P -1"
_symmetry_group_IT_number 2
_symmetry_cell_setting 'triclinic'
loop_
_space_group_symop_operation_xyz
x,y,z
-x,-y,-z
loop_
_atom_site_type_symbol
_atom_site_label
_atom_site_fract_x
_atom_site_fract_y
_atom_site_fract_z
Si Si1 0.827924 0.632210 0.678123
Si Si2 0.338412 0.563130 0.642067
Si Si3 0.298043 0.272155 0.721447
Si Si4 0.983043 0.156843 0.702532
Si Si5 0.097237 0.567306 0.075926
Si Si6 0.585821 0.826152 0.312174
Si Si7 0.746086 0.276716 0.698724
Si Si8 0.745857 0.013862 0.877448
O O1 0.759914 0.583437 0.524011
O O2 0.962032 0.751707 0.522783
O O3 0.774558 0.424355 0.634812
O O4 0.802156 0.743107 0.004224
O O5 0.351719 0.444892 0.652136
O O6 0.454337 0.711246 0.470722
O O7 0.308710 0.676622 0.966909
O O8 0.379685 0.292196 0.776037
O O9 0.257720 0.084294 0.443273
O O10 0.851159 0.053367 0.858752
O O11 0.062381 0.354400 0.928640
O O12 0.000000 0.000000 0.500000
O O13 0.133355 0.655046 0.348154
O O14 0.208178 0.767595 0.991466
O O15 0.000000 0.500000 0.000000
O O16 0.661941 0.049367 0.523410
O O17 0.625954 0.866565 0.044457
#
# Coordination Sequence:
#
# PCOD9035696 Si02
#       8
#     2   2   2   2   2   2   2   2
#     4  11  25  45  71 101 136 187 231 276 353 402
#     4  11  25  45  70 100 144 179 229 297 332 400
#     4  11  24  44  68 103 138 182 235 281 341 413
#     4  11  22  43  72  97 137 177 218 283 342 401
#     4  10  22  46  70  97 141 176 216 293 341 398
#     4  12  25  43  71 104 136 187 232 277 352 404
#     4  11  24  46  73 103 135 179 237 280 341 420
#     4  11  25  44  66 100 144 176 225 289 337 408
#
# _framework density 24.434882999999999
#
# number of rings (size 3 to 8) (size 9 to 14) (size 15 to 20)
#    0.000    1.000    2.500    3.750    1.750    5.000 
#    4.500    3.750    0.000    0.000    0.000    0.000 
#    0.000    0.000    0.000    0.000    0.000    0.000 
#
# Total GULP energy -89289.261370 kJ/mol
# GULP energy per Si atom -5580.578836 kJ/mol
# Density = 2.437927 g / cm^3
# Si number density = 24.434883 Si / 1000 Ang^3
#
#
#
# Elastic Constant Matrix: (Units=GPa)
#
#
# Indices 1 2 3 4 5 6 
#
# 1 53.2443 16.7428 -10.9661 5.3623 -4.5098 -23.0679
# 2 16.7428 88.8270 5.7198 -8.0487 -13.4765 -13.9531
# 3 -10.9661 5.7198 108.7514 2.9510 -13.1494 0.7969
# 4 5.3623 -8.0487 2.9510 37.9309 1.4139 -9.8367
# 5 -4.5098 -13.4765 -13.1494 1.4139 26.6663 1.0611
# 6 -23.0679 -13.9531 0.7969 -9.8367 1.0611 41.8331
#
#
#
# Elastic Compliance Matrix: (Units=1/GPa)
#
#
# Indices 1 2 3 4 5 6 
#
# 1 0.026520 -0.002578 0.003271 -0.001264 0.004333 0.013294
# 2 -0.002578 0.013657 -0.000406 0.004100 0.005891 0.003956
# 3 0.003271 -0.000406 0.010229 -0.001278 0.005418 0.001035
# 4 -0.001264 0.004100 -0.001278 0.029520 -0.000642 0.007652
# 5 0.004333 0.005891 0.005418 -0.000642 0.043797 0.002989
# 6 0.013294 0.003956 0.001035 0.007652 0.002989 0.034259
#
#
# Mechanical properties :
#
#
# Convention : Reuss Voigt Hill
#
# Bulk Modulus (GPa) = 19.61665 30.42397 25.02031
# Shear Modulus (GPa) = 28.66955 37.24112 32.95533
#
# Velocity S-wave (km/s) = 3.42907 3.90820 3.67645
# Velocity P-wave (km/s) = 4.87069 5.73092 5.31823
#
# Compressibility (1/GPa) = 0.05097709
#
# Stress axis : x y z
#
# Youngs Moduli (GPa) = 37.70784 73.22488 97.76457
#
# Poissons Ratio (x) = 0.18879 -0.31974
# Poissons Ratio (y) = 0.09722 0.03972
# Poissons Ratio (z) = -0.12332 0.02975
#
# Static dielectric constant tensor:
#      x y z
#    x 2.061840 -0.054140 -0.032240 
#    y -0.054140 1.952620 -0.035270 
#    z -0.032240 -0.035270 1.992300 
# 
# From -- ./inp_files/118897.got.cif
#   From: 2010.05.17/outbox.cif.g08.bks.cpg/sg2_60_cif.got.tgz:118897.got - 2010.06.03 11:33:40.
