data_PCOD9035529
_publ_section_title
;
Structure prediction by ZEFSAII (Michael W. Deem and Ramdas Pophale) SiO2 
 PCOD9035529
Probable space group: P -1
;
_chemical_formula_sum "Si O2"
_cell_formula_units_Z 12
_cell_length_a 11.988006
_cell_length_b 15.881345
_cell_length_c 9.544263
_cell_angle_alpha 48.282580
_cell_angle_beta 142.917228
_cell_angle_gamma 148.932137
_cell_volume 564.478751
_symmetry_space_group_name_H-M "P -1"
_symmetry_group_IT_number 2
_symmetry_cell_setting 'triclinic'
loop_
_space_group_symop_operation_xyz
x,y,z
-x,-y,-z
loop_
_atom_site_type_symbol
_atom_site_label
_atom_site_fract_x
_atom_site_fract_y
_atom_site_fract_z
Si Si1 0.447653 0.960128 0.328076
Si Si2 0.582981 0.586131 0.338041
Si Si3 0.317398 0.129980 0.506121
Si Si4 0.295250 0.098493 0.840066
Si Si5 0.197396 0.499403 0.515852
Si Si6 0.883439 0.580506 0.157184
O O1 0.657352 0.965217 0.465794
O O2 0.157159 0.772869 0.221742
O O3 0.500000 0.000000 0.500000
O O4 0.440949 0.075235 0.112636
O O5 0.500000 0.500000 0.500000
O O6 0.650203 0.746954 0.242236
O O7 0.819408 0.615268 0.475319
O O8 0.334667 0.468188 0.112884
O O9 0.371044 0.113774 0.736829
O O10 0.541543 0.317292 0.476295
O O11 0.025112 0.056293 0.294199
O O12 0.222948 0.472945 0.731634
O O13 0.960692 0.487062 0.291019
#
# Coordination Sequence:
#
# PCOD9035529 Si02
#       6
#     2   2   2   2   2   2
#     4  11  26  45  69  97 131 176 222 268 329 388
#     4  12  25  42  68 101 132 173 221 266 331 391
#     4  10  23  46  68  94 135 174 220 270 326 385
#     4  11  25  42  69  97 134 173 218 270 329 389
#     4  10  22  46  67  94 131 178 216 273 325 381
#     4  10  25  44  69  93 137 171 221 273 322 387
#
# _framework density 21.258551000000001
#
# number of rings (size 3 to 8) (size 9 to 14) (size 15 to 20)
#    0.000    1.333    1.667    2.000   11.667    1.333 
#    0.000    0.000    0.000    0.000    0.000    0.000 
#    0.000    0.000    0.000    0.000    0.000    0.000 
#
# Total GULP energy -67148.331308 kJ/mol
# GULP energy per Si atom -5595.694276 kJ/mol
# Density = 2.121017 g / cm^3
# Si number density = 21.258551 Si / 1000 Ang^3
#
#
#
# Elastic Constant Matrix: (Units=GPa)
#
#
# Indices 1 2 3 4 5 6 
#
# 1 153.4862 18.3427 32.0723 -20.1922 -17.1373 -16.9184
# 2 18.3427 51.0331 4.9551 -9.9395 -8.4915 3.0799
# 3 32.0723 4.9551 90.5100 -24.0490 -12.2327 -4.8666
# 4 -20.1922 -9.9395 -24.0490 28.3386 -0.2359 5.7004
# 5 -17.1373 -8.4915 -12.2327 -0.2359 17.9293 -4.1197
# 6 -16.9184 3.0799 -4.8666 5.7004 -4.1197 44.5987
#
#
#
# Elastic Compliance Matrix: (Units=1/GPa)
#
#
# Indices 1 2 3 4 5 6 
#
# 1 0.008678 -0.000932 -0.000396 0.004893 0.008444 0.003468
# 2 -0.000932 0.024007 0.003637 0.011329 0.012675 -0.001892
# 3 -0.000396 0.003637 0.016875 0.015282 0.013221 0.000708
# 4 0.004893 0.011329 0.015282 0.056403 0.020622 -0.002563
# 5 0.008444 0.012675 0.013221 0.020622 0.081124 0.008628
# 6 0.003468 -0.001892 0.000708 -0.002563 0.008628 0.025070
#
#
# Mechanical properties :
#
#
# Convention : Reuss Voigt Hill
#
# Bulk Modulus (GPa) = 18.45745 45.08551 31.77148
# Shear Modulus (GPa) = 22.16332 34.15061 28.15696
#
# Velocity S-wave (km/s) = 3.23237 4.01239 3.64332
# Velocity P-wave (km/s) = 4.75733 6.53605 5.71630
#
# Compressibility (1/GPa) = 0.05417867
#
# Stress axis : x y z
#
# Youngs Moduli (GPa) = 115.23093 41.65527 59.25848
#
# Poissons Ratio (x) = 0.03882 0.02348
# Poissons Ratio (y) = 0.10738 -0.21555
# Poissons Ratio (z) = 0.04566 -0.15152
#
# Static dielectric constant tensor:
#      x y z
#    x 1.747920 -0.016760 0.024940 
#    y -0.016760 1.785740 0.001100 
#    z 0.024940 0.001100 1.722480 
# 
# From -- ./inp_files/163960.got.cif
#   From: 2010.05.17/outbox.cif.g08.bks.cpg/sg2_82_cif.got.tgz:163960.got - 2010.06.03 11:33:40.
