data_PCOD9035346
_publ_section_title
;
Structure prediction by ZEFSAII (Michael W. Deem and Ramdas Pophale) SiO2 
 PCOD9035346
Probable space group: P -1
;
_chemical_formula_sum "Si O2"
_cell_formula_units_Z 16
_cell_length_a 21.015506
_cell_length_b 12.195493
_cell_length_c 18.650689
_cell_angle_alpha 144.098197
_cell_angle_beta 161.072758
_cell_angle_gamma 27.757365
_cell_volume 710.433232
_symmetry_space_group_name_H-M "P -1"
_symmetry_group_IT_number 2
_symmetry_cell_setting 'triclinic'
loop_
_space_group_symop_operation_xyz
x,y,z
-x,-y,-z
loop_
_atom_site_type_symbol
_atom_site_label
_atom_site_fract_x
_atom_site_fract_y
_atom_site_fract_z
Si Si1 0.058786 0.332540 0.905431
Si Si2 0.924061 0.749589 0.906569
Si Si3 0.077486 0.217036 0.631720
Si Si4 0.482228 0.975439 0.265941
Si Si5 0.015452 0.103200 0.235874
Si Si6 0.154972 0.560773 0.649740
Si Si7 0.839333 0.402592 0.060686
Si Si8 0.289836 0.681124 0.577758
O O1 0.098719 0.466613 0.958753
O O2 0.843326 0.328440 0.640056
O O3 0.000000 0.500000 0.000000
O O4 0.299814 0.081205 0.058437
O O5 0.929080 0.769394 0.837738
O O6 0.664121 0.878246 0.740115
O O7 0.026003 0.876882 0.117784
O O8 0.193374 0.354638 0.837063
O O9 0.974158 0.286942 0.478190
O O10 0.860890 0.315530 0.513025
O O11 0.245027 0.931277 0.664564
O O12 0.610307 0.698857 0.263459
O O13 0.706475 0.987789 0.499756
O O14 0.832417 0.276247 0.195927
O O15 0.909849 0.264955 0.137613
O O16 0.000000 0.500000 0.500000
O O17 0.585050 0.470161 0.791271
#
# Coordination Sequence:
#
# PCOD9035346 Si02
#       8
#     2   2   2   2   2   2   2   2
#     4  10  24  47  66 102 139 183 236 283 350 418
#     4  11  26  44  70 101 138 196 229 280 362 411
#     4  11  24  48  71 108 143 187 234 293 362 416
#     4  10  24  46  70  99 146 176 232 303 339 419
#     4  11  26  45  69 111 134 187 237 287 360 418
#     4  10  22  45  74 105 139 179 239 293 355 412
#     4  12  25  46  72 105 145 179 245 290 348 432
#     4  11  27  46  72 104 143 190 236 291 357 416
#
# _framework density 22.521469
#
# number of rings (size 3 to 8) (size 9 to 14) (size 15 to 20)
#    0.000    1.250    3.750    0.750    8.750    5.500 
#    0.000    0.000    0.000    0.000    0.000    0.000 
#    0.000    0.000    0.000    0.000    0.000    0.000 
#
# Total GULP energy -89335.455219 kJ/mol
# GULP energy per Si atom -5583.465951 kJ/mol
# Density = 2.247021 g / cm^3
# Si number density = 22.521469 Si / 1000 Ang^3
#
#
#
# Elastic Constant Matrix: (Units=GPa)
#
#
# Indices 1 2 3 4 5 6 
#
# 1 188.8639 -8.1733 92.2595 -33.3919 -21.8626 -32.4666
# 2 -8.1733 59.1756 9.5866 6.1415 2.9428 4.0690
# 3 92.2595 9.5866 130.7001 -7.5831 -2.5084 -8.4194
# 4 -33.3919 6.1415 -7.5831 40.5567 3.7175 -1.0483
# 5 -21.8626 2.9428 -2.5084 3.7175 30.5333 6.9027
# 6 -32.4666 4.0690 -8.4194 -1.0483 6.9027 39.6078
#
#
#
# Elastic Compliance Matrix: (Units=1/GPa)
#
#
# Indices 1 2 3 4 5 6 
#
# 1 0.012759 0.001359 -0.007999 0.008500 0.005531 0.007879
# 2 0.001359 0.017802 -0.002470 -0.002031 -0.000422 -0.001220
# 3 -0.007999 -0.002470 0.013012 -0.003556 -0.003297 -0.003057
# 4 0.008500 -0.002031 -0.003556 0.031433 0.000545 0.007157
# 5 0.005531 -0.000422 -0.003297 0.000545 0.036993 -0.002556
# 6 0.007879 -0.001220 -0.003057 0.007157 -0.002556 0.031817
#
#
# Mechanical properties :
#
#
# Convention : Reuss Voigt Hill
#
# Bulk Modulus (GPa) = 39.44143 62.89836 51.16990
# Shear Modulus (GPa) = 29.32773 41.14401 35.23587
#
# Velocity S-wave (km/s) = 3.61253 4.27884 3.95973
# Velocity P-wave (km/s) = 5.91197 7.23879 6.60876
#
# Compressibility (1/GPa) = 0.02535405
#
# Stress axis : x y z
#
# Youngs Moduli (GPa) = 78.37721 56.17223 76.85095
#
# Poissons Ratio (x) = -0.07634 0.61474
# Poissons Ratio (y) = -0.10652 0.18980
# Poissons Ratio (z) = 0.62694 0.13873
#
# Static dielectric constant tensor:
#      x y z
#    x 1.854170 -0.017350 0.005760 
#    y -0.017350 1.870470 0.016710 
#    z 0.005760 0.016710 1.857290 
# 
# From -- ./inp_files/578005.got.cif
#   From: 2010.05.17/outbox.cif.g08.bks.cpg/sg2_290_cif.got.tgz:578005.got - 2010.06.03 11:33:40.
