data_PCOD9035593
_publ_section_title
;
Structure prediction by ZEFSAII (Michael W. Deem and Ramdas Pophale) SiO2 
 PCOD9035593
Probable space group: P -1
;
_chemical_formula_sum "Si O2"
_cell_formula_units_Z 16
_cell_length_a 5.808395
_cell_length_b 9.180747
_cell_length_c 20.307824
_cell_angle_alpha 38.614406
_cell_angle_beta 90.455198
_cell_angle_gamma 93.116851
_cell_volume 673.789148
_symmetry_space_group_name_H-M "P -1"
_symmetry_group_IT_number 2
_symmetry_cell_setting 'triclinic'
loop_
_space_group_symop_operation_xyz
x,y,z
-x,-y,-z
loop_
_atom_site_type_symbol
_atom_site_label
_atom_site_fract_x
_atom_site_fract_y
_atom_site_fract_z
Si Si1 0.291533 0.325997 0.534867
Si Si2 0.843637 0.112503 0.833689
Si Si3 0.523110 0.343540 0.842806
Si Si4 0.245879 0.950909 0.481447
Si Si5 0.516470 0.164391 0.296821
Si Si6 0.064999 0.448224 0.621825
Si Si7 0.524016 0.233676 0.115527
Si Si8 0.212530 0.882770 0.966801
O O1 0.500000 0.500000 0.500000
O O2 0.122313 0.322955 0.598250
O O3 0.179468 0.447607 0.430166
O O4 0.346290 0.064487 0.611695
O O5 0.702226 0.309701 0.796857
O O6 0.047496 0.258041 0.745187
O O7 0.684016 0.949347 0.843609
O O8 0.945776 0.934906 0.948666
O O9 0.404772 0.584808 0.760289
O O10 0.347369 0.119545 0.909944
O O11 0.678877 0.313816 0.919317
O O12 0.277555 0.092186 0.361840
O O13 0.500000 0.000000 0.500000
O O14 0.227758 0.675673 0.560240
O O15 0.000000 0.000000 0.500000
O O16 0.529124 0.204719 0.204134
O O17 0.732183 0.167325 0.091852
O O18 0.500000 0.500000 0.000000
#
# Coordination Sequence:
#
# PCOD9035593 Si02
#       8
#     2   2   2   2   2   2   2   2
#     4  11  23  45  72 102 143 197 247 319 387 455
#     4  11  24  43  72 102 143 195 244 302 391 445
#     4  10  23  43  69  99 143 185 246 300 370 456
#     4  12  28  49  74 114 158 204 261 326 387 474
#     4  12  24  47  76 104 145 202 247 317 394 443
#     4  11  25  45  70 105 149 189 259 312 380 475
#     4  11  24  46  70 107 147 187 254 313 368 463
#     4  10  22  46  69 100 140 191 237 306 371 444
#
# _framework density 23.746300999999999
#
# number of rings (size 3 to 8) (size 9 to 14) (size 15 to 20)
#    0.000    1.000    2.500    3.375    3.500    1.500 
#    4.500    0.000    0.000    0.000    0.000    0.000 
#    0.000    0.000    0.000    0.000    0.000    0.000 
#
# Total GULP energy -89328.466311 kJ/mol
# GULP energy per Si atom -5583.029144 kJ/mol
# Density = 2.369225 g / cm^3
# Si number density = 23.746301 Si / 1000 Ang^3
#
#
#
# Elastic Constant Matrix: (Units=GPa)
#
#
# Indices 1 2 3 4 5 6 
#
# 1 50.1958 34.7264 19.8291 0.9275 14.1498 -9.7746
# 2 34.7264 139.5328 52.9212 -12.2624 7.4427 -23.4390
# 3 19.8291 52.9212 114.1280 -0.3716 0.8655 -22.9488
# 4 0.9275 -12.2624 -0.3716 58.9854 -15.1035 3.2785
# 5 14.1498 7.4427 0.8655 -15.1035 35.5335 4.7290
# 6 -9.7746 -23.4390 -22.9488 3.2785 4.7290 37.1588
#
#
#
# Elastic Compliance Matrix: (Units=1/GPa)
#
#
# Indices 1 2 3 4 5 6 
#
# 1 0.029311 -0.005630 -0.001278 -0.005405 -0.013500 0.005564
# 2 -0.005630 0.010449 -0.003307 0.002273 0.000731 0.002774
# 3 -0.001278 -0.003307 0.011471 -0.000881 -0.000084 0.004750
# 4 -0.005405 0.002273 -0.000881 0.020506 0.010910 -0.003730
# 5 -0.013500 0.000731 -0.000084 0.010910 0.039215 -0.009095
# 6 0.005564 0.002774 0.004750 -0.003730 -0.009095 0.034545
#
#
# Mechanical properties :
#
#
# Convention : Reuss Voigt Hill
#
# Bulk Modulus (GPa) = 32.46855 57.64555 45.05705
# Shear Modulus (GPa) = 28.37759 39.42753 33.90256
#
# Velocity S-wave (km/s) = 3.46067 4.07918 3.78259
# Velocity P-wave (km/s) = 5.44712 6.82016 6.17194
#
# Compressibility (1/GPa) = 0.03079903
#
# Stress axis : x y z
#
# Youngs Moduli (GPa) = 34.11703 95.70155 87.17825
#
# Poissons Ratio (x) = 0.53882 0.11143
# Poissons Ratio (y) = 0.19209 0.28834
# Poissons Ratio (z) = 0.04361 0.31653
#
# Static dielectric constant tensor:
#      x y z
#    x 2.002610 -0.048580 0.020610 
#    y -0.048580 1.908200 0.039890 
#    z 0.020610 0.039890 1.940980 
# 
# From -- ./inp_files/139045.got.cif
#   From: 2010.05.17/outbox.cif.g08.bks.cpg/sg2_70_cif.got.tgz:139045.got - 2010.06.03 11:33:40.
