data_PCOD9035156
_publ_section_title
;
Structure prediction by ZEFSAII (Michael W. Deem and Ramdas Pophale) SiO2 
 PCOD9035156
Probable space group: P -1
;
_chemical_formula_sum "Si O2"
_cell_formula_units_Z 10
_cell_length_a 6.408013
_cell_length_b 12.866950
_cell_length_c 13.154539
_cell_angle_alpha 23.649695
_cell_angle_beta 76.148836
_cell_angle_gamma 80.120098
_cell_volume 419.252043
_symmetry_space_group_name_H-M "P -1"
_symmetry_group_IT_number 2
_symmetry_cell_setting 'triclinic'
loop_
_space_group_symop_operation_xyz
x,y,z
-x,-y,-z
loop_
_atom_site_type_symbol
_atom_site_label
_atom_site_fract_x
_atom_site_fract_y
_atom_site_fract_z
Si Si1 0.808940 0.670314 0.481420
Si Si2 0.657987 0.831218 0.694776
Si Si3 0.347306 0.902079 0.012938
Si Si4 0.052567 0.733064 0.598201
Si Si5 0.416881 0.416518 0.874559
O O1 0.789093 0.880888 0.208899
O O2 0.585438 0.640485 0.601471
O O3 0.994410 0.749839 0.471210
O O4 0.798676 0.375675 0.703380
O O5 0.834495 0.726219 0.695221
O O6 0.500000 0.000000 0.500000
O O7 0.794188 0.032959 0.576865
O O8 0.553035 0.617729 0.978886
O O9 0.500000 0.000000 0.000000
O O10 0.510943 0.832169 0.968025
O O11 0.175853 0.479451 0.825574
#
# Coordination Sequence:
#
# PCOD9035156 Si02
#       5
#     2   2   2   2   2
#     4  10  24  42  70  95 134 167 219 266 328 381
#     4  11  24  40  64  93 139 174 222 257 330 382
#     4  10  22  45  71  95 129 172 214 271 330 385
#     4  11  23  39  63  99 131 175 217 267 318 388
#     4  10  23  39  66  92 136 165 224 263 327 374
#
# _framework density 23.852001000000001
#
# number of rings (size 3 to 8) (size 9 to 14) (size 15 to 20)
#    1.200    0.400    0.000    4.800    2.800    4.800 
#    0.000    2.000    0.000    0.000    0.000    0.000 
#    0.000    0.000    0.000    0.000    0.000    0.000 
#
# Total GULP energy -55891.536343 kJ/mol
# GULP energy per Si atom -5589.153634 kJ/mol
# Density = 2.379771 g / cm^3
# Si number density = 23.852001 Si / 1000 Ang^3
#
#
#
# Elastic Constant Matrix: (Units=GPa)
#
#
# Indices 1 2 3 4 5 6 
#
# 1 112.4863 29.7178 54.9033 -0.0948 20.0881 19.4083
# 2 29.7178 84.9009 35.1141 3.6107 21.2922 28.9459
# 3 54.9033 35.1141 178.1143 2.2070 33.5531 15.4425
# 4 -0.0948 3.6107 2.2070 32.6217 4.3610 11.0090
# 5 20.0881 21.2922 33.5531 4.3610 44.1653 5.8151
# 6 19.4083 28.9459 15.4425 11.0090 5.8151 63.0310
#
#
#
# Elastic Compliance Matrix: (Units=1/GPa)
#
#
# Indices 1 2 3 4 5 6 
#
# 1 0.011365 -0.001676 -0.002579 0.001416 -0.002260 -0.002137
# 2 -0.001676 0.016356 -0.001122 0.001165 -0.005541 -0.006412
# 3 -0.002579 -0.001122 0.007375 0.000196 -0.003885 -0.000173
# 4 0.001416 0.001165 0.000196 0.033205 -0.003782 -0.006470
# 5 -0.002260 -0.005541 -0.003885 -0.003782 0.029385 0.002142
# 6 -0.002137 -0.006412 -0.000173 -0.006470 0.002142 0.020443
#
#
# Mechanical properties :
#
#
# Convention : Reuss Voigt Hill
#
# Bulk Modulus (GPa) = 41.08495 68.33021 54.70758
# Shear Modulus (GPa) = 36.49686 45.01467 40.75577
#
# Velocity S-wave (km/s) = 3.91594 4.34896 4.13812
# Velocity P-wave (km/s) = 6.14072 7.34355 6.76891
#
# Compressibility (1/GPa) = 0.02433981
#
# Stress axis : x y z
#
# Youngs Moduli (GPa) = 87.98728 61.14127 135.58922
#
# Poissons Ratio (x) = 0.10249 0.34974
# Poissons Ratio (y) = 0.14749 0.15219
# Poissons Ratio (z) = 0.22695 0.06863
#
# Static dielectric constant tensor:
#      x y z
#    x 1.939260 0.038100 -0.108140 
#    y 0.038100 1.932910 -0.054920 
#    z -0.108140 -0.054920 1.958630 
# 
# From -- ./inp_files/2758.got.cif
#   From: 2010.05.17/outbox.cif.g08.bks.cpg/sg2_2_cif.got.tgz:2758.got - 2010.06.03 11:33:40.
