data_PCOD9035560
_publ_section_title
;
Structure prediction by ZEFSAII (Michael W. Deem and Ramdas Pophale) SiO2 
 PCOD9035560
Probable space group: P -1
;
_chemical_formula_sum "Si O2"
_cell_formula_units_Z 16
_cell_length_a 14.458002
_cell_length_b 11.817793
_cell_length_c 10.239417
_cell_angle_alpha 61.521733
_cell_angle_beta 123.571924
_cell_angle_gamma 69.394063
_cell_volume 694.078923
_symmetry_space_group_name_H-M "P -1"
_symmetry_group_IT_number 2
_symmetry_cell_setting 'triclinic'
loop_
_space_group_symop_operation_xyz
x,y,z
-x,-y,-z
loop_
_atom_site_type_symbol
_atom_site_label
_atom_site_fract_x
_atom_site_fract_y
_atom_site_fract_z
Si Si1 0.850219 0.031986 0.322605
Si Si2 0.567813 0.287650 0.198204
Si Si3 0.285669 0.302244 0.255085
Si Si4 0.733748 0.937140 0.711751
Si Si5 0.911580 0.366813 0.638458
Si Si6 0.666815 0.536793 0.584602
Si Si7 0.230564 0.848874 0.084530
Si Si8 0.158055 0.518557 0.758105
O O1 0.972719 0.792532 0.496222
O O2 0.714012 0.117655 0.286005
O O3 0.000000 0.000000 0.500000
O O4 0.732851 0.202878 0.013569
O O5 0.689086 0.121471 0.513349
O O6 0.500000 0.500000 0.000000
O O7 0.364141 0.402099 0.975454
O O8 0.243390 0.193594 0.313093
O O9 0.232018 0.463916 0.230585
O O10 0.527655 0.091223 0.538684
O O11 0.187241 0.412235 0.973401
O O12 0.920698 0.753680 0.058276
O O13 0.704124 0.555542 0.457619
O O14 0.878261 0.487195 0.417684
O O15 0.021295 0.127705 0.803238
O O16 0.434161 0.732575 0.341734
O O17 0.770949 0.295036 0.788325
#
# Coordination Sequence:
#
# PCOD9035560 Si02
#       8
#     2   2   2   2   2   2   2   2
#     4  11  21  36  60  92 129 167 211 261 319 392
#     4  11  23  39  64  94 131 165 214 268 326 379
#     4  10  22  46  68  91 131 177 222 263 322 387
#     4  10  24  42  69  94 129 176 221 268 319 385
#     4  11  23  40  62  98 131 165 218 270 321 382
#     4  11  22  38  67  90 131 170 214 268 325 385
#     4  10  23  38  59  95 132 169 208 268 334 376
#     4  10  23  41  62  92 131 170 210 266 327 380
#
# _framework density 23.052133999999999
#
# number of rings (size 3 to 8) (size 9 to 14) (size 15 to 20)
#    0.000    1.500    2.500    1.875    5.250    2.000 
#    0.000    0.000    0.000    3.000    0.000    0.000 
#    0.000    0.000    0.000    0.000    0.000    0.000 
#
# Total GULP energy -89222.697266 kJ/mol
# GULP energy per Si atom -5576.418579 kJ/mol
# Density = 2.299967 g / cm^3
# Si number density = 23.052134 Si / 1000 Ang^3
#
#
#
# Elastic Constant Matrix: (Units=GPa)
#
#
# Indices 1 2 3 4 5 6 
#
# 1 69.1165 41.4640 12.5554 2.2199 -12.4790 -8.7311
# 2 41.4640 96.4239 15.3289 12.1289 -7.6292 -5.4724
# 3 12.5554 15.3289 69.2919 23.5563 -12.8058 -0.7632
# 4 2.2199 12.1289 23.5563 30.1395 -8.6795 5.1386
# 5 -12.4790 -7.6292 -12.8058 -8.6795 20.5698 -2.8006
# 6 -8.7311 -5.4724 -0.7632 5.1386 -2.8006 41.1517
#
#
#
# Elastic Compliance Matrix: (Units=1/GPa)
#
#
# Indices 1 2 3 4 5 6 
#
# 1 0.022793 -0.009114 -0.001986 0.006509 0.012451 0.003622
# 2 -0.009114 0.014903 -0.000012 -0.006151 -0.002517 0.000645
# 3 -0.001986 -0.000012 0.020979 -0.014941 0.005851 0.002230
# 4 0.006509 -0.006151 -0.014941 0.051615 0.013430 -0.005245
# 5 0.012451 -0.002517 0.005851 0.013430 0.065249 0.005179
# 6 0.003622 0.000645 0.002230 -0.005245 0.005179 0.026203
#
#
# Mechanical properties :
#
#
# Convention : Reuss Voigt Hill
#
# Bulk Modulus (GPa) = 27.43342 41.50320 34.46831
# Shear Modulus (GPa) = 21.17595 29.40448 25.29022
#
# Velocity S-wave (km/s) = 3.03415 3.57538 3.31583
# Velocity P-wave (km/s) = 4.91947 5.92348 5.44467
#
# Compressibility (1/GPa) = 0.03645189
#
# Stress axis : x y z
#
# Youngs Moduli (GPa) = 43.87318 67.10005 47.66572
#
# Poissons Ratio (x) = 0.61153 0.09465
# Poissons Ratio (y) = 0.39985 0.00059
# Poissons Ratio (z) = 0.08711 0.00083
#
# Static dielectric constant tensor:
#      x y z
#    x 1.952780 0.026430 -0.014140 
#    y 0.026430 1.893890 -0.002540 
#    z -0.014140 -0.002540 1.929260 
# 
# From -- ./inp_files/307145.got.cif
#   From: 2010.05.17/outbox.cif.g08.bks.cpg/sg2_154_cif.got.tgz:307145.got - 2010.06.03 11:33:40.
