data_PCOD9035013
_publ_section_title
;
Structure prediction by ZEFSAII (Michael W. Deem and Ramdas Pophale) SiO2 
 PCOD9035013
Probable space group: P -1
;
_chemical_formula_sum "Si O2"
_cell_formula_units_Z 16
_cell_length_a 7.523173
_cell_length_b 13.385166
_cell_length_c 8.002480
_cell_angle_alpha 107.474062
_cell_angle_beta 109.301745
_cell_angle_gamma 69.252880
_cell_volume 695.739062
_symmetry_space_group_name_H-M "P -1"
_symmetry_group_IT_number 2
_symmetry_cell_setting 'triclinic'
loop_
_space_group_symop_operation_xyz
x,y,z
-x,-y,-z
loop_
_atom_site_type_symbol
_atom_site_label
_atom_site_fract_x
_atom_site_fract_y
_atom_site_fract_z
Si Si1 0.396492 0.407139 0.875716
Si Si2 0.083472 0.162568 0.959234
Si Si3 0.873954 0.874660 0.413443
Si Si4 0.029004 0.355541 0.815745
Si Si5 0.410760 0.603923 0.411720
Si Si6 0.346793 0.828796 0.052418
Si Si7 0.367192 0.052193 0.293718
Si Si8 0.304046 0.840636 0.651288
O O1 0.168794 0.432448 0.869789
O O2 0.437073 0.390339 0.683362
O O3 0.500000 0.500000 0.000000
O O4 0.508523 0.291483 0.937195
O O5 0.576408 0.075760 0.797100
O O6 0.211245 0.112478 0.132711
O O7 0.860263 0.163360 0.920459
O O8 0.074766 0.287009 0.969072
O O9 0.898657 0.743811 0.346711
O O10 0.732835 0.926081 0.546109
O O11 0.087711 0.885335 0.531622
O O12 0.838281 0.903592 0.220195
O O13 0.796720 0.400261 0.736591
O O14 0.500000 0.500000 0.500000
O O15 0.367855 0.712807 0.561840
O O16 0.309541 0.852227 0.857429
O O17 0.543614 0.105173 0.358266
#
# Coordination Sequence:
#
# PCOD9035013 Si02
#       8
#     2   2   2   2   2   2   2   2
#     4  12  25  47  72 101 139 185 239 299 358 429
#     4  10  22  45  70 102 147 185 238 289 354 431
#     4   9  22  44  68  99 146 185 236 282 359 421
#     4   9  22  46  71 101 141 185 232 293 365 420
#     4  11  24  47  70 103 140 181 247 300 355 428
#     4  12  24  45  70 105 142 185 246 293 351 427
#     4  12  24  44  72 103 147 196 234 294 356 426
#     4  11  23  44  70 104 143 190 237 293 362 425
#
# _framework density 22.997126000000002
#
# number of rings (size 3 to 8) (size 9 to 14) (size 15 to 20)
#    0.750    0.500    2.500    3.000    0.000    1.500 
#    4.500    3.125    0.000    0.000    0.000    0.000 
#    0.000    0.000    0.000    0.000    0.000    0.000 
#
# Total GULP energy -89613.532925 kJ/mol
# GULP energy per Si atom -5600.845808 kJ/mol
# Density = 2.294478 g / cm^3
# Si number density = 22.997126 Si / 1000 Ang^3
#
#
#
# Elastic Constant Matrix: (Units=GPa)
#
#
# Indices 1 2 3 4 5 6 
#
# 1 180.2435 37.2677 41.0139 1.7051 -2.6535 18.3723
# 2 37.2677 113.1452 30.9960 -13.4164 6.3876 12.9845
# 3 41.0139 30.9960 134.2970 -12.6434 -18.3610 1.2530
# 4 1.7051 -13.4164 -12.6434 48.2860 0.9677 3.3508
# 5 -2.6535 6.3876 -18.3610 0.9677 41.1759 10.5158
# 6 18.3723 12.9845 1.2530 3.3508 10.5158 28.3214
#
#
#
# Elastic Compliance Matrix: (Units=1/GPa)
#
#
# Indices 1 2 3 4 5 6 
#
# 1 0.006622 -0.001455 -0.001600 -0.000811 0.000930 -0.003808
# 2 -0.001455 0.010696 -0.001975 0.002788 -0.001796 -0.003536
# 3 -0.001600 -0.001975 0.009156 0.001838 0.004315 -0.000281
# 4 -0.000811 0.002788 0.001838 0.022239 0.000770 -0.003750
# 5 0.000930 -0.001796 0.004315 0.000770 0.029327 -0.010951
# 6 -0.003808 -0.003536 -0.000281 -0.003750 -0.010951 0.043922
#
#
# Mechanical properties :
#
#
# Convention : Reuss Voigt Hill
#
# Bulk Modulus (GPa) = 60.91798 71.80453 66.36126
# Shear Modulus (GPa) = 36.36498 44.78387 40.57442
#
# Velocity S-wave (km/s) = 3.98085 4.41769 4.20494
# Velocity P-wave (km/s) = 6.90481 7.57049 7.24530
#
# Compressibility (1/GPa) = 0.01641551
#
# Stress axis : x y z
#
# Youngs Moduli (GPa) = 151.00060 93.49334 109.21457
#
# Poissons Ratio (x) = 0.13600 0.17479
# Poissons Ratio (y) = 0.21965 0.21565
# Poissons Ratio (z) = 0.24167 0.18461
#
# Static dielectric constant tensor:
#      x y z
#    x 1.853780 -0.005840 0.021570 
#    y -0.005840 1.904650 0.026720 
#    z 0.021570 0.026720 1.832390 
# 
# From -- ./inp_files/37284.got.cif
#   From: 2010.05.17/outbox.cif.g08.bks.cpg/sg2_19_cif.got.tgz:37284.got - 2010.06.03 11:33:40.
