data_PCOD9035840
_publ_section_title
;
Structure prediction by ZEFSAII (Michael W. Deem and Ramdas Pophale) SiO2 
 PCOD9035840
Probable space group: P -1
;
_chemical_formula_sum "Si O2"
_cell_formula_units_Z 14
_cell_length_a 8.216888
_cell_length_b 9.395548
_cell_length_c 10.701663
_cell_angle_alpha 115.397019
_cell_angle_beta 54.132653
_cell_angle_gamma 125.851756
_cell_volume 538.032220
_symmetry_space_group_name_H-M "P -1"
_symmetry_group_IT_number 2
_symmetry_cell_setting 'triclinic'
loop_
_space_group_symop_operation_xyz
x,y,z
-x,-y,-z
loop_
_atom_site_type_symbol
_atom_site_label
_atom_site_fract_x
_atom_site_fract_y
_atom_site_fract_z
Si Si1 0.986183 0.570917 0.224995
Si Si2 0.500000 0.500000 0.500000
Si Si3 0.340349 0.112332 0.312679
Si Si4 0.068210 0.216893 0.310407
Si Si5 0.614344 0.448208 0.816017
Si Si6 0.000000 0.000000 0.000000
Si Si7 0.216285 0.792923 0.975665
Si Si8 0.369988 0.852762 0.401677
O O1 0.770808 0.569877 0.383893
O O2 0.901005 0.392810 0.115492
O O3 0.168540 0.563035 0.233021
O O4 0.114000 0.736499 0.137528
O O5 0.449364 0.291770 0.413393
O O6 0.113392 0.095321 0.343925
O O7 0.518147 0.142102 0.132042
O O8 0.333612 0.954028 0.339381
O O9 0.303769 0.399491 0.266290
O O10 0.870065 0.258372 0.464294
O O11 0.016776 0.133741 0.164172
O O12 0.487054 0.253698 0.739344
O O13 0.500000 0.500000 0.000000
O O14 0.142913 0.924376 0.989352
O O15 0.500000 0.000000 0.500000
#
# Coordination Sequence:
#
# PCOD9035840 Si02
#       8
#     2   1   2   2   2   1   2   2
#     4  10  22  46  73 106 152 204 259 309 391 470
#     4  10  24  44  80 108 152 206 264 318 402 476
#     4  11  26  48  75 113 154 209 259 324 401 476
#     4  12  28  50  78 112 164 209 265 328 401 475
#     4  12  28  50  80 117 156 213 265 326 396 480
#     4  12  26  44  78 114 150 202 262 332 382 466
#     4  10  23  44  72 107 152 198 255 327 381 464
#     4  12  30  49  80 116 162 205 267 333 398 473
#
# _framework density 26.020747
#
# number of rings (size 3 to 8) (size 9 to 14) (size 15 to 20)
#    0.000    0.857    1.429    3.429   12.000    0.571 
#    0.000    0.000    0.000    0.000    0.000    0.000 
#    0.000    0.000    0.000    0.000    0.000    0.000 
#
# Total GULP energy -78004.820809 kJ/mol
# GULP energy per Si atom -5571.772915 kJ/mol
# Density = 2.596152 g / cm^3
# Si number density = 26.020747 Si / 1000 Ang^3
#
#
#
# Elastic Constant Matrix: (Units=GPa)
#
#
# Indices 1 2 3 4 5 6 
#
# 1 83.7656 4.8894 29.5013 -5.6398 -4.6743 -20.5118
# 2 4.8894 93.0187 61.8404 19.8089 -2.1986 -13.6010
# 3 29.5013 61.8404 160.4574 34.4629 -20.3100 -6.5577
# 4 -5.6398 19.8089 34.4629 51.6698 10.7803 1.7982
# 5 -4.6743 -2.1986 -20.3100 10.7803 53.0924 8.4280
# 6 -20.5118 -13.6010 -6.5577 1.7982 8.4280 37.6111
#
#
#
# Elastic Compliance Matrix: (Units=1/GPa)
#
#
# Indices 1 2 3 4 5 6 
#
# 1 0.015862 0.002786 -0.004831 0.004114 -0.002633 0.009209
# 2 0.002786 0.016123 -0.006468 -0.001303 -0.002379 0.006817
# 3 -0.004831 -0.006468 0.011670 -0.006903 0.005793 -0.003907
# 4 0.004114 -0.001303 -0.006903 0.026515 -0.007886 0.001068
# 5 -0.002633 -0.002379 0.005793 -0.007886 0.023295 -0.006129
# 6 0.009209 0.006817 -0.003907 0.001068 -0.006129 0.034717
#
#
# Mechanical properties :
#
#
# Convention : Reuss Voigt Hill
#
# Bulk Modulus (GPa) = 37.55493 58.85600 48.20546
# Shear Modulus (GPa) = 32.45016 44.54206 38.49611
#
# Velocity S-wave (km/s) = 3.53524 4.14187 3.85052
# Velocity P-wave (km/s) = 5.57924 6.74844 6.19150
#
# Compressibility (1/GPa) = 0.02662767
#
# Stress axis : x y z
#
# Youngs Moduli (GPa) = 63.04456 62.02505 85.69341
#
# Poissons Ratio (x) = -0.17279 0.41394
# Poissons Ratio (y) = -0.17563 0.55430
# Poissons Ratio (z) = 0.30454 0.40120
#
# Static dielectric constant tensor:
#      x y z
#    x 1.961610 0.074600 0.049680 
#    y 0.074600 2.194800 0.039650 
#    z 0.049680 0.039650 2.043810 
# 
# From -- ./inp_files/157618.got.cif
#   From: 2010.05.17/outbox.cif.g08.bks.cpg/sg2_79_cif.got.tgz:157618.got - 2010.06.03 11:33:40.
