data_PCOD9035242
_publ_section_title
;
Structure prediction by ZEFSAII (Michael W. Deem and Ramdas Pophale) SiO2 
 PCOD9035242
Probable space group: P -1
;
_chemical_formula_sum "Si O2"
_cell_formula_units_Z 14
_cell_length_a 12.683697
_cell_length_b 7.216687
_cell_length_c 14.969807
_cell_angle_alpha 132.985019
_cell_angle_beta 47.893116
_cell_angle_gamma 141.688702
_cell_volume 593.010291
_symmetry_space_group_name_H-M "P -1"
_symmetry_group_IT_number 2
_symmetry_cell_setting 'triclinic'
loop_
_space_group_symop_operation_xyz
x,y,z
-x,-y,-z
loop_
_atom_site_type_symbol
_atom_site_label
_atom_site_fract_x
_atom_site_fract_y
_atom_site_fract_z
Si Si1 0.963101 0.399280 0.386695
Si Si2 0.239094 0.584652 0.148696
Si Si3 0.499728 0.241080 0.242518
Si Si4 0.501660 0.773231 0.200917
Si Si5 0.368000 0.634564 0.429655
Si Si6 0.898268 0.735836 0.178192
Si Si7 0.911555 0.228725 0.091538
O O1 0.816811 0.448734 0.460428
O O2 0.000000 0.500000 0.500000
O O3 0.131552 0.606971 0.296347
O O4 0.908763 0.043979 0.295942
O O5 0.374868 0.550383 0.116343
O O6 0.079107 0.331201 0.091877
O O7 0.371467 0.940718 0.151531
O O8 0.420899 0.425565 0.371910
O O9 0.698439 0.478150 0.169849
O O10 0.512906 0.082979 0.271441
O O11 0.397596 0.618588 0.301136
O O12 0.712586 0.930682 0.137307
O O13 0.500000 0.000000 0.500000
O O14 0.919004 0.544993 0.180747
O O15 0.044320 0.825665 0.050204
#
# Coordination Sequence:
#
# PCOD9035242 Si02
#       7
#     2   2   2   2   2   2   2
#     4  12  24  42  63  99 138 172 227 278 332 407
#     4  10  23  43  65 100 136 174 225 279 339 398
#     4   9  22  43  63  97 134 174 222 276 339 395
#     4   9  22  44  62 102 135 167 230 280 331 404
#     4  12  22  40  67  95 133 184 223 271 343 401
#     4  10  23  45  69  97 135 178 226 283 334 409
#     4  10  22  45  72  95 136 178 226 280 347 392
#
# _framework density 23.608357999999999
#
# number of rings (size 3 to 8) (size 9 to 14) (size 15 to 20)
#    0.857    0.857    2.857    0.857    2.000    2.286 
#    7.714    0.714    0.000    0.000    0.000    0.000 
#    0.000    0.000    0.000    0.000    0.000    0.000 
#
# Total GULP energy -78083.185370 kJ/mol
# GULP energy per Si atom -5577.370384 kJ/mol
# Density = 2.355462 g / cm^3
# Si number density = 23.608358 Si / 1000 Ang^3
#
#
#
# Elastic Constant Matrix: (Units=GPa)
#
#
# Indices 1 2 3 4 5 6 
#
# 1 93.6266 28.5145 33.4447 2.5226 -23.5450 16.6000
# 2 28.5145 110.1388 32.5731 -5.3676 -5.3855 26.5152
# 3 33.4447 32.5731 90.4360 -10.9166 -22.9657 9.5526
# 4 2.5226 -5.3676 -10.9166 41.9945 12.4331 -3.6945
# 5 -23.5450 -5.3855 -22.9657 12.4331 43.1872 -1.0668
# 6 16.6000 26.5152 9.5526 -3.6945 -1.0668 46.8665
#
#
#
# Elastic Compliance Matrix: (Units=1/GPa)
#
#
# Indices 1 2 3 4 5 6 
#
# 1 0.015066 -0.001916 -0.003114 -0.004522 0.007526 -0.003802
# 2 -0.001916 0.011784 -0.003312 0.000797 -0.001696 -0.005289
# 3 -0.003114 -0.003312 0.014967 0.002121 0.005243 0.000213
# 4 -0.004522 0.000797 0.002121 0.027681 -0.009141 0.002692
# 5 0.007526 -0.001696 0.005243 -0.009141 0.032398 -0.002758
# 6 -0.003802 -0.005289 0.000213 0.002692 -0.002758 0.025783
#
#
# Mechanical properties :
#
#
# Convention : Reuss Voigt Hill
#
# Bulk Modulus (GPa) = 39.78928 53.69623 46.74275
# Shear Modulus (GPa) = 32.73541 39.72090 36.22816
#
# Velocity S-wave (km/s) = 3.72775 4.10627 3.92158
# Velocity P-wave (km/s) = 5.95136 6.72874 6.35195
#
# Compressibility (1/GPa) = 0.02513240
#
# Stress axis : x y z
#
# Youngs Moduli (GPa) = 66.37659 84.85944 66.81370
#
# Poissons Ratio (x) = 0.16262 0.20807
# Poissons Ratio (y) = 0.12720 0.22126
# Poissons Ratio (z) = 0.20671 0.28102
#
# Static dielectric constant tensor:
#      x y z
#    x 1.915820 -0.058420 0.029830 
#    y -0.058420 1.760940 0.121540 
#    z 0.029830 0.121540 1.831610 
# 
# From -- ./inp_files/572933.got.cif
#   From: 2010.05.17/outbox.cif.g08.bks.cpg/sg2_287_cif.got.tgz:572933.got - 2010.06.03 11:33:40.
