data_PCOD9035537
_publ_section_title
;
Structure prediction by ZEFSAII (Michael W. Deem and Ramdas Pophale) SiO2 
 PCOD9035537
Probable space group: P -1
;
_chemical_formula_sum "Si O2"
_cell_formula_units_Z 16
_cell_length_a 12.691630
_cell_length_b 11.858097
_cell_length_c 9.040502
_cell_angle_alpha 79.595152
_cell_angle_beta 49.951710
_cell_angle_gamma 62.061235
_cell_volume 905.323992
_symmetry_space_group_name_H-M "P -1"
_symmetry_group_IT_number 2
_symmetry_cell_setting 'triclinic'
loop_
_space_group_symop_operation_xyz
x,y,z
-x,-y,-z
loop_
_atom_site_type_symbol
_atom_site_label
_atom_site_fract_x
_atom_site_fract_y
_atom_site_fract_z
Si Si1 0.656723 0.227326 0.204805
Si Si2 0.124336 0.908467 0.238017
Si Si3 0.929775 0.402204 0.567668
Si Si4 0.199486 0.627576 0.769089
Si Si5 0.950347 0.687444 0.207175
Si Si6 0.698383 0.585486 0.512092
Si Si7 0.874700 0.976808 0.215672
Si Si8 0.983583 0.186015 0.372548
O O1 0.708489 0.325450 0.213888
O O2 0.472980 0.301242 0.331853
O O3 0.715262 0.102321 0.290351
O O4 0.749746 0.174358 0.978993
O O5 0.127166 0.834333 0.402544
O O6 0.950544 0.956988 0.313988
O O7 0.121719 0.044578 0.244477
O O8 0.765423 0.486614 0.614489
O O9 0.027429 0.286104 0.392856
O O10 0.000000 0.500000 0.500000
O O11 0.945846 0.342695 0.729600
O O12 0.297140 0.500622 0.613223
O O13 0.108714 0.744236 0.707338
O O14 0.067988 0.613974 0.986040
O O15 0.819643 0.642039 0.359555
O O16 0.878696 0.841208 0.205303
O O17 0.000000 0.000000 0.000000
#
# Coordination Sequence:
#
# PCOD9035537 Si02
#       8
#     2   2   2   2   2   2   2   2
#     4  11  20  37  54  84 118 144 177 230 290 320
#     4  10  18  32  57  81 108 142 185 236 263 322
#     4   9  19  36  56  77 110 147 180 220 266 334
#     4  11  19  35  57  82 111 147 186 229 264 334
#     4  11  19  38  61  80 106 150 191 224 275 323
#     4  10  24  35  54  85 116 147 182 226 276 335
#     4  10  17  32  59  79 101 144 181 228 267 327
#     4  10  18  31  56  89  98 134 201 229 258 312
#
# _framework density 17.673231000000001
#
# number of rings (size 3 to 8) (size 9 to 14) (size 15 to 20)
#    0.000    1.750    5.000    1.500    0.000    0.500 
#    0.000    6.875    0.000    3.000    0.000    0.000 
#    0.000    0.000    0.000    0.000    0.000    0.000 
#
# Total GULP energy -89136.195773 kJ/mol
# GULP energy per Si atom -5571.012236 kJ/mol
# Density = 1.763301 g / cm^3
# Si number density = 17.673231 Si / 1000 Ang^3
#
#
#
# Elastic Constant Matrix: (Units=GPa)
#
#
# Indices 1 2 3 4 5 6 
#
# 1 61.8570 32.4947 46.7111 11.1246 10.6852 -3.8574
# 2 32.4947 98.3914 37.7394 11.6800 -2.5026 4.0294
# 3 46.7111 37.7394 92.8157 11.3759 8.4722 -14.4678
# 4 11.1246 11.6800 11.3759 32.5326 0.5118 4.4854
# 5 10.6852 -2.5026 8.4722 0.5118 21.3408 3.4701
# 6 -3.8574 4.0294 -14.4678 4.4854 3.4701 34.3159
#
#
#
# Elastic Compliance Matrix: (Units=1/GPa)
#
#
# Indices 1 2 3 4 5 6 
#
# 1 0.030472 -0.005522 -0.011340 -0.004434 -0.011464 0.001032
# 2 -0.005522 0.014072 -0.004127 -0.001202 0.006821 -0.004546
# 3 -0.011340 -0.004127 0.020211 -0.002817 -0.004147 0.008518
# 4 -0.004434 -0.001202 -0.002817 0.034500 0.003411 -0.006399
# 5 -0.011464 0.006821 -0.004147 0.003411 0.056590 -0.010007
# 6 0.001032 -0.004546 0.008518 -0.006399 -0.010007 0.035231
#
#
# Mechanical properties :
#
#
# Convention : Reuss Voigt Hill
#
# Bulk Modulus (GPa) = 43.90108 54.10607 49.00357
# Shear Modulus (GPa) = 20.77738 26.71244 23.74491
#
# Velocity S-wave (km/s) = 3.43248 3.89197 3.66943
# Velocity P-wave (km/s) = 6.37210 7.13286 6.76319
#
# Compressibility (1/GPa) = 0.02277848
#
# Stress axis : x y z
#
# Youngs Moduli (GPa) = 32.81655 71.06134 49.47860
#
# Poissons Ratio (x) = 0.39238 0.56108
# Poissons Ratio (y) = 0.18120 0.20420
# Poissons Ratio (z) = 0.37214 0.29327
#
# Static dielectric constant tensor:
#      x y z
#    x 1.630440 0.015940 0.037010 
#    y 0.015940 1.657880 -0.008400 
#    z 0.037010 -0.008400 1.588810 
# 
# From -- ./inp_files/243622.got.cif
#   From: 2010.05.17/outbox.cif.g08.bks.cpg/sg2_122_cif.got.tgz:243622.got - 2010.06.03 11:33:40.
