data_PCOD9035110
_publ_section_title
;
Structure prediction by ZEFSAII (Michael W. Deem and Ramdas Pophale) SiO2 
 PCOD9035110
Probable space group: P -1
;
_chemical_formula_sum "Si O2"
_cell_formula_units_Z 14
_cell_length_a 13.032343
_cell_length_b 5.252475
_cell_length_c 11.961899
_cell_angle_alpha 75.033679
_cell_angle_beta 136.602005
_cell_angle_gamma 106.266869
_cell_volume 538.194366
_symmetry_space_group_name_H-M "P -1"
_symmetry_group_IT_number 2
_symmetry_cell_setting 'triclinic'
loop_
_space_group_symop_operation_xyz
x,y,z
-x,-y,-z
loop_
_atom_site_type_symbol
_atom_site_label
_atom_site_fract_x
_atom_site_fract_y
_atom_site_fract_z
Si Si1 0.708461 0.117160 0.658050
Si Si2 0.555311 0.273564 0.302042
Si Si3 0.037516 0.186609 0.901164
Si Si4 0.687502 0.514694 0.799665
Si Si5 0.141493 0.720991 0.595379
Si Si6 0.906295 0.010604 0.265576
Si Si7 0.583616 0.796196 0.018929
O O1 0.597649 0.136480 0.464857
O O2 0.683800 0.288192 0.729600
O O3 0.874007 0.260543 0.732466
O O4 0.702823 0.805221 0.717214
O O5 0.468085 0.511616 0.250305
O O6 0.709623 0.317876 0.348977
O O7 0.434899 0.130047 0.134412
O O8 0.078298 0.003199 0.852941
O O9 0.166223 0.426880 0.009815
O O10 0.000000 0.000000 0.000000
O O11 0.000000 0.500000 0.500000
O O12 0.067421 0.965999 0.450997
O O13 0.153047 0.762662 0.733148
O O14 0.756753 0.795036 0.189293
O O15 0.500000 0.500000 0.000000
O O16 0.500000 0.000000 0.000000
#
# Coordination Sequence:
#
# PCOD9035110 Si02
#       7
#     2   2   2   2   2   2   2
#     4  11  25  46  70 104 144 186 239 290 354 434
#     4  12  24  46  72 105 144 191 236 300 360 424
#     4  10  22  45  71 103 139 190 233 295 357 429
#     4  11  25  46  70 106 142 186 236 295 360 420
#     4  11  25  45  72 104 139 192 240 297 361 423
#     4  11  23  48  69 103 145 183 244 294 357 437
#     4  12  27  47  72 107 145 187 238 295 363 429
#
# _framework density 26.012906000000001
#
# number of rings (size 3 to 8) (size 9 to 14) (size 15 to 20)
#    0.000    0.857    4.286    2.143    0.000    4.571 
#   10.286    0.000    0.000    0.000    0.000    0.000 
#    0.000    0.000    0.000    0.000    0.000    0.000 
#
# Total GULP energy -78244.504353 kJ/mol
# GULP energy per Si atom -5588.893168 kJ/mol
# Density = 2.595370 g / cm^3
# Si number density = 26.012906 Si / 1000 Ang^3
#
#
#
# Elastic Constant Matrix: (Units=GPa)
#
#
# Indices 1 2 3 4 5 6 
#
# 1 177.1192 40.9068 39.7615 14.5930 -1.3771 -35.1614
# 2 40.9068 108.9769 24.9955 18.1409 -18.2529 -18.4931
# 3 39.7615 24.9955 143.1522 8.2254 -4.1613 -4.5376
# 4 14.5930 18.1409 8.2254 38.4379 -11.6379 -7.1783
# 5 -1.3771 -18.2529 -4.1613 -11.6379 74.5654 6.6967
# 6 -35.1614 -18.4931 -4.5376 -7.1783 6.6967 24.8710
#
#
#
# Elastic Compliance Matrix: (Units=1/GPa)
#
#
# Indices 1 2 3 4 5 6 
#
# 1 0.008554 -0.000995 -0.001846 -0.000691 -0.001299 0.011167
# 2 -0.000995 0.011641 -0.001341 -0.003256 0.001746 0.005595
# 3 -0.001846 -0.001341 0.007701 -0.000720 0.000176 -0.002457
# 4 -0.000691 -0.003256 -0.000720 0.029780 0.003426 0.004144
# 5 -0.001299 0.001746 0.000176 0.003426 0.014670 -0.003468
# 6 0.011167 0.005595 -0.002457 0.004144 -0.003468 0.061836
#
#
# Mechanical properties :
#
#
# Convention : Reuss Voigt Hill
#
# Bulk Modulus (GPa) = 51.19983 71.17509 61.18746
# Shear Modulus (GPa) = 33.54410 49.14716 41.34563
#
# Velocity S-wave (km/s) = 3.59488 4.35137 3.99109
# Velocity P-wave (km/s) = 6.07915 7.25718 6.69413
#
# Compressibility (1/GPa) = 0.01953132
#
# Stress axis : x y z
#
# Youngs Moduli (GPa) = 116.90726 85.90187 129.85123
#
# Poissons Ratio (x) = 0.08548 0.23974
# Poissons Ratio (y) = 0.11633 0.17414
# Poissons Ratio (z) = 0.21584 0.11520
#
# Static dielectric constant tensor:
#      x y z
#    x 2.092550 0.024380 0.034100 
#    y 0.024380 2.272170 -0.084880 
#    z 0.034100 -0.084880 2.274300 
# 
# From -- ./inp_files/124400.got.cif
#   From: 2010.05.17/outbox.cif.g08.bks.cpg/sg2_63_cif.got.tgz:124400.got - 2010.06.03 11:33:40.
