data_PCOD9035305
_publ_section_title
;
Structure prediction by ZEFSAII (Michael W. Deem and Ramdas Pophale) SiO2 
 PCOD9035305
Probable space group: P -1
;
_chemical_formula_sum "Si O2"
_cell_formula_units_Z 13
_cell_length_a 9.297519
_cell_length_b 8.212820
_cell_length_c 7.571638
_cell_angle_alpha 103.820678
_cell_angle_beta 84.414821
_cell_angle_gamma 104.069488
_cell_volume 544.107845
_symmetry_space_group_name_H-M "P -1"
_symmetry_group_IT_number 2
_symmetry_cell_setting 'triclinic'
loop_
_space_group_symop_operation_xyz
x,y,z
-x,-y,-z
loop_
_atom_site_type_symbol
_atom_site_label
_atom_site_fract_x
_atom_site_fract_y
_atom_site_fract_z
Si Si1 0.655798 0.447829 0.912860
Si Si2 0.111407 0.130018 0.395329
Si Si3 0.349253 0.938040 0.275054
Si Si4 0.325418 0.471477 0.481467
Si Si5 0.000000 0.500000 0.000000
Si Si6 0.339785 0.841634 0.664762
Si Si7 0.926326 0.148845 0.107340
O O1 0.628091 0.238560 0.856991
O O2 0.689274 0.511977 0.723173
O O3 0.500000 0.500000 0.000000
O O4 0.814743 0.512971 0.007807
O O5 0.227339 0.289711 0.511076
O O6 0.013510 0.214720 0.296522
O O7 0.209749 0.013554 0.258389
O O8 0.000000 0.000000 0.500000
O O9 0.329649 0.899851 0.478686
O O10 0.492274 0.092385 0.278698
O O11 0.500000 0.500000 0.500000
O O12 0.283084 0.635790 0.619738
O O13 0.947084 0.302765 0.010101
O O14 0.240271 0.921960 0.827683
O O15 0.000000 0.000000 0.000000
#
# Coordination Sequence:
#
# PCOD9035305 Si02
#       7
#     2   2   2   2   1   2   2
#     4  11  27  48  76 108 153 206 251 318 389 461
#     4  12  24  46  77 112 147 195 255 326 386 451
#     4  10  22  45  73 110 143 189 257 315 383 458
#     4  11  24  46  74 110 147 193 261 314 383 459
#     4  12  28  52  70 114 160 200 264 304 392 476
#     4  10  23  43  72 105 144 193 246 316 380 455
#     4  12  28  48  74 109 151 203 252 315 391 460
#
# _framework density 23.892322
#
# number of rings (size 3 to 8) (size 9 to 14) (size 15 to 20)
#    0.000    0.923    4.615    0.923    4.308    3.077 
#    0.000    2.308    0.000    0.000    0.000    0.000 
#    0.000    0.000    0.000    0.000    0.000    0.000 
#
# Total GULP energy -72437.445041 kJ/mol
# GULP energy per Si atom -5572.111157 kJ/mol
# Density = 2.383794 g / cm^3
# Si number density = 23.892322 Si / 1000 Ang^3
#
#
#
# Elastic Constant Matrix: (Units=GPa)
#
#
# Indices 1 2 3 4 5 6 
#
# 1 177.7038 55.0041 36.2423 9.4711 -20.9792 3.3323
# 2 55.0041 152.6622 31.4509 13.3392 -9.5048 14.0280
# 3 36.2423 31.4509 56.6235 9.9693 -25.1979 8.3297
# 4 9.4711 13.3392 9.9693 12.8819 -8.3048 -0.8448
# 5 -20.9792 -9.5048 -25.1979 -8.3048 43.1309 2.4798
# 6 3.3323 14.0280 8.3297 -0.8448 2.4798 47.3477
#
#
#
# Elastic Compliance Matrix: (Units=1/GPa)
#
#
# Indices 1 2 3 4 5 6 
#
# 1 0.006938 -0.001860 -0.002930 -0.000097 0.001205 0.000513
# 2 -0.001860 0.008442 -0.002929 -0.006448 -0.001889 -0.001871
# 3 -0.002930 -0.002929 0.029651 -0.009214 0.013767 -0.005028
# 4 -0.000097 -0.006448 -0.009214 0.099587 0.012054 0.004684
# 5 0.001205 -0.001889 0.013767 0.012054 0.033921 -0.003508
# 6 0.000513 -0.001871 -0.005028 0.004684 -0.003508 0.022790
#
#
# Mechanical properties :
#
#
# Convention : Reuss Voigt Hill
#
# Bulk Modulus (GPa) = 33.79090 70.26489 52.02790
# Shear Modulus (GPa) = 22.06232 38.29156 30.17694
#
# Velocity S-wave (km/s) = 3.04206 4.00768 3.55778
# Velocity P-wave (km/s) = 5.14903 7.13360 6.22096
#
# Compressibility (1/GPa) = 0.02959377
#
# Stress axis : x y z
#
# Youngs Moduli (GPa) = 144.12464 118.46113 33.72573
#
# Poissons Ratio (x) = 0.22033 0.09882
# Poissons Ratio (y) = 0.26806 0.09877
# Poissons Ratio (z) = 0.42230 0.34692
#
# Static dielectric constant tensor:
#      x y z
#    x 2.005670 -0.028400 0.040400 
#    y -0.028400 1.873740 0.020700 
#    z 0.040400 0.020700 2.008180 
# 
# From -- ./inp_files/159669.got.cif
#   From: 2010.05.17/outbox.cif.g08.bks.cpg/sg2_80_cif.got.tgz:159669.got - 2010.06.03 11:33:40.
