data_PCOD9035436
_publ_section_title
;
Structure prediction by ZEFSAII (Michael W. Deem and Ramdas Pophale) SiO2 
 PCOD9035436
Probable space group: P -1
;
_chemical_formula_sum "Si O2"
_cell_formula_units_Z 10
_cell_length_a 7.122649
_cell_length_b 6.903130
_cell_length_c 13.303009
_cell_angle_alpha 42.489034
_cell_angle_beta 64.725819
_cell_angle_gamma 82.640416
_cell_volume 380.382820
_symmetry_space_group_name_H-M "P -1"
_symmetry_group_IT_number 2
_symmetry_cell_setting 'triclinic'
loop_
_space_group_symop_operation_xyz
x,y,z
-x,-y,-z
loop_
_atom_site_type_symbol
_atom_site_label
_atom_site_fract_x
_atom_site_fract_y
_atom_site_fract_z
Si Si1 0.484905 0.153208 0.723713
Si Si2 0.944340 0.306108 0.483999
Si Si3 0.391689 0.257940 0.407177
Si Si4 0.566661 0.691157 0.013288
Si Si5 0.015362 0.076870 0.849791
O O1 0.690753 0.124713 0.624387
O O2 0.459716 0.499290 0.390212
O O3 0.474415 0.967235 0.901385
O O4 0.246895 0.048880 0.770456
O O5 0.000000 0.500000 0.500000
O O6 0.981608 0.575938 0.292663
O O7 0.871383 0.859516 0.497922
O O8 0.476822 0.467809 0.210675
O O9 0.500000 0.000000 0.500000
O O10 0.500000 0.500000 0.000000
O O11 0.820655 0.857349 0.914463
O O12 0.000000 0.000000 0.000000
#
# Coordination Sequence:
#
# PCOD9035436 Si02
#       5
#     2   2   2   2   2
#     4  11  24  50  83 108 158 206 262 315 396 458
#     4  10  22  45  80 111 152 203 259 319 386 461
#     4  11  24  49  79 113 156 206 261 317 390 466
#     4  12  27  50  75 117 158 202 261 325 385 463
#     4  12  23  45  83 112 151 209 260 315 392 460
#
# _framework density 26.289306
#
# number of rings (size 3 to 8) (size 9 to 14) (size 15 to 20)
#    0.000    0.800    6.000    2.400    0.000    5.600 
#    3.600    2.000    0.000    1.200    0.000    0.000 
#    0.000    0.000    0.000    0.000    0.000    0.000 
#
# Total GULP energy -56083.863788 kJ/mol
# GULP energy per Si atom -5608.386379 kJ/mol
# Density = 2.622947 g / cm^3
# Si number density = 26.289306 Si / 1000 Ang^3
#
#
#
# Elastic Constant Matrix: (Units=GPa)
#
#
# Indices 1 2 3 4 5 6 
#
# 1 256.7638 71.9110 91.3480 -14.2219 -31.0014 -7.8357
# 2 71.9110 123.7363 36.3197 -19.5254 -14.7072 10.6954
# 3 91.3480 36.3197 152.8901 -3.5462 7.7053 -11.8730
# 4 -14.2219 -19.5254 -3.5462 32.4056 6.6832 2.1542
# 5 -31.0014 -14.7072 7.7053 6.6832 75.7214 -13.5000
# 6 -7.8357 10.6954 -11.8730 2.1542 -13.5000 66.2426
#
#
#
# Elastic Compliance Matrix: (Units=1/GPa)
#
#
# Indices 1 2 3 4 5 6 
#
# 1 0.005979 -0.002324 -0.003058 0.000313 0.002463 0.001026
# 2 -0.002324 0.010929 -0.001284 0.005501 0.000394 -0.002368
# 3 -0.003058 -0.001284 0.008842 -0.000772 -0.002151 0.001017
# 4 0.000313 0.005501 -0.000772 0.034865 -0.002263 -0.002584
# 5 0.002463 0.000394 -0.002151 -0.002263 0.015249 0.003023
# 6 0.001026 -0.002368 0.001017 -0.002584 0.003023 0.016482
#
#
# Mechanical properties :
#
#
# Convention : Reuss Voigt Hill
#
# Bulk Modulus (GPa) = 80.52077 103.61640 92.06858
# Shear Modulus (GPa) = 45.53053 57.12801 51.32927
#
# Velocity S-wave (km/s) = 4.16613 4.66666 4.42348
# Velocity P-wave (km/s) = 7.33740 8.27867 7.82220
#
# Compressibility (1/GPa) = 0.01241916
#
# Stress axis : x y z
#
# Youngs Moduli (GPa) = 167.24170 91.50229 113.09703
#
# Poissons Ratio (x) = 0.21266 0.34581
# Poissons Ratio (y) = 0.38868 0.14519
# Poissons Ratio (z) = 0.51136 0.11747
#
# Static dielectric constant tensor:
#      x y z
#    x 2.051430 -0.035730 -0.010730 
#    y -0.035730 2.217320 0.039100 
#    z -0.010730 0.039100 2.109290 
# 
# From -- ./inp_files/131212.got.cif
#   From: 2010.05.17/outbox.cif.g08.bks.cpg/sg2_66_cif.got.tgz:131212.got - 2010.06.03 11:33:40.
