data_PCOD9035355
_publ_section_title
;
Structure prediction by ZEFSAII (Michael W. Deem and Ramdas Pophale) SiO2 
 PCOD9035355
Probable space group: P -1
;
_chemical_formula_sum "Si O2"
_cell_formula_units_Z 16
_cell_length_a 8.168365
_cell_length_b 20.545772
_cell_length_c 16.914558
_cell_angle_alpha 159.409915
_cell_angle_beta 42.794204
_cell_angle_gamma 135.033650
_cell_volume 675.693847
_symmetry_space_group_name_H-M "P -1"
_symmetry_group_IT_number 2
_symmetry_cell_setting 'triclinic'
loop_
_space_group_symop_operation_xyz
x,y,z
-x,-y,-z
loop_
_atom_site_type_symbol
_atom_site_label
_atom_site_fract_x
_atom_site_fract_y
_atom_site_fract_z
Si Si1 0.989690 0.334000 0.254344
Si Si2 0.628187 0.205338 0.680576
Si Si3 0.232265 0.404864 0.490121
Si Si4 0.462803 0.678752 0.981928
Si Si5 0.613536 0.993448 0.040290
Si Si6 0.906429 0.594395 0.278767
Si Si7 0.229850 0.253777 0.758204
Si Si8 0.227563 0.990290 0.316228
O O1 0.916002 0.439771 0.321581
O O2 0.809008 0.169923 0.166791
O O3 0.000000 0.500000 0.500000
O O4 0.257445 0.278228 0.086238
O O5 0.568993 0.311336 0.902101
O O6 0.492153 0.276462 0.732066
O O7 0.920248 0.221492 0.591737
O O8 0.500000 0.000000 0.500000
O O9 0.500000 0.500000 0.500000
O O10 0.157696 0.387426 0.587079
O O11 0.253737 0.197342 0.211973
O O12 0.336384 0.841204 0.167474
O O13 0.334434 0.486266 0.773382
O O14 0.401468 0.005113 0.194457
O O15 0.500000 0.000000 0.000000
O O16 0.094675 0.439659 0.021840
O O17 0.236880 0.174682 0.576736
O O18 0.046144 0.105272 0.702246
#
# Coordination Sequence:
#
# PCOD9035355 Si02
#       8
#     2   2   2   2   2   2   2   2
#     4  12  28  48  74 114 150 201 254 318 377 459
#     4  12  25  43  70 109 143 186 254 304 372 451
#     4  12  25  51  77 112 155 197 260 315 376 458
#     4  11  25  46  71 108 155 197 247 309 382 452
#     4  12  28  46  81 111 149 206 256 310 388 441
#     4  11  26  46  73 105 153 203 242 310 386 441
#     4  10  22  45  74 107 146 197 246 311 379 447
#     4  10  23  46  74 108 155 194 249 316 377 448
#
# _framework density 23.679362999999999
#
# number of rings (size 3 to 8) (size 9 to 14) (size 15 to 20)
#    0.000    0.750    2.500    4.500    3.500    4.000 
#    0.000    0.000    0.000    0.000    0.000    0.000 
#    0.000    0.000    0.000    0.000    0.000    0.000 
#
# Total GULP energy -89506.338775 kJ/mol
# GULP energy per Si atom -5594.146173 kJ/mol
# Density = 2.362547 g / cm^3
# Si number density = 23.679363 Si / 1000 Ang^3
#
#
#
# Elastic Constant Matrix: (Units=GPa)
#
#
# Indices 1 2 3 4 5 6 
#
# 1 75.6379 24.5362 5.5036 1.6815 13.8453 16.2134
# 2 24.5362 170.7441 59.2684 -2.0155 31.9594 9.6632
# 3 5.5036 59.2684 96.1314 6.2522 10.3275 -1.9241
# 4 1.6815 -2.0155 6.2522 51.8000 -5.5781 5.3172
# 5 13.8453 31.9594 10.3275 -5.5781 42.2841 1.1489
# 6 16.2134 9.6632 -1.9241 5.3172 1.1489 37.6484
#
#
#
# Elastic Compliance Matrix: (Units=1/GPa)
#
#
# Indices 1 2 3 4 5 6 
#
# 1 0.015709 -0.001190 0.000182 -0.000384 -0.004169 -0.006269
# 2 -0.001190 0.008757 -0.004884 0.000639 -0.004899 -0.001926
# 3 0.000182 -0.004884 0.013582 -0.002059 -0.000015 0.002161
# 4 -0.000384 0.000639 -0.002059 0.020215 0.002895 -0.003047
# 5 -0.004169 -0.004899 -0.000015 0.002895 0.029056 0.001757
# 6 -0.006269 -0.001926 0.002161 -0.003047 0.001757 0.030243
#
#
# Mechanical properties :
#
#
# Convention : Reuss Voigt Hill
#
# Bulk Modulus (GPa) = 38.07685 57.90330 47.99008
# Shear Modulus (GPa) = 36.20519 43.22687 39.71603
#
# Velocity S-wave (km/s) = 3.91445 4.27723 4.09986
# Velocity P-wave (km/s) = 6.04530 6.99279 6.53624
#
# Compressibility (1/GPa) = 0.02626267
#
# Stress axis : x y z
#
# Youngs Moduli (GPa) = 63.65727 114.19744 73.62531
#
# Poissons Ratio (x) = 0.13588 -0.01337
# Poissons Ratio (y) = 0.07574 0.35962
# Poissons Ratio (z) = -0.01156 0.55780
#
# Static dielectric constant tensor:
#      x y z
#    x 1.830780 0.011640 0.033280 
#    y 0.011640 1.864810 0.043850 
#    z 0.033280 0.043850 1.900230 
# 
# From -- ./inp_files/562972.got.cif
#   From: 2010.05.17/outbox.cif.g08.bks.cpg/sg2_282_cif.got.tgz:562972.got - 2010.06.03 11:33:40.
