data_PCOD9035029
_publ_section_title
;
Structure prediction by ZEFSAII (Michael W. Deem and Ramdas Pophale) SiO2 
 PCOD9035029
Probable space group: P -1
;
_chemical_formula_sum "Si O2"
_cell_formula_units_Z 16
_cell_length_a 9.037264
_cell_length_b 18.063808
_cell_length_c 9.588488
_cell_angle_alpha 102.433367
_cell_angle_beta 36.362533
_cell_angle_gamma 123.724029
_cell_volume 681.299876
_symmetry_space_group_name_H-M "P -1"
_symmetry_group_IT_number 2
_symmetry_cell_setting 'triclinic'
loop_
_space_group_symop_operation_xyz
x,y,z
-x,-y,-z
loop_
_atom_site_type_symbol
_atom_site_label
_atom_site_fract_x
_atom_site_fract_y
_atom_site_fract_z
Si Si1 0.380261 0.093207 0.333069
Si Si2 0.447150 0.858387 0.102264
Si Si3 0.878376 0.719087 0.087608
Si Si4 0.223815 0.223589 0.521527
Si Si5 0.646408 0.062150 0.556949
Si Si6 0.214852 0.510243 0.206384
Si Si7 0.672618 0.735959 0.957358
Si Si8 0.939635 0.409326 0.087416
O O1 0.153348 0.120718 0.537914
O O2 0.240526 0.989949 0.466494
O O3 0.452847 0.101501 0.116245
O O4 0.727026 0.183349 0.184124
O O5 0.579855 0.939296 0.158321
O O6 0.049494 0.790505 0.368592
O O7 0.529633 0.789579 0.052483
O O8 0.783017 0.743349 0.307696
O O9 0.691539 0.715523 0.096265
O O10 0.827252 0.618835 0.108515
O O11 0.603987 0.311539 0.229287
O O12 0.943078 0.178465 0.341732
O O13 0.500000 0.000000 0.500000
O O14 0.000000 0.500000 0.500000
O O15 0.961532 0.432731 0.245914
O O16 0.500000 0.500000 0.000000
O O17 0.436684 0.624664 0.028312
O O18 0.000000 0.500000 0.000000
#
# Coordination Sequence:
#
# PCOD9035029 Si02
#       8
#     2   2   2   2   2   2   2   2
#     4  10  23  48  70 103 143 197 244 306 384 454
#     4  11  27  44  74 104 151 192 252 315 385 462
#     4  10  22  45  70 104 145 191 244 309 380 455
#     4  10  24  46  73 100 149 195 246 316 384 468
#     4  12  27  46  75 109 147 195 255 316 386 472
#     4  12  29  52  80 114 162 212 259 325 403 468
#     4  12  27  45  74 112 149 194 258 318 389 465
#     4  11  26  44  76 110 145 198 261 317 387 459
#
# _framework density 23.48452
#
# number of rings (size 3 to 8) (size 9 to 14) (size 15 to 20)
#    0.000    1.000    2.500    1.875   10.500    5.000 
#    0.000    0.000    0.000    0.000    0.000    0.000 
#    0.000    0.000    0.000    0.000    0.000    0.000 
#
# Total GULP energy -89334.281222 kJ/mol
# GULP energy per Si atom -5583.392576 kJ/mol
# Density = 2.343107 g / cm^3
# Si number density = 23.484520 Si / 1000 Ang^3
#
#
#
# Elastic Constant Matrix: (Units=GPa)
#
#
# Indices 1 2 3 4 5 6 
#
# 1 148.9983 35.3383 39.3670 13.9759 23.0944 0.6682
# 2 35.3383 122.0697 41.7056 5.2383 26.0118 -5.5101
# 3 39.3670 41.7056 60.6257 19.7976 19.8085 -3.8302
# 4 13.9759 5.2383 19.7976 45.3290 13.4494 5.2546
# 5 23.0944 26.0118 19.8085 13.4494 34.3895 -6.7558
# 6 0.6682 -5.5101 -3.8302 5.2546 -6.7558 46.9243
#
#
#
# Elastic Compliance Matrix: (Units=1/GPa)
#
#
# Indices 1 2 3 4 5 6 
#
# 1 0.008415 -0.000302 -0.004402 0.000453 -0.003267 -0.001036
# 2 -0.000302 0.011881 -0.007213 0.003769 -0.006202 -0.000504
# 3 -0.004402 -0.007213 0.028873 -0.009429 -0.004131 0.002034
# 4 0.000453 0.003769 -0.009429 0.029199 -0.010137 -0.005063
# 5 -0.003267 -0.006202 -0.004131 -0.010137 0.043563 0.006388
# 6 -0.001036 -0.000504 0.002034 -0.005063 0.006388 0.022919
#
#
# Mechanical properties :
#
#
# Convention : Reuss Voigt Hill
#
# Bulk Modulus (GPa) = 39.47269 62.72393 51.09831
# Shear Modulus (GPa) = 28.22792 39.68075 33.95434
#
# Velocity S-wave (km/s) = 3.47072 4.11500 3.80652
# Velocity P-wave (km/s) = 5.73634 7.02455 6.41287
#
# Compressibility (1/GPa) = 0.02533397
#
# Stress axis : x y z
#
# Youngs Moduli (GPa) = 118.83810 84.16764 34.63453
#
# Poissons Ratio (x) = 0.02542 0.15246
# Poissons Ratio (y) = 0.03589 0.24983
# Poissons Ratio (z) = 0.52313 0.60714
#
# Static dielectric constant tensor:
#      x y z
#    x 1.920540 0.028610 -0.068470 
#    y 0.028610 1.876500 0.004400 
#    z -0.068470 0.004400 2.009780 
# 
# From -- ./inp_files/217804.got.cif
#   From: 2010.05.17/outbox.cif.g08.bks.cpg/sg2_109_cif.got.tgz:217804.got - 2010.06.03 11:33:40.
