data_PCOD9035704
_publ_section_title
;
Structure prediction by ZEFSAII (Michael W. Deem and Ramdas Pophale) SiO2 
 PCOD9035704
Probable space group: P -1
;
_chemical_formula_sum "Si O2"
_cell_formula_units_Z 11
_cell_length_a 6.395335
_cell_length_b 8.416718
_cell_length_c 9.900397
_cell_angle_alpha 56.015873
_cell_angle_beta 103.468978
_cell_angle_gamma 118.610116
_cell_volume 387.492427
_symmetry_space_group_name_H-M "P -1"
_symmetry_group_IT_number 2
_symmetry_cell_setting 'triclinic'
loop_
_space_group_symop_operation_xyz
x,y,z
-x,-y,-z
loop_
_atom_site_type_symbol
_atom_site_label
_atom_site_fract_x
_atom_site_fract_y
_atom_site_fract_z
Si Si1 0.000000 0.000000 0.000000
Si Si2 0.896343 0.669635 0.438271
Si Si3 0.731987 0.160475 0.086388
Si Si4 0.107893 0.418296 0.229267
Si Si5 0.609488 0.932014 0.681098
Si Si6 0.320549 0.458524 0.805666
O O1 0.208991 0.233126 0.969466
O O2 0.206162 0.955411 0.970050
O O3 0.816639 0.656984 0.586302
O O4 0.115421 0.900223 0.338401
O O5 0.699159 0.612555 0.320496
O O6 0.000000 0.500000 0.500000
O O7 0.524593 0.040589 0.219371
O O8 0.961077 0.247650 0.178121
O O9 0.713699 0.367249 0.920390
O O10 0.894354 0.473078 0.228410
O O11 0.543596 0.681582 0.767026
O O12 0.500000 0.000000 0.500000
#
# Coordination Sequence:
#
# PCOD9035704 Si02
#       6
#     1   2   2   2   2   2
#     4  10  20  38  54  78 122 154 180 210 290 344
#     4  10  17  32  59  86 110 134 190 240 270 315
#     4   9  17  31  55  82 107 152 179 224 274 332
#     4   8  15  30  54  78 102 138 188 223 270 304
#     4  11  18  34  62  86 108 136 192 239 272 311
#     4   9  19  34  57  80 112 149 176 231 271 332
#
# _framework density 28.387653
#
# number of rings (size 3 to 8) (size 9 to 14) (size 15 to 20)
#    0.000    2.545    5.455    1.091    0.000    0.000 
#    0.000   10.909    0.000    4.364    0.000    0.000 
#    0.000    0.000    0.000    0.000    0.000    0.000 
#
# Total GULP energy -61343.713688 kJ/mol
# GULP energy per Si atom -5576.701244 kJ/mol
# Density = 2.832304 g / cm^3
# Si number density = 28.387653 Si / 1000 Ang^3
#
#
#
# Elastic Constant Matrix: (Units=GPa)
#
#
# Indices 1 2 3 4 5 6 
#
# 1 112.7099 56.7858 65.9768 -5.8024 -39.8591 40.3822
# 2 56.7858 226.2045 89.4021 -3.7526 -6.3527 21.3540
# 3 65.9768 89.4021 173.7722 17.2360 -30.1158 7.4874
# 4 -5.8024 -3.7526 17.2360 79.4340 1.5752 -7.1628
# 5 -39.8591 -6.3527 -30.1158 1.5752 50.5946 -2.0698
# 6 40.3822 21.3540 7.4874 -7.1628 -2.0698 64.2602
#
#
#
# Elastic Compliance Matrix: (Units=1/GPa)
#
#
# Indices 1 2 3 4 5 6 
#
# 1 0.021622 -0.002214 -0.004297 0.001073 0.013682 -0.011791
# 2 -0.002214 0.006048 -0.002799 0.000758 -0.002687 -0.000294
# 3 -0.004297 -0.002799 0.009292 -0.002289 0.001962 0.002356
# 4 0.001073 0.000758 -0.002289 0.013288 -0.000803 0.000796
# 5 0.013682 -0.002687 0.001962 -0.000803 0.031112 -0.007021
# 6 -0.011791 -0.000294 0.002356 0.000796 -0.007021 0.022657
#
#
# Mechanical properties :
#
#
# Convention : Reuss Voigt Hill
#
# Bulk Modulus (GPa) = 54.52473 104.11286 79.31880
# Shear Modulus (GPa) = 38.83451 58.89255 48.86353
#
# Velocity S-wave (km/s) = 3.70267 4.55970 4.15335
# Velocity P-wave (km/s) = 6.12606 8.02971 7.14160
#
# Compressibility (1/GPa) = 0.01834030
#
# Stress axis : x y z
#
# Youngs Moduli (GPa) = 46.24998 165.35136 107.62496
#
# Poissons Ratio (x) = 0.36616 0.46247
# Poissons Ratio (y) = 0.10242 0.30122
# Poissons Ratio (z) = 0.19874 0.46279
#
# Static dielectric constant tensor:
#      x y z
#    x 2.499400 -0.107530 0.086530 
#    y -0.107530 2.218590 0.077590 
#    z 0.086530 0.077590 2.416970 
# 
# From -- ./inp_files/373365.got.cif
#   From: 2010.05.17/outbox.cif.g08.bks.cpg/sg2_187_cif.got.tgz:373365.got - 2010.06.03 11:33:40.
