data_PCOD9035497
_publ_section_title
;
Structure prediction by ZEFSAII (Michael W. Deem and Ramdas Pophale) SiO2 
 PCOD9035497
Probable space group: P -1
;
_chemical_formula_sum "Si O2"
_cell_formula_units_Z 14
_cell_length_a 9.543304
_cell_length_b 12.492502
_cell_length_c 9.127087
_cell_angle_alpha 123.485896
_cell_angle_beta 129.575211
_cell_angle_gamma 62.480741
_cell_volume 689.089185
_symmetry_space_group_name_H-M "P -1"
_symmetry_group_IT_number 2
_symmetry_cell_setting 'triclinic'
loop_
_space_group_symop_operation_xyz
x,y,z
-x,-y,-z
loop_
_atom_site_type_symbol
_atom_site_label
_atom_site_fract_x
_atom_site_fract_y
_atom_site_fract_z
Si Si1 0.821252 0.026631 0.504697
Si Si2 0.432877 0.709985 0.955063
Si Si3 0.195984 0.278747 0.286828
Si Si4 0.499088 0.139922 0.175449
Si Si5 0.865084 0.442991 0.479942
Si Si6 0.877205 0.127101 0.940933
Si Si7 0.221741 0.254733 0.629576
O O1 0.667559 0.122529 0.386812
O O2 0.851388 0.089262 0.728251
O O3 0.759274 0.888174 0.394914
O O4 0.000000 0.000000 0.500000
O O5 0.476964 0.764887 0.868594
O O6 0.302371 0.605196 0.751497
O O7 0.309354 0.823755 0.055787
O O8 0.626451 0.671297 0.139595
O O9 0.317368 0.187911 0.183579
O O10 0.205836 0.429313 0.374967
O O11 0.257183 0.246288 0.471628
O O12 0.992308 0.244700 0.115273
O O13 0.500000 0.000000 0.000000
O O14 0.000000 0.500000 0.500000
O O15 0.008660 0.326390 0.561123
O O16 0.000000 0.000000 0.000000
#
# Coordination Sequence:
#
# PCOD9035497 Si02
#       7
#     2   2   2   2   2   2   2
#     4  12  24  40  66 100 138 173 219 278 343 396
#     4  12  24  43  70  99 132 180 224 278 327 398
#     4  11  24  44  66  97 135 177 219 278 327 401
#     4  12  25  42  66  98 139 168 221 278 338 394
#     4  10  22  46  66  95 137 174 228 274 327 389
#     4  12  22  39  68  97 134 176 220 271 343 391
#     4  11  23  42  71  99 131 177 226 272 333 398
#
# _framework density 20.316675
#
# number of rings (size 3 to 8) (size 9 to 14) (size 15 to 20)
#    0.000    0.571    5.714    4.286    0.000    4.000 
#    2.571    0.714    0.000    0.000    0.000    0.000 
#    0.000    0.000    0.000    0.000    0.000    0.000 
#
# Total GULP energy -78227.489249 kJ/mol
# GULP energy per Si atom -5587.677804 kJ/mol
# Density = 2.027043 g / cm^3
# Si number density = 20.316675 Si / 1000 Ang^3
#
#
#
# Elastic Constant Matrix: (Units=GPa)
#
#
# Indices 1 2 3 4 5 6 
#
# 1 96.3525 14.5726 24.9670 -4.2889 -10.8615 0.7813
# 2 14.5726 31.3935 22.7692 4.9432 -11.8199 1.6695
# 3 24.9670 22.7692 151.1123 -4.0139 5.0109 6.5452
# 4 -4.2889 4.9432 -4.0139 40.3650 4.5233 -2.9256
# 5 -10.8615 -11.8199 5.0109 4.5233 36.9089 4.7011
# 6 0.7813 1.6695 6.5452 -2.9256 4.7011 30.8758
#
#
#
# Elastic Compliance Matrix: (Units=1/GPa)
#
#
# Indices 1 2 3 4 5 6 
#
# 1 0.011617 -0.003735 -0.001396 0.001299 0.002255 -0.000016
# 2 -0.003735 0.046435 -0.006974 -0.008919 0.016356 -0.004274
# 3 -0.001396 -0.006974 0.008102 0.001911 -0.003911 -0.000529
# 4 0.001299 -0.008919 0.001911 0.027188 -0.006526 0.003614
# 5 0.002255 0.016356 -0.003911 -0.006526 0.035100 -0.006075
# 6 -0.000016 -0.004274 -0.000529 0.003614 -0.006075 0.033999
#
#
# Mechanical properties :
#
#
# Convention : Reuss Voigt Hill
#
# Bulk Modulus (GPa) = 23.84045 44.83064 34.33554
# Shear Modulus (GPa) = 24.92122 36.06657 30.49390
#
# Velocity S-wave (km/s) = 3.50614 4.21791 3.87839
# Velocity P-wave (km/s) = 5.30571 6.77014 6.08216
#
# Compressibility (1/GPa) = 0.04194552
#
# Stress axis : x y z
#
# Youngs Moduli (GPa) = 86.07801 21.53544 123.41940
#
# Poissons Ratio (x) = 0.08042 0.17233
# Poissons Ratio (y) = 0.32146 0.86071
# Poissons Ratio (z) = 0.12019 0.15019
#
# Static dielectric constant tensor:
#      x y z
#    x 1.806510 -0.018100 -0.050760 
#    y -0.018100 1.775680 0.003270 
#    z -0.050760 0.003270 1.819270 
# 
# From -- ./inp_files/179557.got.cif
#   From: 2010.05.17/outbox.cif.g08.bks.cpg/sg2_90_cif.got.tgz:179557.got - 2010.06.03 11:33:40.
