data_PCOD9035034
_publ_section_title
;
Structure prediction by ZEFSAII (Michael W. Deem and Ramdas Pophale) SiO2 
 PCOD9035034
Probable space group: P -1
;
_chemical_formula_sum "Si O2"
_cell_formula_units_Z 16
_cell_length_a 10.975521
_cell_length_b 9.662022
_cell_length_c 12.306456
_cell_angle_alpha 107.443641
_cell_angle_beta 145.198505
_cell_angle_gamma 84.513549
_cell_volume 682.884358
_symmetry_space_group_name_H-M "P -1"
_symmetry_group_IT_number 2
_symmetry_cell_setting 'triclinic'
loop_
_space_group_symop_operation_xyz
x,y,z
-x,-y,-z
loop_
_atom_site_type_symbol
_atom_site_label
_atom_site_fract_x
_atom_site_fract_y
_atom_site_fract_z
Si Si1 0.654919 0.351892 0.005363
Si Si2 0.524805 0.657370 0.368155
Si Si3 0.987508 0.766016 0.654491
Si Si4 0.185313 0.236179 0.700638
Si Si5 0.828691 0.028035 0.524842
Si Si6 0.049687 0.562838 0.234766
Si Si7 0.171689 0.350569 0.107825
Si Si8 0.507576 0.201565 0.398223
O O1 0.557532 0.307736 0.802545
O O2 0.436140 0.341431 0.914879
O O3 0.851653 0.507504 0.164117
O O4 0.786231 0.245239 0.132087
O O5 0.777752 0.657051 0.536088
O O6 0.370369 0.497344 0.255237
O O7 0.512535 0.771826 0.481938
O O8 0.952370 0.720395 0.490729
O O9 0.937956 0.928994 0.660461
O O10 0.018601 0.177080 0.662956
O O11 0.227447 0.078664 0.647880
O O12 0.608411 0.064429 0.414101
O O13 0.061518 0.408910 0.144324
O O14 0.295979 0.655774 0.469548
O O15 0.990280 0.662395 0.115454
O O16 0.279181 0.216363 0.181884
#
# Coordination Sequence:
#
# PCOD9035034 Si02
#       8
#     2   2   2   2   2   2   2   2
#     4  10  17  32  58  73  95 134 171 203 250 293
#     4   9  18  30  51  79 104 127 167 199 241 309
#     4   9  17  33  54  75  94 134 168 206 247 294
#     4   8  19  39  52  71  94 132 179 215 236 293
#     4   9  20  38  51  72 103 128 175 211 244 295
#     4   9  18  31  50  79 102 128 171 202 235 309
#     4   9  17  31  51  73 104 141 163 192 247 298
#     4  11  19  32  51  77 108 136 155 206 255 294
#
# _framework density 23.430026999999999
#
# number of rings (size 3 to 8) (size 9 to 14) (size 15 to 20)
#    0.750    2.000    0.000    3.750    0.000    1.000 
#    2.250    1.250    0.000   10.500    0.000    0.000 
#    0.000    0.000    0.000    0.000    0.000    0.000 
#
# Total GULP energy -89242.453240 kJ/mol
# GULP energy per Si atom -5577.653328 kJ/mol
# Density = 2.337670 g / cm^3
# Si number density = 23.430027 Si / 1000 Ang^3
#
#
#
# Elastic Constant Matrix: (Units=GPa)
#
#
# Indices 1 2 3 4 5 6 
#
# 1 62.4221 -2.4984 22.2557 -12.4843 16.0459 8.3230
# 2 -2.4984 47.2155 23.1154 -10.4738 4.1388 10.9276
# 3 22.2557 23.1154 126.9415 -40.3597 16.5568 -2.3635
# 4 -12.4843 -10.4738 -40.3597 49.4885 4.1622 9.8619
# 5 16.0459 4.1388 16.5568 4.1622 30.5175 6.4675
# 6 8.3230 10.9276 -2.3635 9.8619 6.4675 32.7154
#
#
#
# Elastic Compliance Matrix: (Units=1/GPa)
#
#
# Indices 1 2 3 4 5 6 
#
# 1 0.022538 0.006612 -0.000932 0.008983 -0.011685 -0.008407
# 2 0.006612 0.028327 -0.003694 0.007538 -0.003593 -0.012973
# 3 -0.000932 -0.003694 0.012873 0.009937 -0.007538 0.000896
# 4 0.008983 0.007538 0.009937 0.035733 -0.013424 -0.012203
# 5 -0.011685 -0.003593 -0.007538 -0.013424 0.045604 -0.001341
# 6 -0.008407 -0.012973 0.000896 -0.012203 -0.001341 0.041047
#
#
# Mechanical properties :
#
#
# Convention : Reuss Voigt Hill
#
# Bulk Modulus (GPa) = 14.76875 35.81384 25.29130
# Shear Modulus (GPa) = 24.42361 35.45804 29.94083
#
# Velocity S-wave (km/s) = 3.23213 3.89441 3.57863
# Velocity P-wave (km/s) = 4.49955 5.96159 5.28141
#
# Compressibility (1/GPa) = 0.06771052
#
# Stress axis : x y z
#
# Youngs Moduli (GPa) = 44.36934 35.30177 77.68302
#
# Poissons Ratio (x) = -0.23340 0.07238
# Poissons Ratio (y) = -0.29335 0.28693
# Poissons Ratio (z) = 0.04134 0.13039
#
# Static dielectric constant tensor:
#      x y z
#    x 1.901750 -0.040220 -0.000550 
#    y -0.040220 2.008930 0.021170 
#    z -0.000550 0.021170 1.862310 
# 
# From -- ./inp_files/517935.got.cif
#   From: 2010.05.17/outbox.cif.g08.bks.cpg/sg2_259_cif.got.tgz:517935.got - 2010.06.03 11:33:40.
