data_PCOD9035160
_publ_section_title
;
Structure prediction by ZEFSAII (Michael W. Deem and Ramdas Pophale) SiO2 
 PCOD9035160
Probable space group: P -1
;
_chemical_formula_sum "Si O2"
_cell_formula_units_Z 16
_cell_length_a 8.106159
_cell_length_b 11.764353
_cell_length_c 8.344864
_cell_angle_alpha 78.828968
_cell_angle_beta 121.440900
_cell_angle_gamma 102.617837
_cell_volume 659.509788
_symmetry_space_group_name_H-M "P -1"
_symmetry_group_IT_number 2
_symmetry_cell_setting 'triclinic'
loop_
_space_group_symop_operation_xyz
x,y,z
-x,-y,-z
loop_
_atom_site_type_symbol
_atom_site_label
_atom_site_fract_x
_atom_site_fract_y
_atom_site_fract_z
Si Si1 0.327393 0.818469 0.615133
Si Si2 0.711280 0.010246 0.187416
Si Si3 0.053243 0.877377 0.994904
Si Si4 0.945575 0.498048 0.786635
Si Si5 0.654506 0.264538 0.670145
Si Si6 0.329845 0.401971 0.593970
Si Si7 0.640864 0.425075 0.187068
Si Si8 0.894326 0.782320 0.249260
O O1 0.331264 0.939262 0.674805
O O2 0.447201 0.797100 0.522355
O O3 0.379283 0.715937 0.787807
O O4 0.110521 0.797434 0.432538
O O5 0.890224 0.100030 0.169502
O O6 0.786587 0.886159 0.238415
O O7 0.500000 0.000000 0.000000
O O8 0.256293 0.838024 0.166360
O O9 0.900664 0.792501 0.054354
O O10 0.000000 0.000000 0.000000
O O11 0.837294 0.370021 0.720087
O O12 0.797985 0.586696 0.631451
O O13 0.141067 0.537170 0.776421
O O14 0.000000 0.500000 0.000000
O O15 0.505039 0.330708 0.672346
O O16 0.386751 0.532611 0.656205
O O17 0.210274 0.336022 0.696232
O O18 0.500000 0.500000 0.000000
#
# Coordination Sequence:
#
# PCOD9035160 Si02
#       8
#     2   2   2   2   2   2   2   2
#     4  11  24  45  65  98 140 184 231 286 354 417
#     4  11  24  43  72 103 135 177 239 297 352 419
#     4   9  21  42  68  98 132 176 231 288 342 412
#     4  12  26  44  68 106 140 186 238 288 357 420
#     4  11  24  44  70 100 146 185 231 292 351 422
#     4  12  24  46  72 102 146 189 235 289 356 422
#     4  12  26  42  69 102 144 188 237 287 348 428
#     4  10  22  45  71  96 132 190 228 288 357 417
#
# _framework density 24.260445000000001
#
# number of rings (size 3 to 8) (size 9 to 14) (size 15 to 20)
#    0.000    1.000    2.500    4.125    7.000    0.000 
#    0.000    9.375    0.000    0.000    0.000    0.000 
#    0.000    0.000    0.000    0.000    0.000    0.000 
#
# Total GULP energy -89236.849275 kJ/mol
# GULP energy per Si atom -5577.303080 kJ/mol
# Density = 2.420523 g / cm^3
# Si number density = 24.260445 Si / 1000 Ang^3
#
#
#
# Elastic Constant Matrix: (Units=GPa)
#
#
# Indices 1 2 3 4 5 6 
#
# 1 68.3405 17.1706 -7.5721 0.4515 4.9925 -14.4554
# 2 17.1706 66.0032 20.7848 -17.0891 -4.4830 -21.8163
# 3 -7.5721 20.7848 72.7976 -10.7247 7.8774 -13.9939
# 4 0.4515 -17.0891 -10.7247 50.0344 -13.9053 -1.3221
# 5 4.9925 -4.4830 7.8774 -13.9053 41.2814 -10.0238
# 6 -14.4554 -21.8163 -13.9939 -1.3221 -10.0238 49.7840
#
#
#
# Elastic Compliance Matrix: (Units=1/GPa)
#
#
# Indices 1 2 3 4 5 6 
#
# 1 0.017380 -0.005579 0.004043 -0.002077 -0.003453 0.002988
# 2 -0.005579 0.025188 -0.005351 0.010709 0.010545 0.010321
# 3 0.004043 -0.005351 0.016726 0.000892 -0.003257 0.002898
# 4 -0.002077 0.010709 0.000892 0.027482 0.012335 0.007554
# 5 -0.003453 0.010545 -0.003257 0.012335 0.032908 0.009656
# 6 0.002988 0.010321 0.002898 0.007554 0.009656 0.028437
#
#
# Mechanical properties :
#
#
# Convention : Reuss Voigt Hill
#
# Bulk Modulus (GPa) = 21.96878 29.76756 25.86817
# Shear Modulus (GPa) = 28.23760 40.00381 34.12070
#
# Velocity S-wave (km/s) = 3.41535 4.06511 3.75431
# Velocity P-wave (km/s) = 4.96265 5.85919 5.42946
#
# Compressibility (1/GPa) = 0.04551914
#
# Stress axis : x y z
#
# Youngs Moduli (GPa) = 57.53646 39.70173 59.78663
#
# Poissons Ratio (x) = 0.22151 -0.24171
# Poissons Ratio (y) = 0.32101 0.31992
# Poissons Ratio (z) = -0.23261 0.21245
#
# Static dielectric constant tensor:
#      x y z
#    x 2.104270 -0.006990 -0.115770 
#    y -0.006990 1.976030 0.043010 
#    z -0.115770 0.043010 2.029780 
# 
# From -- ./inp_files/187082.got.cif
#   From: 2010.05.17/outbox.cif.g08.bks.cpg/sg2_94_cif.got.tgz:187082.got - 2010.06.03 11:33:40.
