data_PCOD9035501
_publ_section_title
;
Structure prediction by ZEFSAII (Michael W. Deem and Ramdas Pophale) SiO2 
 PCOD9035501
Probable space group: P -1
;
_chemical_formula_sum "Si O2"
_cell_formula_units_Z 11
_cell_length_a 7.764187
_cell_length_b 6.516771
_cell_length_c 14.895943
_cell_angle_alpha 112.070084
_cell_angle_beta 135.428086
_cell_angle_gamma 61.988206
_cell_volume 465.949219
_symmetry_space_group_name_H-M "P -1"
_symmetry_group_IT_number 2
_symmetry_cell_setting 'triclinic'
loop_
_space_group_symop_operation_xyz
x,y,z
-x,-y,-z
loop_
_atom_site_type_symbol
_atom_site_label
_atom_site_fract_x
_atom_site_fract_y
_atom_site_fract_z
Si Si1 0.240096 0.206566 0.454444
Si Si2 0.549674 0.394874 0.335944
Si Si3 0.096165 0.326628 0.089069
Si Si4 0.389387 0.821859 0.048333
Si Si5 0.000000 0.000000 0.500000
Si Si6 0.722507 0.391345 0.196060
O O1 0.335245 0.429875 0.540174
O O2 0.024247 0.265030 0.305794
O O3 0.500000 0.000000 0.500000
O O4 0.097412 0.145759 0.478859
O O5 0.244447 0.436873 0.234219
O O6 0.597587 0.429153 0.254162
O O7 0.702047 0.141752 0.387402
O O8 0.850587 0.267205 0.025880
O O9 0.000000 0.500000 0.000000
O O10 0.302879 0.086098 0.091779
O O11 0.394636 0.770829 0.935918
O O12 0.641118 0.645353 0.159868
#
# Coordination Sequence:
#
# PCOD9035501 Si02
#       6
#     2   2   2   2   1   2
#     4  11  27  46  71 104 139 180 235 284 341 420
#     4  11  25  44  69 101 137 175 234 281 347 406
#     4  11  24  42  68  98 136 181 227 283 335 415
#     4  10  24  43  68  97 137 181 226 278 349 401
#     4  10  24  46  72  96 134 190 212 294 346 392
#     4  10  22  46  66  97 137 177 227 287 330 417
#
# _framework density 23.607724999999999
#
# number of rings (size 3 to 8) (size 9 to 14) (size 15 to 20)
#    0.000    1.455    1.818    2.182   10.182    1.455 
#    3.273    0.000    0.000    0.000    0.000    0.000 
#    0.000    0.000    0.000    0.000    0.000    0.000 
#
# Total GULP energy -61285.029455 kJ/mol
# GULP energy per Si atom -5571.366314 kJ/mol
# Density = 2.355399 g / cm^3
# Si number density = 23.607725 Si / 1000 Ang^3
#
#
#
# Elastic Constant Matrix: (Units=GPa)
#
#
# Indices 1 2 3 4 5 6 
#
# 1 57.0321 14.0172 10.2206 -8.6889 15.0624 4.3411
# 2 14.0172 82.2535 59.8125 -29.0099 4.3052 -13.6535
# 3 10.2206 59.8125 140.6462 -47.7144 13.7384 9.8848
# 4 -8.6889 -29.0099 -47.7144 42.1800 -9.2652 7.9782
# 5 15.0624 4.3052 13.7384 -9.2652 37.1055 -1.8915
# 6 4.3411 -13.6535 9.8848 7.9782 -1.8915 38.2678
#
#
#
# Elastic Compliance Matrix: (Units=1/GPa)
#
#
# Indices 1 2 3 4 5 6 
#
# 1 0.021646 -0.005365 0.003311 0.003809 -0.008768 -0.006452
# 2 -0.005365 0.022383 -0.009447 0.002509 0.004252 0.010722
# 3 0.003311 -0.009447 0.017091 0.014929 -0.003431 -0.011443
# 4 0.003809 0.002509 0.014929 0.046320 0.003545 -0.012875
# 5 -0.008768 0.004252 -0.003431 0.003545 0.032389 0.004260
# 6 -0.006452 0.010722 -0.011443 -0.012875 0.004260 0.036540
#
#
# Mechanical properties :
#
#
# Convention : Reuss Voigt Hill
#
# Bulk Modulus (GPa) = 26.23419 49.78137 38.00778
# Shear Modulus (GPa) = 23.57626 36.56941 30.07284
#
# Velocity S-wave (km/s) = 3.16360 3.94006 3.57298
# Velocity P-wave (km/s) = 4.94784 6.46772 5.75815
#
# Compressibility (1/GPa) = 0.03811820
#
# Stress axis : x y z
#
# Youngs Moduli (GPa) = 46.19692 44.67596 58.51057
#
# Poissons Ratio (x) = 0.23969 -0.19371
# Poissons Ratio (y) = 0.24785 0.55274
# Poissons Ratio (z) = -0.15294 0.42205
#
# Static dielectric constant tensor:
#      x y z
#    x 1.943050 -0.029670 -0.047770 
#    y -0.029670 1.899420 0.032920 
#    z -0.047770 0.032920 1.824490 
# 
# From -- ./inp_files/21307.got.cif
#   From: 2010.05.17/outbox.cif.g08.bks.cpg/sg2_11_cif.got.tgz:21307.got - 2010.06.03 11:33:40.
