data_PCOD9035960
_publ_section_title
;
Structure prediction by ZEFSAII (Michael W. Deem and Ramdas Pophale) SiO2 
 PCOD9035960
Probable space group: P -1
;
_chemical_formula_sum "Si O2"
_cell_formula_units_Z 16
_cell_length_a 10.129068
_cell_length_b 7.581763
_cell_length_c 20.974117
_cell_angle_alpha 41.416028
_cell_angle_beta 144.580535
_cell_angle_gamma 131.861594
_cell_volume 610.869303
_symmetry_space_group_name_H-M "P -1"
_symmetry_group_IT_number 2
_symmetry_cell_setting 'triclinic'
loop_
_space_group_symop_operation_xyz
x,y,z
-x,-y,-z
loop_
_atom_site_type_symbol
_atom_site_label
_atom_site_fract_x
_atom_site_fract_y
_atom_site_fract_z
Si Si1 0.652375 0.596154 0.693082
Si Si2 0.375325 0.204963 0.508366
Si Si3 0.034836 0.776658 0.144160
Si Si4 0.715092 0.779504 0.794130
Si Si5 0.880107 0.311245 0.314096
Si Si6 0.808117 0.533591 0.365568
Si Si7 0.507528 0.829545 0.111645
Si Si8 0.573191 0.783289 0.916482
O O1 0.625676 0.785794 0.571260
O O2 0.748867 0.341313 0.769744
O O3 0.816701 0.727909 0.778502
O O4 0.417481 0.531021 0.659051
O O5 0.500000 0.500000 0.500000
O O6 0.107500 0.165854 0.434866
O O7 0.525263 0.982573 0.652161
O O8 0.390240 0.518028 0.140025
O O9 0.945267 0.568218 0.222963
O O10 0.841580 0.767712 0.016113
O O11 0.372629 0.817767 0.777363
O O12 0.892576 0.946981 0.865011
O O13 0.858349 0.387813 0.358601
O O14 0.765544 0.817399 0.242321
O O15 0.000000 0.500000 0.500000
O O16 0.404065 0.981077 0.086498
O O17 0.500000 0.000000 0.000000
O O18 0.500000 0.500000 0.000000
#
# Coordination Sequence:
#
# PCOD9035960 Si02
#       8
#     2   2   2   2   2   2   2   2
#     4  10  23  45  72 123 164 210 271 346 425 498
#     4  11  20  44  81 121 165 215 269 344 430 500
#     4  10  22  48  82 115 162 222 280 345 410 504
#     4  11  24  45  81 121 161 210 289 343 413 500
#     4  10  22  46  80 121 166 221 264 346 425 504
#     4  11  25  47  79 123 161 212 280 347 413 503
#     4  11  26  53  75 115 170 223 278 346 422 506
#     4  10  23  49  77 110 158 223 283 330 413 500
#
# _framework density 26.192184000000001
#
# number of rings (size 3 to 8) (size 9 to 14) (size 15 to 20)
#    0.000    1.500    2.500    2.625    0.000    2.500 
#   29.250    6.250    0.000    0.000    0.000    0.000 
#    0.000    0.000    0.000    0.000    0.000    0.000 
#
# Total GULP energy -89421.349086 kJ/mol
# GULP energy per Si atom -5588.834318 kJ/mol
# Density = 2.613257 g / cm^3
# Si number density = 26.192184 Si / 1000 Ang^3
#
#
#
# Elastic Constant Matrix: (Units=GPa)
#
#
# Indices 1 2 3 4 5 6 
#
# 1 172.7057 67.1725 70.0309 22.5153 -24.1280 -12.9124
# 2 67.1725 147.5295 70.3196 -1.5874 -4.2359 -6.9860
# 3 70.0309 70.3196 185.6489 22.5257 -11.3735 -1.2828
# 4 22.5153 -1.5874 22.5257 53.0862 -0.8352 -4.5527
# 5 -24.1280 -4.2359 -11.3735 -0.8352 56.4814 4.2438
# 6 -12.9124 -6.9860 -1.2828 -4.5527 4.2438 43.3518
#
#
#
# Elastic Compliance Matrix: (Units=1/GPa)
#
#
# Indices 1 2 3 4 5 6 
#
# 1 0.008466 -0.003013 -0.001514 -0.002872 0.002938 0.001402
# 2 -0.003013 0.009577 -0.002904 0.002862 -0.001185 0.000977
# 3 -0.001514 -0.002904 0.007415 -0.002670 0.000668 -0.001045
# 4 -0.002872 0.002862 -0.002670 0.021416 -0.001377 0.001911
# 5 0.002938 -0.001185 0.000668 -0.001377 0.019083 -0.001309
# 6 0.001402 0.000977 -0.001045 0.001911 -0.001309 0.023940
#
#
# Mechanical properties :
#
#
# Convention : Reuss Voigt Hill
#
# Bulk Modulus (GPa) = 94.37600 102.32556 98.35078
# Shear Modulus (GPa) = 46.17121 50.47461 48.32291
#
# Velocity S-wave (km/s) = 4.20311 4.39462 4.29993
# Velocity P-wave (km/s) = 7.72432 8.05620 7.89200
#
# Compressibility (1/GPa) = 0.01059591
#
# Stress axis : x y z
#
# Youngs Moduli (GPa) = 118.12450 104.41155 134.85467
#
# Poissons Ratio (x) = 0.31459 0.20418
# Poissons Ratio (y) = 0.35591 0.39165
# Poissons Ratio (z) = 0.17885 0.30323
#
# Static dielectric constant tensor:
#      x y z
#    x 2.105670 0.082470 0.041050 
#    y 0.082470 2.156370 0.014100 
#    z 0.041050 0.014100 2.198600 
# 
# From -- ./inp_files/556925.got.cif
#   From: 2010.05.17/outbox.cif.g08.bks.cpg/sg2_279_cif.got.tgz:556925.got - 2010.06.03 11:33:40.
