data_PCOD9035778
_publ_section_title
;
Structure prediction by ZEFSAII (Michael W. Deem and Ramdas Pophale) SiO2 
 PCOD9035778
Probable space group: P -1
;
_chemical_formula_sum "Si O2"
_cell_formula_units_Z 16
_cell_length_a 9.060903
_cell_length_b 5.621584
_cell_length_c 13.894507
_cell_angle_alpha 91.197103
_cell_angle_beta 98.921395
_cell_angle_gamma 109.036620
_cell_volume 659.000699
_symmetry_space_group_name_H-M "P -1"
_symmetry_group_IT_number 2
_symmetry_cell_setting 'triclinic'
loop_
_space_group_symop_operation_xyz
x,y,z
-x,-y,-z
loop_
_atom_site_type_symbol
_atom_site_label
_atom_site_fract_x
_atom_site_fract_y
_atom_site_fract_z
Si Si1 0.481231 0.791440 0.879414
Si Si2 0.349519 0.419571 0.690519
Si Si3 0.927207 0.642321 0.765073
Si Si4 0.172615 0.707302 0.955477
Si Si5 0.906813 0.044382 0.396753
Si Si6 0.622503 0.177652 0.747267
Si Si7 0.584476 0.160067 0.420193
Si Si8 0.803560 0.776431 0.939130
O O1 0.377500 0.620029 0.780923
O O2 0.354694 0.808998 0.942380
O O3 0.612656 0.676680 0.926445
O O4 0.587632 0.059783 0.847917
O O5 0.176871 0.211646 0.674299
O O6 0.490773 0.308264 0.715723
O O7 0.365978 0.541607 0.586599
O O8 0.793992 0.368242 0.744594
O O9 0.847911 0.797113 0.830259
O O10 0.073293 0.638976 0.845907
O O11 0.983735 0.758609 0.667295
O O12 0.146469 0.452126 0.012370
O O13 0.141053 0.950567 0.001564
O O14 0.750145 0.112751 0.412910
O O15 0.000000 0.000000 0.500000
O O16 0.562124 0.938071 0.670276
O O17 0.500000 0.000000 0.500000
#
# Coordination Sequence:
#
# PCOD9035778 Si02
#       8
#     2   2   2   2   2   2   2   2
#     4  11  24  47  75 109 146 204 261 317 375 460
#     4  10  22  46  72 102 146 198 251 303 385 457
#     4  12  26  50  72 109 159 201 250 329 385 464
#     4  12  28  48  78 116 158 204 267 326 387 461
#     4  11  28  48  75 113 148 196 251 312 395 457
#     4  10  23  43  73 102 143 206 250 301 395 445
#     4  10  24  45  72 107 140 192 256 317 375 463
#     4  12  27  48  77 115 154 211 264 316 396 464
#
# _framework density 24.279187
#
# number of rings (size 3 to 8) (size 9 to 14) (size 15 to 20)
#    0.000    1.000    1.250    4.500    7.000    2.500 
#    6.750    0.000    0.000    0.000    0.000    0.000 
#    0.000    0.000    0.000    0.000    0.000    0.000 
#
# Total GULP energy -89415.788428 kJ/mol
# GULP energy per Si atom -5588.486777 kJ/mol
# Density = 2.422393 g / cm^3
# Si number density = 24.279187 Si / 1000 Ang^3
#
#
#
# Elastic Constant Matrix: (Units=GPa)
#
#
# Indices 1 2 3 4 5 6 
#
# 1 145.7557 51.0276 47.6539 -17.7372 7.8583 16.4177
# 2 51.0276 127.6811 33.4503 -19.5008 5.2690 21.4009
# 3 47.6539 33.4503 98.4847 -27.1913 14.3377 9.2764
# 4 -17.7372 -19.5008 -27.1913 38.4969 9.8943 6.7532
# 5 7.8583 5.2690 14.3377 9.8943 45.7275 -3.1957
# 6 16.4177 21.4009 9.2764 6.7532 -3.1957 48.5305
#
#
#
# Elastic Compliance Matrix: (Units=1/GPa)
#
#
# Indices 1 2 3 4 5 6 
#
# 1 0.009034 -0.002301 -0.002903 0.001462 -0.000815 -0.001744
# 2 -0.002301 0.010542 -0.000121 0.005634 -0.002335 -0.004785
# 3 -0.002903 -0.000121 0.016895 0.013396 -0.008004 -0.004585
# 4 0.001462 0.005634 0.013396 0.045286 -0.015799 -0.012882
# 5 -0.000815 -0.002335 -0.008004 -0.015799 0.028690 0.006923
# 6 -0.001744 -0.004785 -0.004585 -0.012882 0.006923 0.026430
#
#
# Mechanical properties :
#
#
# Convention : Reuss Voigt Hill
#
# Bulk Modulus (GPa) = 38.72832 70.68722 54.70777
# Shear Modulus (GPa) = 32.02376 42.53697 37.28036
#
# Velocity S-wave (km/s) = 3.63572 4.19022 3.92278
# Velocity P-wave (km/s) = 5.79745 7.25177 6.56501
#
# Compressibility (1/GPa) = 0.02582090
#
# Stress axis : x y z
#
# Youngs Moduli (GPa) = 110.69771 94.85806 59.18742
#
# Poissons Ratio (x) = 0.21822 0.17184
# Poissons Ratio (y) = 0.25466 0.00718
# Poissons Ratio (z) = 0.32139 0.01151
#
# Static dielectric constant tensor:
#      x y z
#    x 1.974570 -0.012710 -0.007410 
#    y -0.012710 2.000850 0.008660 
#    z -0.007410 0.008660 2.028970 
# 
# From -- ./inp_files/488448.got.cif
#   From: 2010.05.17/outbox.cif.g08.bks.cpg/sg2_245_cif.got.tgz:488448.got - 2010.06.03 11:33:40.
