data_PCOD9035179
_publ_section_title
;
Structure prediction by ZEFSAII (Michael W. Deem and Ramdas Pophale) SiO2 
 PCOD9035179
Probable space group: P -1
;
_chemical_formula_sum "Si O2"
_cell_formula_units_Z 16
_cell_length_a 11.711736
_cell_length_b 20.204699
_cell_length_c 8.450426
_cell_angle_alpha 33.338502
_cell_angle_beta 127.251669
_cell_angle_gamma 138.626081
_cell_volume 725.101923
_symmetry_space_group_name_H-M "P -1"
_symmetry_group_IT_number 2
_symmetry_cell_setting 'triclinic'
loop_
_space_group_symop_operation_xyz
x,y,z
-x,-y,-z
loop_
_atom_site_type_symbol
_atom_site_label
_atom_site_fract_x
_atom_site_fract_y
_atom_site_fract_z
Si Si1 0.574840 0.886084 0.356550
Si Si2 0.194660 0.083416 0.935388
Si Si3 0.170248 0.583018 0.868547
Si Si4 0.717093 0.348428 0.659140
Si Si5 0.694698 0.104437 0.742576
Si Si6 0.151213 0.147679 0.408992
Si Si7 0.050431 0.372311 0.905090
Si Si8 0.519772 0.365231 0.760731
O O1 0.414835 0.763955 0.358515
O O2 0.496092 0.925270 0.355403
O O3 0.681964 0.817293 0.619483
O O4 0.689100 0.029431 0.055357
O O5 0.260644 0.976835 0.183732
O O6 0.191524 0.135923 0.649672
O O7 0.328669 0.218466 0.886613
O O8 0.000000 0.000000 0.000000
O O9 0.183656 0.722774 0.523607
O O10 0.144543 0.469246 0.943645
O O11 0.346128 0.631317 0.010397
O O12 0.000000 0.500000 0.000000
O O13 0.858677 0.510115 0.393427
O O14 0.605788 0.361493 0.674118
O O15 0.847030 0.300720 0.906992
O O16 0.095984 0.257990 0.137836
O O17 0.000000 0.000000 0.500000
O O18 0.500000 0.500000 0.500000
#
# Coordination Sequence:
#
# PCOD9035179 Si02
#       8
#     2   2   2   2   2   2   2   2
#     4  10  22  45  71  99 136 177 230 286 349 410
#     4  11  27  47  68 101 144 188 227 288 360 414
#     4  12  26  44  70 107 139 184 232 290 351 423
#     4  11  23  46  71  98 136 188 223 284 360 409
#     4  10  23  42  75  95 137 178 234 281 350 412
#     4  11  26  43  69 103 132 175 231 288 340 409
#     4  11  26  43  71 103 140 177 234 288 349 422
#     4  12  27  47  70 101 145 189 232 288 356 418
#
# _framework density 22.065863
#
# number of rings (size 3 to 8) (size 9 to 14) (size 15 to 20)
#    0.000    1.000    5.000    0.750    8.750    4.000 
#    0.000    0.000    0.000    0.000    0.000    0.000 
#    0.000    0.000    0.000    0.000    0.000    0.000 
#
# Total GULP energy -89356.369474 kJ/mol
# GULP energy per Si atom -5584.773092 kJ/mol
# Density = 2.201564 g / cm^3
# Si number density = 22.065863 Si / 1000 Ang^3
#
#
#
# Elastic Constant Matrix: (Units=GPa)
#
#
# Indices 1 2 3 4 5 6 
#
# 1 172.1101 42.4830 56.1830 -21.0558 41.4071 19.1317
# 2 42.4830 151.9895 36.8610 -14.6082 26.9371 16.5713
# 3 56.1830 36.8610 98.9416 -29.2275 35.4464 4.0551
# 4 -21.0558 -14.6082 -29.2275 34.2720 -3.6911 6.9387
# 5 41.4071 26.9371 35.4464 -3.6911 50.9262 -9.0906
# 6 19.1317 16.5713 4.0551 6.9387 -9.0906 32.8450
#
#
#
# Elastic Compliance Matrix: (Units=1/GPa)
#
#
# Indices 1 2 3 4 5 6 
#
# 1 0.010177 0.000881 0.000520 0.008183 -0.010485 -0.011067
# 2 0.000881 0.008849 0.000793 0.005908 -0.006995 -0.008259
# 3 0.000520 0.000793 0.022031 0.020125 -0.016924 -0.012358
# 4 0.008183 0.005908 0.020125 0.057117 -0.024854 -0.029177
# 5 -0.010485 -0.006995 -0.016924 -0.024854 0.047201 0.030040
# 6 -0.011067 -0.008259 -0.012358 -0.029177 0.030040 0.057063
#
#
# Mechanical properties :
#
#
# Convention : Reuss Voigt Hill
#
# Bulk Modulus (GPa) = 22.00537 77.12168 49.56353
# Shear Modulus (GPa) = 23.45230 42.77626 33.11428
#
# Velocity S-wave (km/s) = 3.26365 4.40770 3.87809
# Velocity P-wave (km/s) = 4.91895 7.80579 6.52405
#
# Compressibility (1/GPa) = 0.04544344
#
# Stress axis : x y z
#
# Youngs Moduli (GPa) = 98.26248 113.00770 45.39106
#
# Poissons Ratio (x) = -0.09952 -0.02361
# Poissons Ratio (y) = -0.08653 -0.03598
# Poissons Ratio (z) = -0.05111 -0.08959
#
# Static dielectric constant tensor:
#      x y z
#    x 1.856130 0.020590 -0.018210 
#    y 0.020590 1.813630 0.033340 
#    z -0.018210 0.033340 1.873890 
# 
# From -- ./inp_files/282651.got.cif
#   From: 2010.05.17/outbox.cif.g08.bks.cpg/sg2_142_cif.got.tgz:282651.got - 2010.06.03 11:33:40.
