data_PCOD9035421
_publ_section_title
;
Structure prediction by ZEFSAII (Michael W. Deem and Ramdas Pophale) SiO2 
 PCOD9035421
Probable space group: P -1
;
_chemical_formula_sum "Si O2"
_cell_formula_units_Z 13
_cell_length_a 16.778169
_cell_length_b 13.451296
_cell_length_c 10.674156
_cell_angle_alpha 39.717076
_cell_angle_beta 146.761600
_cell_angle_gamma 155.704622
_cell_volume 543.032491
_symmetry_space_group_name_H-M "P -1"
_symmetry_group_IT_number 2
_symmetry_cell_setting 'triclinic'
loop_
_space_group_symop_operation_xyz
x,y,z
-x,-y,-z
loop_
_atom_site_type_symbol
_atom_site_label
_atom_site_fract_x
_atom_site_fract_y
_atom_site_fract_z
Si Si1 0.990070 0.616591 0.761975
Si Si2 0.527987 0.332351 0.824021
Si Si3 0.500000 0.000000 0.000000
Si Si4 0.639328 0.272596 0.420508
Si Si5 0.858943 0.656160 0.160910
Si Si6 0.811322 0.924312 0.996149
Si Si7 0.858952 0.745203 0.664786
O O1 0.780779 0.402534 0.606669
O O2 0.935551 0.731961 0.649531
O O3 0.224273 0.803449 0.813375
O O4 0.000000 0.500000 0.000000
O O5 0.693967 0.489311 0.769747
O O6 0.303475 0.242265 0.584446
O O7 0.653527 0.510678 0.933480
O O8 0.495952 0.122540 0.993574
O O9 0.814914 0.456784 0.362613
O O10 0.451484 0.253728 0.176038
O O11 0.500000 0.000000 0.500000
O O12 0.863457 0.796413 0.134436
O O13 0.077011 0.861950 0.162117
O O14 0.934458 0.050776 0.167960
#
# Coordination Sequence:
#
# PCOD9035421 Si02
#       7
#     2   2   1   2   2   2   2
#     4  12  27  49  71 107 145 190 245 303 359 433
#     4  10  23  44  74 107 140 191 237 298 358 431
#     4  12  28  44  76 104 144 190 244 302 366 418
#     4  12  28  44  70 104 145 192 235 293 366 433
#     4  10  24  46  70 102 146 184 240 294 359 429
#     4  10  23  47  74 105 142 187 240 303 355 430
#     4  10  22  45  77 106 141 187 246 293 362 424
#
# _framework density 23.939637000000001
#
# number of rings (size 3 to 8) (size 9 to 14) (size 15 to 20)
#    0.000    1.231    1.538    2.308    8.615    3.692 
#    0.000    0.000    0.000    0.000    0.000    0.000 
#    0.000    0.000    0.000    0.000    0.000    0.000 
#
# Total GULP energy -72510.031908 kJ/mol
# GULP energy per Si atom -5577.694762 kJ/mol
# Density = 2.388515 g / cm^3
# Si number density = 23.939637 Si / 1000 Ang^3
#
#
#
# Elastic Constant Matrix: (Units=GPa)
#
#
# Indices 1 2 3 4 5 6 
#
# 1 110.9557 45.5299 52.8960 23.4528 13.1785 -8.8428
# 2 45.5299 118.4509 29.8366 21.0698 -13.7146 1.3461
# 3 52.8960 29.8366 72.1565 32.2845 -1.0895 7.2164
# 4 23.4528 21.0698 32.2845 60.8497 7.5369 -10.6691
# 5 13.1785 -13.7146 -1.0895 7.5369 35.3786 -0.2055
# 6 -8.8428 1.3461 7.2164 -10.6691 -0.2055 36.0593
#
#
#
# Elastic Compliance Matrix: (Units=1/GPa)
#
#
# Indices 1 2 3 4 5 6 
#
# 1 0.020188 -0.006259 -0.016187 0.006213 -0.011709 0.010195
# 2 -0.006259 0.012096 0.002110 -0.004540 0.008031 -0.003706
# 3 -0.016187 0.002110 0.034098 -0.016756 0.011376 -0.015765
# 4 0.006213 -0.004540 -0.016756 0.028137 -0.010507 0.013312
# 5 -0.011709 0.008031 0.011376 -0.010507 0.038281 -0.008339
# 6 0.010195 -0.003706 -0.015765 0.013312 -0.008339 0.037417
#
#
# Mechanical properties :
#
#
# Convention : Reuss Voigt Hill
#
# Bulk Modulus (GPa) = 38.89597 62.00977 50.45287
# Shear Modulus (GPa) = 22.78313 38.01090 30.39702
#
# Velocity S-wave (km/s) = 3.08830 3.98902 3.56720
# Velocity P-wave (km/s) = 5.38512 6.86842 6.17150
#
# Compressibility (1/GPa) = 0.02570961
#
# Stress axis : x y z
#
# Youngs Moduli (GPa) = 49.53422 82.66983 29.32690
#
# Poissons Ratio (x) = 0.51744 0.47472
# Poissons Ratio (y) = 0.31004 -0.06187
# Poissons Ratio (z) = 0.80183 -0.17442
#
# Static dielectric constant tensor:
#      x y z
#    x 1.924330 0.029860 0.019690 
#    y 0.029860 2.007920 -0.066730 
#    z 0.019690 -0.066730 1.908390 
# 
# From -- ./inp_files/306639.got.cif
#   From: 2010.05.17/outbox.cif.g08.bks.cpg/sg2_154_cif.got.tgz:306639.got - 2010.06.03 11:33:40.
