data_PCOD9035166
_publ_section_title
;
Structure prediction by ZEFSAII (Michael W. Deem and Ramdas Pophale) SiO2 
 PCOD9035166
Probable space group: P -1
;
_chemical_formula_sum "Si O2"
_cell_formula_units_Z 15
_cell_length_a 11.979423
_cell_length_b 11.406728
_cell_length_c 14.135565
_cell_angle_alpha 129.128607
_cell_angle_beta 146.071546
_cell_angle_gamma 37.984030
_cell_volume 662.041015
_symmetry_space_group_name_H-M "P -1"
_symmetry_group_IT_number 2
_symmetry_cell_setting 'triclinic'
loop_
_space_group_symop_operation_xyz
x,y,z
-x,-y,-z
loop_
_atom_site_type_symbol
_atom_site_label
_atom_site_fract_x
_atom_site_fract_y
_atom_site_fract_z
Si Si1 0.969763 0.190510 0.050515
Si Si2 0.462522 0.040078 0.222037
Si Si3 0.085043 0.058046 0.403418
Si Si4 0.397769 0.893167 0.918407
Si Si5 0.705951 0.600257 0.838773
Si Si6 0.500000 0.500000 0.000000
Si Si7 0.631245 0.321063 0.693387
Si Si8 0.210363 0.524515 0.646524
O O1 0.253302 0.123034 0.199082
O O2 0.793929 0.358758 0.087595
O O3 0.835672 0.261071 0.888995
O O4 0.000000 0.000000 0.000000
O O5 0.411594 0.220749 0.222108
O O6 0.752633 0.918848 0.397212
O O7 0.412846 0.921489 0.054913
O O8 0.880525 0.024385 0.271149
O O9 0.909189 0.253166 0.321011
O O10 0.291592 0.872444 0.395227
O O11 0.581321 0.682495 0.897025
O O12 0.500000 0.000000 0.000000
O O13 0.653509 0.450524 0.702487
O O14 0.000000 0.500000 0.000000
O O15 0.413582 0.419720 0.818647
O O16 0.358269 0.442041 0.610280
O O17 0.000000 0.500000 0.500000
#
# Coordination Sequence:
#
# PCOD9035166 Si02
#       8
#     2   2   2   2   2   1   2   2
#     4  11  23  43  68 101 134 183 238 281 352 413
#     4  11  26  42  72 105 139 194 232 289 365 415
#     4  12  25  45  69 105 145 179 235 291 354 421
#     4  10  22  45  71  96 142 184 227 292 350 414
#     4  11  21  45  71 104 139 182 240 289 350 420
#     4  10  26  44  72  92 136 188 230 290 342 406
#     4  11  23  45  71  97 143 183 232 299 342 415
#     4  11  27  46  67 105 139 186 241 287 352 416
#
# _framework density 22.657208000000001
#
# number of rings (size 3 to 8) (size 9 to 14) (size 15 to 20)
#    0.000    1.067    4.000    1.600    5.600    3.200 
#    2.400    0.000    0.000    0.000    0.000    0.000 
#    0.000    0.000    0.000    0.000    0.000    0.000 
#
# Total GULP energy -83554.517222 kJ/mol
# GULP energy per Si atom -5570.301148 kJ/mol
# Density = 2.260564 g / cm^3
# Si number density = 22.657208 Si / 1000 Ang^3
#
#
#
# Elastic Constant Matrix: (Units=GPa)
#
#
# Indices 1 2 3 4 5 6 
#
# 1 87.9876 27.9689 30.7393 -1.1326 31.0764 -16.4991
# 2 27.9689 75.5912 -8.1633 15.5803 9.8159 -17.0820
# 3 30.7393 -8.1633 107.7800 -18.0862 37.9126 -14.1949
# 4 -1.1326 15.5803 -18.0862 23.5896 0.6815 0.7661
# 5 31.0764 9.8159 37.9126 0.6815 37.3036 0.5424
# 6 -16.4991 -17.0820 -14.1949 0.7661 0.5424 44.7061
#
#
#
# Elastic Compliance Matrix: (Units=1/GPa)
#
#
# Indices 1 2 3 4 5 6 
#
# 1 0.019407 -0.004539 0.001894 0.005677 -0.017091 0.006139
# 2 -0.004539 0.019833 0.003884 -0.010426 -0.005301 0.007379
# 3 0.001894 0.003884 0.021257 0.014242 -0.024595 0.008987
# 4 0.005677 -0.010426 0.014242 0.060920 -0.017600 0.001803
# 5 -0.017091 -0.005301 -0.024595 -0.017600 0.068001 -0.016666
# 6 0.006139 0.007379 0.008987 0.001803 -0.016666 0.030478
#
#
# Mechanical properties :
#
#
# Convention : Reuss Voigt Hill
#
# Bulk Modulus (GPa) = 15.87941 41.38316 28.63128
# Shear Modulus (GPa) = 20.97232 35.84081 28.40656
#
# Velocity S-wave (km/s) = 3.04573 3.98159 3.54468
# Velocity P-wave (km/s) = 4.40368 6.28028 5.42376
#
# Compressibility (1/GPa) = 0.06297465
#
# Stress axis : x y z
#
# Youngs Moduli (GPa) = 51.52743 50.42162 47.04289
#
# Poissons Ratio (x) = 0.22888 -0.08912
# Poissons Ratio (y) = 0.23390 -0.18271
# Poissons Ratio (z) = -0.09761 -0.19583
#
# Static dielectric constant tensor:
#      x y z
#    x 1.913680 0.056220 -0.040720 
#    y 0.056220 2.102040 -0.080350 
#    z -0.040720 -0.080350 1.914580 
# 
# From -- ./inp_files/271986.got.cif
#   From: 2010.05.17/outbox.cif.g08.bks.cpg/sg2_136_cif.got.tgz:271986.got - 2010.06.03 11:33:40.
