data_PCOD9035452
_publ_section_title
;
Structure prediction by ZEFSAII (Michael W. Deem and Ramdas Pophale) SiO2 
 PCOD9035452
Probable space group: P -1
;
_chemical_formula_sum "Si O2"
_cell_formula_units_Z 14
_cell_length_a 13.855951
_cell_length_b 10.887953
_cell_length_c 7.384795
_cell_angle_alpha 112.543690
_cell_angle_beta 138.492094
_cell_angle_gamma 59.931616
_cell_volume 638.910574
_symmetry_space_group_name_H-M "P -1"
_symmetry_group_IT_number 2
_symmetry_cell_setting 'triclinic'
loop_
_space_group_symop_operation_xyz
x,y,z
-x,-y,-z
loop_
_atom_site_type_symbol
_atom_site_label
_atom_site_fract_x
_atom_site_fract_y
_atom_site_fract_z
Si Si1 0.956199 0.153055 0.113839
Si Si2 0.078644 0.676498 0.177001
Si Si3 0.540631 0.634914 0.060845
Si Si4 0.205159 0.846481 0.738927
Si Si5 0.257820 0.049319 0.661778
Si Si6 0.534565 0.784550 0.783913
Si Si7 0.750534 0.652169 0.683021
O O1 0.855665 0.154401 0.147527
O O2 0.121682 0.156104 0.413645
O O3 0.879150 0.271362 0.925493
O O4 0.000000 0.000000 0.000000
O O5 0.133830 0.755809 0.458568
O O6 0.169035 0.510350 0.233013
O O7 0.892322 0.711528 0.932782
O O8 0.683126 0.646469 0.384696
O O9 0.500000 0.500000 0.000000
O O10 0.390352 0.772368 0.966992
O O11 0.553969 0.652012 0.872175
O O12 0.177240 0.994225 0.681825
O O13 0.362113 0.905727 0.619704
O O14 0.363194 0.131367 0.934636
O O15 0.607777 0.732105 0.661718
#
# Coordination Sequence:
#
# PCOD9035452 Si02
#       7
#     2   2   2   2   2   2   2
#     4  12  25  38  67  97 128 170 217 259 319 383
#     4  11  25  44  64 101 129 170 219 259 326 386
#     4  11  24  43  66  98 129 168 217 261 326 385
#     4  11  24  43  66  95 135 168 210 276 313 378
#     4  10  22  46  63  98 131 169 217 262 324 377
#     4  10  24  43  69  93 133 169 211 272 320 380
#     4  11  25  43  69  94 132 171 214 268 320 386
#
# _framework density 21.912300999999999
#
# number of rings (size 3 to 8) (size 9 to 14) (size 15 to 20)
#    0.000    1.143    2.857    2.143    6.000    0.571 
#    0.000    6.429    0.000    0.000    0.000    0.000 
#    0.000    0.000    0.000    0.000    0.000    0.000 
#
# Total GULP energy -78270.384709 kJ/mol
# GULP energy per Si atom -5590.741765 kJ/mol
# Density = 2.186243 g / cm^3
# Si number density = 21.912301 Si / 1000 Ang^3
#
#
#
# Elastic Constant Matrix: (Units=GPa)
#
#
# Indices 1 2 3 4 5 6 
#
# 1 95.8290 2.1814 8.3439 -1.0058 -16.4678 3.2792
# 2 2.1814 41.7193 -5.1292 -4.3504 -7.7665 15.9163
# 3 8.3439 -5.1292 66.5136 -6.0472 3.3811 1.3562
# 4 -1.0058 -4.3504 -6.0472 28.1236 7.8207 6.6055
# 5 -16.4678 -7.7665 3.3811 7.8207 34.9730 -0.8237
# 6 3.2792 15.9163 1.3562 6.6055 -0.8237 32.9528
#
#
#
# Elastic Compliance Matrix: (Units=1/GPa)
#
#
# Indices 1 2 3 4 5 6 
#
# 1 0.011641 0.000489 -0.001837 -0.001377 0.006054 -0.000892
# 2 0.000489 0.032917 0.003376 0.008639 0.004865 -0.017697
# 3 -0.001837 0.003376 0.016252 0.005565 -0.003009 -0.003307
# 4 -0.001377 0.008639 0.005565 0.043763 -0.009367 -0.013271
# 5 0.006054 0.004865 -0.003009 -0.009367 0.034908 -0.000078
# 6 -0.000892 -0.017697 -0.003307 -0.013271 -0.000078 0.041777
#
#
# Mechanical properties :
#
#
# Convention : Reuss Voigt Hill
#
# Bulk Modulus (GPa) = 15.41668 23.87268 19.64468
# Shear Modulus (GPa) = 25.14787 32.45427 28.80107
#
# Velocity S-wave (km/s) = 3.39139 3.85268 3.62937
# Velocity P-wave (km/s) = 4.73141 5.54158 5.15245
#
# Compressibility (1/GPa) = 0.06486483
#
# Stress axis : x y z
#
# Youngs Moduli (GPa) = 85.90628 30.37922 61.53223
#
# Poissons Ratio (x) = -0.01486 0.11306
# Poissons Ratio (y) = -0.04201 -0.20773
# Poissons Ratio (z) = 0.15784 -0.10256
#
# Static dielectric constant tensor:
#      x y z
#    x 1.837900 0.012330 0.014160 
#    y 0.012330 1.779830 -0.030680 
#    z 0.014160 -0.030680 1.836730 
# 
# From -- ./inp_files/68370.got.cif
#   From: 2010.05.17/outbox.cif.g08.bks.cpg/sg2_35_cif.got.tgz:68370.got - 2010.06.03 11:33:40.
