data_PCOD9035404
_publ_section_title
;
Structure prediction by ZEFSAII (Michael W. Deem and Ramdas Pophale) SiO2 
 PCOD9035404
Probable space group: P -1
;
_chemical_formula_sum "Si O2"
_cell_formula_units_Z 12
_cell_length_a 7.512428
_cell_length_b 5.286902
_cell_length_c 11.918340
_cell_angle_alpha 73.174623
_cell_angle_beta 86.983277
_cell_angle_gamma 82.835070
_cell_volume 449.495935
_symmetry_space_group_name_H-M "P -1"
_symmetry_group_IT_number 2
_symmetry_cell_setting 'triclinic'
loop_
_space_group_symop_operation_xyz
x,y,z
-x,-y,-z
loop_
_atom_site_type_symbol
_atom_site_label
_atom_site_fract_x
_atom_site_fract_y
_atom_site_fract_z
Si Si1 0.877632 0.283998 0.483979
Si Si2 0.557952 0.050759 0.617965
Si Si3 0.035766 0.165277 0.868251
Si Si4 0.374621 0.360142 0.915234
Si Si5 0.295102 0.423023 0.165994
Si Si6 0.782335 0.132239 0.267727
O O1 0.704609 0.258450 0.573160
O O2 0.033321 0.014568 0.769551
O O3 0.804719 0.309472 0.355041
O O4 0.000000 0.500000 0.500000
O O5 0.500000 0.000000 0.500000
O O6 0.655337 0.792441 0.712272
O O7 0.358789 0.077958 0.673663
O O8 0.905609 0.436678 0.839616
O O9 0.241950 0.199661 0.874588
O O10 0.000000 0.000000 0.000000
O O11 0.575570 0.339271 0.864791
O O12 0.299036 0.664696 0.850972
O O13 0.346328 0.311773 0.053964
O O14 0.000000 0.000000 0.500000
#
# Coordination Sequence:
#
# PCOD9035404 Si02
#       6
#     2   2   2   2   2   2
#     4  11  27  49  78 116 151 206 276 335 406 480
#     4   9  22  51  78 106 153 207 267 333 395 479
#     4  12  25  42  73 115 161 207 263 325 399 484
#     4  10  23  45  68 110 157 203 266 324 398 481
#     4  10  22  45  76 108 155 213 262 324 408 472
#     4  10  24  49  71 108 158 205 261 333 393 480
#
# _framework density 26.696569
#
# number of rings (size 3 to 8) (size 9 to 14) (size 15 to 20)
#    0.000    1.667    1.667    0.500    4.667    0.667 
#    9.000    5.000    0.000    0.000    0.000    0.000 
#    0.000    0.000    0.000    0.000    0.000    0.000 
#
# Total GULP energy -67156.931659 kJ/mol
# GULP energy per Si atom -5596.410972 kJ/mol
# Density = 2.663581 g / cm^3
# Si number density = 26.696569 Si / 1000 Ang^3
#
#
#
# Elastic Constant Matrix: (Units=GPa)
#
#
# Indices 1 2 3 4 5 6 
#
# 1 103.4603 65.8745 61.6239 20.6250 -22.8052 37.7973
# 2 65.8745 123.1933 50.6862 5.8775 -14.6240 29.0045
# 3 61.6239 50.6862 197.4180 2.9078 -11.3980 -0.9779
# 4 20.6250 5.8775 2.9078 24.5979 -0.8627 4.8405
# 5 -22.8052 -14.6240 -11.3980 -0.8627 55.9885 -2.6861
# 6 37.7973 29.0045 -0.9779 4.8405 -2.6861 40.6273
#
#
#
# Elastic Compliance Matrix: (Units=1/GPa)
#
#
# Indices 1 2 3 4 5 6 
#
# 1 0.033343 -0.007138 -0.007887 -0.020469 0.008688 -0.023101
# 2 -0.007138 0.012983 -0.001165 0.003632 0.000155 -0.003079
# 3 -0.007887 -0.001165 0.007713 0.004406 -0.001508 0.007730
# 4 -0.020469 0.003632 0.004406 0.054330 -0.005188 0.009741
# 5 0.008688 0.000155 -0.001508 -0.005188 0.020754 -0.006239
# 6 -0.023101 -0.003079 0.007730 0.009741 -0.006239 0.046918
#
#
# Mechanical properties :
#
#
# Convention : Reuss Voigt Hill
#
# Bulk Modulus (GPa) = 46.16810 86.71565 66.44187
# Shear Modulus (GPa) = 23.18687 40.63520 31.91104
#
# Velocity S-wave (km/s) = 2.95029 3.90566 3.46110
# Velocity P-wave (km/s) = 5.37929 7.27264 6.39641
#
# Compressibility (1/GPa) = 0.02165998
#
# Stress axis : x y z
#
# Youngs Moduli (GPa) = 29.99142 77.02091 129.65511
#
# Poissons Ratio (x) = 0.54974 1.02256
# Poissons Ratio (y) = 0.21406 0.15108
# Poissons Ratio (z) = 0.23654 0.08975
#
# Static dielectric constant tensor:
#      x y z
#    x 2.135290 0.069490 0.009190 
#    y 0.069490 2.098670 0.014560 
#    z 0.009190 0.014560 2.101000 
# 
# From -- ./inp_files/372858.got.cif
#   From: 2010.05.17/outbox.cif.g08.bks.cpg/sg2_187_cif.got.tgz:372858.got - 2010.06.03 11:33:40.
