data_PCOD9035273
_publ_section_title
;
Structure prediction by ZEFSAII (Michael W. Deem and Ramdas Pophale) SiO2 
 PCOD9035273
Probable space group: P -1
;
_chemical_formula_sum "Si O2"
_cell_formula_units_Z 14
_cell_length_a 9.554776
_cell_length_b 20.015690
_cell_length_c 9.343525
_cell_angle_alpha 52.324807
_cell_angle_beta 60.970406
_cell_angle_gamma 26.793978
_cell_volume 628.378463
_symmetry_space_group_name_H-M "P -1"
_symmetry_group_IT_number 2
_symmetry_cell_setting 'triclinic'
loop_
_space_group_symop_operation_xyz
x,y,z
-x,-y,-z
loop_
_atom_site_type_symbol
_atom_site_label
_atom_site_fract_x
_atom_site_fract_y
_atom_site_fract_z
Si Si1 0.269255 0.358683 0.165802
Si Si2 0.352484 0.868741 0.986778
Si Si3 0.355487 0.337378 0.606796
Si Si4 0.424256 0.499347 0.381793
Si Si5 0.736599 0.448010 0.038768
Si Si6 0.583718 0.933241 0.883057
Si Si7 0.286100 0.225859 0.585870
O O1 0.191343 0.325080 0.367308
O O2 0.538362 0.199796 0.138367
O O3 0.326352 0.424362 0.120535
O O4 0.000000 0.500000 0.000000
O O5 0.580484 0.718923 0.186863
O O6 0.351915 0.966402 0.901721
O O7 0.000000 0.000000 0.000000
O O8 0.499708 0.365783 0.487482
O O9 0.469073 0.205668 0.630359
O O10 0.000000 0.500000 0.500000
O O11 0.500000 0.500000 0.500000
O O12 0.633953 0.466297 0.223967
O O13 0.039948 0.669023 0.331781
O O14 0.079993 0.262578 0.059339
O O15 0.500000 0.500000 0.000000
O O16 0.525957 0.042173 0.674837
O O17 0.500000 0.000000 0.000000
#
# Coordination Sequence:
#
# PCOD9035273 Si02
#       7
#     2   2   2   2   2   2   2
#     4  12  25  50  73 110 148 198 250 312 377 444
#     4  12  28  46  76 110 156 193 249 320 383 435
#     4  10  22  45  73 102 142 202 246 295 368 452
#     4  11  24  42  72 108 142 184 256 304 361 439
#     4  12  27  45  76 107 145 192 253 304 363 453
#     4  12  27  49  73 107 156 199 245 312 384 443
#     4  11  25  45  76 102 151 199 243 301 382 450
#
# _framework density 22.279565999999999
#
# number of rings (size 3 to 8) (size 9 to 14) (size 15 to 20)
#    0.000    0.571    2.857    5.143    8.000    1.714 
#    0.000    2.143    0.000    0.000    0.000    0.000 
#    0.000    0.000    0.000    0.000    0.000    0.000 
#
# Total GULP energy -78134.292722 kJ/mol
# GULP energy per Si atom -5581.020909 kJ/mol
# Density = 2.222886 g / cm^3
# Si number density = 22.279566 Si / 1000 Ang^3
#
#
#
# Elastic Constant Matrix: (Units=GPa)
#
#
# Indices 1 2 3 4 5 6 
#
# 1 157.3779 44.9907 24.0361 -11.2783 -10.6528 11.6598
# 2 44.9907 99.4617 32.8767 20.3137 -5.3103 15.9228
# 3 24.0361 32.8767 113.0259 2.0717 -10.0548 9.2462
# 4 -11.2783 20.3137 2.0717 32.3487 11.4910 -10.5385
# 5 -10.6528 -5.3103 -10.0548 11.4910 42.2695 -3.0366
# 6 11.6598 15.9228 9.2462 -10.5385 -3.0366 31.5463
#
#
#
# Elastic Compliance Matrix: (Units=1/GPa)
#
#
# Indices 1 2 3 4 5 6 
#
# 1 0.008315 -0.005448 -0.000545 0.007265 -0.000535 0.002212
# 2 -0.005448 0.020115 -0.002733 -0.020656 0.005132 -0.013745
# 3 -0.000545 -0.002733 0.010029 -0.000183 0.001866 -0.001240
# 4 0.007265 -0.020656 -0.000183 0.060530 -0.015356 0.026537
# 5 -0.000535 0.005132 0.001866 -0.015356 0.028403 -0.005335
# 6 0.002212 -0.013745 -0.001240 0.026537 -0.005335 0.046535
#
#
# Mechanical properties :
#
#
# Convention : Reuss Voigt Hill
#
# Bulk Modulus (GPa) = 47.60174 63.74140 55.67157
# Shear Modulus (GPa) = 25.20406 39.09704 32.15055
#
# Velocity S-wave (km/s) = 3.36707 4.19362 3.80287
# Velocity P-wave (km/s) = 6.04386 7.21946 6.65766
#
# Compressibility (1/GPa) = 0.02100764
#
# Stress axis : x y z
#
# Youngs Moduli (GPa) = 120.25881 49.71448 99.70869
#
# Poissons Ratio (x) = 0.27082 0.05439
# Poissons Ratio (y) = 0.65512 0.27249
# Poissons Ratio (z) = 0.06559 0.13586
#
# Static dielectric constant tensor:
#      x y z
#    x 1.614000 -0.295100 -0.159530 
#    y -0.295100 1.253750 -0.338460 
#    z -0.159530 -0.338460 1.636210 
# 
# From -- ./inp_files/216989.got.cif
#   From: 2010.05.17/outbox.cif.g08.bks.cpg/sg2_109_cif.got.tgz:216989.got - 2010.06.03 11:33:40.
