data_PCOD9035505
_publ_section_title
;
Structure prediction by ZEFSAII (Michael W. Deem and Ramdas Pophale) SiO2 
 PCOD9035505
Probable space group: P -1
;
_chemical_formula_sum "Si O2"
_cell_formula_units_Z 15
_cell_length_a 6.530621
_cell_length_b 14.605625
_cell_length_c 10.884041
_cell_angle_alpha 76.242026
_cell_angle_beta 99.272953
_cell_angle_gamma 143.943560
_cell_volume 592.631159
_symmetry_space_group_name_H-M "P -1"
_symmetry_group_IT_number 2
_symmetry_cell_setting 'triclinic'
loop_
_space_group_symop_operation_xyz
x,y,z
-x,-y,-z
loop_
_atom_site_type_symbol
_atom_site_label
_atom_site_fract_x
_atom_site_fract_y
_atom_site_fract_z
Si Si1 0.538677 0.845069 0.015046
Si Si2 0.000000 0.000000 0.500000
Si Si3 0.479867 0.302340 0.289603
Si Si4 0.171803 0.612152 0.366634
Si Si5 0.433251 0.346950 0.805533
Si Si6 0.646508 0.125699 0.765074
Si Si7 0.667232 0.936794 0.742264
Si Si8 0.194271 0.365403 0.108056
O O1 0.793720 0.960820 0.887368
O O2 0.168840 0.743915 0.955328
O O3 0.517894 0.726721 0.079519
O O4 0.556832 0.913113 0.120994
O O5 0.747033 0.816707 0.578324
O O6 0.918811 0.018245 0.623489
O O7 0.829956 0.490408 0.284087
O O8 0.583450 0.242234 0.253928
O O9 0.235219 0.273775 0.186676
O O10 0.000000 0.500000 0.500000
O O11 0.457336 0.652707 0.316090
O O12 0.322452 0.771396 0.351295
O O13 0.694742 0.525403 0.806366
O O14 0.039735 0.240670 0.803435
O O15 0.518389 0.987876 0.722119
O O16 0.500000 0.500000 0.000000
#
# Coordination Sequence:
#
# PCOD9035505 Si02
#       8
#     2   1   2   2   2   2   2   2
#     4  11  23  41  66 104 135 178 224 277 344 402
#     4   8  24  42  68  92 128 186 230 258 336 400
#     4  10  22  46  66  98 134 179 229 273 334 406
#     4  11  25  44  70 100 133 173 232 282 332 400
#     4  11  23  40  68 101 137 169 228 283 337 401
#     4  11  24  44  66 106 134 177 225 276 350 394
#     4  10  23  45  68  93 143 177 226 278 328 410
#     4  12  20  40  70 100 135 174 222 282 338 402
#
# _framework density 25.310852000000001
#
# number of rings (size 3 to 8) (size 9 to 14) (size 15 to 20)
#    0.800    0.533    2.667    3.200    1.867    2.133 
#    7.200    1.333    0.000    0.000    0.000    0.000 
#    0.000    0.000    0.000    0.000    0.000    0.000 
#
# Total GULP energy -83599.412225 kJ/mol
# GULP energy per Si atom -5573.294148 kJ/mol
# Density = 2.525324 g / cm^3
# Si number density = 25.310852 Si / 1000 Ang^3
#
#
#
# Elastic Constant Matrix: (Units=GPa)
#
#
# Indices 1 2 3 4 5 6 
#
# 1 152.1348 50.9860 61.6220 -8.3073 -15.8732 -15.7069
# 2 50.9860 67.2510 -3.1582 -13.6229 -1.0811 -19.8955
# 3 61.6220 -3.1582 175.5554 -21.9156 -35.6679 -18.9388
# 4 -8.3073 -13.6229 -21.9156 29.2946 1.1383 1.9128
# 5 -15.8732 -1.0811 -35.6679 1.1383 38.5648 -0.9158
# 6 -15.7069 -19.8955 -18.9388 1.9128 -0.9158 59.4323
#
#
#
# Elastic Compliance Matrix: (Units=1/GPa)
#
#
# Indices 1 2 3 4 5 6 
#
# 1 0.011881 -0.011009 -0.005340 -0.005601 -0.000241 -0.002071
# 2 -0.011009 0.029579 0.008086 0.015950 0.003522 0.009110
# 3 -0.005340 0.008086 0.011106 0.009936 0.008118 0.004640
# 4 -0.005601 0.015950 0.009936 0.046796 0.006084 0.005613
# 5 -0.000241 0.003522 0.008118 0.006084 0.033354 0.004020
# 6 -0.002071 0.009110 0.004640 0.005613 0.004020 0.020688
#
#
# Mechanical properties :
#
#
# Convention : Reuss Voigt Hill
#
# Bulk Modulus (GPa) = 27.74724 68.20453 47.97589
# Shear Modulus (GPa) = 27.48121 44.49111 35.98616
#
# Velocity S-wave (km/s) = 3.29864 4.19715 3.77472
# Velocity P-wave (km/s) = 5.04920 7.10586 6.16392
#
# Compressibility (1/GPa) = 0.03603962
#
# Stress axis : x y z
#
# Youngs Moduli (GPa) = 84.16909 33.80821 90.03902
#
# Poissons Ratio (x) = 0.37220 0.48080
# Poissons Ratio (y) = 0.92663 -0.72805
# Poissons Ratio (z) = 0.44945 -0.27337
#
# Static dielectric constant tensor:
#      x y z
#    x 1.997050 0.036340 0.033080 
#    y 0.036340 2.095570 0.061920 
#    z 0.033080 0.061920 2.061070 
# 
# From -- ./inp_files/367688.got.cif
#   From: 2010.05.17/outbox.cif.g08.bks.cpg/sg2_184_cif.got.tgz:367688.got - 2010.06.03 11:33:40.
