data_PCOD9035464
_publ_section_title
;
Structure prediction by ZEFSAII (Michael W. Deem and Ramdas Pophale) SiO2 
 PCOD9035464
Probable space group: P -1
;
_chemical_formula_sum "Si O2"
_cell_formula_units_Z 14
_cell_length_a 17.236498
_cell_length_b 14.132828
_cell_length_c 7.566105
_cell_angle_alpha 122.250422
_cell_angle_beta 58.667796
_cell_angle_gamma 157.304633
_cell_volume 599.247919
_symmetry_space_group_name_H-M "P -1"
_symmetry_group_IT_number 2
_symmetry_cell_setting 'triclinic'
loop_
_space_group_symop_operation_xyz
x,y,z
-x,-y,-z
loop_
_atom_site_type_symbol
_atom_site_label
_atom_site_fract_x
_atom_site_fract_y
_atom_site_fract_z
Si Si1 0.392892 0.628835 0.928786
Si Si2 0.045430 0.772753 0.943976
Si Si3 0.662413 0.474222 0.517383
Si Si4 0.966714 0.627226 0.298271
Si Si5 0.714903 0.074566 0.483576
Si Si6 0.382052 0.327596 0.138145
Si Si7 0.437524 0.955308 0.825200
O O1 0.381300 0.617117 0.719173
O O2 0.467442 0.589332 0.854855
O O3 0.174142 0.425204 0.051299
O O4 0.541302 0.889955 0.076205
O O5 0.131714 0.777644 0.709818
O O6 0.024994 0.706557 0.103121
O O7 0.190177 0.039783 0.038791
O O8 0.865636 0.632907 0.489161
O O9 0.680492 0.626915 0.645874
O O10 0.468712 0.217616 0.600067
O O11 0.783375 0.337473 0.235940
O O12 0.155198 0.802108 0.369326
O O13 0.601237 0.067413 0.627249
O O14 0.500000 0.500000 0.000000
O O15 0.500000 0.000000 0.000000
#
# Coordination Sequence:
#
# PCOD9035464 Si02
#       7
#     2   2   2   2   2   2   2
#     4  11  25  45  71  99 141 181 229 290 342 413
#     4  11  25  43  69 109 134 178 244 275 342 422
#     4  10  22  46  65 102 137 182 232 282 346 409
#     4  10  24  44  75 101 142 182 230 282 350 413
#     4  11  23  42  73 101 142 184 225 284 349 408
#     4  12  26  43  71  98 141 182 231 290 346 399
#     4  11  22  47  70 103 145 177 227 286 346 419
#
# _framework density 23.362617
#
# number of rings (size 3 to 8) (size 9 to 14) (size 15 to 20)
#    0.000    1.143    5.714    1.286    2.000    6.286 
#    0.000    1.429    6.286    0.000    0.000    0.000 
#    0.000    0.000    0.000    0.000    0.000    0.000 
#
# Total GULP energy -78466.849374 kJ/mol
# GULP energy per Si atom -5604.774955 kJ/mol
# Density = 2.330944 g / cm^3
# Si number density = 23.362617 Si / 1000 Ang^3
#
#
#
# Elastic Constant Matrix: (Units=GPa)
#
#
# Indices 1 2 3 4 5 6 
#
# 1 106.5661 28.3231 26.7327 -0.4314 -21.8425 -1.5864
# 2 28.3231 111.1316 41.0874 -18.4720 -14.0326 4.3475
# 3 26.7327 41.0874 121.0607 -11.0974 -37.5489 -13.5039
# 4 -0.4314 -18.4720 -11.0974 38.0389 -2.5614 -3.0669
# 5 -21.8425 -14.0326 -37.5489 -2.5614 34.4368 -3.2399
# 6 -1.5864 4.3475 -13.5039 -3.0669 -3.2399 30.5425
#
#
#
# Elastic Compliance Matrix: (Units=1/GPa)
#
#
# Indices 1 2 3 4 5 6 
#
# 1 0.011332 -0.002356 0.000746 -0.000150 0.007218 0.002004
# 2 -0.002356 0.011677 -0.003557 0.004327 -0.000573 -0.002983
# 3 0.000746 -0.003557 0.016733 0.005261 0.018643 0.010449
# 4 -0.000150 0.004327 0.005261 0.031092 0.010273 0.005914
# 5 0.007218 -0.000573 0.018643 0.010273 0.055950 0.015666
# 6 0.002004 -0.002983 0.010449 0.005914 0.015666 0.040146
#
#
# Mechanical properties :
#
#
# Convention : Reuss Voigt Hill
#
# Bulk Modulus (GPa) = 34.00354 59.00499 46.50427
# Shear Modulus (GPa) = 26.72856 36.77797 31.75327
#
# Velocity S-wave (km/s) = 3.38609 3.97195 3.69066
# Velocity P-wave (km/s) = 5.46568 6.80780 6.17333
#
# Compressibility (1/GPa) = 0.02940870
#
# Stress axis : x y z
#
# Youngs Moduli (GPa) = 88.24932 85.63560 59.76138
#
# Poissons Ratio (x) = 0.20173 -0.04457
# Poissons Ratio (y) = 0.20789 0.21257
# Poissons Ratio (z) = -0.06582 0.30460
#
# Static dielectric constant tensor:
#      x y z
#    x 1.901270 0.014210 -0.001400 
#    y 0.014210 1.848830 -0.023730 
#    z -0.001400 -0.023730 1.904110 
# 
# From -- ./inp_files/335754.got.cif
#   From: 2010.05.17/outbox.cif.g08.bks.cpg/sg2_168_cif.got.tgz:335754.got - 2010.06.03 11:33:40.
