data_PCOD9035967
_publ_section_title
;
Structure prediction by ZEFSAII (Michael W. Deem and Ramdas Pophale) SiO2 
 PCOD9035967
Probable space group: P -1
;
_chemical_formula_sum "Si O2"
_cell_formula_units_Z 14
_cell_length_a 9.613699
_cell_length_b 9.213794
_cell_length_c 10.174562
_cell_angle_alpha 52.168425
_cell_angle_beta 69.162170
_cell_angle_gamma 105.352331
_cell_volume 503.126527
_symmetry_space_group_name_H-M "P -1"
_symmetry_group_IT_number 2
_symmetry_cell_setting 'triclinic'
loop_
_space_group_symop_operation_xyz
x,y,z
-x,-y,-z
loop_
_atom_site_type_symbol
_atom_site_label
_atom_site_fract_x
_atom_site_fract_y
_atom_site_fract_z
Si Si1 0.364578 0.552886 0.660103
Si Si2 0.957291 0.329524 0.927781
Si Si3 0.700209 0.468588 0.846861
Si Si4 0.239872 0.095192 0.289000
Si Si5 0.486630 0.248113 0.780838
Si Si6 0.099936 0.774438 0.271776
Si Si7 0.324904 0.004381 0.563020
O O1 0.354531 0.326979 0.766786
O O2 0.426249 0.708205 0.418707
O O3 0.176505 0.499371 0.816708
O O4 0.544588 0.709877 0.614344
O O5 0.840992 0.417901 0.875136
O O6 0.996406 0.253523 0.819646
O O7 0.818567 0.128834 0.193117
O O8 0.210703 0.929784 0.508414
O O9 0.781687 0.718924 0.748977
O O10 0.662297 0.428085 0.724695
O O11 0.472156 0.262370 0.083781
O O12 0.106874 0.924367 0.306195
O O13 0.332495 0.971757 0.039198
O O14 0.000000 0.500000 0.500000
O O15 0.500000 0.000000 0.500000
#
# Coordination Sequence:
#
# PCOD9035967 Si02
#       7
#     2   2   2   2   2   2   2
#     4  11  26  49  81 121 161 215 270 343 406 491
#     4  12  28  47  82 122 163 205 281 333 407 488
#     4  10  22  46  83 118 153 217 270 339 403 482
#     4  10  23  49  82 108 166 213 270 328 419 478
#     4  10  23  50  85 112 166 217 268 333 418 484
#     4  11  27  49  78 120 157 212 272 337 396 494
#     4  12  25  49  78 117 163 215 261 341 415 484
#
# _framework density 27.826001999999999
#
# number of rings (size 3 to 8) (size 9 to 14) (size 15 to 20)
#    0.000    1.143    4.286    0.000    4.000    3.429 
#    2.571    0.714    3.143    0.000    0.000    0.000 
#    0.000    0.000    0.000    0.000    0.000    0.000 
#
# Total GULP energy -78426.498259 kJ/mol
# GULP energy per Si atom -5601.892733 kJ/mol
# Density = 2.776267 g / cm^3
# Si number density = 27.826002 Si / 1000 Ang^3
#
#
#
# Elastic Constant Matrix: (Units=GPa)
#
#
# Indices 1 2 3 4 5 6 
#
# 1 126.5921 35.9216 38.2171 0.3450 -20.8354 -16.7333
# 2 35.9216 142.7316 57.3696 -5.1940 5.4457 15.0253
# 3 38.2171 57.3696 126.0216 -2.3035 -18.1942 -0.7172
# 4 0.3450 -5.1940 -2.3035 55.1610 5.5965 5.9701
# 5 -20.8354 5.4457 -18.1942 5.5965 42.0616 3.6374
# 6 -16.7333 15.0253 -0.7172 5.9701 3.6374 50.3420
#
#
#
# Elastic Compliance Matrix: (Units=1/GPa)
#
#
# Indices 1 2 3 4 5 6 
#
# 1 0.010386 -0.002800 -0.001180 -0.001308 0.004818 0.004078
# 2 -0.002800 0.010119 -0.004396 0.001662 -0.004484 -0.003887
# 3 -0.001180 -0.004396 0.010972 -0.000514 0.004731 0.000795
# 4 -0.001308 0.001662 -0.000514 0.018930 -0.003350 -0.002941
# 5 0.004818 -0.004484 0.004731 -0.003350 0.029122 0.001300
# 6 0.004078 -0.003887 0.000795 -0.002941 0.001300 0.022646
#
#
# Mechanical properties :
#
#
# Convention : Reuss Voigt Hill
#
# Bulk Modulus (GPa) = 67.91627 73.15129 70.53378
# Shear Modulus (GPa) = 40.37618 47.10206 43.73912
#
# Velocity S-wave (km/s) = 3.81336 4.11875 3.96899
# Velocity P-wave (km/s) = 6.62189 6.99748 6.81227
#
# Compressibility (1/GPa) = 0.01472401
#
# Stress axis : x y z
#
# Youngs Moduli (GPa) = 96.28488 98.82719 91.13790
#
# Poissons Ratio (x) = 0.27675 0.10753
# Poissons Ratio (y) = 0.26963 0.40067
# Poissons Ratio (z) = 0.11360 0.43447
#
# Static dielectric constant tensor:
#      x y z
#    x 2.147250 0.008890 0.010840 
#    y 0.008890 2.314760 -0.054200 
#    z 0.010840 -0.054200 2.204860 
# 
# From -- ./inp_files/446938.got.cif
#   From: 2010.05.17/outbox.cif.g08.bks.cpg/sg2_224_cif.got.tgz:446938.got - 2010.06.03 11:33:40.
