data_PCOD9035235
_publ_section_title
;
Structure prediction by ZEFSAII (Michael W. Deem and Ramdas Pophale) SiO2 
 PCOD9035235
Probable space group: P -1
;
_chemical_formula_sum "Si O2"
_cell_formula_units_Z 16
_cell_length_a 22.488649
_cell_length_b 7.881100
_cell_length_c 16.237922
_cell_angle_alpha 41.970621
_cell_angle_beta 160.991005
_cell_angle_gamma 131.598590
_cell_volume 616.730876
_symmetry_space_group_name_H-M "P -1"
_symmetry_group_IT_number 2
_symmetry_cell_setting 'triclinic'
loop_
_space_group_symop_operation_xyz
x,y,z
-x,-y,-z
loop_
_atom_site_type_symbol
_atom_site_label
_atom_site_fract_x
_atom_site_fract_y
_atom_site_fract_z
Si Si1 0.762217 0.487655 0.509564
Si Si2 0.776566 0.255954 0.338378
Si Si3 0.828492 0.677941 0.862625
Si Si4 0.477459 0.900215 0.625952
Si Si5 0.847850 0.069081 0.115583
Si Si6 0.095240 0.322033 0.530656
Si Si7 0.327216 0.543154 0.054364
Si Si8 0.361058 0.183155 0.607279
O O1 0.611815 0.307021 0.361605
O O2 0.796029 0.677533 0.412192
O O3 0.714701 0.643053 0.475662
O O4 0.960354 0.304133 0.848269
O O5 0.818922 0.494426 0.360097
O O6 0.709238 0.340058 0.128329
O O7 0.633804 0.106110 0.250851
O O8 0.973586 0.060126 0.657737
O O9 0.769039 0.767801 0.659904
O O10 0.681700 0.849164 0.668492
O O11 0.820032 0.374943 0.963975
O O12 0.541061 0.734137 0.687267
O O13 0.663591 0.976911 0.876418
O O14 0.894387 0.944460 0.311354
O O15 0.880761 0.455339 0.189045
O O16 0.445939 0.723587 0.193089
#
# Coordination Sequence:
#
# PCOD9035235 Si02
#       8
#     2   2   2   2   2   2   2   2
#     4  11  26  46  73 104 138 183 236 289 346 409
#     4  11  20  45  76 101 141 177 225 294 348 408
#     4  12  26  48  68  99 144 191 230 283 344 413
#     4  11  23  46  72 103 139 180 237 282 337 424
#     4  11  23  44  73 103 142 181 229 282 354 410
#     4  11  23  46  76 105 139 179 226 295 352 407
#     4  10  22  45  72 109 137 175 235 284 351 411
#     4  11  25  47  72 103 139 186 232 290 341 414
#
# _framework density 25.943245000000001
#
# number of rings (size 3 to 8) (size 9 to 14) (size 15 to 20)
#    0.000    1.000    3.750    3.000    0.000    3.000 
#    9.000    3.125    0.000    0.000    0.000    0.000 
#    0.000    0.000    0.000    0.000    0.000    0.000 
#
# Total GULP energy -89780.564211 kJ/mol
# GULP energy per Si atom -5611.285263 kJ/mol
# Density = 2.588420 g / cm^3
# Si number density = 25.943245 Si / 1000 Ang^3
#
#
#
# Elastic Constant Matrix: (Units=GPa)
#
#
# Indices 1 2 3 4 5 6 
#
# 1 103.9237 4.3950 13.4278 -16.8953 4.7961 12.7595
# 2 4.3950 114.5331 23.7463 0.8614 14.7642 10.3939
# 3 13.4278 23.7463 102.3505 -0.2589 33.0610 10.1645
# 4 -16.8953 0.8614 -0.2589 61.0842 -0.0092 5.9832
# 5 4.7961 14.7642 33.0610 -0.0092 46.8247 -0.3665
# 6 12.7595 10.3939 10.1645 5.9832 -0.3665 27.3995
#
#
#
# Elastic Compliance Matrix: (Units=1/GPa)
#
#
# Indices 1 2 3 4 5 6 
#
# 1 0.011034 0.000320 -0.000679 0.003613 -0.000797 -0.005808
# 2 0.000320 0.009563 -0.001201 0.000283 -0.002227 -0.003423
# 3 -0.000679 -0.001201 0.013533 0.000320 -0.009141 -0.004441
# 4 0.003613 0.000283 0.000320 0.017939 -0.000728 -0.005836
# 5 -0.000797 -0.002227 -0.009141 -0.000728 0.028635 0.005149
# 6 -0.005808 -0.003423 -0.004441 -0.005836 0.005149 0.043491
#
#
# Mechanical properties :
#
#
# Convention : Reuss Voigt Hill
#
# Bulk Modulus (GPa) = 32.24656 44.88282 38.56469
# Shear Modulus (GPa) = 36.32394 45.67756 41.00075
#
# Velocity S-wave (km/s) = 3.74589 4.20059 3.97974
# Velocity P-wave (km/s) = 5.58261 6.39254 6.00125
#
# Compressibility (1/GPa) = 0.03101106
#
# Stress axis : x y z
#
# Youngs Moduli (GPa) = 90.63057 104.56557 73.89534
#
# Poissons Ratio (x) = -0.03344 0.05014
# Poissons Ratio (y) = -0.02899 0.08872
# Poissons Ratio (z) = 0.06150 0.12555
#
# Static dielectric constant tensor:
#      x y z
#    x 2.055420 0.013840 0.015950 
#    y 0.013840 2.021010 -0.029880 
#    z 0.015950 -0.029880 2.014180 
# 
# From -- ./inp_files/579036.got.cif
#   From: 2010.05.17/outbox.cif.g08.bks.cpg/sg2_290_cif.got.tgz:579036.got - 2010.06.03 11:33:40.
