data_PCOD9035446
_publ_section_title
;
Structure prediction by ZEFSAII (Michael W. Deem and Ramdas Pophale) SiO2 
 PCOD9035446
Probable space group: P -1
;
_chemical_formula_sum "Si O2"
_cell_formula_units_Z 13
_cell_length_a 8.799450
_cell_length_b 9.281679
_cell_length_c 14.346850
_cell_angle_alpha 151.403825
_cell_angle_beta 106.244698
_cell_angle_gamma 69.239139
_cell_volume 523.127018
_symmetry_space_group_name_H-M "P -1"
_symmetry_group_IT_number 2
_symmetry_cell_setting 'triclinic'
loop_
_space_group_symop_operation_xyz
x,y,z
-x,-y,-z
loop_
_atom_site_type_symbol
_atom_site_label
_atom_site_fract_x
_atom_site_fract_y
_atom_site_fract_z
Si Si1 0.990896 0.299231 0.976504
Si Si2 0.839735 0.281405 0.440736
Si Si3 0.520563 0.208624 0.254884
Si Si4 0.253976 0.049358 0.237634
Si Si5 0.000000 0.000000 0.500000
Si Si6 0.296405 0.377350 0.148859
Si Si7 0.674668 0.032066 0.584289
O O1 0.068286 0.951477 0.755361
O O2 0.098600 0.437809 0.149267
O O3 0.820454 0.251141 0.956164
O O4 0.000000 0.500000 0.000000
O O5 0.649053 0.329867 0.408078
O O6 0.861268 0.631009 0.640468
O O7 0.896834 0.104471 0.445047
O O8 0.419585 0.017563 0.190633
O O9 0.390949 0.418807 0.281813
O O10 0.637356 0.971745 0.069756
O O11 0.284893 0.102333 0.382096
O O12 0.170800 0.064527 0.513003
O O13 0.336982 0.599685 0.203620
O O14 0.500000 0.000000 0.500000
#
# Coordination Sequence:
#
# PCOD9035446 Si02
#       7
#     2   2   2   2   1   2   2
#     4  11  22  42  65  92 140 175 219 283 336 403
#     4  11  23  43  68  97 135 174 227 284 339 404
#     4  10  23  42  70  94 134 178 223 287 342 403
#     4  12  23  41  68 102 128 178 233 279 335 412
#     4  12  24  44  68 100 138 180 216 292 350 390
#     4  10  22  46  62  95 138 179 218 279 350 399
#     4  12  25  43  68 101 137 178 234 280 339 415
#
# _framework density 24.850560999999999
#
# number of rings (size 3 to 8) (size 9 to 14) (size 15 to 20)
#    0.000    0.923    3.077    3.692    0.000    1.231 
#    5.538    0.000    0.000    0.000    0.000    0.000 
#    0.000    0.000    0.000    0.000    0.000    0.000 
#
# Total GULP energy -72417.420977 kJ/mol
# GULP energy per Si atom -5570.570844 kJ/mol
# Density = 2.479400 g / cm^3
# Si number density = 24.850561 Si / 1000 Ang^3
#
#
#
# Elastic Constant Matrix: (Units=GPa)
#
#
# Indices 1 2 3 4 5 6 
#
# 1 135.9267 34.8861 -5.5206 2.0804 28.3774 -9.1252
# 2 34.8861 162.0329 6.1880 -13.6882 12.9635 -5.0281
# 3 -5.5206 6.1880 40.3879 -7.3327 18.2315 -10.9592
# 4 2.0804 -13.6882 -7.3327 38.9189 1.2876 3.4287
# 5 28.3774 12.9635 18.2315 1.2876 45.5841 -4.1608
# 6 -9.1252 -5.0281 -10.9592 3.4287 -4.1608 39.7708
#
#
#
# Elastic Compliance Matrix: (Units=1/GPa)
#
#
# Indices 1 2 3 4 5 6 
#
# 1 0.009818 -0.001630 0.005857 0.000010 -0.007731 0.002851
# 2 -0.001630 0.006811 -0.000443 0.002419 -0.000807 0.000072
# 3 0.005857 -0.000443 0.037289 0.006338 -0.017777 0.009157
# 4 0.000010 0.002419 0.006338 0.027943 -0.004090 -0.000782
# 5 -0.007731 -0.000807 -0.017777 -0.004090 0.033943 -0.002871
# 6 0.002851 0.000072 0.009157 -0.000782 -0.002871 0.028098
#
#
# Mechanical properties :
#
#
# Convention : Reuss Voigt Hill
#
# Bulk Modulus (GPa) = 16.26383 45.49495 30.87939
# Shear Modulus (GPa) = 31.88191 45.04102 38.46147
#
# Velocity S-wave (km/s) = 3.58571 4.26194 3.93836
# Velocity P-wave (km/s) = 4.86846 6.52426 5.75621
#
# Compressibility (1/GPa) = 0.06148611
#
# Stress axis : x y z
#
# Youngs Moduli (GPa) = 101.84945 146.83096 26.81783
#
# Poissons Ratio (x) = 0.23929 -0.15708
# Poissons Ratio (y) = 0.16599 0.01189
# Poissons Ratio (z) = -0.59656 0.06509
#
# Static dielectric constant tensor:
#      x y z
#    x 2.099480 -0.051980 -0.083570 
#    y -0.051980 1.941660 0.000470 
#    z -0.083570 0.000470 2.018370 
# 
# From -- ./inp_files/145826.got.cif
#   From: 2010.05.17/outbox.cif.g08.bks.cpg/sg2_73_cif.got.tgz:145826.got - 2010.06.03 11:33:40.
