data_PCOD9035892
_publ_section_title
;
Structure prediction by ZEFSAII (Michael W. Deem and Ramdas Pophale) SiO2 
 PCOD9035892
Probable space group: P -1
;
_chemical_formula_sum "Si O2"
_cell_formula_units_Z 16
_cell_length_a 6.655441
_cell_length_b 16.647042
_cell_length_c 8.928687
_cell_angle_alpha 102.272507
_cell_angle_beta 132.673495
_cell_angle_gamma 88.387827
_cell_volume 701.379719
_symmetry_space_group_name_H-M "P -1"
_symmetry_group_IT_number 2
_symmetry_cell_setting 'triclinic'
loop_
_space_group_symop_operation_xyz
x,y,z
-x,-y,-z
loop_
_atom_site_type_symbol
_atom_site_label
_atom_site_fract_x
_atom_site_fract_y
_atom_site_fract_z
Si Si1 0.757641 0.251855 0.963113
Si Si2 0.252770 0.684950 0.463699
Si Si3 0.326965 0.363792 0.810279
Si Si4 0.886528 0.153618 0.713232
Si Si5 0.532239 0.128289 0.021190
Si Si6 0.318245 0.537761 0.211060
Si Si7 0.706647 0.638853 0.845795
Si Si8 0.695058 0.025407 0.341179
O O1 0.999948 0.327861 0.072235
O O2 0.467247 0.284165 0.807585
O O3 0.801807 0.180365 0.842827
O O4 0.732934 0.210065 0.096641
O O5 0.164017 0.767017 0.380784
O O6 0.324127 0.620101 0.347132
O O7 0.512797 0.700873 0.709346
O O8 0.986262 0.640950 0.402186
O O9 0.516087 0.437621 0.848173
O O10 0.303543 0.363876 0.979673
O O11 0.686511 0.074530 0.511966
O O12 0.211045 0.143179 0.878231
O O13 0.506436 0.056079 0.850933
O O14 0.654227 0.091445 0.215876
O O15 0.413918 0.455952 0.297157
O O16 0.000000 0.500000 0.000000
O O17 0.000000 0.000000 0.500000
#
# Coordination Sequence:
#
# PCOD9035892 Si02
#       8
#     2   2   2   2   2   2   2   2
#     4  12  23  44  69 100 140 176 228 281 336 400
#     4  12  26  43  68 102 135 178 233 284 335 402
#     4  12  23  46  68  94 135 189 220 284 342 396
#     4  11  22  43  67 101 139 174 223 279 335 401
#     4  10  22  46  74  99 134 180 219 271 342 404
#     4  12  23  47  70  94 140 181 230 288 341 397
#     4  12  27  44  66 101 137 182 234 286 337 397
#     4   9  22  45  72 102 137 172 218 275 335 409
#
# _framework density 22.812180999999999
#
# number of rings (size 3 to 8) (size 9 to 14) (size 15 to 20)
#    0.000    0.750    6.250    0.750    3.500    2.000 
#    4.500    5.625    0.000    0.000    0.000    0.000 
#    0.000    0.000    0.000    0.000    0.000    0.000 
#
# Total GULP energy -89281.324488 kJ/mol
# GULP energy per Si atom -5580.082781 kJ/mol
# Density = 2.276026 g / cm^3
# Si number density = 22.812181 Si / 1000 Ang^3
#
#
#
# Elastic Constant Matrix: (Units=GPa)
#
#
# Indices 1 2 3 4 5 6 
#
# 1 114.9671 46.2447 19.2406 1.5199 5.7783 6.9181
# 2 46.2447 106.8999 22.6495 -15.8054 -9.8856 0.2842
# 3 19.2406 22.6495 71.2866 -10.1866 4.6329 -1.4286
# 4 1.5199 -15.8054 -10.1866 45.4787 -17.7151 -7.7859
# 5 5.7783 -9.8856 4.6329 -17.7151 19.1910 5.5614
# 6 6.9181 0.2842 -1.4286 -7.7859 5.5614 45.4294
#
#
#
# Elastic Compliance Matrix: (Units=1/GPa)
#
#
# Indices 1 2 3 4 5 6 
#
# 1 0.013755 -0.009076 -0.001292 -0.011429 -0.018542 -0.001767
# 2 -0.009076 0.019393 -0.003057 0.018170 0.030059 0.000599
# 3 -0.001292 -0.003057 0.015814 0.001027 -0.004472 0.001437
# 4 -0.011429 0.018170 0.001027 0.053088 0.060590 0.003340
# 5 -0.018542 0.030059 -0.004472 0.060590 0.131103 -0.003170
# 6 -0.001767 0.000599 0.001437 0.003340 -0.003170 0.023283
#
#
# Mechanical properties :
#
#
# Convention : Reuss Voigt Hill
#
# Bulk Modulus (GPa) = 45.22649 52.15813 48.69231
# Shear Modulus (GPa) = 17.20237 35.68775 26.44506
#
# Velocity S-wave (km/s) = 2.74904 3.95956 3.40847
# Velocity P-wave (km/s) = 5.47220 6.61951 6.07301
#
# Compressibility (1/GPa) = 0.02211094
#
# Stress axis : x y z
#
# Youngs Moduli (GPa) = 72.70294 51.56447 63.23455
#
# Poissons Ratio (x) = 0.46801 0.08171
# Poissons Ratio (y) = 0.65987 0.19332
# Poissons Ratio (z) = 0.09394 0.15764
#
# Static dielectric constant tensor:
#      x y z
#    x 1.839970 -0.031750 -0.018160 
#    y -0.031750 1.946940 0.017710 
#    z -0.018160 0.017710 1.875230 
# 
# From -- ./inp_files/139193.got.cif
#   From: 2010.05.17/outbox.cif.g08.bks.cpg/sg2_70_cif.got.tgz:139193.got - 2010.06.03 11:33:40.
