data_PCOD9035903
_publ_section_title
;
Structure prediction by ZEFSAII (Michael W. Deem and Ramdas Pophale) SiO2 
 PCOD9035903
Probable space group: P -1
;
_chemical_formula_sum "Si O2"
_cell_formula_units_Z 12
_cell_length_a 11.840810
_cell_length_b 9.646903
_cell_length_c 10.681704
_cell_angle_alpha 55.444077
_cell_angle_beta 41.392318
_cell_angle_gamma 36.236936
_cell_volume 474.657383
_symmetry_space_group_name_H-M "P -1"
_symmetry_group_IT_number 2
_symmetry_cell_setting 'triclinic'
loop_
_space_group_symop_operation_xyz
x,y,z
-x,-y,-z
loop_
_atom_site_type_symbol
_atom_site_label
_atom_site_fract_x
_atom_site_fract_y
_atom_site_fract_z
Si Si1 0.829916 0.768784 0.457920
Si Si2 0.562755 0.166754 0.143525
Si Si3 0.811999 0.982982 0.617023
Si Si4 0.884425 0.748911 0.913676
Si Si5 0.370367 0.513702 0.719968
Si Si6 0.206832 0.676035 0.045782
O O1 0.573170 0.852588 0.630288
O O2 0.836758 0.905548 0.492704
O O3 0.000000 0.500000 0.500000
O O4 0.947076 0.770270 0.235841
O O5 0.372352 0.431202 0.110823
O O6 0.777474 0.145367 0.009091
O O7 0.655311 0.973707 0.061341
O O8 0.857597 0.789209 0.767427
O O9 0.540467 0.232478 0.740499
O O10 0.000000 0.000000 0.500000
O O11 0.102788 0.714187 0.790149
O O12 0.000000 0.500000 0.000000
O O13 0.500000 0.500000 0.500000
O O14 0.338288 0.600514 0.842019
#
# Coordination Sequence:
#
# PCOD9035903 Si02
#       6
#     2   2   2   2   2   2
#     4  10  24  42  76 110 141 201 248 301 386 444
#     4  10  22  46  75 107 149 199 246 311 384 444
#     4  12  25  49  78 104 157 200 250 318 373 449
#     4  12  27  44  74 114 148 195 255 307 383 449
#     4  12  27  46  74 111 142 198 255 303 376 452
#     4  10  23  45  77 104 150 199 249 311 383 445
#
# _framework density 25.281393999999999
#
# number of rings (size 3 to 8) (size 9 to 14) (size 15 to 20)
#    0.000    1.000    3.333    2.000    9.333    2.000 
#    0.000    0.833    0.000    0.000    0.000    0.000 
#    0.000    0.000    0.000    0.000    0.000    0.000 
#
# Total GULP energy -66936.547014 kJ/mol
# GULP energy per Si atom -5578.045584 kJ/mol
# Density = 2.522385 g / cm^3
# Si number density = 25.281394 Si / 1000 Ang^3
#
#
#
# Elastic Constant Matrix: (Units=GPa)
#
#
# Indices 1 2 3 4 5 6 
#
# 1 39.3871 33.1907 29.6332 -9.1546 -4.0754 11.9707
# 2 33.1907 124.4038 47.3046 -5.0016 8.8115 3.0059
# 3 29.6332 47.3046 175.7057 -18.4211 -1.3892 17.5942
# 4 -9.1546 -5.0016 -18.4211 48.5296 -10.2781 9.9847
# 5 -4.0754 8.8115 -1.3892 -10.2781 47.0234 0.7103
# 6 11.9707 3.0059 17.5942 9.9847 0.7103 48.1260
#
#
#
# Elastic Compliance Matrix: (Units=1/GPa)
#
#
# Indices 1 2 3 4 5 6 
#
# 1 0.042329 -0.010382 -0.002082 0.010139 0.007940 -0.011340
# 2 -0.010382 0.011667 -0.002069 -0.003038 -0.003861 0.003297
# 3 -0.002082 -0.002069 0.007169 0.002878 0.001087 -0.002587
# 4 0.010139 -0.003038 0.002878 0.026751 0.007517 -0.009045
# 5 0.007940 -0.003861 0.001087 0.007517 0.024414 -0.004051
# 6 -0.011340 0.003297 -0.002587 -0.009045 -0.004051 0.026275
#
#
# Mechanical properties :
#
#
# Convention : Reuss Voigt Hill
#
# Bulk Modulus (GPa) = 31.15540 62.19483 46.67511
# Shear Modulus (GPa) = 28.03128 44.02700 36.02914
#
# Velocity S-wave (km/s) = 3.33343 4.17763 3.77918
# Velocity P-wave (km/s) = 5.21209 6.92276 6.12742
#
# Compressibility (1/GPa) = 0.03209717
#
# Stress axis : x y z
#
# Youngs Moduli (GPa) = 23.62429 85.71341 139.49082
#
# Poissons Ratio (x) = 0.88990 0.29049
# Poissons Ratio (y) = 0.24527 0.28863
# Poissons Ratio (z) = 0.04920 0.17736
#
# Static dielectric constant tensor:
#      x y z
#    x 1.844990 -0.022400 -0.209680 
#    y -0.022400 1.985270 -0.110210 
#    z -0.209680 -0.110210 1.877210 
# 
# From -- ./inp_files/204471.got.cif
#   From: 2010.05.17/outbox.cif.g08.bks.cpg/sg2_103_cif.got.tgz:204471.got - 2010.06.03 11:33:40.
