data_PCOD9035493
_publ_section_title
;
Structure prediction by ZEFSAII (Michael W. Deem and Ramdas Pophale) SiO2 
 PCOD9035493
Probable space group: P -1
;
_chemical_formula_sum "Si O2"
_cell_formula_units_Z 12
_cell_length_a 14.472186
_cell_length_b 5.898554
_cell_length_c 9.003252
_cell_angle_alpha 99.478321
_cell_angle_beta 39.191355
_cell_angle_gamma 107.146952
_cell_volume 461.477297
_symmetry_space_group_name_H-M "P -1"
_symmetry_group_IT_number 2
_symmetry_cell_setting 'triclinic'
loop_
_space_group_symop_operation_xyz
x,y,z
-x,-y,-z
loop_
_atom_site_type_symbol
_atom_site_label
_atom_site_fract_x
_atom_site_fract_y
_atom_site_fract_z
Si Si1 0.626196 0.241296 0.416259
Si Si2 0.586254 0.636246 0.714703
Si Si3 0.169092 0.918290 0.638450
Si Si4 0.286318 0.684053 0.993842
Si Si5 0.952316 0.072535 0.730598
Si Si6 0.195810 0.497225 0.372907
O O1 0.558315 0.384574 0.638325
O O2 0.674750 0.396626 0.224302
O O3 0.500000 0.000000 0.500000
O O4 0.779676 0.195672 0.290927
O O5 0.718576 0.819470 0.479177
O O6 0.442525 0.740276 0.896349
O O7 0.663275 0.606024 0.771505
O O8 0.005638 0.942589 0.789905
O O9 0.217571 0.766326 0.428396
O O10 0.175922 0.496420 0.221010
O O11 0.216669 0.903943 0.070204
O O12 0.058715 0.345152 0.627405
O O13 0.000000 0.000000 0.500000
#
# Coordination Sequence:
#
# PCOD9035493 Si02
#       6
#     2   2   2   2   2   2
#     4  11  24  44  67  97 134 170 214 274 320 384
#     4  10  23  44  66  96 133 168 218 275 317 380
#     4  10  22  46  66  92 142 166 212 274 320 380
#     4  12  23  40  71  99 123 178 219 258 336 381
#     4  11  24  44  67  97 134 170 214 274 320 384
#     4  10  23  44  66  96 133 168 218 275 317 380
#
# _framework density 26.003444999999999
#
# number of rings (size 3 to 8) (size 9 to 14) (size 15 to 20)
#    0.000    1.333    3.333    1.500    0.000    2.667 
#    0.000    7.500    0.000    0.000    0.000    0.000 
#    0.000    0.000    0.000    0.000    0.000    0.000 
#
# Total GULP energy -67040.837408 kJ/mol
# GULP energy per Si atom -5586.736451 kJ/mol
# Density = 2.594426 g / cm^3
# Si number density = 26.003445 Si / 1000 Ang^3
#
#
#
# Elastic Constant Matrix: (Units=GPa)
#
#
# Indices 1 2 3 4 5 6 
#
# 1 198.6470 40.9468 33.5727 13.4885 -19.7380 -58.5375
# 2 40.9468 65.7960 5.0885 7.3867 -4.5914 7.2155
# 3 33.5727 5.0885 56.6852 11.3179 -5.0056 -12.6429
# 4 13.4885 7.3867 11.3179 31.5068 -22.8852 1.3689
# 5 -19.7380 -4.5914 -5.0056 -22.8852 57.5643 9.9959
# 6 -58.5375 7.2155 -12.6429 1.3689 9.9959 60.8576
#
#
#
# Elastic Compliance Matrix: (Units=1/GPa)
#
#
# Indices 1 2 3 4 5 6 
#
# 1 0.009942 -0.006824 -0.002661 -0.002050 0.000108 0.009848
# 2 -0.006824 0.020569 0.000531 -0.001484 0.000304 -0.008909
# 3 -0.002661 0.000531 0.021234 -0.008892 -0.002989 0.002480
# 4 -0.002050 -0.001484 -0.008892 0.051143 0.020145 -0.008103
# 5 0.000108 0.000304 -0.002989 0.020145 0.026101 -0.005293
# 6 0.009848 -0.008909 0.002480 -0.008103 -0.005293 0.028527
#
#
# Mechanical properties :
#
#
# Convention : Reuss Voigt Hill
#
# Bulk Modulus (GPa) = 29.55182 53.37156 41.46169
# Shear Modulus (GPa) = 26.78050 46.08710 36.43380
#
# Velocity S-wave (km/s) = 3.21266 4.21449 3.74721
# Velocity P-wave (km/s) = 5.01506 6.65221 5.89079
#
# Compressibility (1/GPa) = 0.03383886
#
# Stress axis : x y z
#
# Youngs Moduli (GPa) = 100.58107 48.61732 47.09419
#
# Poissons Ratio (x) = 0.33176 0.12530
# Poissons Ratio (y) = 0.68635 -0.02502
# Poissons Ratio (z) = 0.26760 -0.02583
#
# Static dielectric constant tensor:
#      x y z
#    x 2.052070 0.026140 -0.048760 
#    y 0.026140 2.101740 -0.034290 
#    z -0.048760 -0.034290 2.121520 
# 
# From -- ./inp_files/18318.got.cif
#   From: 2010.05.17/outbox.cif.g08.bks.cpg/sg2_10_cif.got.tgz:18318.got - 2010.06.03 11:33:40.
