data_PCOD9035462
_publ_section_title
;
Structure prediction by ZEFSAII (Michael W. Deem and Ramdas Pophale) SiO2 
 PCOD9035462
Probable space group: P -1
;
_chemical_formula_sum "Si O2"
_cell_formula_units_Z 16
_cell_length_a 12.860360
_cell_length_b 11.950500
_cell_length_c 8.860557
_cell_angle_alpha 41.589119
_cell_angle_beta 50.474065
_cell_angle_gamma 54.255710
_cell_volume 681.484417
_symmetry_space_group_name_H-M "P -1"
_symmetry_group_IT_number 2
_symmetry_cell_setting 'triclinic'
loop_
_space_group_symop_operation_xyz
x,y,z
-x,-y,-z
loop_
_atom_site_type_symbol
_atom_site_label
_atom_site_fract_x
_atom_site_fract_y
_atom_site_fract_z
Si Si1 0.379482 0.484196 0.249344
Si Si2 0.565043 0.932334 0.670008
Si Si3 0.989201 0.621146 0.659244
Si Si4 0.838824 0.347499 0.942664
Si Si5 0.604431 0.565816 0.130752
Si Si6 0.203517 0.368245 0.879716
Si Si7 0.708327 0.867444 0.221764
Si Si8 0.848881 0.969361 0.288894
O O1 0.452443 0.535399 0.279334
O O2 0.344274 0.298705 0.494874
O O3 0.500000 0.500000 0.000000
O O4 0.243857 0.604904 0.184918
O O5 0.705728 0.997922 0.489074
O O6 0.500000 0.000000 0.500000
O O7 0.431970 0.998490 0.829011
O O8 0.611944 0.728425 0.851614
O O9 0.953178 0.799790 0.422825
O O10 0.138357 0.538133 0.671857
O O11 0.943917 0.471349 0.752060
O O12 0.892543 0.643462 0.875446
O O13 0.720852 0.405975 0.121963
O O14 0.900041 0.145346 0.084723
O O15 0.651167 0.620799 0.193152
O O16 0.209599 0.206722 0.927672
O O17 0.794132 0.937820 0.202837
#
# Coordination Sequence:
#
# PCOD9035462 Si02
#       8
#     2   2   2   2   2   2   2   2
#     4  10  17  33  58  90 124 150 198 253 305 360
#     4  10  17  32  58  90 119 151 201 245 305 368
#     4  10  21  45  66  83 121 175 212 245 307 366
#     4  10  18  35  65  94 113 156 215 257 295 362
#     4  10  19  36  57  86 128 163 194 247 315 363
#     4  10  23  41  62  84 131 171 200 253 310 370
#     4  11  22  35  61  99 125 160 203 257 318 362
#     4  11  19  37  66  94 116 160 214 257 304 363
#
# _framework density 23.478159000000002
#
# number of rings (size 3 to 8) (size 9 to 14) (size 15 to 20)
#    0.000    1.750    3.750    5.250    0.000    1.500 
#    0.000    6.250    8.250    0.000    0.000    0.000 
#    0.000    0.000    0.000    0.000    0.000    0.000 
#
# Total GULP energy -89382.779277 kJ/mol
# GULP energy per Si atom -5586.423705 kJ/mol
# Density = 2.342472 g / cm^3
# Si number density = 23.478159 Si / 1000 Ang^3
#
#
#
# Elastic Constant Matrix: (Units=GPa)
#
#
# Indices 1 2 3 4 5 6 
#
# 1 110.5920 43.7594 28.0341 -18.8834 26.6248 -7.7985
# 2 43.7594 107.2429 37.4492 -21.4059 3.3041 15.0973
# 3 28.0341 37.4492 82.6297 -19.6876 -2.1776 9.9230
# 4 -18.8834 -21.4059 -19.6876 49.4456 -0.3578 -0.2578
# 5 26.6248 3.3041 -2.1776 -0.3578 22.2282 2.8837
# 6 -7.7985 15.0973 9.9230 -0.2578 2.8837 29.2495
#
#
#
# Elastic Compliance Matrix: (Units=1/GPa)
#
#
# Indices 1 2 3 4 5 6 
#
# 1 0.021212 -0.007320 -0.005652 0.002561 -0.026648 0.014001
# 2 -0.007320 0.014727 -0.002199 0.002710 0.007644 -0.009537
# 3 -0.005652 -0.002199 0.017002 0.003693 0.009739 -0.007068
# 4 0.002561 0.002710 0.003693 0.023820 -0.002530 -0.001509
# 5 -0.026648 0.007644 0.009739 -0.002530 0.079566 -0.022221
# 6 0.014001 -0.009537 -0.007068 -0.001509 -0.022221 0.047420
#
#
# Mechanical properties :
#
#
# Convention : Reuss Voigt Hill
#
# Bulk Modulus (GPa) = 44.25099 57.66109 50.95604
# Shear Modulus (GPa) = 20.69355 32.93278 26.81317
#
# Velocity S-wave (km/s) = 2.97205 3.74932 3.38309
# Velocity P-wave (km/s) = 5.53770 6.58453 6.08367
#
# Compressibility (1/GPa) = 0.02259837
#
# Stress axis : x y z
#
# Youngs Moduli (GPa) = 47.14402 67.90066 58.81825
#
# Poissons Ratio (x) = 0.49705 0.33246
# Poissons Ratio (y) = 0.34510 0.12932
# Poissons Ratio (z) = 0.26647 0.14929
#
# Static dielectric constant tensor:
#      x y z
#    x 1.902510 -0.010210 -0.008710 
#    y -0.010210 1.978190 0.072370 
#    z -0.008710 0.072370 1.897920 
# 
# From -- ./inp_files/306187.got.cif
#   From: 2010.05.17/outbox.cif.g08.bks.cpg/sg2_154_cif.got.tgz:306187.got - 2010.06.03 11:33:40.
