data_PCOD9035562
_publ_section_title
;
Structure prediction by ZEFSAII (Michael W. Deem and Ramdas Pophale) SiO2 
 PCOD9035562
Probable space group: P -1
;
_chemical_formula_sum "Si O2"
_cell_formula_units_Z 16
_cell_length_a 20.707230
_cell_length_b 12.093992
_cell_length_c 9.090753
_cell_angle_alpha 53.419211
_cell_angle_beta 150.331059
_cell_angle_gamma 137.043564
_cell_volume 762.508181
_symmetry_space_group_name_H-M "P -1"
_symmetry_group_IT_number 2
_symmetry_cell_setting 'triclinic'
loop_
_space_group_symop_operation_xyz
x,y,z
-x,-y,-z
loop_
_atom_site_type_symbol
_atom_site_label
_atom_site_fract_x
_atom_site_fract_y
_atom_site_fract_z
Si Si1 0.308358 0.650033 0.660064
Si Si2 0.189134 0.394429 0.854030
Si Si3 0.332891 0.226582 0.086695
Si Si4 0.670989 0.484271 0.658145
Si Si5 0.893151 0.554884 0.820349
Si Si6 0.093898 0.923569 0.314857
Si Si7 0.339266 0.225629 0.747649
Si Si8 0.182914 0.877391 0.213150
O O1 0.198508 0.539575 0.664014
O O2 0.252826 0.523229 0.515227
O O3 0.278370 0.791112 0.448999
O O4 0.486712 0.723437 0.986918
O O5 0.027033 0.251229 0.713315
O O6 0.249247 0.308428 0.933113
O O7 0.306971 0.479630 0.154988
O O8 0.508798 0.328430 0.413107
O O9 0.251951 0.042940 0.130004
O O10 0.328194 0.229879 0.898538
O O11 0.815932 0.480185 0.883847
O O12 0.683932 0.640041 0.481464
O O13 0.000000 0.500000 0.000000
O O14 0.007627 0.747811 0.914622
O O15 0.177745 0.906248 0.353372
O O16 0.214026 0.050552 0.570490
O O17 0.000000 0.000000 0.000000
#
# Coordination Sequence:
#
# PCOD9035562 Si02
#       8
#     2   2   2   2   2   2   2   2
#     4  11  26  46  67 100 137 176 224 274 336 403
#     4  12  25  42  71  99 133 180 225 271 339 398
#     4  12  25  41  71 102 131 178 228 274 337 389
#     4  12  22  45  70 100 135 176 225 278 330 402
#     4  10  22  46  68  92 139 177 215 276 333 390
#     4  12  24  45  67 100 138 173 222 283 331 395
#     4  12  25  43  69 101 137 172 224 282 332 397
#     4  11  25  47  67  97 139 177 220 281 334 393
#
# _framework density 20.983381000000001
#
# number of rings (size 3 to 8) (size 9 to 14) (size 15 to 20)
#    0.000    0.500    6.250    1.500    3.500    2.000 
#    0.000    0.000    0.000    0.000    0.000    0.000 
#    0.000    0.000    0.000    0.000    0.000    0.000 
#
# Total GULP energy -89473.641798 kJ/mol
# GULP energy per Si atom -5592.102612 kJ/mol
# Density = 2.093562 g / cm^3
# Si number density = 20.983381 Si / 1000 Ang^3
#
#
#
# Elastic Constant Matrix: (Units=GPa)
#
#
# Indices 1 2 3 4 5 6 
#
# 1 72.7741 11.3624 4.0626 1.3644 -19.9474 -7.3101
# 2 11.3624 81.2446 17.4488 19.7727 -15.8130 -1.8595
# 3 4.0626 17.4488 58.5501 22.6640 -11.0530 -12.3106
# 4 1.3644 19.7727 22.6640 43.9932 -8.9197 -4.4846
# 5 -19.9474 -15.8130 -11.0530 -8.9197 42.8434 5.5046
# 6 -7.3101 -1.8595 -12.3106 -4.4846 5.5046 33.6953
#
#
#
# Elastic Compliance Matrix: (Units=1/GPa)
#
#
# Indices 1 2 3 4 5 6 
#
# 1 0.016109 -0.001294 0.000601 0.001494 0.007145 0.002674
# 2 -0.001294 0.014786 -0.002026 -0.005003 0.003475 -0.001439
# 3 0.000601 -0.002026 0.023422 -0.009946 0.002627 0.006823
# 4 0.001494 -0.005003 -0.009946 0.030599 0.002646 0.000054
# 5 0.007145 0.003475 0.002627 0.002646 0.029404 -0.001750
# 6 0.002674 -0.001439 0.006823 0.000054 -0.001750 0.032964
#
#
# Mechanical properties :
#
#
# Convention : Reuss Voigt Hill
#
# Bulk Modulus (GPa) = 20.45893 30.92405 25.69149
# Shear Modulus (GPa) = 29.58326 36.08606 32.83466
#
# Velocity S-wave (km/s) = 3.75886 4.15148 3.96004
# Velocity P-wave (km/s) = 5.34883 6.14403 5.76017
#
# Compressibility (1/GPa) = 0.04887841
#
# Stress axis : x y z
#
# Youngs Moduli (GPa) = 62.07856 67.63248 42.69479
#
# Poissons Ratio (x) = 0.08748 -0.02565
# Poissons Ratio (y) = 0.08030 0.08651
# Poissons Ratio (z) = -0.03729 0.13704
#
# Static dielectric constant tensor:
#      x y z
#    x 1.775050 -0.014660 0.024030 
#    y -0.014660 1.723140 0.003290 
#    z 0.024030 0.003290 1.764580 
# 
# From -- ./inp_files/238485.got.cif
#   From: 2010.05.17/outbox.cif.g08.bks.cpg/sg2_120_cif.got.tgz:238485.got - 2010.06.03 11:33:40.
