data_PCOD9035785
_publ_section_title
;
Structure prediction by ZEFSAII (Michael W. Deem and Ramdas Pophale) SiO2 
 PCOD9035785
Probable space group: P -1
;
_chemical_formula_sum "Si O2"
_cell_formula_units_Z 16
_cell_length_a 15.877650
_cell_length_b 9.586820
_cell_length_c 7.889028
_cell_angle_alpha 115.320810
_cell_angle_beta 66.655420
_cell_angle_gamma 122.714038
_cell_volume 891.507232
_symmetry_space_group_name_H-M "P -1"
_symmetry_group_IT_number 2
_symmetry_cell_setting 'triclinic'
loop_
_space_group_symop_operation_xyz
x,y,z
-x,-y,-z
loop_
_atom_site_type_symbol
_atom_site_label
_atom_site_fract_x
_atom_site_fract_y
_atom_site_fract_z
Si Si1 0.460705 0.692035 0.678547
Si Si2 0.865881 0.950491 0.409393
Si Si3 0.659558 0.672418 0.549458
Si Si4 0.914224 0.003258 0.784541
Si Si5 0.223301 0.991349 0.813610
Si Si6 0.556375 0.386426 0.957312
Si Si7 0.435913 0.999945 0.715239
Si Si8 0.265513 0.309700 0.139741
O O1 0.578428 0.732717 0.570158
O O2 0.390440 0.533564 0.532204
O O3 0.441528 0.857291 0.759882
O O4 0.439337 0.618332 0.846596
O O5 0.768061 0.767466 0.421654
O O6 0.893255 0.030873 0.619220
O O7 0.830839 0.046025 0.344709
O O8 0.965865 0.935199 0.256620
O O9 0.679159 0.723649 0.757757
O O10 0.853467 0.795174 0.764252
O O11 0.860011 0.075768 0.001055
O O12 0.318091 0.948738 0.737939
O O13 0.271514 0.198600 0.918355
O O14 0.492872 0.192209 0.843882
O O15 0.672587 0.490225 0.847508
O O16 0.500000 0.500000 0.000000
O O17 0.500000 0.000000 0.500000
#
# Coordination Sequence:
#
# PCOD9035785 Si02
#       8
#     2   2   2   2   2   2   2   2
#     4  11  23  35  55  83 118 157 189 237 289 346
#     4  10  17  32  59  88 107 149 194 247 287 343
#     4  10  19  34  57  81 116 146 196 238 286 339
#     4   8  19  33  54  89 113 137 201 249 284 336
#     4  10  19  35  53  80 120 149 183 239 291 334
#     4  12  20  37  57  80 115 159 194 234 289 347
#     4  12  25  37  54  86 121 155 197 235 290 353
#     4   9  18  32  54  81 110 147 182 241 278 337
#
# _framework density 17.947133999999998
#
# number of rings (size 3 to 8) (size 9 to 14) (size 15 to 20)
#    0.750    1.000    2.500    3.000    1.750    0.000 
#    2.250    0.000    0.000    0.750    0.000    6.125 
#    0.000    0.000    0.000    0.000    0.000    0.000 
#
# Total GULP energy -89073.784697 kJ/mol
# GULP energy per Si atom -5567.111544 kJ/mol
# Density = 1.790629 g / cm^3
# Si number density = 17.947134 Si / 1000 Ang^3
#
#
#
# Elastic Constant Matrix: (Units=GPa)
#
#
# Indices 1 2 3 4 5 6 
#
# 1 107.6436 54.8299 31.5580 -9.9389 -16.4213 13.3049
# 2 54.8299 71.3507 24.5159 -7.0411 -11.2364 -5.5041
# 3 31.5580 24.5159 59.9868 -13.5879 -5.4333 -3.0670
# 4 -9.9389 -7.0411 -13.5879 30.5139 4.7372 -6.1717
# 5 -16.4213 -11.2364 -5.4333 4.7372 29.0969 -10.3981
# 6 13.3049 -5.5041 -3.0670 -6.1717 -10.3981 30.9179
#
#
#
# Elastic Compliance Matrix: (Units=1/GPa)
#
#
# Indices 1 2 3 4 5 6 
#
# 1 0.019340 -0.013954 -0.005388 -0.001746 0.000713 -0.011450
# 2 -0.013954 0.027870 -0.002135 0.002612 0.006925 0.013605
# 3 -0.005388 -0.002135 0.022865 0.009043 0.001228 0.006425
# 4 -0.001746 0.002612 0.009043 0.038941 -0.001244 0.009468
# 5 0.000713 0.006925 0.001228 -0.001244 0.043375 0.015388
# 6 -0.011450 0.013605 0.006425 0.009468 0.015388 0.047396
#
#
# Mechanical properties :
#
#
# Convention : Reuss Voigt Hill
#
# Bulk Modulus (GPa) = 36.87056 51.19875 44.03466
# Shear Modulus (GPa) = 19.85855 26.64421 23.25138
#
# Velocity S-wave (km/s) = 3.33002 3.85722 3.60328
# Velocity P-wave (km/s) = 5.94760 6.95895 6.47306
#
# Compressibility (1/GPa) = 0.02712191
#
# Stress axis : x y z
#
# Youngs Moduli (GPa) = 51.70647 35.88134 43.73410
#
# Poissons Ratio (x) = 0.50069 0.23564
# Poissons Ratio (y) = 0.72151 0.09335
# Poissons Ratio (z) = 0.27860 0.07659
#
# Static dielectric constant tensor:
#      x y z
#    x 1.642170 0.021830 0.015060 
#    y 0.021830 1.638380 -0.029880 
#    z 0.015060 -0.029880 1.654450 
# 
# From -- ./inp_files/293197.got.cif
#   From: 2010.05.17/outbox.cif.g08.bks.cpg/sg2_147_cif.got.tgz:293197.got - 2010.06.03 11:33:40.
