data_PCOD9035293
_publ_section_title
;
Structure prediction by ZEFSAII (Michael W. Deem and Ramdas Pophale) SiO2 
 PCOD9035293
Probable space group: P -1
;
_chemical_formula_sum "Si O2"
_cell_formula_units_Z 10
_cell_length_a 7.947315
_cell_length_b 11.799860
_cell_length_c 9.209815
_cell_angle_alpha 32.114608
_cell_angle_beta 71.230436
_cell_angle_gamma 58.773201
_cell_volume 379.316307
_symmetry_space_group_name_H-M "P -1"
_symmetry_group_IT_number 2
_symmetry_cell_setting 'triclinic'
loop_
_space_group_symop_operation_xyz
x,y,z
-x,-y,-z
loop_
_atom_site_type_symbol
_atom_site_label
_atom_site_fract_x
_atom_site_fract_y
_atom_site_fract_z
Si Si1 0.347810 0.716662 0.704545
Si Si2 0.740872 0.839670 0.073435
Si Si3 0.616553 0.520261 0.592420
Si Si4 0.102797 0.960583 0.795219
Si Si5 0.093718 0.538524 0.788945
O O1 0.500617 0.722520 0.534470
O O2 0.182579 0.894865 0.675283
O O3 0.238143 0.632989 0.709284
O O4 0.500000 0.500000 0.000000
O O5 0.782133 0.596057 0.413992
O O6 0.782289 0.726685 0.024433
O O7 0.899774 0.944520 0.918256
O O8 0.500000 0.000000 0.000000
O O9 0.500000 0.500000 0.500000
O O10 0.720902 0.251941 0.927656
O O11 0.058314 0.238653 0.513901
O O12 0.000000 0.500000 0.000000
#
# Coordination Sequence:
#
# PCOD9035293 Si02
#       5
#     2   2   2   2   2
#     4  10  22  45  73 106 148 195 249 304 365 448
#     4  12  27  46  76 110 153 197 248 309 384 438
#     4  11  24  48  75 112 152 196 247 311 379 445
#     4  11  26  48  76 109 154 196 254 310 369 455
#     4  12  25  47  79 108 148 202 255 307 374 444
#
# _framework density 26.363220999999999
#
# number of rings (size 3 to 8) (size 9 to 14) (size 15 to 20)
#    0.000    0.800    4.000    2.400    2.800    0.800 
#    3.600    6.000    0.000    0.000    0.000    0.000 
#    0.000    0.000    0.000    0.000    0.000    0.000 
#
# Total GULP energy -55687.490388 kJ/mol
# GULP energy per Si atom -5568.749039 kJ/mol
# Density = 2.630322 g / cm^3
# Si number density = 26.363221 Si / 1000 Ang^3
#
#
#
# Elastic Constant Matrix: (Units=GPa)
#
#
# Indices 1 2 3 4 5 6 
#
# 1 71.6228 29.9536 37.9359 9.4972 4.5141 -17.5124
# 2 29.9536 217.3524 50.4490 12.9654 -1.1872 -30.3668
# 3 37.9359 50.4490 185.3225 3.8272 5.9167 -13.0740
# 4 9.4972 12.9654 3.8272 57.3288 -13.8080 -6.5159
# 5 4.5141 -1.1872 5.9167 -13.8080 42.7896 14.3110
# 6 -17.5124 -30.3668 -13.0740 -6.5159 14.3110 40.4814
#
#
#
# Elastic Compliance Matrix: (Units=1/GPa)
#
#
# Indices 1 2 3 4 5 6 
#
# 1 0.018381 -0.000620 -0.002805 -0.003072 -0.005212 0.007929
# 2 -0.000620 0.005510 -0.001047 -0.000933 -0.001211 0.003805
# 3 -0.002805 -0.001047 0.006293 0.000158 -0.000649 0.000289
# 4 -0.003072 -0.000933 0.000158 0.019708 0.007073 -0.001306
# 5 -0.005212 -0.001211 -0.000649 0.007073 0.030627 -0.013061
# 6 0.007929 0.003805 0.000289 -0.001306 -0.013061 0.035487
#
#
# Mechanical properties :
#
#
# Convention : Reuss Voigt Hill
#
# Bulk Modulus (GPa) = 47.07702 78.99719 63.03711
# Shear Modulus (GPa) = 37.87060 51.85056 44.86058
#
# Velocity S-wave (km/s) = 3.79422 4.43965 4.12956
# Velocity P-wave (km/s) = 6.09021 7.50404 6.83379
#
# Compressibility (1/GPa) = 0.02124179
#
# Stress axis : x y z
#
# Youngs Moduli (GPa) = 54.40307 181.49585 158.90882
#
# Poissons Ratio (x) = 0.11245 0.44571
# Poissons Ratio (y) = 0.03371 0.16633
# Poissons Ratio (z) = 0.15259 0.18998
#
# Static dielectric constant tensor:
#      x y z
#    x 2.740730 -0.518000 0.281260 
#    y -0.518000 2.522130 -0.179360 
#    z 0.281260 -0.179360 2.310370 
# 
# From -- ./inp_files/166866.got.cif
#   From: 2010.05.17/outbox.cif.g08.bks.cpg/sg2_84_cif.got.tgz:166866.got - 2010.06.03 11:33:40.
