data_PCOD9035646
_publ_section_title
;
Structure prediction by ZEFSAII (Michael W. Deem and Ramdas Pophale) SiO2 
 PCOD9035646
Probable space group: P -1
;
_chemical_formula_sum "Si O2"
_cell_formula_units_Z 12
_cell_length_a 13.494902
_cell_length_b 8.689407
_cell_length_c 5.097552
_cell_angle_alpha 58.876243
_cell_angle_beta 89.857175
_cell_angle_gamma 116.441549
_cell_volume 436.561828
_symmetry_space_group_name_H-M "P -1"
_symmetry_group_IT_number 2
_symmetry_cell_setting 'triclinic'
loop_
_space_group_symop_operation_xyz
x,y,z
-x,-y,-z
loop_
_atom_site_type_symbol
_atom_site_label
_atom_site_fract_x
_atom_site_fract_y
_atom_site_fract_z
Si Si1 0.212479 0.485975 0.350951
Si Si2 0.810515 0.220544 0.509386
Si Si3 0.821422 0.931160 0.138345
Si Si4 0.623466 0.908963 0.492159
Si Si5 0.014307 0.223705 0.215463
Si Si6 0.484875 0.685691 0.209705
O O1 0.179307 0.628362 0.392756
O O2 0.170262 0.272021 0.707656
O O3 0.350299 0.599717 0.245827
O O4 0.142211 0.401484 0.151750
O O5 0.930597 0.284560 0.315142
O O6 0.701264 0.150226 0.379795
O O7 0.774964 0.995767 0.837594
O O8 0.726440 0.876087 0.413875
O O9 0.944035 0.141241 0.016890
O O10 0.543868 0.865864 0.275643
O O11 0.545638 0.762609 0.858809
O O12 0.000000 0.000000 0.500000
O O13 0.500000 0.500000 0.500000
#
# Coordination Sequence:
#
# PCOD9035646 Si02
#       6
#     2   2   2   2   2   2
#     4  11  24  43  68 109 138 193 241 292 362 428
#     4  11  23  45  73 101 147 184 240 301 357 428
#     4  10  22  46  70 101 142 189 234 303 355 424
#     4  11  23  46  70 102 146 191 237 297 355 418
#     4   9  22  44  69 103 144 184 239 297 362 427
#     4  12  24  44  74 105 147 192 243 295 353 434
#
# _framework density 27.487515999999999
#
# number of rings (size 3 to 8) (size 9 to 14) (size 15 to 20)
#    0.000    1.333    3.333    1.000    0.000    4.667 
#    9.000    0.000    0.000    0.000    0.000    0.000 
#    0.000    0.000    0.000    0.000    0.000    0.000 
#
# Total GULP energy -67234.728493 kJ/mol
# GULP energy per Si atom -5602.894041 kJ/mol
# Density = 2.742495 g / cm^3
# Si number density = 27.487516 Si / 1000 Ang^3
#
#
#
# Elastic Constant Matrix: (Units=GPa)
#
#
# Indices 1 2 3 4 5 6 
#
# 1 192.8874 82.2163 62.2135 -4.2040 -20.6754 34.5920
# 2 82.2163 157.9936 52.5795 11.9158 -15.6147 56.1570
# 3 62.2135 52.5795 126.2650 6.3543 -11.7321 -0.6838
# 4 -4.2040 11.9158 6.3543 40.4773 5.1420 4.0958
# 5 -20.6754 -15.6147 -11.7321 5.1420 48.5178 -0.9520
# 6 34.5920 56.1570 -0.6838 4.0958 -0.9520 61.6364
#
#
#
# Elastic Compliance Matrix: (Units=1/GPa)
#
#
# Indices 1 2 3 4 5 6 
#
# 1 0.007683 -0.002148 -0.002849 0.001921 0.001641 -0.002489
# 2 -0.002148 0.012909 -0.004023 -0.002638 0.002342 -0.010389
# 3 -0.002849 -0.004023 0.011145 -0.001474 0.000450 0.005493
# 4 0.001921 -0.002638 -0.001474 0.026368 -0.003191 -0.000492
# 5 0.001641 0.002342 0.000450 -0.003191 0.022462 -0.002491
# 6 -0.002489 -0.010389 0.005493 -0.000492 -0.002491 0.027142
#
#
# Mechanical properties :
#
#
# Convention : Reuss Voigt Hill
#
# Bulk Modulus (GPa) = 73.00935 96.79608 84.90271
# Shear Modulus (GPa) = 38.36887 48.80208 43.58547
#
# Velocity S-wave (km/s) = 3.74018 4.21815 3.98634
# Velocity P-wave (km/s) = 6.72834 7.68211 7.22099
#
# Compressibility (1/GPa) = 0.01369688
#
# Stress axis : x y z
#
# Youngs Moduli (GPa) = 130.15985 77.46381 89.73019
#
# Poissons Ratio (x) = 0.16640 0.25561
# Poissons Ratio (y) = 0.27959 0.36100
# Poissons Ratio (z) = 0.37078 0.31165
#
# Static dielectric constant tensor:
#      x y z
#    x 2.128850 0.010690 -0.017080 
#    y 0.010690 2.197630 -0.041590 
#    z -0.017080 -0.041590 2.220470 
# 
# From -- ./inp_files/88437.got.cif
#   From: 2010.05.17/outbox.cif.g08.bks.cpg/sg2_45_cif.got.tgz:88437.got - 2010.06.03 11:33:40.
