data_PCOD9035276
_publ_section_title
;
Structure prediction by ZEFSAII (Michael W. Deem and Ramdas Pophale) SiO2 
 PCOD9035276
Probable space group: P -1
;
_chemical_formula_sum "Si O2"
_cell_formula_units_Z 14
_cell_length_a 31.707740
_cell_length_b 12.140342
_cell_length_c 15.897503
_cell_angle_alpha 26.442702
_cell_angle_beta 16.277262
_cell_angle_gamma 20.080734
_cell_volume 587.702213
_symmetry_space_group_name_H-M "P -1"
_symmetry_group_IT_number 2
_symmetry_cell_setting 'triclinic'
loop_
_space_group_symop_operation_xyz
x,y,z
-x,-y,-z
loop_
_atom_site_type_symbol
_atom_site_label
_atom_site_fract_x
_atom_site_fract_y
_atom_site_fract_z
Si Si1 0.781584 0.583982 0.573480
Si Si2 0.180550 0.360483 0.994717
Si Si3 0.281675 0.765439 0.929242
Si Si4 0.625112 0.773215 0.556789
Si Si5 0.845623 0.206827 0.389161
Si Si6 0.819582 0.678281 0.786937
Si Si7 0.481726 0.812296 0.236583
O O1 0.681576 0.672222 0.614600
O O2 0.711346 0.911472 0.531306
O O3 0.725223 0.416171 0.855834
O O4 0.014497 0.359494 0.274194
O O5 0.179829 0.611218 0.771234
O O6 0.393499 0.013997 0.821568
O O7 0.129312 0.455810 0.125344
O O8 0.462525 0.499349 0.703807
O O9 0.304072 0.022627 0.738507
O O10 0.075415 0.947797 0.150651
O O11 0.736980 0.466898 0.492968
O O12 0.755135 0.031133 0.674493
O O13 0.000000 0.500000 0.500000
O O14 0.653867 0.683879 0.060848
O O15 0.500000 0.000000 0.000000
#
# Coordination Sequence:
#
# PCOD9035276 Si02
#       7
#     2   2   2   2   2   2   2
#     4  11  24  48  75 105 145 197 242 297 363 429
#     4  12  27  48  73 111 144 194 245 293 364 433
#     4  11  24  48  75 105 147 189 241 306 358 428
#     4  12  28  48  72 109 148 194 246 294 361 429
#     4  12  27  47  74 107 151 190 242 302 358 431
#     4  12  24  49  72 108 146 184 240 302 361 430
#     4  10  22  45  73 103 143 189 240 295 366 425
#
# _framework density 23.821588999999999
#
# number of rings (size 3 to 8) (size 9 to 14) (size 15 to 20)
#    0.000    0.571    5.714    1.714    4.000    3.429 
#    2.571    0.000    0.000    0.000    0.000    0.000 
#    0.000    0.000    0.000    0.000    0.000    0.000 
#
# Total GULP energy -78494.459985 kJ/mol
# GULP energy per Si atom -5606.747142 kJ/mol
# Density = 2.376737 g / cm^3
# Si number density = 23.821589 Si / 1000 Ang^3
#
#
#
# Elastic Constant Matrix: (Units=GPa)
#
#
# Indices 1 2 3 4 5 6 
#
# 1 113.5480 86.3609 44.1473 -3.5165 35.7704 -9.5481
# 2 86.3609 119.1038 37.0815 0.0646 17.3867 -0.2485
# 3 44.1473 37.0815 82.7627 8.6440 6.3118 -14.8551
# 4 -3.5165 0.0646 8.6440 39.5015 -9.9515 -7.0067
# 5 35.7704 17.3867 6.3118 -9.9515 42.1722 -3.1063
# 6 -9.5481 -0.2485 -14.8551 -7.0067 -3.1063 57.3645
#
#
#
# Elastic Compliance Matrix: (Units=1/GPa)
#
#
# Indices 1 2 3 4 5 6 
#
# 1 0.030173 -0.017288 -0.006642 0.000235 -0.017244 0.002322
# 2 -0.017288 0.020272 -0.000779 -0.000332 0.006146 -0.002699
# 3 -0.006642 -0.000779 0.016589 -0.002934 0.003000 0.002991
# 4 0.000235 -0.000332 -0.002934 0.028376 0.007304 0.003139
# 5 -0.017244 0.006146 0.003000 0.007304 0.037141 0.000836
# 6 0.002322 -0.002699 0.002991 0.003139 0.000836 0.019011
#
#
# Mechanical properties :
#
#
# Convention : Reuss Voigt Hill
#
# Bulk Modulus (GPa) = 56.76768 72.28823 64.52795
# Shear Modulus (GPa) = 24.17194 37.66263 30.91728
#
# Velocity S-wave (km/s) = 3.18890 3.98053 3.60650
# Velocity P-wave (km/s) = 6.11890 7.17898 6.67003
#
# Compressibility (1/GPa) = 0.01761566
#
# Stress axis : x y z
#
# Youngs Moduli (GPa) = 33.14219 49.33006 60.28054
#
# Poissons Ratio (x) = 0.85283 0.40035
# Poissons Ratio (y) = 0.57297 0.04697
# Poissons Ratio (z) = 0.22011 0.03844
#
# Static dielectric constant tensor:
#      x y z
#    x 1.867770 -0.001090 0.011040 
#    y -0.001090 1.914070 0.019310 
#    z 0.011040 0.019310 1.913840 
# 
# From -- ./inp_files/544933.got.cif
#   From: 2010.05.17/outbox.cif.g08.bks.cpg/sg2_273_cif.got.tgz:544933.got - 2010.06.03 11:33:40.
