data_PCOD9035618
_publ_section_title
;
Structure prediction by ZEFSAII (Michael W. Deem and Ramdas Pophale) SiO2 
 PCOD9035618
Probable space group: P -1
;
_chemical_formula_sum "Si O2"
_cell_formula_units_Z 14
_cell_length_a 10.327771
_cell_length_b 23.956106
_cell_length_c 9.465987
_cell_angle_alpha 44.219020
_cell_angle_beta 43.406213
_cell_angle_gamma 23.636638
_cell_volume 634.036887
_symmetry_space_group_name_H-M "P -1"
_symmetry_group_IT_number 2
_symmetry_cell_setting 'triclinic'
loop_
_space_group_symop_operation_xyz
x,y,z
-x,-y,-z
loop_
_atom_site_type_symbol
_atom_site_label
_atom_site_fract_x
_atom_site_fract_y
_atom_site_fract_z
Si Si1 0.520121 0.467345 0.380361
Si Si2 0.715359 0.219319 0.699946
Si Si3 0.298521 0.057459 0.745663
Si Si4 0.987168 0.120257 0.172003
Si Si5 0.824446 0.352980 0.931519
Si Si6 0.209103 0.257184 0.064844
Si Si7 0.259524 0.957715 0.534331
O O1 0.500000 0.500000 0.500000
O O2 0.545758 0.362446 0.533295
O O3 0.216735 0.606006 0.272454
O O4 0.863462 0.382144 0.196958
O O5 0.983090 0.147469 0.737910
O O6 0.449126 0.248127 0.912510
O O7 0.930620 0.102577 0.616719
O O8 0.432177 0.100295 0.545572
O O9 0.599685 0.891044 0.775385
O O10 0.201504 0.073053 0.954996
O O11 0.732653 0.140442 0.288098
O O12 0.824366 0.257284 0.112687
O O13 0.209836 0.002622 0.330774
O O14 0.500000 0.500000 0.000000
O O15 0.124984 0.279508 0.923272
#
# Coordination Sequence:
#
# PCOD9035618 Si02
#       7
#     2   2   2   2   2   2   2
#     4  11  25  47  68  97 133 181 232 271 322 403
#     4  12  25  43  68 101 136 177 223 272 343 400
#     4  12  23  42  67 103 141 172 213 283 349 393
#     4  11  23  40  66 102 132 168 229 276 335 397
#     4  10  22  46  69  91 136 183 221 269 326 396
#     4  11  24  43  71  95 137 179 216 283 338 392
#     4  11  23  39  67 101 134 169 219 274 339 399
#
# _framework density 22.080732999999999
#
# number of rings (size 3 to 8) (size 9 to 14) (size 15 to 20)
#    0.000    0.857    4.286    3.000    0.000    1.143 
#    0.000    7.143    0.000    0.000    0.000    0.000 
#    0.000    0.000    0.000    0.000    0.000    0.000 
#
# Total GULP energy -78366.292635 kJ/mol
# GULP energy per Si atom -5597.592331 kJ/mol
# Density = 2.203048 g / cm^3
# Si number density = 22.080733 Si / 1000 Ang^3
#
#
#
# Elastic Constant Matrix: (Units=GPa)
#
#
# Indices 1 2 3 4 5 6 
#
# 1 139.1765 34.0282 41.4253 7.0891 -21.2716 -8.0469
# 2 34.0282 60.1900 22.1207 -0.3035 -8.5374 2.0164
# 3 41.4253 22.1207 45.4646 26.0030 -4.7529 5.4764
# 4 7.0891 -0.3035 26.0030 31.7287 -0.1197 4.7481
# 5 -21.2716 -8.5374 -4.7529 -0.1197 48.7590 6.3755
# 6 -8.0469 2.0164 5.4764 4.7481 6.3755 32.1055
#
#
#
# Elastic Compliance Matrix: (Units=1/GPa)
#
#
# Indices 1 2 3 4 5 6 
#
# 1 0.012850 -0.000069 -0.018510 0.011713 0.003296 0.003996
# 2 -0.000069 0.025608 -0.023088 0.019344 0.002384 -0.001022
# 3 -0.018510 -0.023088 0.090119 -0.068768 -0.002469 -0.007901
# 4 0.011713 0.019344 -0.068768 0.085386 0.001946 0.000437
# 5 0.003296 0.002384 -0.002469 0.001946 0.022610 -0.003680
# 6 0.003996 -0.001022 -0.007901 0.000437 -0.003680 0.034227
#
#
# Mechanical properties :
#
#
# Convention : Reuss Voigt Hill
#
# Bulk Modulus (GPa) = 22.10291 48.88662 35.49477
# Shear Modulus (GPa) = 13.54230 32.33577 22.93904
#
# Velocity S-wave (km/s) = 2.47919 3.83094 3.22665
# Velocity P-wave (km/s) = 4.26931 6.46190 5.47646
#
# Compressibility (1/GPa) = 0.04524290
#
# Stress axis : x y z
#
# Youngs Moduli (GPa) = 77.82364 39.05010 11.09646
#
# Poissons Ratio (x) = 0.00270 0.20540
# Poissons Ratio (y) = 0.00538 0.25619
# Poissons Ratio (z) = 1.44052 0.90158
#
# Static dielectric constant tensor:
#      x y z
#    x 1.840490 0.000880 0.035950 
#    y 0.000880 1.807310 0.000420 
#    z 0.035950 0.000420 1.805570 
# 
# From -- ./inp_files/217806.got.cif
#   From: 2010.05.17/outbox.cif.g08.bks.cpg/sg2_109_cif.got.tgz:217806.got - 2010.06.03 11:33:40.
