data_PCOD9035499
_publ_section_title
;
Structure prediction by ZEFSAII (Michael W. Deem and Ramdas Pophale) SiO2 
 PCOD9035499
Probable space group: P -1
;
_chemical_formula_sum "Si O2"
_cell_formula_units_Z 16
_cell_length_a 14.888380
_cell_length_b 6.895190
_cell_length_c 8.047715
_cell_angle_alpha 93.811481
_cell_angle_beta 73.336221
_cell_angle_gamma 69.205532
_cell_volume 726.733948
_symmetry_space_group_name_H-M "P -1"
_symmetry_group_IT_number 2
_symmetry_cell_setting 'triclinic'
loop_
_space_group_symop_operation_xyz
x,y,z
-x,-y,-z
loop_
_atom_site_type_symbol
_atom_site_label
_atom_site_fract_x
_atom_site_fract_y
_atom_site_fract_z
Si Si1 0.423836 0.952639 0.911433
Si Si2 0.244801 0.138466 0.231556
Si Si3 0.713387 0.560746 0.543576
Si Si4 0.070418 0.991870 0.308229
Si Si5 0.440578 0.219236 0.639887
Si Si6 0.543121 0.485994 0.788441
Si Si7 0.895044 0.452999 0.871873
Si Si8 0.073438 0.593693 0.757094
O O1 0.388235 0.144519 0.813353
O O2 0.480290 0.729403 0.779801
O O3 0.329274 0.959529 0.070211
O O4 0.500000 0.000000 0.000000
O O5 0.296108 0.219356 0.355038
O O6 0.159226 0.060182 0.327740
O O7 0.189553 0.343856 0.156834
O O8 0.643463 0.612524 0.420580
O O9 0.660657 0.450771 0.691990
O O10 0.831008 0.451638 0.419071
O O11 0.004076 0.164874 0.217824
O O12 0.112470 0.759981 0.197323
O O13 0.000000 0.000000 0.500000
O O14 0.513042 0.323086 0.688604
O O15 0.500000 0.000000 0.500000
O O16 0.500000 0.500000 0.000000
O O17 0.003655 0.458960 0.756505
O O18 0.891415 0.454792 0.073748
#
# Coordination Sequence:
#
# PCOD9035499 Si02
#       8
#     2   2   2   2   2   2   2   2
#     4  12  23  46  67  98 135 180 228 279 340 408
#     4  11  24  42  68  97 134 182 222 279 340 410
#     4  12  24  43  66 101 134 176 231 279 345 404
#     4  11  23  42  67  99 135 173 227 277 340 408
#     4  12  25  46  67  96 140 177 226 291 340 398
#     4  12  26  45  70  95 138 183 229 282 342 413
#     4  10  22  46  66  97 136 175 221 281 347 404
#     4  10  23  42  68  96 135 171 223 285 340 403
#
# _framework density 22.016310000000001
#
# number of rings (size 3 to 8) (size 9 to 14) (size 15 to 20)
#    0.000    0.750    3.750    3.000    0.000    6.000 
#    2.250    0.000    0.000    0.000    0.000    0.000 
#    0.000    0.000    0.000    0.000    0.000    0.000 
#
# Total GULP energy -89474.779211 kJ/mol
# GULP energy per Si atom -5592.173701 kJ/mol
# Density = 2.196620 g / cm^3
# Si number density = 22.016310 Si / 1000 Ang^3
#
#
#
# Elastic Constant Matrix: (Units=GPa)
#
#
# Indices 1 2 3 4 5 6 
#
# 1 89.8248 27.5026 46.6338 -1.4964 -14.5118 25.4201
# 2 27.5026 94.6362 19.3234 3.5193 -1.1181 22.3479
# 3 46.6338 19.3234 85.0778 -7.3364 -20.3952 19.4358
# 4 -1.4964 3.5193 -7.3364 46.8568 4.5766 3.6660
# 5 -14.5118 -1.1181 -20.3952 4.5766 46.7792 -3.1228
# 6 25.4201 22.3479 19.4358 3.6660 -3.1228 39.3780
#
#
#
# Elastic Compliance Matrix: (Units=1/GPa)
#
#
# Indices 1 2 3 4 5 6 
#
# 1 0.017698 -0.002096 -0.007317 -0.000095 0.001828 -0.006470
# 2 -0.002096 0.012632 -0.000761 -0.000611 -0.000985 -0.005461
# 3 -0.007317 -0.000761 0.018225 0.002458 0.005173 -0.003659
# 4 -0.000095 -0.000611 0.002458 0.022132 -0.001336 -0.002971
# 5 0.001828 -0.000985 0.005173 -0.001336 0.024231 -0.001128
# 6 -0.006470 -0.005461 -0.003659 -0.002971 -0.001128 0.034664
#
#
# Mechanical properties :
#
#
# Convention : Reuss Voigt Hill
#
# Bulk Modulus (GPa) = 35.45253 50.71761 43.08507
# Shear Modulus (GPa) = 31.38070 38.34140 34.86105
#
# Velocity S-wave (km/s) = 3.77946 4.17766 3.98354
# Velocity P-wave (km/s) = 5.93157 6.80858 6.38515
#
# Compressibility (1/GPa) = 0.02820673
#
# Stress axis : x y z
#
# Youngs Moduli (GPa) = 56.50424 79.16281 54.86870
#
# Poissons Ratio (x) = 0.16595 0.40146
# Poissons Ratio (y) = 0.11845 0.04177
# Poissons Ratio (z) = 0.41342 0.06027
#
# Static dielectric constant tensor:
#      x y z
#    x 1.803740 -0.030800 0.000790 
#    y -0.030800 1.819710 -0.040520 
#    z 0.000790 -0.040520 1.822580 
# 
# From -- ./inp_files/288992.got.cif
#   From: 2010.05.17/outbox.cif.g08.bks.cpg/sg2_145_cif.got.tgz:288992.got - 2010.06.03 11:33:40.
