data_PCOD9035031
_publ_section_title
;
Structure prediction by ZEFSAII (Michael W. Deem and Ramdas Pophale) SiO2 
 PCOD9035031
Probable space group: P -1
;
_chemical_formula_sum "Si O2"
_cell_formula_units_Z 12
_cell_length_a 5.715804
_cell_length_b 5.786804
_cell_length_c 17.149370
_cell_angle_alpha 97.531777
_cell_angle_beta 58.359822
_cell_angle_gamma 79.126120
_cell_volume 455.947045
_symmetry_space_group_name_H-M "P -1"
_symmetry_group_IT_number 2
_symmetry_cell_setting 'triclinic'
loop_
_space_group_symop_operation_xyz
x,y,z
-x,-y,-z
loop_
_atom_site_type_symbol
_atom_site_label
_atom_site_fract_x
_atom_site_fract_y
_atom_site_fract_z
Si Si1 0.079820 0.696003 0.548187
Si Si2 0.308268 0.563216 0.792554
Si Si3 0.835354 0.158919 0.681720
Si Si4 0.199738 0.987275 0.143979
Si Si5 0.283913 0.777408 0.963047
Si Si6 0.676032 0.665991 0.374991
O O1 0.342366 0.742200 0.456801
O O2 0.198562 0.578548 0.605810
O O3 0.000000 0.500000 0.500000
O O4 0.813552 0.935220 0.623126
O O5 0.650333 0.442538 0.714572
O O6 0.269975 0.571474 0.893467
O O7 0.226687 0.388061 0.735067
O O8 0.121444 0.830776 0.808935
O O9 0.166372 0.145018 0.615771
O O10 0.765913 0.100118 0.778350
O O11 0.428799 0.140208 0.097738
O O12 0.264004 0.766795 0.059741
O O13 0.000000 0.000000 0.000000
#
# Coordination Sequence:
#
# PCOD9035031 Si02
#       6
#     2   2   2   2   2   2
#     4  11  26  48  73 100 145 189 235 299 355 418
#     4  11  23  41  72 104 140 183 239 282 350 424
#     4  12  26  44  75 105 140 191 235 290 361 418
#     4  10  22  45  70 104 147 183 234 297 344 416
#     4   9  21  43  72 101 145 188 229 293 352 412
#     4  11  25  45  69 107 143 183 238 297 348 425
#
# _framework density 26.318847999999999
#
# number of rings (size 3 to 8) (size 9 to 14) (size 15 to 20)
#    0.000    1.333    1.667    2.500    2.333    8.667 
#    0.000    8.333    0.000    0.000    0.000    0.000 
#    0.000    0.000    0.000    0.000    0.000    0.000 
#
# Total GULP energy -67008.214977 kJ/mol
# GULP energy per Si atom -5584.017915 kJ/mol
# Density = 2.625894 g / cm^3
# Si number density = 26.318848 Si / 1000 Ang^3
#
#
#
# Elastic Constant Matrix: (Units=GPa)
#
#
# Indices 1 2 3 4 5 6 
#
# 1 83.7363 31.4299 59.4327 13.9525 7.1031 -7.7963
# 2 31.4299 74.8818 66.8047 17.9044 0.5923 -13.2268
# 3 59.4327 66.8047 168.2844 39.6201 15.9083 -0.3640
# 4 13.9525 17.9044 39.6201 52.9750 5.9609 3.2958
# 5 7.1031 0.5923 15.9083 5.9609 48.7935 4.4891
# 6 -7.7963 -13.2268 -0.3640 3.2958 4.4891 32.6363
#
#
#
# Elastic Compliance Matrix: (Units=1/GPa)
#
#
# Indices 1 2 3 4 5 6 
#
# 1 0.016604 -0.001923 -0.004972 -0.000089 -0.001064 0.003287
# 2 -0.001923 0.023765 -0.008471 -0.001993 0.002171 0.008980
# 3 -0.004972 -0.008471 0.012347 -0.004572 -0.002299 -0.003705
# 4 -0.000089 -0.001993 -0.004572 0.023302 -0.001034 -0.003091
# 5 -0.001064 0.002171 -0.002299 -0.001034 0.021709 -0.002282
# 6 0.003287 0.008980 -0.003705 -0.003091 -0.002282 0.035650
#
#
# Mechanical properties :
#
#
# Convention : Reuss Voigt Hill
#
# Bulk Modulus (GPa) = 45.48987 71.35969 58.42478
# Shear Modulus (GPa) = 29.16507 38.16332 33.66420
#
# Velocity S-wave (km/s) = 3.33249 3.81207 3.58032
# Velocity P-wave (km/s) = 5.66824 6.82262 6.27205
#
# Compressibility (1/GPa) = 0.02198292
#
# Stress axis : x y z
#
# Youngs Moduli (GPa) = 60.22595 42.07911 80.99122
#
# Poissons Ratio (x) = 0.08093 0.40267
# Poissons Ratio (y) = 0.11583 0.68611
# Poissons Ratio (z) = 0.29943 0.35647
#
# Static dielectric constant tensor:
#      x y z
#    x 2.178870 -0.044180 0.056160 
#    y -0.044180 2.014860 -0.019160 
#    z 0.056160 -0.019160 2.030610 
# 
# From -- ./inp_files/7310.got.cif
#   From: 2010.05.17/outbox.cif.g08.bks.cpg/sg2_4_cif.got.tgz:7310.got - 2010.06.03 11:33:40.
