data_PCOD9035004
_publ_section_title
;
Structure prediction by ZEFSAII (Michael W. Deem and Ramdas Pophale) SiO2 
 PCOD9035004
Probable space group: P -1
;
_chemical_formula_sum "Si O2"
_cell_formula_units_Z 16
_cell_length_a 9.666201
_cell_length_b 11.690530
_cell_length_c 9.598837
_cell_angle_alpha 77.072359
_cell_angle_beta 121.408699
_cell_angle_gamma 125.321908
_cell_volume 750.638837
_symmetry_space_group_name_H-M "P -1"
_symmetry_group_IT_number 2
_symmetry_cell_setting 'triclinic'
loop_
_space_group_symop_operation_xyz
x,y,z
-x,-y,-z
loop_
_atom_site_type_symbol
_atom_site_label
_atom_site_fract_x
_atom_site_fract_y
_atom_site_fract_z
Si Si1 0.890528 0.441356 0.607682
Si Si2 0.514568 0.867647 0.512493
Si Si3 0.302265 0.574918 0.874421
Si Si4 0.727223 0.615749 0.597824
Si Si5 0.228302 0.122767 0.602462
Si Si6 0.385537 0.394392 0.148461
Si Si7 0.549209 0.888440 0.014050
Si Si8 0.224861 0.102699 0.103151
O O1 0.697099 0.281690 0.550091
O O2 0.837031 0.544860 0.620922
O O3 0.000000 0.500000 0.500000
O O4 0.071554 0.464511 0.785504
O O5 0.625254 0.888401 0.420444
O O6 0.662179 0.867951 0.701115
O O7 0.500000 0.000000 0.500000
O O8 0.396405 0.571498 0.774939
O O9 0.389012 0.523204 0.049568
O O10 0.370995 0.733482 0.910137
O O11 0.500000 0.500000 0.500000
O O12 0.765609 0.740420 0.483151
O O13 0.733033 0.647495 0.757230
O O14 0.319820 0.127816 0.798885
O O15 0.000000 0.000000 0.500000
O O16 0.272039 0.253097 0.035262
O O17 0.680858 0.954864 0.929768
O O18 0.500000 0.000000 0.000000
O O19 0.000000 0.000000 0.000000
#
# Coordination Sequence:
#
# PCOD9035004 Si02
#       8
#     2   2   2   2   2   2   2   2
#     4  12  27  44  72 103 141 191 237 298 371 418
#     4  12  27  48  69 105 146 179 238 300 353 434
#     4  10  24  44  73 104 141 185 241 295 366 429
#     4  12  23  45  72  97 146 183 246 301 348 431
#     4  12  27  46  72 108 139 195 241 287 368 423
#     4  10  22  45  70 101 140 183 241 298 352 430
#     4  11  25  44  69 101 144 181 231 294 350 423
#     4  11  23  43  70  96 136 185 229 284 353 418
#
# _framework density 21.315178
#
# number of rings (size 3 to 8) (size 9 to 14) (size 15 to 20)
#    0.000    0.750    2.500    4.500    5.250    2.500 
#    0.000    0.000    0.000    0.000    0.000    0.000 
#    0.000    0.000    0.000    0.000    0.000    0.000 
#
# Total GULP energy -89210.527248 kJ/mol
# GULP energy per Si atom -5575.657953 kJ/mol
# Density = 2.126666 g / cm^3
# Si number density = 21.315178 Si / 1000 Ang^3
#
#
#
# Elastic Constant Matrix: (Units=GPa)
#
#
# Indices 1 2 3 4 5 6 
#
# 1 115.8041 47.4742 14.3847 23.5350 3.5907 -13.1546
# 2 47.4742 132.5668 17.3974 8.8540 28.7433 -1.7306
# 3 14.3847 17.3974 72.8680 12.1320 3.9001 7.7632
# 4 23.5350 8.8540 12.1320 30.9129 7.4746 11.4083
# 5 3.5907 28.7433 3.9001 7.4746 37.7531 10.6104
# 6 -13.1546 -1.7306 7.7632 11.4083 10.6104 51.0931
#
#
#
# Elastic Compliance Matrix: (Units=1/GPa)
#
#
# Indices 1 2 3 4 5 6 
#
# 1 0.013375 -0.004565 -0.000375 -0.011401 0.003020 0.005264
# 2 -0.004565 0.011092 -0.001831 0.002859 -0.008561 0.000618
# 3 -0.000375 -0.001831 0.015147 -0.004838 0.001285 -0.001647
# 4 -0.011401 0.002859 -0.004838 0.047977 -0.006892 -0.011385
# 5 0.003020 -0.008561 0.001285 -0.006892 0.035508 -0.005543
# 6 0.005264 0.000618 -0.001647 -0.011385 -0.005543 0.024892
#
#
# Mechanical properties :
#
#
# Convention : Reuss Voigt Hill
#
# Bulk Modulus (GPa) = 38.35493 53.30573 45.83033
# Shear Modulus (GPa) = 29.37355 40.08399 34.72877
#
# Velocity S-wave (km/s) = 3.71625 4.34122 4.04083
# Velocity P-wave (km/s) = 6.03716 7.08455 6.58172
#
# Compressibility (1/GPa) = 0.02607227
#
# Stress axis : x y z
#
# Youngs Moduli (GPa) = 74.76804 90.15653 66.02149
#
# Poissons Ratio (x) = 0.41158 0.02473
# Poissons Ratio (y) = 0.34133 0.12086
# Poissons Ratio (z) = 0.02801 0.16504
#
# Static dielectric constant tensor:
#      x y z
#    x 1.292170 0.238270 0.307600 
#    y 0.238270 1.687620 -0.128220 
#    z 0.307600 -0.128220 1.602750 
# 
# From -- ./inp_files/186966.got.cif
#   From: 2010.05.17/outbox.cif.g08.bks.cpg/sg2_94_cif.got.tgz:186966.got - 2010.06.03 11:33:40.
