data_PCOD9035347
_publ_section_title
;
Structure prediction by ZEFSAII (Michael W. Deem and Ramdas Pophale) SiO2 
 PCOD9035347
Probable space group: P -1
;
_chemical_formula_sum "Si O2"
_cell_formula_units_Z 16
_cell_length_a 9.736767
_cell_length_b 9.757921
_cell_length_c 8.679588
_cell_angle_alpha 121.721393
_cell_angle_beta 101.920862
_cell_angle_gamma 109.545168
_cell_volume 580.947733
_symmetry_space_group_name_H-M "P -1"
_symmetry_group_IT_number 2
_symmetry_cell_setting 'triclinic'
loop_
_space_group_symop_operation_xyz
x,y,z
-x,-y,-z
loop_
_atom_site_type_symbol
_atom_site_label
_atom_site_fract_x
_atom_site_fract_y
_atom_site_fract_z
Si Si1 0.169386 0.930358 0.247393
Si Si2 0.644679 0.242341 0.637325
Si Si3 0.520212 0.304826 0.959766
Si Si4 0.306773 0.316343 0.347580
Si Si5 0.816558 0.496339 0.352712
Si Si6 0.976023 0.552566 0.851815
Si Si7 0.675285 0.100818 0.252888
Si Si8 0.184937 0.145496 0.876570
O O1 0.265365 0.864852 0.339748
O O2 0.284530 0.146908 0.352171
O O3 0.103572 0.776989 0.001548
O O4 0.989332 0.886218 0.234202
O O5 0.780981 0.460634 0.754935
O O6 0.000000 0.500000 0.000000
O O7 0.546843 0.255843 0.765314
O O8 0.591617 0.144567 0.402527
O O9 0.468477 0.117819 0.946088
O O10 0.354666 0.309874 0.931851
O O11 0.681370 0.466706 0.176942
O O12 0.500000 0.500000 0.500000
O O13 0.190705 0.378166 0.440264
O O14 0.227691 0.205346 0.102192
O O15 0.978309 0.551260 0.324886
O O16 0.756407 0.290375 0.286737
O O17 0.813772 0.044228 0.275618
#
# Coordination Sequence:
#
# PCOD9035347 Si02
#       8
#     2   2   2   2   2   2   2   2
#     4  11  25  47  73  99 159 191 235 309 383 421
#     4  11  24  47  77 106 142 201 255 300 352 456
#     4  10  22  45  74 105 145 196 248 299 370 431
#     4  12  26  44  72 113 151 191 247 306 378 437
#     4  12  23  43  75 104 143 195 250 306 357 443
#     4  10  23  45  75 101 141 192 248 294 366 433
#     4  10  25  42  74 106 143 187 261 291 367 428
#     4  10  25  45  68 111 151 188 238 310 374 435
#
# _framework density 27.541207
#
# number of rings (size 3 to 8) (size 9 to 14) (size 15 to 20)
#    0.750    0.500    3.750    1.875    5.250    1.000 
#    2.250    0.625    0.000    0.000    0.000    0.000 
#    0.000    0.000    0.000    0.000    0.000    0.000 
#
# Total GULP energy -89395.234327 kJ/mol
# GULP energy per Si atom -5587.202145 kJ/mol
# Density = 2.747852 g / cm^3
# Si number density = 27.541207 Si / 1000 Ang^3
#
#
#
# Elastic Constant Matrix: (Units=GPa)
#
#
# Indices 1 2 3 4 5 6 
#
# 1 148.1259 23.9684 34.2152 -24.0314 -40.4903 13.0044
# 2 23.9684 103.3228 16.0888 2.6832 -13.2056 -0.6462
# 3 34.2152 16.0888 103.4299 -4.4113 -31.8301 11.2733
# 4 -24.0314 2.6832 -4.4113 47.2741 12.5158 -7.8169
# 5 -40.4903 -13.2056 -31.8301 12.5158 54.0855 -1.7246
# 6 13.0044 -0.6462 11.2733 -7.8169 -1.7246 49.5040
#
#
#
# Elastic Compliance Matrix: (Units=1/GPa)
#
#
# Indices 1 2 3 4 5 6 
#
# 1 0.009274 -0.001420 -0.000912 0.003044 0.005304 -0.001582
# 2 -0.001420 0.010361 -0.000844 -0.001672 0.001372 0.000484
# 3 -0.000912 -0.000844 0.012365 -0.001448 0.006640 -0.002584
# 4 0.003044 -0.001672 -0.001448 0.024387 -0.004523 0.003201
# 5 0.005304 0.001372 0.006640 -0.004523 0.027666 -0.002638
# 6 -0.001582 0.000484 -0.002584 0.003201 -0.002638 0.021624
#
#
# Mechanical properties :
#
#
# Convention : Reuss Voigt Hill
#
# Bulk Modulus (GPa) = 38.98984 55.93592 47.46288
# Shear Modulus (GPa) = 41.46635 48.87980 45.17308
#
# Velocity S-wave (km/s) = 3.88443 4.21739 4.05433
# Velocity P-wave (km/s) = 5.85714 6.63846 6.26000
#
# Compressibility (1/GPa) = 0.02564770
#
# Stress axis : x y z
#
# Youngs Moduli (GPa) = 107.82508 96.51484 80.87361
#
# Poissons Ratio (x) = 0.13708 0.07379
# Poissons Ratio (y) = 0.15315 0.06822
# Poissons Ratio (z) = 0.09838 0.08142
#
# Static dielectric constant tensor:
#      x y z
#    x 2.305740 -0.021900 0.095840 
#    y -0.021900 2.212390 0.035460 
#    z 0.095840 0.035460 2.137800 
# 
# From -- ./inp_files/263461.got.cif
#   From: 2010.05.17/outbox.cif.g08.bks.cpg/sg2_132_cif.got.tgz:263461.got - 2010.06.03 11:33:40.
