data_PCOD9035358
_publ_section_title
;
Structure prediction by ZEFSAII (Michael W. Deem and Ramdas Pophale) SiO2 
 PCOD9035358
Probable space group: P -1
;
_chemical_formula_sum "Si O2"
_cell_formula_units_Z 10
_cell_length_a 11.043027
_cell_length_b 8.568482
_cell_length_c 5.412981
_cell_angle_alpha 94.632518
_cell_angle_beta 116.698214
_cell_angle_gamma 60.438510
_cell_volume 391.418704
_symmetry_space_group_name_H-M "P -1"
_symmetry_group_IT_number 2
_symmetry_cell_setting 'triclinic'
loop_
_space_group_symop_operation_xyz
x,y,z
-x,-y,-z
loop_
_atom_site_type_symbol
_atom_site_label
_atom_site_fract_x
_atom_site_fract_y
_atom_site_fract_z
Si Si1 0.638859 0.098176 0.341095
Si Si2 0.357181 0.245113 0.771392
Si Si3 0.938119 0.616516 0.208168
Si Si4 0.102510 0.820016 0.232179
Si Si5 0.369549 0.443735 0.378418
O O1 0.778308 0.141298 0.493982
O O2 0.493971 0.231898 0.400059
O O3 0.687983 0.891654 0.415779
O O4 0.541870 0.147302 0.999450
O O5 0.248598 0.303334 0.924838
O O6 0.312250 0.421024 0.591508
O O7 0.000000 0.500000 0.500000
O O8 0.984923 0.771447 0.259874
O O9 0.000000 0.500000 0.000000
O O10 0.218131 0.631773 0.161987
O O11 0.000000 0.000000 0.000000
O O12 0.500000 0.500000 0.500000
#
# Coordination Sequence:
#
# PCOD9035358 Si02
#       5
#     2   2   2   2   2
#     4  10  25  47  76 111 154 204 272 326 406 471
#     4  11  24  46  79 111 154 215 268 335 397 492
#     4  12  28  53  82 118 164 216 269 337 411 483
#     4  11  26  47  77 118 162 210 265 338 402 482
#     4  10  22  45  74 109 153 205 264 328 397 477
#
# _framework density 25.548088
#
# number of rings (size 3 to 8) (size 9 to 14) (size 15 to 20)
#    0.000    1.200    2.000    1.800    2.800   10.400 
#    7.200    0.000    0.000    0.000    0.000    0.000 
#    0.000    0.000    0.000    0.000    0.000    0.000 
#
# Total GULP energy -55770.117060 kJ/mol
# GULP energy per Si atom -5577.011706 kJ/mol
# Density = 2.548994 g / cm^3
# Si number density = 25.548088 Si / 1000 Ang^3
#
#
#
# Elastic Constant Matrix: (Units=GPa)
#
#
# Indices 1 2 3 4 5 6 
#
# 1 158.1036 52.9946 60.8945 -15.6843 -4.4650 32.0416
# 2 52.9946 147.1888 39.9341 -14.1407 -21.3940 6.5822
# 3 60.8945 39.9341 94.3745 -19.2356 3.7694 24.6477
# 4 -15.6843 -14.1407 -19.2356 48.8106 -0.2801 -2.8188
# 5 -4.4650 -21.3940 3.7694 -0.2801 37.8569 0.0985
# 6 32.0416 6.5822 24.6477 -2.8188 0.0985 55.7534
#
#
#
# Elastic Compliance Matrix: (Units=1/GPa)
#
#
# Indices 1 2 3 4 5 6 
#
# 1 0.009342 -0.001943 -0.004263 0.000575 0.000441 -0.003226
# 2 -0.001943 0.009084 -0.002969 0.000948 0.005204 0.001396
# 3 -0.004263 -0.002969 0.016734 0.004089 -0.003805 -0.004384
# 4 0.000575 0.000948 0.004089 0.022496 0.000365 -0.001113
# 5 0.000441 0.005204 -0.003805 0.000365 0.029788 0.000781
# 6 -0.003226 0.001396 -0.004384 -0.001113 0.000781 0.021506
#
#
# Mechanical properties :
#
#
# Convention : Reuss Voigt Hill
#
# Bulk Modulus (GPa) = 59.49489 78.59038 69.04264
# Shear Modulus (GPa) = 37.62147 44.87376 41.24762
#
# Velocity S-wave (km/s) = 3.84158 4.19554 4.02245
# Velocity P-wave (km/s) = 6.55858 7.36876 6.97544
#
# Compressibility (1/GPa) = 0.01680817
#
# Stress axis : x y z
#
# Youngs Moduli (GPa) = 107.04804 110.08108 59.75967
#
# Poissons Ratio (x) = 0.21391 0.25477
# Poissons Ratio (y) = 0.20801 0.17745
# Poissons Ratio (z) = 0.45636 0.32687
#
# Static dielectric constant tensor:
#      x y z
#    x 1.987410 -0.089380 0.021750 
#    y -0.089380 2.195220 0.094050 
#    z 0.021750 0.094050 1.950390 
# 
# From -- ./inp_files/60802.got.cif
#   From: 2010.05.17/outbox.cif.g08.bks.cpg/sg2_31_cif.got.tgz:60802.got - 2010.06.03 11:33:40.
