data_PCOD9035617
_publ_section_title
;
Structure prediction by ZEFSAII (Michael W. Deem and Ramdas Pophale) SiO2 
 PCOD9035617
Probable space group: P -1
;
_chemical_formula_sum "Si O2"
_cell_formula_units_Z 16
_cell_length_a 16.763599
_cell_length_b 11.194406
_cell_length_c 20.154839
_cell_angle_alpha 134.289012
_cell_angle_beta 159.423828
_cell_angle_gamma 34.958017
_cell_volume 715.521065
_symmetry_space_group_name_H-M "P -1"
_symmetry_group_IT_number 2
_symmetry_cell_setting 'triclinic'
loop_
_space_group_symop_operation_xyz
x,y,z
-x,-y,-z
loop_
_atom_site_type_symbol
_atom_site_label
_atom_site_fract_x
_atom_site_fract_y
_atom_site_fract_z
Si Si1 0.914041 0.041640 0.183217
Si Si2 0.927415 0.230818 0.513078
Si Si3 0.278596 0.383134 0.882447
Si Si4 0.292480 0.994563 0.187468
Si Si5 0.237469 0.056073 0.557169
Si Si6 0.231497 0.266093 0.057261
Si Si7 0.079430 0.118875 0.207406
Si Si8 0.291463 0.480622 0.078039
O O1 0.089883 0.034543 0.255362
O O2 0.891176 0.858391 0.082826
O O3 0.561933 0.263234 0.006531
O O4 0.086128 0.000062 0.368361
O O5 0.136810 0.265461 0.726603
O O6 0.566472 0.430567 0.313664
O O7 0.000000 0.000000 0.500000
O O8 0.996404 0.240871 0.493311
O O9 0.021341 0.642848 0.767415
O O10 0.379200 0.392690 0.037425
O O11 0.577919 0.907822 0.332150
O O12 0.181285 0.867237 0.027007
O O13 0.332893 0.983480 0.294616
O O14 0.014713 0.260361 0.059520
O O15 0.473113 0.865832 0.718996
O O16 0.259401 0.317054 0.024539
O O17 0.000000 0.500000 0.000000
#
# Coordination Sequence:
#
# PCOD9035617 Si02
#       8
#     2   2   2   2   2   2   2   2
#     4  12  24  42  69  98 135 174 222 274 330 387
#     4  12  24  42  67  99 137 173 219 271 332 395
#     4  11  24  43  68 100 131 175 223 272 328 391
#     4  10  22  47  69  93 136 174 218 279 331 386
#     4  12  24  42  67 100 131 175 221 264 337 389
#     4  12  24  44  68  96 140 175 215 273 332 393
#     4  10  22  46  69  90 133 177 222 275 328 386
#     4  11  23  42  69 100 132 175 219 271 332 392
#
# _framework density 22.361325999999998
#
# number of rings (size 3 to 8) (size 9 to 14) (size 15 to 20)
#    0.000    0.750    6.250    0.375    1.750    2.000 
#   15.750    1.250    0.000    0.000    0.000    0.000 
#    0.000    0.000    0.000    0.000    0.000    0.000 
#
# Total GULP energy -89307.034383 kJ/mol
# GULP energy per Si atom -5581.689649 kJ/mol
# Density = 2.231043 g / cm^3
# Si number density = 22.361326 Si / 1000 Ang^3
#
#
#
# Elastic Constant Matrix: (Units=GPa)
#
#
# Indices 1 2 3 4 5 6 
#
# 1 106.4088 12.8470 -18.3443 33.2432 31.9566 29.1356
# 2 12.8470 78.5672 11.6228 32.6525 9.1186 11.4379
# 3 -18.3443 11.6228 58.5889 53.1567 27.2176 35.0258
# 4 33.2432 32.6525 53.1567 -41.6702 -38.8708 -49.2689
# 5 31.9566 9.1186 27.2176 -38.8708 11.8254 -26.5308
# 6 29.1356 11.4379 35.0258 -49.2689 -26.5308 -5.8375
#
#
#
# Elastic Compliance Matrix: (Units=1/GPa)
#
#
# Indices 1 2 3 4 5 6 
#
# 1 0.008619 -0.003243 -0.000533 0.005011 -0.002045 0.000466
# 2 -0.003243 0.014504 -0.004166 -0.003622 0.003144 0.003512
# 3 -0.000533 -0.004166 0.010722 0.004908 0.002074 0.002660
# 4 0.005011 -0.003622 0.004908 0.014129 -0.012227 -0.016325
# 5 -0.002045 0.003144 0.002074 -0.012227 0.026174 -0.007368
# 6 0.000466 0.003512 0.002660 -0.016325 -0.007368 0.025132
#
#
# Mechanical properties :
#
#
# Convention : Reuss Voigt Hill
#
# Bulk Modulus (GPa) = 55.68478 28.42399 42.05439
# Shear Modulus (GPa) = 41.27090 8.69284 24.98187
#
# Velocity S-wave (km/s) = 4.30075 1.97380 3.34607
# Velocity P-wave (km/s) = 7.04402 4.23478 5.81169
#
# Compressibility (1/GPa) = 0.01795823
#
# Stress axis : x y z
#
# Youngs Moduli (GPa) = 116.02841 68.94723 93.26948
#
# Poissons Ratio (x) = 0.22363 0.04971
# Poissons Ratio (y) = 0.37634 0.38860
# Poissons Ratio (z) = 0.06184 0.28727
#
# Static dielectric constant tensor:
#      x y z
#    x 1.824710 -0.076870 0.088690 
#    y -0.076870 1.721850 0.040190 
#    z 0.088690 0.040190 1.777580 
# 
# From -- ./inp_files/600103.got.cif
#   From: 2010.05.17/outbox.cif.g08.bks.cpg/sg2_301_cif.got.tgz:600103.got - 2010.06.03 11:33:40.
