data_PCOD9035861
_publ_section_title
;
Structure prediction by ZEFSAII (Michael W. Deem and Ramdas Pophale) SiO2 
 PCOD9035861
Probable space group: P -1
;
_chemical_formula_sum "Si O2"
_cell_formula_units_Z 11
_cell_length_a 8.699796
_cell_length_b 13.533527
_cell_length_c 10.117282
_cell_angle_alpha 78.493057
_cell_angle_beta 30.909038
_cell_angle_gamma 61.999027
_cell_volume 482.930936
_symmetry_space_group_name_H-M "P -1"
_symmetry_group_IT_number 2
_symmetry_cell_setting 'triclinic'
loop_
_space_group_symop_operation_xyz
x,y,z
-x,-y,-z
loop_
_atom_site_type_symbol
_atom_site_label
_atom_site_fract_x
_atom_site_fract_y
_atom_site_fract_z
Si Si1 0.152732 0.647692 0.550765
Si Si2 0.194508 0.069327 0.321488
Si Si3 0.108938 0.618920 0.880950
Si Si4 0.288725 0.326537 0.567633
Si Si5 0.432410 0.935425 0.683009
Si Si6 0.000000 0.500000 0.500000
O O1 0.966398 0.651093 0.827402
O O2 0.585490 0.530964 0.285857
O O3 0.069868 0.781911 0.554395
O O4 0.019720 0.605712 0.538094
O O5 0.400539 0.055377 0.308522
O O6 0.000000 0.000000 0.500000
O O7 0.500000 0.000000 0.000000
O O8 0.352113 0.672808 0.702203
O O9 0.838926 0.667824 0.191029
O O10 0.375187 0.205479 0.465824
O O11 0.990857 0.443958 0.665951
O O12 0.500000 0.000000 0.500000
O O13 0.000000 0.000000 0.000000
#
# Coordination Sequence:
#
# PCOD9035861 Si02
#       6
#     2   2   2   2   2   1
#     4  10  24  48  72 110 146 190 248 303 380 433
#     4  12  29  49  76 110 151 201 249 310 368 448
#     4  10  25  43  77 104 143 187 235 308 374 439
#     4  11  24  46  72 107 141 190 240 307 367 441
#     4  12  27  49  74 107 149 201 251 303 370 443
#     4  10  22  46  74 102 142 182 244 308 368 424
#
# _framework density 22.777584999999998
#
# number of rings (size 3 to 8) (size 9 to 14) (size 15 to 20)
#    0.000    1.091    1.818    2.182    7.636   12.364 
#    3.273    0.000    0.000    0.000    0.000    0.000 
#    0.000    0.000    0.000    0.000    0.000    0.000 
#
# Total GULP energy -61335.350731 kJ/mol
# GULP energy per Si atom -5575.940976 kJ/mol
# Density = 2.272574 g / cm^3
# Si number density = 22.777585 Si / 1000 Ang^3
#
#
#
# Elastic Constant Matrix: (Units=GPa)
#
#
# Indices 1 2 3 4 5 6 
#
# 1 193.8145 74.1793 79.3667 -18.9134 37.5465 23.3527
# 2 74.1793 187.7484 64.8183 -18.9771 -1.3175 26.3153
# 3 79.3667 64.8183 152.6140 -31.3486 16.4144 12.8464
# 4 -18.9134 -18.9771 -31.3486 32.5470 -1.1150 6.3872
# 5 37.5465 -1.3175 16.4144 -1.1150 38.6141 -4.1981
# 6 23.3527 26.3153 12.8464 6.3872 -4.1981 51.9160
#
#
#
# Elastic Compliance Matrix: (Units=1/GPa)
#
#
# Indices 1 2 3 4 5 6 
#
# 1 0.009148 -0.002215 -0.002148 0.002341 -0.008362 -0.003425
# 2 -0.002215 0.007318 -0.001687 0.001906 0.002926 -0.002294
# 3 -0.002148 -0.001687 0.010491 0.008178 -0.002407 -0.001976
# 4 0.002341 0.001906 0.008178 0.042799 -0.005513 -0.009754
# 5 -0.008362 0.002926 -0.002407 -0.005513 0.035692 0.006438
# 6 -0.003425 -0.002294 -0.001976 -0.009754 0.006438 0.024175
#
#
# Mechanical properties :
#
#
# Convention : Reuss Voigt Hill
#
# Bulk Modulus (GPa) = 67.30144 107.87838 87.58991
# Shear Modulus (GPa) = 34.08894 45.66959 39.87926
#
# Velocity S-wave (km/s) = 3.87279 4.48261 4.18881
# Velocity P-wave (km/s) = 7.04339 8.61720 7.86974
#
# Compressibility (1/GPa) = 0.01485852
#
# Stress axis : x y z
#
# Youngs Moduli (GPa) = 109.31350 136.64432 95.31956
#
# Poissons Ratio (x) = 0.30263 0.20476
# Poissons Ratio (y) = 0.24210 0.16076
# Poissons Ratio (z) = 0.23482 0.23046
#
# Static dielectric constant tensor:
#      x y z
#    x 1.857260 -0.011490 -0.052570 
#    y -0.011490 1.871290 0.014300 
#    z -0.052570 0.014300 1.844980 
# 
# From -- ./inp_files/196034.got.cif
#   From: 2010.05.17/outbox.cif.g08.bks.cpg/sg2_99_cif.got.tgz:196034.got - 2010.06.03 11:33:40.
