data_PCOD9035138
_publ_section_title
;
Structure prediction by ZEFSAII (Michael W. Deem and Ramdas Pophale) SiO2 
 PCOD9035138
Probable space group: P -1
;
_chemical_formula_sum "Si O2"
_cell_formula_units_Z 14
_cell_length_a 9.433397
_cell_length_b 11.543317
_cell_length_c 14.418742
_cell_angle_alpha 50.928877
_cell_angle_beta 59.487750
_cell_angle_gamma 28.497628
_cell_volume 577.055646
_symmetry_space_group_name_H-M "P -1"
_symmetry_group_IT_number 2
_symmetry_cell_setting 'triclinic'
loop_
_space_group_symop_operation_xyz
x,y,z
-x,-y,-z
loop_
_atom_site_type_symbol
_atom_site_label
_atom_site_fract_x
_atom_site_fract_y
_atom_site_fract_z
Si Si1 0.503107 0.609557 0.247257
Si Si2 0.094034 0.872707 0.878937
Si Si3 0.887977 0.593509 0.594791
Si Si4 0.376715 0.781743 0.655947
Si Si5 0.645996 0.763988 0.999337
Si Si6 0.086055 0.164813 0.868759
Si Si7 0.172922 0.675018 0.539311
O O1 0.429960 0.490146 0.323254
O O2 0.604893 0.623753 0.117135
O O3 0.774308 0.411422 0.328253
O O4 0.183073 0.932057 0.200610
O O5 0.343743 0.733312 0.793274
O O6 0.056373 0.043701 0.873185
O O7 0.079419 0.749035 0.020748
O O8 0.533004 0.822679 0.592431
O O9 0.000000 0.500000 0.500000
O O10 0.982297 0.386957 0.735455
O O11 0.059105 0.608421 0.566508
O O12 0.081863 0.021822 0.568397
O O13 0.000000 0.500000 0.000000
O O14 0.500000 0.000000 0.000000
O O15 0.432795 0.932819 0.896026
O O16 0.500000 0.500000 0.500000
#
# Coordination Sequence:
#
# PCOD9035138 Si02
#       7
#     2   2   2   2   2   2   2
#     4  11  24  45  71 107 144 193 251 313 372 457
#     4  10  22  45  71 107 142 187 252 306 380 453
#     4  12  26  46  73 108 150 192 252 317 377 466
#     4  12  25  45  77 106 146 198 254 313 380 462
#     4  11  27  46  72 111 155 199 251 317 383 461
#     4  10  23  45  73 104 149 195 246 312 383 455
#     4  12  25  45  72 103 149 198 247 312 386 455
#
# _framework density 24.261092000000001
#
# number of rings (size 3 to 8) (size 9 to 14) (size 15 to 20)
#    0.000    0.857    2.857    3.429    4.000    5.143 
#    0.000    0.000    0.000    0.000    0.000    0.000 
#    0.000    0.000    0.000    0.000    0.000    0.000 
#
# Total GULP energy -77986.018696 kJ/mol
# GULP energy per Si atom -5570.429907 kJ/mol
# Density = 2.420587 g / cm^3
# Si number density = 24.261092 Si / 1000 Ang^3
#
#
#
# Elastic Constant Matrix: (Units=GPa)
#
#
# Indices 1 2 3 4 5 6 
#
# 1 134.1976 31.8543 30.0431 -18.9554 -1.4096 -20.6455
# 2 31.8543 72.0707 38.1311 -5.2304 2.0496 -31.7495
# 3 30.0431 38.1311 133.7027 -17.3111 11.3015 -6.9602
# 4 -18.9554 -5.2304 -17.3111 39.1678 -16.0752 5.8531
# 5 -1.4096 2.0496 11.3015 -16.0752 57.5501 -3.3165
# 6 -20.6455 -31.7495 -6.9602 5.8531 -3.3165 44.8220
#
#
#
# Elastic Compliance Matrix: (Units=1/GPa)
#
#
# Indices 1 2 3 4 5 6 
#
# 1 0.009130 -0.002502 -0.000851 0.004143 0.001746 0.001889
# 2 -0.002502 0.025103 -0.006159 -0.002821 0.000392 0.016070
# 3 -0.000851 -0.006159 0.009734 0.003202 -0.001034 -0.003738
# 4 0.004143 -0.002821 0.003202 0.032533 0.008475 -0.003214
# 5 0.001746 0.000392 -0.001034 0.008475 0.020050 0.001298
# 6 0.001889 0.016070 -0.003738 -0.003214 0.001298 0.034500
#
#
# Mechanical properties :
#
#
# Convention : Reuss Voigt Hill
#
# Bulk Modulus (GPa) = 40.08921 60.00310 50.04616
# Shear Modulus (GPa) = 31.56778 44.30415 37.93596
#
# Velocity S-wave (km/s) = 3.61109 4.27797 3.95860
# Velocity P-wave (km/s) = 5.82637 7.01337 6.44724
#
# Compressibility (1/GPa) = 0.02494437
#
# Stress axis : x y z
#
# Youngs Moduli (GPa) = 109.52644 39.83536 102.72850
#
# Poissons Ratio (x) = 0.09967 0.08741
# Poissons Ratio (y) = 0.27403 0.63270
# Poissons Ratio (z) = 0.09319 0.24534
#
# Static dielectric constant tensor:
#      x y z
#    x 2.009800 -0.064990 0.050680 
#    y -0.064990 2.314940 -0.130630 
#    z 0.050680 -0.130630 2.077040 
# 
# From -- ./inp_files/77268.got.cif
#   From: 2010.05.17/outbox.cif.g08.bks.cpg/sg2_39_cif.got.tgz:77268.got - 2010.06.03 11:33:40.
