data_PCOD9035805
_publ_section_title
;
Structure prediction by ZEFSAII (Michael W. Deem and Ramdas Pophale) SiO2 
 PCOD9035805
Probable space group: P -1
;
_chemical_formula_sum "Si O2"
_cell_formula_units_Z 12
_cell_length_a 9.609083
_cell_length_b 9.691490
_cell_length_c 7.398391
_cell_angle_alpha 75.809664
_cell_angle_beta 63.973827
_cell_angle_gamma 45.835810
_cell_volume 442.157116
_symmetry_space_group_name_H-M "P -1"
_symmetry_group_IT_number 2
_symmetry_cell_setting 'triclinic'
loop_
_space_group_symop_operation_xyz
x,y,z
-x,-y,-z
loop_
_atom_site_type_symbol
_atom_site_label
_atom_site_fract_x
_atom_site_fract_y
_atom_site_fract_z
Si Si1 0.988384 0.156094 0.624803
Si Si2 0.941587 0.921399 0.900902
Si Si3 0.607661 0.063259 0.312215
Si Si4 0.690688 0.562197 0.878147
Si Si5 0.356410 0.488873 0.708894
Si Si6 0.968535 0.444929 0.339384
O O1 0.014630 0.252047 0.417612
O O2 0.831159 0.348705 0.780942
O O3 0.896665 0.054376 0.714765
O O4 0.000000 0.000000 0.000000
O O5 0.148940 0.702837 0.820531
O O6 0.756007 0.942732 0.088559
O O7 0.776542 0.010482 0.379383
O O8 0.500000 0.000000 0.500000
O O9 0.449474 0.277647 0.248945
O O10 0.852973 0.580060 0.858035
O O11 0.553527 0.603650 0.115864
O O12 0.500000 0.500000 0.500000
O O13 0.257991 0.419880 0.670530
O O14 0.000000 0.500000 0.500000
#
# Coordination Sequence:
#
# PCOD9035805 Si02
#       6
#     2   2   2   2   2   2
#     4  10  22  46  72 110 154 198 254 317 383 457
#     4  10  23  46  72 108 160 191 255 323 371 461
#     4  11  22  41  76 114 146 203 258 307 388 466
#     4  11  23  46  75 106 157 203 250 320 389 455
#     4  12  27  49  77 116 154 205 262 318 387 458
#     4  10  24  46  76 105 152 206 253 315 381 459
#
# _framework density 27.139673999999999
#
# number of rings (size 3 to 8) (size 9 to 14) (size 15 to 20)
#    0.000    1.333    5.000    0.500    2.333    6.667 
#    0.000    0.833    0.000    0.000    0.000    0.000 
#    0.000    0.000    0.000    0.000    0.000    0.000 
#
# Total GULP energy -67013.850771 kJ/mol
# GULP energy per Si atom -5584.487564 kJ/mol
# Density = 2.707790 g / cm^3
# Si number density = 27.139674 Si / 1000 Ang^3
#
#
#
# Elastic Constant Matrix: (Units=GPa)
#
#
# Indices 1 2 3 4 5 6 
#
# 1 120.2886 46.7928 32.3473 2.5061 -6.8412 -5.4552
# 2 46.7928 139.8708 45.4439 -13.4491 -3.5190 -2.6052
# 3 32.3473 45.4439 183.4263 -25.0853 -48.6088 7.4597
# 4 2.5061 -13.4491 -25.0853 51.6209 -9.0841 -1.1219
# 5 -6.8412 -3.5190 -48.6088 -9.0841 44.0732 -0.2341
# 6 -5.4552 -2.6052 7.4597 -1.1219 -0.2341 47.5602
#
#
#
# Elastic Compliance Matrix: (Units=1/GPa)
#
#
# Indices 1 2 3 4 5 6 
#
# 1 0.009966 -0.003028 -0.001588 -0.002175 -0.000888 0.001171
# 2 -0.003028 0.008884 -0.001960 0.001226 -0.001668 0.000468
# 3 -0.001588 -0.001960 0.010600 0.006916 0.012704 -0.001726
# 4 -0.002175 0.001226 0.006916 0.025364 0.012612 -0.000607
# 5 -0.000888 -0.001668 0.012704 0.012612 0.039021 -0.001696
# 6 0.001171 0.000468 -0.001726 -0.000607 -0.001696 0.021434
#
#
# Mechanical properties :
#
#
# Convention : Reuss Voigt Hill
#
# Bulk Modulus (GPa) = 61.35690 76.97262 69.16476
# Shear Modulus (GPa) = 37.35420 49.91763 43.63591
#
# Velocity S-wave (km/s) = 3.71397 4.29334 4.01412
# Velocity P-wave (km/s) = 6.40690 7.28013 6.85743
#
# Compressibility (1/GPa) = 0.01629808
#
# Stress axis : x y z
#
# Youngs Moduli (GPa) = 100.34027 112.56272 94.33810
#
# Poissons Ratio (x) = 0.34083 0.14979
# Poissons Ratio (y) = 0.30382 0.18494
# Poissons Ratio (z) = 0.15932 0.22066
#
# Static dielectric constant tensor:
#      x y z
#    x 2.207560 0.013710 0.077450 
#    y 0.013710 2.133870 -0.020790 
#    z 0.077450 -0.020790 2.428410 
# 
# From -- ./inp_files/247011.got.cif
#   From: 2010.05.17/outbox.cif.g08.bks.cpg/sg2_124_cif.got.tgz:247011.got - 2010.06.03 11:33:40.
