data_PCOD9035360
_publ_section_title
;
Structure prediction by ZEFSAII (Michael W. Deem and Ramdas Pophale) SiO2 
 PCOD9035360
Probable space group: P -1
;
_chemical_formula_sum "Si O2"
_cell_formula_units_Z 14
_cell_length_a 5.370285
_cell_length_b 5.296111
_cell_length_c 23.443945
_cell_angle_alpha 125.017209
_cell_angle_beta 76.648829
_cell_angle_gamma 78.856849
_cell_volume 484.893532
_symmetry_space_group_name_H-M "P -1"
_symmetry_group_IT_number 2
_symmetry_cell_setting 'triclinic'
loop_
_space_group_symop_operation_xyz
x,y,z
-x,-y,-z
loop_
_atom_site_type_symbol
_atom_site_label
_atom_site_fract_x
_atom_site_fract_y
_atom_site_fract_z
Si Si1 0.179263 0.623490 0.050889
Si Si2 0.988398 0.457367 0.258180
Si Si3 0.593512 0.302577 0.546414
Si Si4 0.057819 0.735156 0.911172
Si Si5 0.970279 0.016254 0.600880
Si Si6 0.698702 0.085051 0.286978
Si Si7 0.417142 0.752259 0.238568
O O1 0.375657 0.483186 0.854976
O O2 0.500000 0.500000 0.000000
O O3 0.000000 0.500000 0.000000
O O4 0.130143 0.466651 0.091172
O O5 0.045184 0.028358 0.108173
O O6 0.933218 0.148235 0.247292
O O7 0.740594 0.694067 0.254543
O O8 0.248233 0.505523 0.222737
O O9 0.097023 0.276354 0.650408
O O10 0.371968 0.672034 0.624291
O O11 0.500000 0.000000 0.500000
O O12 0.789336 0.307141 0.483519
O O13 0.000000 0.000000 0.000000
O O14 0.772188 0.190445 0.580543
O O15 0.779372 0.011220 0.663457
O O16 0.454846 0.103513 0.259707
#
# Coordination Sequence:
#
# PCOD9035360 Si02
#       7
#     2   2   2   2   2   2   2
#     4  10  22  45  74 111 150 189 247 306 374 453
#     4  10  26  45  69 103 143 190 243 300 370 434
#     4  11  21  41  74  98 145 187 257 297 369 437
#     4  10  23  47  77 108 145 196 243 308 377 455
#     4   9  23  42  66 104 136 197 233 310 363 429
#     4  12  25  45  70 104 139 194 245 302 372 438
#     4  10  25  48  72 102 157 184 253 302 379 439
#
# _framework density 28.872316999999999
#
# number of rings (size 3 to 8) (size 9 to 14) (size 15 to 20)
#    0.857    0.857    1.429    1.286    2.000    4.571 
#   15.429    0.000    0.000    0.000    0.000    0.000 
#    0.000    0.000    0.000    0.000    0.000    0.000 
#
# Total GULP energy -77961.101484 kJ/mol
# GULP energy per Si atom -5568.650106 kJ/mol
# Density = 2.880660 g / cm^3
# Si number density = 28.872317 Si / 1000 Ang^3
#
#
#
# Elastic Constant Matrix: (Units=GPa)
#
#
# Indices 1 2 3 4 5 6 
#
# 1 143.3986 33.2287 47.2158 -2.8752 -15.9425 43.0511
# 2 33.2287 153.1117 28.1993 8.0120 -9.5186 41.1717
# 3 47.2158 28.1993 196.7444 10.4694 -23.7016 20.7928
# 4 -2.8752 8.0120 10.4694 50.4222 1.8257 -4.9280
# 5 -15.9425 -9.5186 -23.7016 1.8257 65.3022 -17.6799
# 6 43.0511 41.1717 20.7928 -4.9280 -17.6799 52.7590
#
#
#
# Elastic Compliance Matrix: (Units=1/GPa)
#
#
# Indices 1 2 3 4 5 6 
#
# 1 0.009677 0.000182 -0.001592 0.000131 -0.000215 -0.007471
# 2 0.000182 0.008529 -0.000512 -0.001899 -0.000749 -0.007031
# 3 -0.001592 -0.000512 0.005822 -0.001294 0.001641 -0.000167
# 4 0.000131 -0.001899 -0.001294 0.020785 -0.000286 0.003730
# 5 -0.000215 -0.000749 0.001641 -0.000286 0.017353 0.005902
# 6 -0.007471 -0.007031 -0.000167 0.003730 0.005902 0.032929
#
#
# Mechanical properties :
#
#
# Convention : Reuss Voigt Hill
#
# Bulk Modulus (GPa) = 49.54341 78.94913 64.24627
# Shear Modulus (GPa) = 47.31756 59.33740 53.32748
#
# Velocity S-wave (km/s) = 4.05267 4.53831 4.30235
# Velocity P-wave (km/s) = 6.25265 7.40711 6.85423
#
# Compressibility (1/GPa) = 0.02018432
#
# Stress axis : x y z
#
# Youngs Moduli (GPa) = 103.33591 117.24042 171.75207
#
# Poissons Ratio (x) = -0.02130 0.27339
# Poissons Ratio (y) = -0.01877 0.08798
# Poissons Ratio (z) = 0.16449 0.06006
#
# Static dielectric constant tensor:
#      x y z
#    x 2.083830 0.022610 -0.318170 
#    y 0.022610 2.298900 0.208420 
#    z -0.318170 0.208420 1.886960 
# 
# From -- ./inp_files/602771.got.cif
#   From: 2010.05.17/outbox.cif.g08.bks.cpg/sg2_302_cif.got.tgz:602771.got - 2010.06.03 11:33:40.
