data_PCOD9035694
_publ_section_title
;
Structure prediction by ZEFSAII (Michael W. Deem and Ramdas Pophale) SiO2 
 PCOD9035694
Probable space group: P -1
;
_chemical_formula_sum "Si O2"
_cell_formula_units_Z 16
_cell_length_a 17.292430
_cell_length_b 10.806410
_cell_length_c 7.660877
_cell_angle_alpha 54.080982
_cell_angle_beta 58.198898
_cell_angle_gamma 32.743626
_cell_volume 625.234634
_symmetry_space_group_name_H-M "P -1"
_symmetry_group_IT_number 2
_symmetry_cell_setting 'triclinic'
loop_
_space_group_symop_operation_xyz
x,y,z
-x,-y,-z
loop_
_atom_site_type_symbol
_atom_site_label
_atom_site_fract_x
_atom_site_fract_y
_atom_site_fract_z
Si Si1 0.245135 0.508482 0.961752
Si Si2 0.793925 0.759528 0.363848
Si Si3 0.239456 0.191115 0.045916
Si Si4 0.003424 0.253265 0.734680
Si Si5 0.071145 0.129716 0.387150
Si Si6 0.493016 0.661098 0.101982
Si Si7 0.533706 0.275102 0.314847
Si Si8 0.228542 0.647812 0.492693
O O1 0.271198 0.569935 0.705779
O O2 0.246851 0.331497 0.038914
O O3 0.092194 0.734341 0.046790
O O4 0.372772 0.399197 0.020959
O O5 0.883925 0.515447 0.562967
O O6 0.895384 0.777098 0.239138
O O7 0.649804 0.993674 0.446003
O O8 0.760893 0.766268 0.195117
O O9 0.102499 0.264170 0.194418
O O10 0.374771 0.903164 0.155302
O O11 0.095802 0.074538 0.610103
O O12 0.910928 0.275534 0.430164
O O13 0.171778 0.894431 0.341222
O O14 0.430006 0.729716 0.924603
O O15 0.536583 0.431345 0.287817
O O16 0.370026 0.431800 0.394411
#
# Coordination Sequence:
#
# PCOD9035694 Si02
#       8
#     2   2   2   2   2   2   2   2
#     4  12  26  41  65  99 138 175 225 274 327 393
#     4  10  23  41  73  97 131 179 219 270 338 393
#     4  11  22  44  70 100 136 176 217 274 336 398
#     4  11  24  43  62 100 134 176 223 274 325 397
#     4  11  24  44  70  96 139 174 225 275 330 398
#     4  10  23  42  68 101 135 174 219 275 335 395
#     4  10  22  46  70  97 135 175 221 275 337 394
#     4  11  25  43  68 103 131 179 222 276 332 395
#
# _framework density 25.590392000000001
#
# number of rings (size 3 to 8) (size 9 to 14) (size 15 to 20)
#    0.000    1.250    1.250    4.125    1.750    5.500 
#    0.000    3.125    0.000    0.000    0.000    0.000 
#    0.000    0.000    0.000    0.000    0.000    0.000 
#
# Total GULP energy -89561.771399 kJ/mol
# GULP energy per Si atom -5597.610712 kJ/mol
# Density = 2.553215 g / cm^3
# Si number density = 25.590392 Si / 1000 Ang^3
#
#
#
# Elastic Constant Matrix: (Units=GPa)
#
#
# Indices 1 2 3 4 5 6 
#
# 1 106.1671 36.8396 13.9394 -4.7013 -8.3678 5.6496
# 2 36.8396 110.4595 21.0479 11.0795 -14.3694 9.7860
# 3 13.9394 21.0479 74.7402 11.0206 -0.4710 7.2695
# 4 -4.7013 11.0795 11.0206 37.1398 2.8460 -7.9752
# 5 -8.3678 -14.3694 -0.4710 2.8460 40.5407 9.7323
# 6 5.6496 9.7860 7.2695 -7.9752 9.7323 30.6483
#
#
#
# Elastic Compliance Matrix: (Units=1/GPa)
#
#
# Indices 1 2 3 4 5 6 
#
# 1 0.011044 -0.003576 -0.001456 0.002818 0.000815 -0.000074
# 2 -0.003576 0.012301 -0.001368 -0.005442 0.005450 -0.006091
# 3 -0.001456 -0.001368 0.015279 -0.005363 0.000871 -0.004591
# 4 0.002818 -0.005442 -0.005363 0.033949 -0.007049 0.013562
# 5 0.000815 0.005450 0.000871 -0.007049 0.030544 -0.013630
# 6 -0.000074 -0.006091 -0.004591 0.013562 -0.013630 0.043533
#
#
# Mechanical properties :
#
#
# Convention : Reuss Voigt Hill
#
# Bulk Modulus (GPa) = 38.72334 48.33563 43.52948
# Shear Modulus (GPa) = 29.75165 36.30178 33.02672
#
# Velocity S-wave (km/s) = 3.41341 3.77048 3.59638
# Velocity P-wave (km/s) = 5.54075 6.15504 5.85596
#
# Compressibility (1/GPa) = 0.02582422
#
# Stress axis : x y z
#
# Youngs Moduli (GPa) = 90.54573 81.29527 65.44852
#
# Poissons Ratio (x) = 0.29072 0.09529
# Poissons Ratio (y) = 0.32380 0.08953
# Poissons Ratio (z) = 0.13183 0.11121
#
# Static dielectric constant tensor:
#      x y z
#    x 2.031060 -0.006390 0.013930 
#    y -0.006390 2.088240 -0.054450 
#    z 0.013930 -0.054450 1.998260 
# 
# From -- ./inp_files/332834.got.cif
#   From: 2010.05.17/outbox.cif.g08.bks.cpg/sg2_167_cif.got.tgz:332834.got - 2010.06.03 11:33:40.
