data_PCOD9035151
_publ_section_title
;
Structure prediction by ZEFSAII (Michael W. Deem and Ramdas Pophale) SiO2 
 PCOD9035151
Probable space group: P -1
;
_chemical_formula_sum "Si O2"
_cell_formula_units_Z 15
_cell_length_a 8.013194
_cell_length_b 8.505796
_cell_length_c 14.993559
_cell_angle_alpha 121.444293
_cell_angle_beta 90.730984
_cell_angle_gamma 122.751241
_cell_volume 668.433312
_symmetry_space_group_name_H-M "P -1"
_symmetry_group_IT_number 2
_symmetry_cell_setting 'triclinic'
loop_
_space_group_symop_operation_xyz
x,y,z
-x,-y,-z
loop_
_atom_site_type_symbol
_atom_site_label
_atom_site_fract_x
_atom_site_fract_y
_atom_site_fract_z
Si Si1 0.587783 0.380360 0.272371
Si Si2 0.575696 0.083326 0.782672
Si Si3 0.729346 0.855275 0.122025
Si Si4 0.952096 0.814750 0.520175
Si Si5 0.000000 0.500000 0.000000
Si Si6 0.176719 0.299310 0.322229
Si Si7 0.340486 0.570998 0.914575
Si Si8 0.353424 0.827274 0.528566
O O1 0.767842 0.557188 0.398863
O O2 0.374314 0.345620 0.285489
O O3 0.673701 0.481772 0.204461
O O4 0.523103 0.122250 0.204358
O O5 0.440556 0.176944 0.818338
O O6 0.826707 0.301847 0.864143
O O7 0.510609 0.938607 0.647813
O O8 0.759391 0.663722 0.093448
O O9 0.593686 0.766086 0.003118
O O10 0.956401 0.120934 0.210905
O O11 0.870441 0.828628 0.619645
O O12 0.162434 0.839122 0.546961
O O13 0.000000 0.000000 0.500000
O O14 0.201131 0.642872 0.969776
O O15 0.244572 0.555405 0.422795
O O16 0.500000 0.000000 0.500000
#
# Coordination Sequence:
#
# PCOD9035151 Si02
#       8
#     2   2   2   2   1   2   2   2
#     4  12  26  41  69 103 139 177 229 281 338 407
#     4  11  24  46  67  98 140 177 227 283 336 404
#     4  10  22  45  71  93 137 179 227 283 336 406
#     4  12  25  43  69  99 136 182 226 278 342 408
#     4  10  24  46  74  94 132 178 226 282 330 408
#     4  12  24  45  68 101 143 181 226 282 339 407
#     4  10  24  46  69 102 131 181 229 282 346 397
#     4  12  27  44  68 102 138 185 226 280 345 407
#
# _framework density 22.440534
#
# number of rings (size 3 to 8) (size 9 to 14) (size 15 to 20)
#    0.000    0.800    2.667    4.000    5.600    2.667 
#    2.400    0.000    0.000    0.000    0.000    0.000 
#    0.000    0.000    0.000    0.000    0.000    0.000 
#
# Total GULP energy -83658.517481 kJ/mol
# GULP energy per Si atom -5577.234499 kJ/mol
# Density = 2.238946 g / cm^3
# Si number density = 22.440534 Si / 1000 Ang^3
#
#
#
# Elastic Constant Matrix: (Units=GPa)
#
#
# Indices 1 2 3 4 5 6 
#
# 1 56.9275 11.5943 30.7961 -4.2155 19.5457 25.0237
# 2 11.5943 58.5898 6.0093 6.2601 4.9301 8.2507
# 3 30.7961 6.0093 120.4043 27.2090 32.6240 15.5753
# 4 -4.2155 6.2601 27.2090 48.6787 16.8170 -6.8104
# 5 19.5457 4.9301 32.6240 16.8170 40.9828 3.2818
# 6 25.0237 8.2507 15.5753 -6.8104 3.2818 25.9552
#
#
#
# Elastic Compliance Matrix: (Units=1/GPa)
#
#
# Indices 1 2 3 4 5 6 
#
# 1 0.039976 -0.002393 -0.002955 0.006648 -0.016578 -0.032167
# 2 -0.002393 0.018617 0.001327 -0.004098 -0.000034 -0.005478
# 3 -0.002955 0.001327 0.012840 -0.006466 -0.005818 -0.006239
# 4 0.006648 -0.004098 -0.006466 0.029994 -0.010476 0.007968
# 5 -0.016578 -0.000034 -0.005818 -0.010476 0.040309 0.011640
# 6 -0.032167 -0.005478 -0.006239 0.007968 0.011640 0.075645
#
#
# Mechanical properties :
#
#
# Convention : Reuss Voigt Hill
#
# Bulk Modulus (GPa) = 15.77521 36.96899 26.37210
# Shear Modulus (GPa) = 20.27959 35.62480 27.95220
#
# Velocity S-wave (km/s) = 3.00943 3.98869 3.53315
# Velocity P-wave (km/s) = 4.37271 6.14189 5.33120
#
# Compressibility (1/GPa) = 0.06339061
#
# Stress axis : x y z
#
# Youngs Moduli (GPa) = 25.01515 53.71306 77.88380
#
# Poissons Ratio (x) = 0.12855 0.23012
# Poissons Ratio (y) = 0.05987 -0.10334
# Poissons Ratio (z) = 0.07391 -0.07127
#
# Static dielectric constant tensor:
#      x y z
#    x 1.909500 -0.062540 -0.040340 
#    y -0.062540 1.795970 0.030810 
#    z -0.040340 0.030810 1.839740 
# 
# From -- ./inp_files/179774.got.cif
#   From: 2010.05.17/outbox.cif.g08.bks.cpg/sg2_90_cif.got.tgz:179774.got - 2010.06.03 11:33:40.
