data_PCOD9035058
_publ_section_title
;
Structure prediction by ZEFSAII (Michael W. Deem and Ramdas Pophale) SiO2 
 PCOD9035058
Probable space group: P -1
;
_chemical_formula_sum "Si O2"
_cell_formula_units_Z 14
_cell_length_a 10.419946
_cell_length_b 9.782823
_cell_length_c 12.692915
_cell_angle_alpha 82.285530
_cell_angle_beta 59.579987
_cell_angle_gamma 131.545266
_cell_volume 572.237462
_symmetry_space_group_name_H-M "P -1"
_symmetry_group_IT_number 2
_symmetry_cell_setting 'triclinic'
loop_
_space_group_symop_operation_xyz
x,y,z
-x,-y,-z
loop_
_atom_site_type_symbol
_atom_site_label
_atom_site_fract_x
_atom_site_fract_y
_atom_site_fract_z
Si Si1 0.713170 0.839958 0.910417
Si Si2 0.924489 0.599422 0.797665
Si Si3 0.344469 0.274902 0.828244
Si Si4 0.889050 0.831044 0.463361
Si Si5 0.193160 0.788788 0.091564
Si Si6 0.676749 0.045027 0.211952
Si Si7 0.098128 0.725564 0.481955
O O1 0.859044 0.095561 0.867992
O O2 0.408353 0.640332 0.006107
O O3 0.613902 0.672253 0.069262
O O4 0.962249 0.979587 0.718291
O O5 0.993842 0.489876 0.770220
O O6 0.124864 0.815874 0.783517
O O7 0.957453 0.665536 0.655166
O O8 0.545982 0.536920 0.649857
O O9 0.430992 0.190689 0.759495
O O10 0.000000 0.000000 0.000000
O O11 0.035736 0.795258 0.416155
O O12 0.000000 0.000000 0.500000
O O13 0.185464 0.783538 0.968922
O O14 0.500000 0.000000 0.000000
O O15 0.426766 0.955187 0.348987
O O16 0.000000 0.500000 0.500000
#
# Coordination Sequence:
#
# PCOD9035058 Si02
#       7
#     2   2   2   2   2   2   2
#     4  10  22  45  70  95 138 191 232 282 359 429
#     4  11  21  37  67 104 139 181 228 299 353 411
#     4  11  26  49  71  99 142 190 232 291 360 425
#     4  12  27  45  74 106 137 187 240 290 351 427
#     4   9  18  36  61  96 131 178 224 275 352 408
#     4  11  23  39  68 103 138 182 236 295 349 420
#     4  12  21  44  70 100 142 185 238 284 355 427
#
# _framework density 24.465367000000001
#
# number of rings (size 3 to 8) (size 9 to 14) (size 15 to 20)
#    0.000    1.143    2.857    5.143    2.000    2.286 
#    2.571    0.000    0.000    0.000    0.000    0.000 
#    0.000    0.000    0.000    0.000    0.000    0.000 
#
# Total GULP energy -78151.523341 kJ/mol
# GULP energy per Si atom -5582.251667 kJ/mol
# Density = 2.440968 g / cm^3
# Si number density = 24.465367 Si / 1000 Ang^3
#
#
#
# Elastic Constant Matrix: (Units=GPa)
#
#
# Indices 1 2 3 4 5 6 
#
# 1 52.9590 15.3650 14.4767 1.4667 -5.5039 7.8890
# 2 15.3650 87.1995 33.1131 14.9939 0.7316 11.3935
# 3 14.4767 33.1131 158.3237 8.8449 -4.6327 23.6936
# 4 1.4667 14.9939 8.8449 33.3623 12.1196 -3.6625
# 5 -5.5039 0.7316 -4.6327 12.1196 40.1541 5.5003
# 6 7.8890 11.3935 23.6936 -3.6625 5.5003 42.0859
#
#
#
# Elastic Compliance Matrix: (Units=1/GPa)
#
#
# Indices 1 2 3 4 5 6 
#
# 1 0.020783 -0.002811 -0.000639 -0.001171 0.003639 -0.003353
# 2 -0.002811 0.014197 -0.001833 -0.006683 0.001583 -0.003073
# 3 -0.000639 -0.001833 0.007569 -0.002371 0.002100 -0.004126
# 4 -0.001171 -0.006683 -0.002371 0.039462 -0.013394 0.008548
# 5 0.003639 0.001583 0.002100 -0.013394 0.030682 -0.007468
# 6 -0.003353 -0.003073 -0.004126 0.008548 -0.007468 0.029264
#
#
# Mechanical properties :
#
#
# Convention : Reuss Voigt Hill
#
# Bulk Modulus (GPa) = 31.26510 47.15464 39.20987
# Shear Modulus (GPa) = 30.64068 38.82227 34.73148
#
# Velocity S-wave (km/s) = 3.54278 3.98782 3.77187
# Velocity P-wave (km/s) = 5.43527 6.36549 5.91868
#
# Compressibility (1/GPa) = 0.03198454
#
# Stress axis : x y z
#
# Youngs Moduli (GPa) = 48.11709 70.43963 132.11309
#
# Poissons Ratio (x) = 0.19797 0.08440
# Poissons Ratio (y) = 0.13523 0.24211
# Poissons Ratio (z) = 0.03074 0.12909
#
# Static dielectric constant tensor:
#      x y z
#    x 2.033230 -0.009660 -0.015020 
#    y -0.009660 1.948380 0.015590 
#    z -0.015020 0.015590 2.010010 
# 
# From -- ./inp_files/425940.got.cif
#   From: 2010.05.17/outbox.cif.g08.bks.cpg/sg2_213_cif.got.tgz:425940.got - 2010.06.03 11:33:40.
