data_PCOD9035626
_publ_section_title
;
Structure prediction by ZEFSAII (Michael W. Deem and Ramdas Pophale) SiO2 
 PCOD9035626
Probable space group: P -1
;
_chemical_formula_sum "Si O2"
_cell_formula_units_Z 12
_cell_length_a 6.506016
_cell_length_b 18.552438
_cell_length_c 10.221292
_cell_angle_alpha 36.362351
_cell_angle_beta 54.394009
_cell_angle_gamma 74.642327
_cell_volume 538.833127
_symmetry_space_group_name_H-M "P -1"
_symmetry_group_IT_number 2
_symmetry_cell_setting 'triclinic'
loop_
_space_group_symop_operation_xyz
x,y,z
-x,-y,-z
loop_
_atom_site_type_symbol
_atom_site_label
_atom_site_fract_x
_atom_site_fract_y
_atom_site_fract_z
Si Si1 0.706815 0.875473 0.767259
Si Si2 0.416611 0.951520 0.248924
Si Si3 0.929250 0.685861 0.719034
Si Si4 0.676711 0.427358 0.378278
Si Si5 0.160181 0.346045 0.825000
Si Si6 0.496769 0.202702 0.326900
O O1 0.618198 0.877367 0.648481
O O2 0.536475 0.915993 0.879011
O O3 0.722851 0.738545 0.002142
O O4 0.000000 0.000000 0.500000
O O5 0.555720 0.882221 0.396638
O O6 0.113320 0.825136 0.523581
O O7 0.500000 0.000000 0.000000
O O8 0.667318 0.704262 0.729506
O O9 0.156501 0.661434 0.582461
O O10 0.794473 0.552290 0.052230
O O11 0.338729 0.355434 0.613397
O O12 0.761208 0.503675 0.374215
O O13 0.826790 0.275085 0.066051
#
# Coordination Sequence:
#
# PCOD9035626 Si02
#       6
#     2   2   2   2   2   2
#     4  12  22  45  72 100 145 182 231 295 350 417
#     4  12  26  45  70 104 145 181 235 297 354 416
#     4  11  23  46  67 102 143 189 227 294 353 407
#     4  10  22  46  69  95 151 186 227 296 342 415
#     4  11  23  43  70 104 136 190 235 286 348 416
#     4  12  23  43  75 108 135 188 241 279 362 417
#
# _framework density 22.270344999999999
#
# number of rings (size 3 to 8) (size 9 to 14) (size 15 to 20)
#    0.000    0.667    6.667    1.500    0.000    2.000 
#    0.000    3.333    0.000    0.000    0.000    0.000 
#    0.000    0.000    0.000    0.000    0.000    0.000 
#
# Total GULP energy -66829.316698 kJ/mol
# GULP energy per Si atom -5569.109725 kJ/mol
# Density = 2.221966 g / cm^3
# Si number density = 22.270345 Si / 1000 Ang^3
#
#
#
# Elastic Constant Matrix: (Units=GPa)
#
#
# Indices 1 2 3 4 5 6 
#
# 1 121.7130 58.7255 53.7812 7.8524 7.2190 -19.0463
# 2 58.7255 136.2960 37.4805 15.8454 8.9602 -34.8202
# 3 53.7812 37.4805 137.2746 15.8536 10.5173 -7.3181
# 4 7.8524 15.8454 15.8536 35.7624 1.7907 -1.1560
# 5 7.2190 8.9602 10.5173 1.7907 14.3743 5.8371
# 6 -19.0463 -34.8202 -7.3181 -1.1560 5.8371 43.2273
#
#
#
# Elastic Compliance Matrix: (Units=1/GPa)
#
#
# Indices 1 2 3 4 5 6 
#
# 1 0.011887 -0.003575 -0.003489 0.000693 -0.002117 0.002072
# 2 -0.003575 0.012447 -0.000354 -0.003810 -0.009095 0.009517
# 3 -0.003489 -0.000354 0.009478 -0.003031 -0.004722 0.000339
# 4 0.000693 -0.003810 -0.003031 0.030681 0.001503 -0.002659
# 5 -0.002117 -0.009095 -0.004722 0.001503 0.088060 -0.020909
# 6 0.002072 0.009517 0.000339 -0.002659 -0.020909 0.034523
#
#
# Mechanical properties :
#
#
# Convention : Reuss Voigt Hill
#
# Bulk Modulus (GPa) = 52.69208 77.25088 64.97148
# Shear Modulus (GPa) = 24.01131 35.02591 29.51861
#
# Velocity S-wave (km/s) = 3.28712 3.97011 3.64465
# Velocity P-wave (km/s) = 6.17401 7.46852 6.85190
#
# Compressibility (1/GPa) = 0.01897818
#
# Stress axis : x y z
#
# Youngs Moduli (GPa) = 84.12293 80.34264 105.50759
#
# Poissons Ratio (x) = 0.28719 0.36808
# Poissons Ratio (y) = 0.30070 0.03732
# Poissons Ratio (z) = 0.29347 0.02842
#
# Static dielectric constant tensor:
#      x y z
#    x 1.858140 -0.055090 -0.055790 
#    y -0.055090 1.992650 0.098870 
#    z -0.055790 0.098870 1.888460 
# 
# From -- ./inp_files/116090.got.cif
#   From: 2010.05.17/outbox.cif.g08.bks.cpg/sg2_59_cif.got.tgz:116090.got - 2010.06.03 11:33:40.
