data_PCOD9035973
_publ_section_title
;
Structure prediction by ZEFSAII (Michael W. Deem and Ramdas Pophale) SiO2 
 PCOD9035973
Probable space group: P -1
;
_chemical_formula_sum "Si O2"
_cell_formula_units_Z 14
_cell_length_a 5.322274
_cell_length_b 12.349795
_cell_length_c 13.107598
_cell_angle_alpha 88.465514
_cell_angle_beta 129.082183
_cell_angle_gamma 86.018634
_cell_volume 664.382475
_symmetry_space_group_name_H-M "P -1"
_symmetry_group_IT_number 2
_symmetry_cell_setting 'triclinic'
loop_
_space_group_symop_operation_xyz
x,y,z
-x,-y,-z
loop_
_atom_site_type_symbol
_atom_site_label
_atom_site_fract_x
_atom_site_fract_y
_atom_site_fract_z
Si Si1 0.244921 0.021703 0.842814
Si Si2 0.241465 0.208415 0.551607
Si Si3 0.474396 0.017756 0.371489
Si Si4 0.656023 0.182893 0.276183
Si Si5 0.010308 0.471023 0.831945
Si Si6 0.979488 0.255862 0.696897
Si Si7 0.473467 0.413416 0.146611
O O1 0.340033 0.925145 0.788303
O O2 0.868233 0.003354 0.765699
O O3 0.211446 0.148441 0.797534
O O4 0.500000 0.000000 0.000000
O O5 0.604736 0.231608 0.615165
O O6 0.007194 0.217585 0.394202
O O7 0.085930 0.274269 0.607094
O O8 0.264336 0.081008 0.595261
O O9 0.531036 0.138746 0.351866
O O10 0.500000 0.000000 0.500000
O O11 0.464086 0.286901 0.173176
O O12 0.176467 0.556448 0.801667
O O13 0.010728 0.360874 0.771067
O O14 0.667147 0.519040 0.792133
O O15 0.240027 0.445026 0.990018
#
# Coordination Sequence:
#
# PCOD9035973 Si02
#       7
#     2   2   2   2   2   2   2
#     4  11  24  39  63 101 134 170 217 285 333 398
#     4  11  23  39  66  96 129 181 214 265 334 409
#     4  11  22  41  65  92 142 178 216 264 335 415
#     4  12  23  41  65 101 130 170 229 272 332 403
#     4  10  22  47  64  94 127 179 223 272 342 395
#     4  11  23  43  65  93 133 175 218 270 341 392
#     4  10  24  41  72  91 129 175 224 278 332 396
#
# _framework density 21.072199000000001
#
# number of rings (size 3 to 8) (size 9 to 14) (size 15 to 20)
#    0.000    1.143    2.857    3.857    2.000    0.571 
#    5.143    4.286    0.000    0.000    0.000    0.000 
#    0.000    0.000    0.000    0.000    0.000    0.000 
#
# Total GULP energy -78122.483224 kJ/mol
# GULP energy per Si atom -5580.177373 kJ/mol
# Density = 2.102424 g / cm^3
# Si number density = 21.072199 Si / 1000 Ang^3
#
#
#
# Elastic Constant Matrix: (Units=GPa)
#
#
# Indices 1 2 3 4 5 6 
#
# 1 94.8813 23.7414 31.7228 3.3502 -21.1853 -8.2322
# 2 23.7414 98.5347 6.7346 8.3228 -27.8102 -7.2961
# 3 31.7228 6.7346 76.3147 14.8956 -2.2800 -2.8635
# 4 3.3502 8.3228 14.8956 39.9826 -2.8607 -12.3125
# 5 -21.1853 -27.8102 -2.2800 -2.8607 27.1590 8.1093
# 6 -8.2322 -7.2961 -2.8635 -12.3125 8.1093 33.2802
#
#
#
# Elastic Compliance Matrix: (Units=1/GPa)
#
#
# Indices 1 2 3 4 5 6 
#
# 1 0.015208 -0.000245 -0.006383 0.002358 0.010915 0.001372
# 2 -0.000245 0.014493 -0.000352 -0.002219 0.014786 -0.001337
# 3 -0.006383 -0.000352 0.016866 -0.006460 -0.004130 -0.001589
# 4 0.002358 -0.002219 -0.006460 0.031086 -0.001076 0.011304
# 5 0.010915 0.014786 -0.004130 -0.001076 0.063053 -0.010176
# 6 0.001372 -0.001337 -0.001589 0.011304 -0.010176 0.036619
#
#
# Mechanical properties :
#
#
# Convention : Reuss Voigt Hill
#
# Bulk Modulus (GPa) = 30.66876 43.79204 37.23040
# Shear Modulus (GPa) = 24.73375 33.91984 29.32679
#
# Velocity S-wave (km/s) = 3.42974 4.01645 3.73464
# Velocity P-wave (km/s) = 5.50181 6.50663 6.02520
#
# Compressibility (1/GPa) = 0.03260647
#
# Stress axis : x y z
#
# Youngs Moduli (GPa) = 65.75673 68.99737 59.29171
#
# Poissons Ratio (x) = 0.01691 0.37844
# Poissons Ratio (y) = 0.01611 0.02090
# Poissons Ratio (z) = 0.41970 0.02432
#
# Static dielectric constant tensor:
#      x y z
#    x 1.860200 -0.006300 -0.016500 
#    y -0.006300 1.764530 -0.003720 
#    z -0.016500 -0.003720 1.768300 
# 
# From -- ./inp_files/74284.got.cif
#   From: 2010.05.17/outbox.cif.g08.bks.cpg/sg2_38_cif.got.tgz:74284.got - 2010.06.03 11:33:40.
