data_PCOD9035245
_publ_section_title
;
Structure prediction by ZEFSAII (Michael W. Deem and Ramdas Pophale) SiO2 
 PCOD9035245
Probable space group: P -1
;
_chemical_formula_sum "Si O2"
_cell_formula_units_Z 16
_cell_length_a 14.983477
_cell_length_b 13.035885
_cell_length_c 8.614608
_cell_angle_alpha 98.603447
_cell_angle_beta 70.843614
_cell_angle_gamma 151.706927
_cell_volume 715.955968
_symmetry_space_group_name_H-M "P -1"
_symmetry_group_IT_number 2
_symmetry_cell_setting 'triclinic'
loop_
_space_group_symop_operation_xyz
x,y,z
-x,-y,-z
loop_
_atom_site_type_symbol
_atom_site_label
_atom_site_fract_x
_atom_site_fract_y
_atom_site_fract_z
Si Si1 0.785201 0.279819 0.985602
Si Si2 0.871695 0.134668 0.809233
Si Si3 0.792943 0.046486 0.489097
Si Si4 0.466964 0.646926 0.090125
Si Si5 0.859760 0.718355 0.080213
Si Si6 0.189723 0.555665 0.276134
Si Si7 0.574272 0.040480 0.634978
Si Si8 0.724603 0.803642 0.230662
O O1 0.594768 0.093207 0.170248
O O2 0.809804 0.195359 0.861741
O O3 0.768028 0.360452 0.900538
O O4 0.000000 0.500000 0.000000
O O5 0.891611 0.117970 0.616646
O O6 0.068131 0.299952 0.844380
O O7 0.675716 0.884875 0.938779
O O8 0.971299 0.284346 0.349158
O O9 0.615977 0.959029 0.598107
O O10 0.714993 0.872091 0.397012
O O11 0.366874 0.646245 0.237431
O O12 0.534217 0.629909 0.178558
O O13 0.301311 0.459997 0.007829
O O14 0.766524 0.725164 0.228239
O O15 0.070586 0.959126 0.927086
O O16 0.223670 0.691036 0.389727
O O17 0.500000 0.000000 0.500000
#
# Coordination Sequence:
#
# PCOD9035245 Si02
#       8
#     2   2   2   2   2   2   2   2
#     4  12  25  42  65  94 136 186 221 267 332 405
#     4  11  25  43  66  97 141 175 228 282 334 407
#     4  12  25  43  63 103 140 178 226 284 336 400
#     4  11  21  43  70  97 130 179 226 278 341 412
#     4  10  22  45  72  97 128 180 227 282 348 403
#     4  12  23  42  65  93 140 181 220 267 336 402
#     4  12  25  40  64  99 139 177 226 277 329 403
#     4  10  23  43  71 100 132 170 231 289 337 403
#
# _framework density 22.347743000000001
#
# number of rings (size 3 to 8) (size 9 to 14) (size 15 to 20)
#    0.000    0.750    3.750    4.125    5.250    0.500 
#    2.250    0.625    0.000    0.000    0.000    0.000 
#    0.000    0.000    0.000    0.000    0.000    0.000 
#
# Total GULP energy -89450.105108 kJ/mol
# GULP energy per Si atom -5590.631569 kJ/mol
# Density = 2.229688 g / cm^3
# Si number density = 22.347743 Si / 1000 Ang^3
#
#
#
# Elastic Constant Matrix: (Units=GPa)
#
#
# Indices 1 2 3 4 5 6 
#
# 1 120.4777 22.4088 35.7837 13.8157 -14.0450 10.3674
# 2 22.4088 68.1748 23.5345 14.3049 -10.6825 23.9715
# 3 35.7837 23.5345 67.3609 24.4074 -4.8217 3.0901
# 4 13.8157 14.3049 24.4074 38.6638 -6.3977 -1.4366
# 5 -14.0450 -10.6825 -4.8217 -6.3977 30.6315 11.0834
# 6 10.3674 23.9715 3.0901 -1.4366 11.0834 35.2966
#
#
#
# Elastic Compliance Matrix: (Units=1/GPa)
#
#
# Indices 1 2 3 4 5 6 
#
# 1 0.010983 0.001432 -0.005570 -0.000036 0.006762 -0.005836
# 2 0.001432 0.029501 -0.006726 -0.005137 0.018138 -0.025772
# 3 -0.005570 -0.006726 0.023529 -0.011078 -0.005467 0.005410
# 4 -0.000036 -0.005137 -0.011078 0.035282 0.001896 0.005310
# 5 0.006762 0.018138 -0.005467 0.001896 0.052554 -0.030251
# 6 -0.005836 -0.025772 0.005410 0.005310 -0.030251 0.056790
#
#
# Mechanical properties :
#
#
# Convention : Reuss Voigt Hill
#
# Bulk Modulus (GPa) = 23.64904 46.60749 35.12827
# Shear Modulus (GPa) = 20.45317 32.53748 26.49533
#
# Velocity S-wave (km/s) = 3.02855 3.81985 3.44698
# Velocity P-wave (km/s) = 4.77857 6.35262 5.62097
#
# Compressibility (1/GPa) = 0.04228502
#
# Stress axis : x y z
#
# Youngs Moduli (GPa) = 91.05026 33.89680 42.50163
#
# Poissons Ratio (x) = -0.04853 0.23673
# Poissons Ratio (y) = -0.13037 0.28586
# Poissons Ratio (z) = 0.50713 0.22798
#
# Static dielectric constant tensor:
#      x y z
#    x 1.846520 0.012250 -0.034700 
#    y 0.012250 1.838940 0.019320 
#    z -0.034700 0.019320 1.843440 
# 
# From -- ./inp_files/299767.got.cif
#   From: 2010.05.17/outbox.cif.g08.bks.cpg/sg2_150_cif.got.tgz:299767.got - 2010.06.03 11:33:40.
