data_PCOD9035531
_publ_section_title
;
Structure prediction by ZEFSAII (Michael W. Deem and Ramdas Pophale) SiO2 
 PCOD9035531
Probable space group: P -1
;
_chemical_formula_sum "Si O2"
_cell_formula_units_Z 16
_cell_length_a 11.132258
_cell_length_b 7.507248
_cell_length_c 10.361443
_cell_angle_alpha 64.996078
_cell_angle_beta 122.015062
_cell_angle_gamma 116.441965
_cell_volume 637.251770
_symmetry_space_group_name_H-M "P -1"
_symmetry_group_IT_number 2
_symmetry_cell_setting 'triclinic'
loop_
_space_group_symop_operation_xyz
x,y,z
-x,-y,-z
loop_
_atom_site_type_symbol
_atom_site_label
_atom_site_fract_x
_atom_site_fract_y
_atom_site_fract_z
Si Si1 0.131981 0.234636 0.114194
Si Si2 0.059697 0.752268 0.223782
Si Si3 0.358002 0.844845 0.808080
Si Si4 0.631238 0.334989 0.618343
Si Si5 0.164701 0.243488 0.410164
Si Si6 0.476520 0.282044 0.821694
Si Si7 0.082174 0.764235 0.522733
Si Si8 0.521561 0.726326 0.713101
O O1 0.106024 0.305095 0.221572
O O2 0.306538 0.263504 0.186369
O O3 0.060934 0.989338 0.155795
O O4 0.060932 0.333212 0.929585
O O5 0.221070 0.737310 0.282287
O O6 0.040484 0.672563 0.384782
O O7 0.205663 0.713839 0.698040
O O8 0.475861 0.864738 0.752394
O O9 0.351981 0.066380 0.791673
O O10 0.421591 0.748711 0.992988
O O11 0.682617 0.580281 0.541983
O O12 0.570473 0.312918 0.734281
O O13 0.526073 0.233488 0.470679
O O14 0.059692 0.251142 0.466596
O O15 0.164657 0.008987 0.468836
O O16 0.433664 0.487892 0.765586
#
# Coordination Sequence:
#
# PCOD9035531 Si02
#       8
#     2   2   2   2   2   2   2   2
#     4  10  23  43  66  98 136 179 221 282 341 399
#     4  10  23  42  64 100 133 178 230 270 341 405
#     4  11  25  46  69 102 139 184 224 280 346 406
#     4  12  24  42  71 103 131 177 231 287 333 406
#     4  10  23  42  68  97 134 177 223 283 340 399
#     4  11  26  43  67 106 139 175 229 283 342 409
#     4  10  22  46  67  95 135 183 223 275 342 409
#     4  12  24  46  71 103 138 179 227 285 345 401
#
# _framework density 25.107817000000001
#
# number of rings (size 3 to 8) (size 9 to 14) (size 15 to 20)
#    0.000    1.250    2.500    2.250    5.250    3.000 
#   15.750    0.000    0.000    0.000    0.000    0.000 
#    0.000    0.000    0.000    0.000    0.000    0.000 
#
# Total GULP energy -89545.802976 kJ/mol
# GULP energy per Si atom -5596.612686 kJ/mol
# Density = 2.505067 g / cm^3
# Si number density = 25.107817 Si / 1000 Ang^3
#
#
#
# Elastic Constant Matrix: (Units=GPa)
#
#
# Indices 1 2 3 4 5 6 
#
# 1 61.9989 -22.5223 49.9189 7.3052 -5.1095 1.1526
# 2 -22.5223 75.4909 11.8115 0.7566 -9.7393 -7.6152
# 3 49.9189 11.8115 226.4535 26.9891 3.2653 15.0802
# 4 7.3052 0.7566 26.9891 32.1362 7.9197 2.6339
# 5 -5.1095 -9.7393 3.2653 7.9197 31.9188 1.4552
# 6 1.1526 -7.6152 15.0802 2.6339 1.4552 32.0455
#
#
#
# Elastic Compliance Matrix: (Units=1/GPa)
#
#
# Indices 1 2 3 4 5 6 
#
# 1 0.025936 0.010296 -0.006269 -0.003340 0.008565 0.004350
# 2 0.010296 0.018456 -0.003437 -0.002296 0.007952 0.005460
# 3 -0.006269 -0.003437 0.006625 -0.003353 -0.001745 -0.003354
# 4 -0.003340 -0.002296 -0.003353 0.037354 -0.010094 -0.001459
# 5 0.008565 0.007952 -0.001745 -0.010094 0.037741 0.001519
# 6 0.004350 0.005460 -0.003354 -0.001459 0.001519 0.033976
#
#
# Mechanical properties :
#
#
# Convention : Reuss Voigt Hill
#
# Bulk Modulus (GPa) = 19.15827 49.15105 34.15466
# Shear Modulus (GPa) = 28.35947 40.86910 34.61429
#
# Velocity S-wave (km/s) = 3.36446 4.03891 3.71701
# Velocity P-wave (km/s) = 4.76862 6.43186 5.66165
#
# Compressibility (1/GPa) = 0.05219677
#
# Stress axis : x y z
#
# Youngs Moduli (GPa) = 38.55643 54.18323 150.93541
#
# Poissons Ratio (x) = -0.55787 0.94627
# Poissons Ratio (y) = -0.39698 0.51876
# Poissons Ratio (z) = 0.24172 0.18623
#
# Static dielectric constant tensor:
#      x y z
#    x 1.913920 0.024940 0.020540 
#    y 0.024940 2.091550 -0.012490 
#    z 0.020540 -0.012490 1.992300 
# 
# From -- ./inp_files/243192.got.cif
#   From: 2010.05.17/outbox.cif.g08.bks.cpg/sg2_122_cif.got.tgz:243192.got - 2010.06.03 11:33:40.
