data_PCOD9035215
_publ_section_title
;
Structure prediction by ZEFSAII (Michael W. Deem and Ramdas Pophale) SiO2 
 PCOD9035215
Probable space group: P -1
;
_chemical_formula_sum "Si O2"
_cell_formula_units_Z 15
_cell_length_a 10.574657
_cell_length_b 17.798048
_cell_length_c 7.131276
_cell_angle_alpha 98.711026
_cell_angle_beta 120.841892
_cell_angle_gamma 37.262711
_cell_volume 606.823970
_symmetry_space_group_name_H-M "P -1"
_symmetry_group_IT_number 2
_symmetry_cell_setting 'triclinic'
loop_
_space_group_symop_operation_xyz
x,y,z
-x,-y,-z
loop_
_atom_site_type_symbol
_atom_site_label
_atom_site_fract_x
_atom_site_fract_y
_atom_site_fract_z
Si Si1 0.750664 0.768939 0.553263
Si Si2 0.626156 0.388043 0.322239
Si Si3 0.000000 0.500000 0.500000
Si Si4 0.711043 0.620499 0.934436
Si Si5 0.837359 0.994605 0.917871
Si Si6 0.829106 0.304230 0.008052
Si Si7 0.776330 0.880550 0.287608
Si Si8 0.735047 0.064037 0.299046
O O1 0.747066 0.831341 0.405899
O O2 0.907319 0.624406 0.559024
O O3 0.930196 0.736253 0.830820
O O4 0.428982 0.892307 0.375456
O O5 0.434377 0.546634 0.246408
O O6 0.912911 0.268097 0.610347
O O7 0.453110 0.386719 0.229337
O O8 0.720850 0.343466 0.157037
O O9 0.228923 0.394261 0.805623
O O10 0.527500 0.771582 0.785147
O O11 0.000000 0.500000 0.000000
O O12 0.036560 0.834600 0.994420
O O13 0.728218 0.047735 0.067038
O O14 0.000000 0.000000 0.000000
O O15 0.785363 0.962404 0.397949
O O16 0.500000 0.000000 0.000000
O O17 0.000000 0.000000 0.500000
#
# Coordination Sequence:
#
# PCOD9035215 Si02
#       8
#     2   2   1   2   2   2   2   2
#     4  11  24  43  76 106 149 199 254 322 379 469
#     4  10  22  45  72 103 152 196 251 325 381 462
#     4  12  24  50  76 112 156 196 268 310 396 462
#     4  12  26  48  76 116 156 208 252 323 396 464
#     4  12  26  43  72 111 145 200 261 313 385 472
#     4  10  23  45  73 106 147 195 256 323 391 453
#     4  11  22  45  73 101 144 206 246 308 391 453
#     4  12  26  50  73 106 160 201 257 327 386 466
#
# _framework density 24.718865999999998
#
# number of rings (size 3 to 8) (size 9 to 14) (size 15 to 20)
#    0.000    0.800    5.333    1.200    1.867    2.133 
#    2.400    0.667    0.000    0.000    0.000    0.000 
#    0.000    0.000    0.000    0.000    0.000    0.000 
#
# Total GULP energy -83753.676110 kJ/mol
# GULP energy per Si atom -5583.578407 kJ/mol
# Density = 2.466260 g / cm^3
# Si number density = 24.718866 Si / 1000 Ang^3
#
#
#
# Elastic Constant Matrix: (Units=GPa)
#
#
# Indices 1 2 3 4 5 6 
#
# 1 100.1153 59.3949 39.5953 -13.5747 31.0097 20.6024
# 2 59.3949 201.8599 66.1825 -49.0349 8.0355 40.8799
# 3 39.5953 66.1825 155.4801 -39.2871 24.8537 11.4623
# 4 -13.5747 -49.0349 -39.2871 54.7741 3.8853 -6.1054
# 5 31.0097 8.0355 24.8537 3.8853 52.8210 0.4204
# 6 20.6024 40.8799 11.4623 -6.1054 0.4204 45.4702
#
#
#
# Elastic Compliance Matrix: (Units=1/GPa)
#
#
# Indices 1 2 3 4 5 6 
#
# 1 0.015604 -0.002991 -0.000908 0.000683 -0.008297 -0.003984
# 2 -0.002991 0.008622 -0.001247 0.005438 0.000673 -0.005358
# 3 -0.000908 -0.001247 0.009250 0.005578 -0.004040 -0.000013
# 4 0.000683 0.005438 0.005578 0.027390 -0.005845 -0.002873
# 5 -0.008297 0.000673 -0.004040 -0.005845 0.026006 0.003147
# 6 -0.003984 -0.005358 -0.000013 -0.002873 0.003147 0.028203
#
#
# Mechanical properties :
#
#
# Convention : Reuss Voigt Hill
#
# Bulk Modulus (GPa) = 43.13199 87.53343 65.33271
# Shear Modulus (GPa) = 37.56699 50.09855 43.83277
#
# Velocity S-wave (km/s) = 3.90265 4.50681 4.21557
# Velocity P-wave (km/s) = 6.14772 7.91014 7.08395
#
# Compressibility (1/GPa) = 0.02318465
#
# Stress axis : x y z
#
# Youngs Moduli (GPa) = 64.08472 115.98199 108.10751
#
# Poissons Ratio (x) = 0.34685 0.09820
# Poissons Ratio (y) = 0.19165 0.13482
# Poissons Ratio (z) = 0.05821 0.14464
#
# Static dielectric constant tensor:
#      x y z
#    x 2.004680 -0.088400 -0.021790 
#    y -0.088400 1.939870 0.031110 
#    z -0.021790 0.031110 2.038060 
# 
# From -- ./inp_files/279557.got.cif
#   From: 2010.05.17/outbox.cif.g08.bks.cpg/sg2_140_cif.got.tgz:279557.got - 2010.06.03 11:33:40.
