data_PCOD9035920
_publ_section_title
;
Structure prediction by ZEFSAII (Michael W. Deem and Ramdas Pophale) SiO2 
 PCOD9035920
Probable space group: P -1
;
_chemical_formula_sum "Si O2"
_cell_formula_units_Z 12
_cell_length_a 14.391985
_cell_length_b 14.339641
_cell_length_c 4.845635
_cell_angle_alpha 105.894353
_cell_angle_beta 109.329390
_cell_angle_gamma 28.646954
_cell_volume 452.092208
_symmetry_space_group_name_H-M "P -1"
_symmetry_group_IT_number 2
_symmetry_cell_setting 'triclinic'
loop_
_space_group_symop_operation_xyz
x,y,z
-x,-y,-z
loop_
_atom_site_type_symbol
_atom_site_label
_atom_site_fract_x
_atom_site_fract_y
_atom_site_fract_z
Si Si1 0.179423 0.397659 0.746844
Si Si2 0.121865 0.222488 0.009647
Si Si3 0.000000 0.000000 0.500000
Si Si4 0.835674 0.950114 0.601158
Si Si5 0.500000 0.000000 0.500000
Si Si6 0.677643 0.411572 0.734338
Si Si7 0.392049 0.396441 0.666808
O O1 0.279634 0.399453 0.674896
O O2 0.000000 0.500000 0.500000
O O3 0.066076 0.545421 0.009263
O O4 0.355006 0.171027 0.742892
O O5 0.069606 0.182361 0.148165
O O6 0.304635 0.121677 0.249640
O O7 0.180001 0.118311 0.704808
O O8 0.949007 0.943829 0.578843
O O9 0.859869 0.183509 0.721770
O O10 0.616900 0.172100 0.650817
O O11 0.500000 0.500000 0.500000
O O12 0.698163 0.484010 0.603872
O O13 0.615054 0.510904 0.042667
#
# Coordination Sequence:
#
# PCOD9035920 Si02
#       7
#     2   2   1   2   1   2   2
#     4  10  23  46  74 106 141 184 235 291 350 422
#     4  11  25  48  70 107 141 188 231 290 353 415
#     4  12  28  44  74 106 142 186 240 288 346 418
#     4  12  26  46  75 102 145 188 233 290 350 414
#     4  10  22  46  76 104 138 182 236 288 348 418
#     4  12  27  47  73 106 141 189 235 290 347 417
#     4  12  25  49  74 101 146 187 231 291 354 413
#
# _framework density 26.543258000000002
#
# number of rings (size 3 to 8) (size 9 to 14) (size 15 to 20)
#    0.000    0.667    3.333    3.500    0.000    2.000 
#    0.000    5.000    0.000    0.000    0.000    0.000 
#    0.000    0.000    0.000    0.000    0.000    0.000 
#
# Total GULP energy -66821.828685 kJ/mol
# GULP energy per Si atom -5568.485724 kJ/mol
# Density = 2.648284 g / cm^3
# Si number density = 26.543258 Si / 1000 Ang^3
#
#
#
# Elastic Constant Matrix: (Units=GPa)
#
#
# Indices 1 2 3 4 5 6 
#
# 1 149.8021 33.6563 26.7443 -4.6979 4.5665 1.2193
# 2 33.6563 142.0715 85.5132 61.6955 -7.0957 -5.5238
# 3 26.7443 85.5132 213.5686 45.8262 5.1249 3.2354
# 4 -4.6979 61.6955 45.8262 60.1279 -4.4829 -6.3505
# 5 4.5665 -7.0957 5.1249 -4.4829 34.3675 -4.1378
# 6 1.2193 -5.5238 3.2354 -6.3505 -4.1378 47.0854
#
#
#
# Elastic Compliance Matrix: (Units=1/GPa)
#
#
# Indices 1 2 3 4 5 6 
#
# 1 0.007744 -0.003579 -0.000487 0.004559 -0.001109 -0.000070
# 2 -0.003579 0.015966 -0.002970 -0.014168 0.002424 0.000472
# 3 -0.000487 -0.002970 0.006470 -0.002199 -0.001950 -0.001248
# 4 0.004559 -0.014168 -0.002199 0.033638 0.001551 0.003044
# 5 -0.001109 0.002424 -0.001950 0.001551 0.030641 0.003349
# 6 -0.000070 0.000472 -0.001248 0.003044 0.003349 0.022086
#
#
# Mechanical properties :
#
#
# Convention : Reuss Voigt Hill
#
# Bulk Modulus (GPa) = 62.08128 88.58553 75.33340
# Shear Modulus (GPa) = 36.76833 52.28471 44.52652
#
# Velocity S-wave (km/s) = 3.72590 4.44305 4.10018
# Velocity P-wave (km/s) = 6.47682 7.73094 7.13150
#
# Compressibility (1/GPa) = 0.01610791
#
# Stress axis : x y z
#
# Youngs Moduli (GPa) = 129.13429 62.63291 154.55709
#
# Poissons Ratio (x) = 0.22416 0.07530
# Poissons Ratio (y) = 0.46216 0.45902
# Poissons Ratio (z) = 0.06292 0.18601
#
# Static dielectric constant tensor:
#      x y z
#    x 2.134660 -0.011630 -0.023350 
#    y -0.011630 2.077490 -0.022360 
#    z -0.023350 -0.022360 2.022090 
# 
# From -- ./inp_files/97380.got.cif
#   From: 2010.05.17/outbox.cif.g08.bks.cpg/sg2_49_cif.got.tgz:97380.got - 2010.06.03 11:33:40.
