data_PCOD9035912
_publ_section_title
;
Structure prediction by ZEFSAII (Michael W. Deem and Ramdas Pophale) SiO2 
 PCOD9035912
Probable space group: P -1
;
_chemical_formula_sum "Si O2"
_cell_formula_units_Z 13
_cell_length_a 5.477636
_cell_length_b 13.470319
_cell_length_c 8.310724
_cell_angle_alpha 101.508995
_cell_angle_beta 56.246582
_cell_angle_gamma 117.936656
_cell_volume 448.886795
_symmetry_space_group_name_H-M "P -1"
_symmetry_group_IT_number 2
_symmetry_cell_setting 'triclinic'
loop_
_space_group_symop_operation_xyz
x,y,z
-x,-y,-z
loop_
_atom_site_type_symbol
_atom_site_label
_atom_site_fract_x
_atom_site_fract_y
_atom_site_fract_z
Si Si1 0.194658 0.386324 0.671814
Si Si2 0.395168 0.543824 0.897197
Si Si3 0.862019 0.984227 0.338072
Si Si4 0.580520 0.047054 0.762545
Si Si5 0.355085 0.761393 0.970549
Si Si6 0.000000 0.500000 0.500000
Si Si7 0.436966 0.745357 0.574184
O O1 0.503432 0.489453 0.684211
O O2 0.993945 0.437524 0.662214
O O3 0.300526 0.304905 0.509444
O O4 0.552288 0.150665 0.890035
O O5 0.523430 0.677211 0.899149
O O6 0.500000 0.500000 0.000000
O O7 0.021073 0.312075 0.866425
O O8 0.760360 0.021800 0.223154
O O9 0.607839 0.853920 0.430100
O O10 0.219536 0.991331 0.198223
O O11 0.818855 0.057765 0.523173
O O12 0.370733 0.786238 0.783943
O O13 0.000000 0.500000 0.000000
O O14 0.146291 0.631237 0.576393
#
# Coordination Sequence:
#
# PCOD9035912 Si02
#       7
#     2   2   2   2   2   1   2
#     4  11  25  45  63  96 143 189 232 292 348 425
#     4  10  24  39  63  95 133 182 230 276 340 410
#     4  10  23  46  74 103 140 184 235 298 363 430
#     4  10  22  46  76 102 137 188 234 295 370 419
#     4  11  24  44  68 104 138 188 239 293 356 424
#     4  12  26  44  68 100 144 194 240 288 352 434
#     4  12  26  42  68 102 141 188 239 293 354 428
#
# _framework density 28.960531
#
# number of rings (size 3 to 8) (size 9 to 14) (size 15 to 20)
#    0.000    1.231    3.077    1.385    6.462    0.615 
#    2.769    0.000    0.000    5.538    0.000    0.000 
#    0.000    0.000    0.000    0.000    0.000    0.000 
#
# Total GULP energy -72499.695815 kJ/mol
# GULP energy per Si atom -5576.899678 kJ/mol
# Density = 2.889462 g / cm^3
# Si number density = 28.960531 Si / 1000 Ang^3
#
#
#
# Elastic Constant Matrix: (Units=GPa)
#
#
# Indices 1 2 3 4 5 6 
#
# 1 153.9684 44.5996 63.0569 4.5251 26.5806 -33.1932
# 2 44.5996 166.8222 65.6404 22.7116 4.2138 -13.3455
# 3 63.0569 65.6404 161.7512 28.1864 0.3767 -20.0702
# 4 4.5251 22.7116 28.1864 66.9746 -1.8109 -9.6881
# 5 26.5806 4.2138 0.3767 -1.8109 64.5515 -3.5331
# 6 -33.1932 -13.3455 -20.0702 -9.6881 -3.5331 52.6308
#
#
#
# Elastic Compliance Matrix: (Units=1/GPa)
#
#
# Indices 1 2 3 4 5 6 
#
# 1 0.009627 -0.001154 -0.002968 0.001573 -0.003570 0.004697
# 2 -0.001154 0.007409 -0.002301 -0.001467 -0.000036 0.000001
# 3 -0.002968 -0.002301 0.008787 -0.002610 0.001275 0.000501
# 4 0.001573 -0.001467 -0.002610 0.016817 0.000084 0.002726
# 5 -0.003570 -0.000036 0.001275 0.000084 0.016925 -0.000623
# 6 0.004697 0.000001 0.000501 0.002726 -0.000623 0.022614
#
#
# Mechanical properties :
#
#
# Convention : Reuss Voigt Hill
#
# Bulk Modulus (GPa) = 77.05450 92.12620 84.59035
# Shear Modulus (GPa) = 50.32653 57.44771 53.88712
#
# Velocity S-wave (km/s) = 4.17317 4.45866 4.31827
# Velocity P-wave (km/s) = 7.06293 7.64108 7.35769
#
# Compressibility (1/GPa) = 0.01297783
#
# Stress axis : x y z
#
# Youngs Moduli (GPa) = 103.87011 134.97028 113.80474
#
# Poissons Ratio (x) = 0.15580 0.33773
# Poissons Ratio (y) = 0.11990 0.26185
# Poissons Ratio (z) = 0.30825 0.31054
#
# Static dielectric constant tensor:
#      x y z
#    x 2.050240 0.139450 -0.031630 
#    y 0.139450 2.406470 0.012200 
#    z -0.031630 0.012200 2.373790 
# 
# From -- ./inp_files/133354.got.cif
#   From: 2010.05.17/outbox.cif.g08.bks.cpg/sg2_67_cif.got.tgz:133354.got - 2010.06.03 11:33:40.
