data_PCOD9035937
_publ_section_title
;
Structure prediction by ZEFSAII (Michael W. Deem and Ramdas Pophale) SiO2 
 PCOD9035937
Probable space group: P -1
;
_chemical_formula_sum "Si O2"
_cell_formula_units_Z 14
_cell_length_a 23.460641
_cell_length_b 5.012681
_cell_length_c 5.456793
_cell_angle_alpha 84.111993
_cell_angle_beta 63.919961
_cell_angle_gamma 110.582381
_cell_volume 513.741365
_symmetry_space_group_name_H-M "P -1"
_symmetry_group_IT_number 2
_symmetry_cell_setting 'triclinic'
loop_
_space_group_symop_operation_xyz
x,y,z
-x,-y,-z
loop_
_atom_site_type_symbol
_atom_site_label
_atom_site_fract_x
_atom_site_fract_y
_atom_site_fract_z
Si Si1 0.958462 0.240492 0.410355
Si Si2 0.822810 0.923729 0.464202
Si Si3 0.416950 0.954392 0.855571
Si Si4 0.759489 0.177623 0.217352
Si Si5 0.097182 0.297480 0.056879
Si Si6 0.289130 0.404632 0.936282
Si Si7 0.545705 0.813513 0.746688
O O1 0.000000 0.500000 0.500000
O O2 0.022159 0.272254 0.107883
O O3 0.887224 0.216279 0.427039
O O4 0.926884 0.926765 0.646096
O O5 0.778172 0.660468 0.758564
O O6 0.762328 0.006981 0.470780
O O7 0.862095 0.814352 0.200959
O O8 0.493114 0.962297 0.770362
O O9 0.424760 0.173285 0.587662
O O10 0.361997 0.623609 0.904964
O O11 0.398269 0.025226 0.156444
O O12 0.844280 0.377595 0.001268
O O13 0.722777 0.395672 0.271298
O O14 0.724051 0.917037 0.108734
O O15 0.500000 0.500000 0.000000
#
# Coordination Sequence:
#
# PCOD9035937 Si02
#       7
#     2   2   2   2   2   2   2
#     4  11  24  45  71 104 140 186 249 314 383 458
#     4  12  25  46  73 101 144 193 243 313 384 449
#     4  10  25  44  74 113 154 200 260 309 379 450
#     4  12  27  49  69 106 146 190 250 304 378 457
#     4  11  24  44  70 103 139 187 247 314 373 461
#     4  12  29  48  73 108 152 196 249 310 372 461
#     4  10  22  46  76 114 155 200 254 317 373 445
#
# _framework density 27.251068
#
# number of rings (size 3 to 8) (size 9 to 14) (size 15 to 20)
#    0.000    0.857    2.857    2.571    6.000    5.714 
#    0.000    0.000    0.000    0.000    0.000    0.000 
#    0.000    0.000    0.000    0.000    0.000    0.000 
#
# Total GULP energy -78309.289632 kJ/mol
# GULP energy per Si atom -5593.520688 kJ/mol
# Density = 2.718904 g / cm^3
# Si number density = 27.251068 Si / 1000 Ang^3
#
#
#
# Elastic Constant Matrix: (Units=GPa)
#
#
# Indices 1 2 3 4 5 6 
#
# 1 86.8896 32.5844 35.9838 18.1869 -4.1318 21.5928
# 2 32.5844 159.0812 38.4102 -9.7405 1.3595 37.9674
# 3 35.9838 38.4102 160.9940 -13.1037 12.1130 13.7489
# 4 18.1869 -9.7405 -13.1037 34.6702 7.5619 2.4947
# 5 -4.1318 1.3595 12.1130 7.5619 38.9971 -1.2941
# 6 21.5928 37.9674 13.7489 2.4947 -1.2941 57.3713
#
#
#
# Elastic Compliance Matrix: (Units=1/GPa)
#
#
# Indices 1 2 3 4 5 6 
#
# 1 0.018327 -0.002697 -0.004695 -0.013207 0.005946 -0.003279
# 2 -0.002697 0.008332 -0.000551 0.004175 -0.001366 -0.004579
# 3 -0.004695 -0.000551 0.008253 0.006378 -0.004286 -0.000220
# 4 -0.013207 0.004175 0.006378 0.042012 -0.011719 -0.001412
# 5 0.005946 -0.001366 -0.004286 -0.011719 0.029953 0.000879
# 6 -0.003279 -0.004579 -0.000220 -0.001412 0.000879 0.021829
#
#
# Mechanical properties :
#
#
# Convention : Reuss Voigt Hill
#
# Bulk Modulus (GPa) = 52.56447 68.99128 60.77787
# Shear Modulus (GPa) = 33.12726 46.20682 39.66704
#
# Velocity S-wave (km/s) = 3.49037 4.12223 3.81939
# Velocity P-wave (km/s) = 5.96443 6.93029 6.46542
#
# Compressibility (1/GPa) = 0.01902426
#
# Stress axis : x y z
#
# Youngs Moduli (GPa) = 54.56553 120.02217 121.17351
#
# Poissons Ratio (x) = 0.32370 0.56891
# Poissons Ratio (y) = 0.14717 0.06681
# Poissons Ratio (z) = 0.25618 0.06617
#
# Static dielectric constant tensor:
#      x y z
#    x 2.210590 -0.006750 0.066860 
#    y -0.006750 2.159780 0.075010 
#    z 0.066860 0.075010 2.153640 
# 
# From -- ./inp_files/121450.got.cif
#   From: 2010.05.17/outbox.cif.g08.bks.cpg/sg2_61_cif.got.tgz:121450.got - 2010.06.03 11:33:40.
