data_PCOD9035603
_publ_section_title
;
Structure prediction by ZEFSAII (Michael W. Deem and Ramdas Pophale) SiO2 
 PCOD9035603
Probable space group: P -1
;
_chemical_formula_sum "Si O2"
_cell_formula_units_Z 10
_cell_length_a 6.463997
_cell_length_b 7.728500
_cell_length_c 15.561008
_cell_angle_alpha 43.407712
_cell_angle_beta 126.435002
_cell_angle_gamma 121.388998
_cell_volume 424.130788
_symmetry_space_group_name_H-M "P -1"
_symmetry_group_IT_number 2
_symmetry_cell_setting 'triclinic'
loop_
_space_group_symop_operation_xyz
x,y,z
-x,-y,-z
loop_
_atom_site_type_symbol
_atom_site_label
_atom_site_fract_x
_atom_site_fract_y
_atom_site_fract_z
Si Si1 0.425103 0.697293 0.317732
Si Si2 0.239349 0.708039 0.451853
Si Si3 0.243798 0.932613 0.015707
Si Si4 0.197201 0.428143 0.923498
Si Si5 0.032027 0.947535 0.628442
O O1 0.236869 0.722817 0.342511
O O2 0.497598 0.414215 0.425271
O O3 0.333588 0.798739 0.170742
O O4 0.695983 0.874286 0.344422
O O5 0.000000 0.500000 0.500000
O O6 0.192204 0.956227 0.403160
O O7 0.995758 0.730205 0.995587
O O8 0.500000 0.000000 0.000000
O O9 0.183729 0.207651 0.928342
O O10 0.083949 0.668219 0.770539
O O11 0.500000 0.500000 0.000000
O O12 0.000000 0.000000 0.500000
#
# Coordination Sequence:
#
# PCOD9035603 Si02
#       5
#     2   2   2   2   2
#     4  10  22  46  69 104 143 190 243 298 367 434
#     4   9  22  40  69 100 145 182 235 298 365 425
#     4  11  27  47  78 104 145 199 247 301 365 436
#     4  11  26  50  69 107 149 192 248 299 368 439
#     4  11  25  42  72 107 143 187 243 301 368 431
#
# _framework density 23.577632999999999
#
# number of rings (size 3 to 8) (size 9 to 14) (size 15 to 20)
#    0.000    1.600    2.000    0.000   11.200    8.000 
#    0.000    0.000    0.000    0.000    0.000    0.000 
#    0.000    0.000    0.000    0.000    0.000    0.000 
#
# Total GULP energy -55862.458043 kJ/mol
# GULP energy per Si atom -5586.245804 kJ/mol
# Density = 2.352397 g / cm^3
# Si number density = 23.577633 Si / 1000 Ang^3
#
#
#
# Elastic Constant Matrix: (Units=GPa)
#
#
# Indices 1 2 3 4 5 6 
#
# 1 187.4429 57.5191 87.1592 -14.5435 -15.2950 2.5508
# 2 57.5191 124.6026 67.1309 -19.8145 10.9191 18.0234
# 3 87.1592 67.1309 175.8578 -22.3485 15.6940 -21.7983
# 4 -14.5435 -19.8145 -22.3485 50.8567 -4.1585 9.9295
# 5 -15.2950 10.9191 15.6940 -4.1585 36.6522 -8.4683
# 6 2.5508 18.0234 -21.7983 9.9295 -8.4683 51.5366
#
#
#
# Elastic Compliance Matrix: (Units=1/GPa)
#
#
# Indices 1 2 3 4 5 6 
#
# 1 0.008244 -0.002148 -0.003768 0.000405 0.005647 -0.000401
# 2 -0.002148 0.013382 -0.004110 0.003952 -0.004479 -0.007809
# 3 -0.003768 -0.004110 0.010140 0.000470 -0.003421 0.005260
# 4 0.000405 0.003952 0.000470 0.022615 0.000074 -0.005548
# 5 0.005647 -0.004479 -0.003421 0.000074 0.033686 0.005361
# 6 -0.000401 -0.007809 0.005260 -0.005548 0.005361 0.026329
#
#
# Mechanical properties :
#
#
# Convention : Reuss Voigt Hill
#
# Bulk Modulus (GPa) = 85.36836 101.28019 93.32428
# Shear Modulus (GPa) = 36.13985 46.21536 41.17761
#
# Velocity S-wave (km/s) = 3.91935 4.43215 4.18361
# Velocity P-wave (km/s) = 7.53443 8.32113 7.93753
#
# Compressibility (1/GPa) = 0.01171394
#
# Stress axis : x y z
#
# Youngs Moduli (GPa) = 121.30299 74.72859 98.62076
#
# Poissons Ratio (x) = 0.16051 0.37161
# Poissons Ratio (y) = 0.26055 0.40531
# Poissons Ratio (z) = 0.45708 0.30712
#
# Static dielectric constant tensor:
#      x y z
#    x 2.020200 0.046250 0.028050 
#    y 0.046250 1.977450 -0.011270 
#    z 0.028050 -0.011270 1.892910 
# 
# From -- ./inp_files/547696.got.cif
#   From: 2010.05.17/outbox.cif.g08.bks.cpg/sg2_274_cif.got.tgz:547696.got - 2010.06.03 11:33:40.
