data_PCOD9035928
_publ_section_title
;
Structure prediction by ZEFSAII (Michael W. Deem and Ramdas Pophale) SiO2 
 PCOD9035928
Probable space group: P -1
;
_chemical_formula_sum "Si O2"
_cell_formula_units_Z 16
_cell_length_a 12.706595
_cell_length_b 9.841521
_cell_length_c 13.370400
_cell_angle_alpha 44.915860
_cell_angle_beta 115.645424
_cell_angle_gamma 144.176905
_cell_volume 649.258418
_symmetry_space_group_name_H-M "P -1"
_symmetry_group_IT_number 2
_symmetry_cell_setting 'triclinic'
loop_
_space_group_symop_operation_xyz
x,y,z
-x,-y,-z
loop_
_atom_site_type_symbol
_atom_site_label
_atom_site_fract_x
_atom_site_fract_y
_atom_site_fract_z
Si Si1 0.230079 0.807488 0.948459
Si Si2 0.303394 0.836865 0.741186
Si Si3 0.076444 0.834646 0.136977
Si Si4 0.248198 0.419093 0.153793
Si Si5 0.824872 0.859729 0.171981
Si Si6 0.483604 0.248503 0.101561
Si Si7 0.157424 0.500676 0.575954
Si Si8 0.212442 0.958126 0.455361
O O1 0.329753 0.939008 0.812077
O O2 0.272619 0.063421 0.886112
O O3 0.277287 0.662288 0.093192
O O4 0.000000 0.500000 0.000000
O O5 0.439973 0.839614 0.761363
O O6 0.285223 0.985033 0.578236
O O7 0.091278 0.469211 0.840691
O O8 0.988245 0.726379 0.268774
O O9 0.257579 0.932307 0.164600
O O10 0.149615 0.109236 0.954683
O O11 0.282486 0.262747 0.303022
O O12 0.385585 0.600482 0.020683
O O13 0.029818 0.131355 0.171917
O O14 0.722724 0.538736 0.343331
O O15 0.500000 0.500000 0.000000
O O16 0.256855 0.833356 0.466032
O O17 0.018309 0.328635 0.512645
#
# Coordination Sequence:
#
# PCOD9035928 Si02
#       8
#     2   2   2   2   2   2   2   2
#     4   9  16  33  59  83 111 141 195 240 268 327
#     4  10  21  38  57  82 112 152 185 234 284 327
#     4  11  20  33  61  84 111 149 183 238 291 321
#     4   9  18  36  52  81 116 143 184 235 272 335
#     4  10  17  32  60  82 114 146 184 242 279 320
#     4  11  22  33  55  89 112 139 197 238 275 338
#     4   9  19  31  53  88 113 144 196 223 275 354
#     4   9  18  34  57  74 117 159 172 226 295 330
#
# _framework density 24.643498999999998
#
# number of rings (size 3 to 8) (size 9 to 14) (size 15 to 20)
#    0.000    2.250    3.750    1.875    3.500    0.000 
#    0.000   10.625    5.500    0.000    0.000    1.750 
#    0.000    0.000    0.000    0.000    0.000    0.000 
#
# Total GULP energy -89227.410060 kJ/mol
# GULP energy per Si atom -5576.713129 kJ/mol
# Density = 2.458741 g / cm^3
# Si number density = 24.643499 Si / 1000 Ang^3
#
#
#
# Elastic Constant Matrix: (Units=GPa)
#
#
# Indices 1 2 3 4 5 6 
#
# 1 145.4785 16.0478 52.4558 4.1334 42.5427 -11.2721
# 2 16.0478 72.8557 11.4008 9.7947 9.8621 20.1587
# 3 52.4558 11.4008 147.0773 32.5510 55.7728 8.4170
# 4 4.1334 9.7947 32.5510 26.6720 0.5098 -0.0039
# 5 42.5427 9.8621 55.7728 0.5098 53.8608 -1.3476
# 6 -11.2721 20.1587 8.4170 -0.0039 -1.3476 24.3361
#
#
#
# Elastic Compliance Matrix: (Units=1/GPa)
#
#
# Indices 1 2 3 4 5 6 
#
# 1 0.010249 -0.004457 -0.003532 0.004426 -0.003427 0.009472
# 2 -0.004457 0.025222 0.010812 -0.021526 -0.012775 -0.027407
# 3 -0.003532 0.010812 0.026227 -0.034926 -0.026546 -0.021138
# 4 0.004426 -0.021526 -0.034926 0.086641 0.036643 0.034004
# 5 -0.003427 -0.012775 -0.026546 0.036643 0.051280 0.021022
# 6 0.009472 -0.027407 -0.021138 0.034004 0.021022 0.076662
#
#
# Mechanical properties :
#
#
# Convention : Reuss Voigt Hill
#
# Bulk Modulus (GPa) = 14.84906 58.35781 36.60344
# Shear Modulus (GPa) = 17.06000 40.00759 28.53379
#
# Velocity S-wave (km/s) = 2.63396 4.03358 3.40643
# Velocity P-wave (km/s) = 3.91011 6.73983 5.50973
#
# Compressibility (1/GPa) = 0.06734431
#
# Stress axis : x y z
#
# Youngs Moduli (GPa) = 97.56696 39.64742 38.12905
#
# Poissons Ratio (x) = 0.17670 0.13467
# Poissons Ratio (y) = 0.43482 -0.41223
# Poissons Ratio (z) = 0.34460 -0.42865
#
# Static dielectric constant tensor:
#      x y z
#    x 2.444830 0.367260 -0.064450 
#    y 0.367260 2.312470 -0.086120 
#    z -0.064450 -0.086120 2.074100 
# 
# From -- ./inp_files/519549.got.cif
#   From: 2010.05.17/outbox.cif.g08.bks.cpg/sg2_260_cif.got.tgz:519549.got - 2010.06.03 11:33:40.
