data_PCOD9035104
_publ_section_title
;
Structure prediction by ZEFSAII (Michael W. Deem and Ramdas Pophale) SiO2 
 PCOD9035104
Probable space group: P -1
;
_chemical_formula_sum "Si O2"
_cell_formula_units_Z 14
_cell_length_a 11.015951
_cell_length_b 5.171616
_cell_length_c 11.934673
_cell_angle_alpha 112.120030
_cell_angle_beta 90.262849
_cell_angle_gamma 104.032038
_cell_volume 607.594161
_symmetry_space_group_name_H-M "P -1"
_symmetry_group_IT_number 2
_symmetry_cell_setting 'triclinic'
loop_
_space_group_symop_operation_xyz
x,y,z
-x,-y,-z
loop_
_atom_site_type_symbol
_atom_site_label
_atom_site_fract_x
_atom_site_fract_y
_atom_site_fract_z
Si Si1 0.795511 0.560684 0.842335
Si Si2 0.921707 0.706732 0.082824
Si Si3 0.669862 0.922028 0.735221
Si Si4 0.218877 0.154615 0.707185
Si Si5 0.008823 0.277763 0.294205
Si Si6 0.203982 0.322395 0.489250
Si Si7 0.428669 0.902118 0.600996
O O1 0.711360 0.697499 0.780919
O O2 0.915023 0.507247 0.763383
O O3 0.715251 0.248672 0.832775
O O4 0.846756 0.764049 0.981882
O O5 0.816351 0.628622 0.167599
O O6 0.018384 0.981717 0.183566
O O7 0.000000 0.500000 0.000000
O O8 0.741486 0.909026 0.615783
O O9 0.525168 0.848202 0.685522
O O10 0.167103 0.215756 0.596559
O O11 0.359760 0.139490 0.684240
O O12 0.138488 0.834690 0.697679
O O13 0.086473 0.346885 0.418922
O O14 0.318418 0.610845 0.533425
O O15 0.500000 0.000000 0.500000
#
# Coordination Sequence:
#
# PCOD9035104 Si02
#       7
#     2   2   2   2   2   2   2
#     4  11  23  46  73 103 138 190 242 286 348 413
#     4  10  22  45  71 102 144 184 233 292 352 421
#     4  11  25  42  76 102 136 195 238 286 348 416
#     4  10  25  40  68 106 140 178 236 280 366 418
#     4   9  22  40  67 104 137 178 228 287 363 415
#     4  11  22  42  67 104 140 179 225 298 355 422
#     4  12  24  44  68 101 147 185 234 288 351 422
#
# _framework density 23.041696999999999
#
# number of rings (size 3 to 8) (size 9 to 14) (size 15 to 20)
#    0.857    0.571    1.429    4.714    2.000    1.714 
#    2.571    1.429    0.000    0.000    0.000    0.000 
#    0.000    0.000    0.000    0.000    0.000    0.000 
#
# Total GULP energy -78122.016261 kJ/mol
# GULP energy per Si atom -5580.144019 kJ/mol
# Density = 2.298925 g / cm^3
# Si number density = 23.041697 Si / 1000 Ang^3
#
#
#
# Elastic Constant Matrix: (Units=GPa)
#
#
# Indices 1 2 3 4 5 6 
#
# 1 108.6212 15.7019 60.9746 4.1282 -8.8326 7.4525
# 2 15.7019 76.6808 24.8839 8.2368 3.8533 5.3766
# 3 60.9746 24.8839 138.8275 -22.9498 -4.8931 -8.9870
# 4 4.1282 8.2368 -22.9498 37.5080 -0.5153 2.8193
# 5 -8.8326 3.8533 -4.8931 -0.5153 37.9174 -1.1394
# 6 7.4525 5.3766 -8.9870 2.8193 -1.1394 23.6249
#
#
#
# Elastic Compliance Matrix: (Units=1/GPa)
#
#
# Indices 1 2 3 4 5 6 
#
# 1 0.014318 0.000590 -0.007740 -0.005903 0.001992 -0.006795
# 2 0.000590 0.015404 -0.004364 -0.005790 -0.002213 -0.004768
# 3 -0.007740 -0.004364 0.013464 0.009498 0.000731 0.007458
# 4 -0.005903 -0.005790 0.009498 0.034199 0.000987 0.002759
# 5 0.001992 -0.002213 0.000731 0.000987 0.027210 0.001348
# 6 -0.006795 -0.004768 0.007458 0.002759 0.001348 0.048130
#
#
# Mechanical properties :
#
#
# Convention : Reuss Voigt Hill
#
# Bulk Modulus (GPa) = 49.60816 58.58337 54.09577
# Shear Modulus (GPa) = 27.40138 34.64801 31.02470
#
# Velocity S-wave (km/s) = 3.45223 3.88198 3.67339
# Velocity P-wave (km/s) = 6.12103 6.75079 6.44361
#
# Compressibility (1/GPa) = 0.02015797
#
# Stress axis : x y z
#
# Youngs Moduli (GPa) = 69.83977 64.91892 74.27427
#
# Poissons Ratio (x) = -0.03832 0.57490
# Poissons Ratio (y) = -0.04122 0.32414
# Poissons Ratio (z) = 0.54057 0.28331
#
# Static dielectric constant tensor:
#      x y z
#    x 1.935780 -0.019770 -0.027620 
#    y -0.019770 1.929660 0.008720 
#    z -0.027620 0.008720 1.863580 
# 
# From -- ./inp_files/411074.got.cif
#   From: 2010.05.17/outbox.cif.g08.bks.cpg/sg2_206_cif.got.tgz:411074.got - 2010.06.03 11:33:40.
