data_PCOD9035441
_publ_section_title
;
Structure prediction by ZEFSAII (Michael W. Deem and Ramdas Pophale) SiO2 
 PCOD9035441
Probable space group: P -1
;
_chemical_formula_sum "Si O2"
_cell_formula_units_Z 11
_cell_length_a 8.988020
_cell_length_b 12.407110
_cell_length_c 7.466574
_cell_angle_alpha 126.570565
_cell_angle_beta 54.688046
_cell_angle_gamma 143.349935
_cell_volume 390.388681
_symmetry_space_group_name_H-M "P -1"
_symmetry_group_IT_number 2
_symmetry_cell_setting 'triclinic'
loop_
_space_group_symop_operation_xyz
x,y,z
-x,-y,-z
loop_
_atom_site_type_symbol
_atom_site_label
_atom_site_fract_x
_atom_site_fract_y
_atom_site_fract_z
Si Si1 0.500000 0.000000 0.500000
Si Si2 0.045064 0.126013 0.323499
Si Si3 0.706651 0.335961 0.473583
Si Si4 0.944481 0.783138 0.197010
Si Si5 0.734454 0.290887 0.021354
Si Si6 0.490915 0.649547 0.035648
O O1 0.626478 0.146580 0.392329
O O2 0.785665 0.070680 0.410161
O O3 0.257979 0.261690 0.158611
O O4 0.135190 0.217527 0.547824
O O5 0.002455 0.943907 0.198210
O O6 0.652885 0.326488 0.292663
O O7 0.534879 0.339383 0.724890
O O8 0.000000 0.500000 0.500000
O O9 0.738514 0.570968 0.059380
O O10 0.201475 0.827463 0.090098
O O11 0.577930 0.238843 0.896848
O O12 0.000000 0.500000 0.000000
#
# Coordination Sequence:
#
# PCOD9035441 Si02
#       6
#     1   2   2   2   2   2
#     4  12  32  50  74 112 166 206 268 334 392 466
#     4  11  27  49  76 115 158 211 266 330 395 462
#     4  12  26  49  79 118 158 210 261 319 399 479
#     4  10  23  47  80 116 156 206 266 323 392 484
#     4  10  22  45  83 116 156 207 257 317 400 476
#     4  11  25  48  85 116 158 209 261 326 395 477
#
# _framework density 28.177043000000001
#
# number of rings (size 3 to 8) (size 9 to 14) (size 15 to 20)
#    0.000    1.091    3.636    1.636   10.182    2.909 
#    0.000    1.818    0.000    0.000    0.000    0.000 
#    0.000    0.000    0.000    0.000    0.000    0.000 
#
# Total GULP energy -61503.724505 kJ/mol
# GULP energy per Si atom -5591.247682 kJ/mol
# Density = 2.811291 g / cm^3
# Si number density = 28.177043 Si / 1000 Ang^3
#
#
#
# Elastic Constant Matrix: (Units=GPa)
#
#
# Indices 1 2 3 4 5 6 
#
# 1 117.6083 19.8997 40.2445 -14.3783 -22.4083 -26.4986
# 2 19.8997 138.0450 45.6607 -15.7070 -4.7037 -15.2080
# 3 40.2445 45.6607 142.0719 -32.1468 23.9656 -10.9125
# 4 -14.3783 -15.7070 -32.1468 60.0033 -7.0253 -3.6763
# 5 -22.4083 -4.7037 23.9656 -7.0253 77.7600 -5.6565
# 6 -26.4986 -15.2080 -10.9125 -3.6763 -5.6565 44.7299
#
#
#
# Elastic Compliance Matrix: (Units=1/GPa)
#
#
# Indices 1 2 3 4 5 6 
#
# 1 0.012761 0.000693 -0.003637 0.002429 0.005628 0.007820
# 2 0.000693 0.008604 -0.002745 0.001356 0.001908 0.003019
# 3 -0.003637 -0.002745 0.010366 0.003428 -0.004158 -0.000803
# 4 0.002429 0.001356 0.003428 0.019940 0.001862 0.004611
# 5 0.005628 0.001908 -0.004158 0.001862 0.016425 0.005199
# 6 0.007820 0.003019 -0.000803 0.004611 0.005199 0.028856
#
#
# Mechanical properties :
#
#
# Convention : Reuss Voigt Hill
#
# Bulk Modulus (GPa) = 49.12905 67.70388 58.41647
# Shear Modulus (GPa) = 43.43512 55.96001 49.69756
#
# Velocity S-wave (km/s) = 3.93046 4.46131 4.20427
# Velocity P-wave (km/s) = 6.17023 7.11462 6.65919
#
# Compressibility (1/GPa) = 0.02035456
#
# Stress axis : x y z
#
# Youngs Moduli (GPa) = 78.36211 116.22664 96.46661
#
# Poissons Ratio (x) = -0.08054 0.35083
# Poissons Ratio (y) = -0.05430 0.26477
# Poissons Ratio (z) = 0.28499 0.31900
#
# Static dielectric constant tensor:
#      x y z
#    x 2.323630 0.127570 0.027350 
#    y 0.127570 2.081970 -0.044380 
#    z 0.027350 -0.044380 1.937540 
# 
# From -- ./inp_files/166964.got.cif
#   From: 2010.05.17/outbox.cif.g08.bks.cpg/sg2_84_cif.got.tgz:166964.got - 2010.06.03 11:33:40.
