data_PCOD9035001
_publ_section_title
;
Structure prediction by ZEFSAII (Michael W. Deem and Ramdas Pophale) SiO2 
 PCOD9035001
Probable space group: P -1
;
_chemical_formula_sum "Si O2"
_cell_formula_units_Z 10
_cell_length_a 26.974412
_cell_length_b 26.596998
_cell_length_c 5.222911
_cell_angle_alpha 142.826133
_cell_angle_beta 143.881475
_cell_angle_gamma 10.232090
_cell_volume 392.294822
_symmetry_space_group_name_H-M "P -1"
_symmetry_group_IT_number 2
_symmetry_cell_setting 'triclinic'
loop_
_space_group_symop_operation_xyz
x,y,z
-x,-y,-z
loop_
_atom_site_type_symbol
_atom_site_label
_atom_site_fract_x
_atom_site_fract_y
_atom_site_fract_z
Si Si1 0.206095 0.024578 0.088912
Si Si2 0.707314 0.727908 0.215994
Si Si3 0.824016 0.190987 0.795608
Si Si4 0.302915 0.374184 0.737390
Si Si5 0.333267 0.525863 0.026809
O O1 0.004462 0.294977 0.274658
O O2 0.423457 0.821734 0.928573
O O3 0.945412 0.220926 0.933203
O O4 0.466096 0.745017 0.226946
O O5 0.709891 0.662050 0.197112
O O6 0.000000 0.500000 0.500000
O O7 0.500000 0.000000 0.500000
O O8 0.637756 0.745730 0.735768
O O9 0.536865 0.408122 0.494425
O O10 0.764902 0.345242 0.134876
O O11 0.000000 0.000000 0.500000
O O12 0.000000 0.000000 0.000000
#
# Coordination Sequence:
#
# PCOD9035001 Si02
#       5
#     2   2   2   2   2
#     4  10  22  46  66  99 142 182 224 276 348 405
#     4  12  24  44  72 100 134 175 224 275 334 394
#     4  11  24  46  69 101 135 174 246 286 339 399
#     4  11  24  44  66 103 136 177 224 275 332 413
#     4  10  22  45  70 101 134 189 228 291 340 405
#
# _framework density 25.491033000000002
#
# number of rings (size 3 to 8) (size 9 to 14) (size 15 to 20)
#    0.000    1.200    2.000    3.600    0.000    3.200 
#   14.400    0.000    0.000    0.000    0.000    0.000 
#    0.000    0.000    0.000    0.000    0.000    0.000 
#
# Total GULP energy -55742.557999 kJ/mol
# GULP energy per Si atom -5574.255800 kJ/mol
# Density = 2.543301 g / cm^3
# Si number density = 25.491033 Si / 1000 Ang^3
#
#
#
# Elastic Constant Matrix: (Units=GPa)
#
#
# Indices 1 2 3 4 5 6 
#
# 1 253.7446 88.5558 56.5473 -20.3401 1.6605 -0.1550
# 2 88.5558 239.9779 35.5023 10.0469 8.8553 -9.3521
# 3 56.5473 35.5023 68.2915 10.0807 -12.1937 -3.2404
# 4 -20.3401 10.0469 10.0807 38.8493 -1.4643 25.4760
# 5 1.6605 8.8553 -12.1937 -1.4643 41.1271 -0.8461
# 6 -0.1550 -9.3521 -3.2404 25.4760 -0.8461 64.8617
#
#
#
# Elastic Compliance Matrix: (Units=1/GPa)
#
#
# Indices 1 2 3 4 5 6 
#
# 1 0.006621 -0.001970 -0.006059 0.007921 -0.001434 -0.003701
# 2 -0.001970 0.005287 -0.000716 -0.003671 -0.001358 0.002146
# 3 -0.006059 -0.000716 0.023485 -0.012888 0.007031 0.006209
# 4 0.007921 -0.003671 -0.012888 0.046977 -0.002082 -0.019633
# 5 -0.001434 -0.001358 0.007031 -0.002082 0.026703 0.001318
# 6 -0.003701 0.002146 0.006209 -0.019633 0.001318 0.023757
#
#
# Mechanical properties :
#
#
# Convention : Reuss Voigt Hill
#
# Bulk Modulus (GPa) = 55.85719 102.58053 79.21886
# Shear Modulus (GPa) = 31.99252 54.39487 43.19369
#
# Velocity S-wave (km/s) = 3.54651 4.62441 4.12086
# Velocity P-wave (km/s) = 6.22337 8.29715 7.33393
#
# Compressibility (1/GPa) = 0.01790280
#
# Stress axis : x y z
#
# Youngs Moduli (GPa) = 151.04295 189.13148 42.58074
#
# Poissons Ratio (x) = 0.37253 0.25799
# Poissons Ratio (y) = 0.29751 0.03051
# Poissons Ratio (z) = 0.91515 0.13550
#
# Static dielectric constant tensor:
#      x y z
#    x 1.800430 0.463110 -0.551490 
#    y 0.463110 1.278840 0.966700 
#    z -0.551490 0.966700 0.727760 
# 
# From -- ./inp_files/8624.got.cif
#   From: 2010.05.17/outbox.cif.g08.bks.cpg/sg2_5_cif.got.tgz:8624.got - 2010.06.03 11:33:40.
