data_PCOD9035742
_publ_section_title
;
Structure prediction by ZEFSAII (Michael W. Deem and Ramdas Pophale) SiO2 
 PCOD9035742
Probable space group: P -1
;
_chemical_formula_sum "Si O2"
_cell_formula_units_Z 16
_cell_length_a 16.596952
_cell_length_b 15.187006
_cell_length_c 8.669388
_cell_angle_alpha 109.499027
_cell_angle_beta 136.389941
_cell_angle_gamma 36.568228
_cell_volume 716.460439
_symmetry_space_group_name_H-M "P -1"
_symmetry_group_IT_number 2
_symmetry_cell_setting 'triclinic'
loop_
_space_group_symop_operation_xyz
x,y,z
-x,-y,-z
loop_
_atom_site_type_symbol
_atom_site_label
_atom_site_fract_x
_atom_site_fract_y
_atom_site_fract_z
Si Si1 0.228794 0.465564 0.911292
Si Si2 0.049830 0.838659 0.627197
Si Si3 0.340893 0.937166 0.192500
Si Si4 0.880778 0.868318 0.688536
Si Si5 0.647102 0.231641 0.149982
Si Si6 0.400246 0.163879 0.024869
Si Si7 0.208335 0.428410 0.220352
Si Si8 0.910136 0.756677 0.186905
O O1 0.288121 0.319129 0.848350
O O2 0.991501 0.688235 0.715587
O O3 0.413462 0.394833 0.022111
O O4 0.262539 0.420503 0.114876
O O5 0.047210 0.821531 0.794793
O O6 0.977017 0.791268 0.419228
O O7 0.273706 0.725668 0.788613
O O8 0.847373 0.053466 0.435883
O O9 0.579106 0.766359 0.513118
O O10 0.150310 0.076925 0.146712
O O11 0.344324 0.847599 0.027390
O O12 0.292704 0.060941 0.094045
O O13 0.628137 0.044471 0.359963
O O14 0.187106 0.269518 0.887072
O O15 0.500000 0.000000 0.000000
O O16 0.130320 0.576143 0.286240
O O17 0.000000 0.500000 0.000000
#
# Coordination Sequence:
#
# PCOD9035742 Si02
#       8
#     2   2   2   2   2   2   2   2
#     4  12  25  44  65 100 135 176 222 264 336 393
#     4  10  22  46  71  94 135 174 227 278 333 388
#     4  11  24  42  67  98 134 174 221 272 337 389
#     4  12  24  41  68  99 137 173 217 274 335 400
#     4  10  23  46  73  94 130 179 228 278 326 397
#     4  12  23  42  66  97 140 174 214 272 329 402
#     4  12  24  42  65  97 140 173 219 274 331 401
#     4  11  23  41  66 101 132 174 220 272 336 393
#
# _framework density 22.332007000000001
#
# number of rings (size 3 to 8) (size 9 to 14) (size 15 to 20)
#    0.000    0.750    6.250    0.750    3.500    2.500 
#    0.000    1.875    0.000    0.000    0.000    0.000 
#    0.000    0.000    0.000    0.000    0.000    0.000 
#
# Total GULP energy -89243.251908 kJ/mol
# GULP energy per Si atom -5577.703244 kJ/mol
# Density = 2.228118 g / cm^3
# Si number density = 22.332007 Si / 1000 Ang^3
#
#
#
# Elastic Constant Matrix: (Units=GPa)
#
#
# Indices 1 2 3 4 5 6 
#
# 1 134.5646 20.9565 40.8290 0.8839 15.3163 -5.2550
# 2 20.9565 101.9393 21.2642 -30.1825 3.6332 -18.0620
# 3 40.8290 21.2642 43.9630 -22.9872 -2.2552 7.8740
# 4 0.8839 -30.1825 -22.9872 30.9227 2.6777 -9.7287
# 5 15.3163 3.6332 -2.2552 2.6777 25.7742 -6.5582
# 6 -5.2550 -18.0620 7.8740 -9.7287 -6.5582 37.0742
#
#
#
# Elastic Compliance Matrix: (Units=1/GPa)
#
#
# Indices 1 2 3 4 5 6 
#
# 1 0.018394 -0.006558 -0.028692 -0.028555 -0.010530 -0.003850
# 2 -0.006558 0.022326 0.010707 0.035181 0.002443 0.017337
# 3 -0.028692 0.010707 0.081995 0.072585 0.016631 0.005724
# 4 -0.028555 0.035181 0.072585 0.131128 0.013510 0.034476
# 5 -0.010530 0.002443 0.016631 0.013510 0.046796 0.007988
# 6 -0.003850 0.017337 0.005724 0.034476 0.007988 0.044118
#
#
# Mechanical properties :
#
#
# Convention : Reuss Voigt Hill
#
# Bulk Modulus (GPa) = 13.58157 49.61848 31.60003
# Shear Modulus (GPa) = 11.95069 31.91536 21.93302
#
# Velocity S-wave (km/s) = 2.31581 3.78449 3.13730
# Velocity P-wave (km/s) = 3.63944 6.43143 5.22536
#
# Compressibility (1/GPa) = 0.07362920
#
# Stress axis : x y z
#
# Youngs Moduli (GPa) = 54.36526 44.79130 12.19582
#
# Poissons Ratio (x) = 0.29373 0.34993
# Poissons Ratio (y) = 0.35651 -0.13058
# Poissons Ratio (z) = 1.55987 -0.47959
#
# Static dielectric constant tensor:
#      x y z
#    x 1.861960 -0.086520 0.008230 
#    y -0.086520 2.054150 -0.009240 
#    z 0.008230 -0.009240 1.832250 
# 
# From -- ./inp_files/315503.got.cif
#   From: 2010.05.17/outbox.cif.g08.bks.cpg/sg2_158_cif.got.tgz:315503.got - 2010.06.03 11:33:40.
