data_PCOD9035238
_publ_section_title
;
Structure prediction by ZEFSAII (Michael W. Deem and Ramdas Pophale) SiO2 
 PCOD9035238
Probable space group: P -1
;
_chemical_formula_sum "Si O2"
_cell_formula_units_Z 15
_cell_length_a 21.492047
_cell_length_b 5.026652
_cell_length_c 11.062619
_cell_angle_alpha 112.588415
_cell_angle_beta 147.204066
_cell_angle_gamma 64.183251
_cell_volume 582.331033
_symmetry_space_group_name_H-M "P -1"
_symmetry_group_IT_number 2
_symmetry_cell_setting 'triclinic'
loop_
_space_group_symop_operation_xyz
x,y,z
-x,-y,-z
loop_
_atom_site_type_symbol
_atom_site_label
_atom_site_fract_x
_atom_site_fract_y
_atom_site_fract_z
Si Si1 0.296300 0.244932 0.411189
Si Si2 0.000000 0.000000 0.500000
Si Si3 0.656900 0.197972 0.269748
Si Si4 0.720825 0.400102 0.037384
Si Si5 0.212719 0.244957 0.005541
Si Si6 0.509514 0.961371 0.825626
Si Si7 0.112534 0.291027 0.507953
Si Si8 0.066248 0.255751 0.157023
O O1 0.312432 0.522135 0.567176
O O2 0.241698 0.309809 0.201083
O O3 0.198373 0.127187 0.304852
O O4 0.426636 0.035056 0.586525
O O5 0.961369 0.830051 0.532295
O O6 0.910217 0.837532 0.244437
O O7 0.585015 0.059999 0.228177
O O8 0.775249 0.976503 0.381203
O O9 0.574937 0.217502 0.019646
O O10 0.833230 0.428512 0.311446
O O11 0.762221 0.494916 0.991562
O O12 0.607071 0.655818 0.927459
O O13 0.701574 0.071629 0.947655
O O14 0.061596 0.362374 0.304844
O O15 0.000000 0.500000 0.000000
O O16 0.000000 0.000000 0.000000
#
# Coordination Sequence:
#
# PCOD9035238 Si02
#       8
#     2   1   2   2   2   2   2   2
#     4  12  26  42  74 105 152 194 246 310 380 446
#     4  10  24  50  78 104 146 208 252 308 366 448
#     4  10  22  45  72 112 147 189 246 312 380 451
#     4  10  26  46  71 104 143 197 248 305 361 443
#     4  11  27  46  70 105 148 196 256 299 367 442
#     4  10  23  44  73 106 145 196 243 310 381 445
#     4  10  22  47  75 107 145 190 254 307 374 451
#     4  12  27  45  72 111 152 194 246 318 383 442
#
# _framework density 25.758545999999999
#
# number of rings (size 3 to 8) (size 9 to 14) (size 15 to 20)
#    0.000    1.333    1.333    2.000    3.733   10.667 
#    0.000    1.333    0.000    0.000    0.000    0.000 
#    0.000    0.000    0.000    0.000    0.000    0.000 
#
# Total GULP energy -83857.761228 kJ/mol
# GULP energy per Si atom -5590.517415 kJ/mol
# Density = 2.569992 g / cm^3
# Si number density = 25.758546 Si / 1000 Ang^3
#
#
#
# Elastic Constant Matrix: (Units=GPa)
#
#
# Indices 1 2 3 4 5 6 
#
# 1 120.9762 24.0437 68.2472 -5.9557 -16.0643 4.8101
# 2 24.0437 61.4375 23.5687 7.0906 -2.2478 5.4834
# 3 68.2472 23.5687 190.8548 -11.0420 -23.5003 7.2798
# 4 -5.9557 7.0906 -11.0420 27.6949 1.6380 -2.4820
# 5 -16.0643 -2.2478 -23.5003 1.6380 48.4987 -11.4267
# 6 4.8101 5.4834 7.2798 -2.4820 -11.4267 46.7285
#
#
#
# Elastic Compliance Matrix: (Units=1/GPa)
#
#
# Indices 1 2 3 4 5 6 
#
# 1 0.011071 -0.003268 -0.003218 0.001847 0.001970 0.000325
# 2 -0.003268 0.019073 -0.001629 -0.006364 -0.001317 -0.002308
# 3 -0.003218 -0.001629 0.006996 0.002393 0.002190 0.000095
# 4 0.001847 -0.006364 0.002393 0.039265 0.000727 0.002447
# 5 0.001970 -0.001317 0.002190 0.000727 0.023520 0.005400
# 6 0.000325 -0.002308 0.000095 0.002447 0.005400 0.023073
#
#
# Mechanical properties :
#
#
# Convention : Reuss Voigt Hill
#
# Bulk Modulus (GPa) = 47.82569 67.22084 57.52326
# Shear Modulus (GPa) = 34.20022 41.74502 37.97262
#
# Velocity S-wave (km/s) = 3.64775 4.03007 3.84366
# Velocity P-wave (km/s) = 6.02898 6.91437 6.48680
#
# Compressibility (1/GPa) = 0.02090927
#
# Stress axis : x y z
#
# Youngs Moduli (GPa) = 90.32856 52.43028 142.93868
#
# Poissons Ratio (x) = 0.17135 0.45999
# Poissons Ratio (y) = 0.29520 0.23285
# Poissons Ratio (z) = 0.29068 0.08541
#
# Static dielectric constant tensor:
#      x y z
#    x 1.917480 0.049490 -0.051380 
#    y 0.049490 1.887970 0.045260 
#    z -0.051380 0.045260 1.961380 
# 
# From -- ./inp_files/473208.got.cif
#   From: 2010.05.17/outbox.cif.g08.bks.cpg/sg2_237_cif.got.tgz:473208.got - 2010.06.03 11:33:40.
