data_PCOD9035782
_publ_section_title
;
Structure prediction by ZEFSAII (Michael W. Deem and Ramdas Pophale) SiO2 
 PCOD9035782
Probable space group: P -1
;
_chemical_formula_sum "Si O2"
_cell_formula_units_Z 15
_cell_length_a 16.361335
_cell_length_b 8.580833
_cell_length_c 5.454569
_cell_angle_alpha 59.687190
_cell_angle_beta 67.016258
_cell_angle_gamma 69.434060
_cell_volume 597.044869
_symmetry_space_group_name_H-M "P -1"
_symmetry_group_IT_number 2
_symmetry_cell_setting 'triclinic'
loop_
_space_group_symop_operation_xyz
x,y,z
-x,-y,-z
loop_
_atom_site_type_symbol
_atom_site_label
_atom_site_fract_x
_atom_site_fract_y
_atom_site_fract_z
Si Si1 0.384894 0.427681 0.632807
Si Si2 0.203715 0.318294 0.883640
Si Si3 0.053235 0.329768 0.414663
Si Si4 0.500000 0.500000 0.000000
Si Si5 0.283655 0.809540 0.528678
Si Si6 0.872168 0.303969 0.515066
Si Si7 0.460923 0.833908 0.055907
Si Si8 0.843534 0.990606 0.126500
O O1 0.309511 0.303823 0.809443
O O2 0.411450 0.489519 0.284828
O O3 0.337343 0.606918 0.700750
O O4 0.474133 0.337328 0.744053
O O5 0.174141 0.481079 0.590107
O O6 0.175185 0.132811 0.980270
O O7 0.140626 0.379837 0.142644
O O8 0.086333 0.145503 0.678944
O O9 0.000000 0.500000 0.500000
O O10 0.977291 0.292824 0.338247
O O11 0.475090 0.737088 0.850102
O O12 0.191776 0.775977 0.536061
O O13 0.355874 0.872332 0.216775
O O14 0.250910 0.951856 0.665764
O O15 0.870907 0.178461 0.855912
O O16 0.500000 0.000000 0.000000
#
# Coordination Sequence:
#
# PCOD9035782 Si02
#       8
#     2   2   2   1   2   2   2   2
#     4  10  25  47  75 104 149 194 242 306 372 451
#     4  11  27  48  74 111 149 191 256 308 374 450
#     4  12  27  49  75 106 149 200 253 308 379 453
#     4  10  22  46  72 104 138 198 240 298 372 436
#     4  10  25  46  70 109 144 188 244 309 368 448
#     4  11  26  47  74 105 145 193 246 312 367 443
#     4  11  26  45  74 108 150 191 249 302 374 458
#     4  12  27  45  77 109 149 192 252 306 381 450
#
# _framework density 25.123740999999999
#
# number of rings (size 3 to 8) (size 9 to 14) (size 15 to 20)
#    0.000    1.067    1.333    3.200    9.333    9.067 
#    0.000    0.000    0.000    0.000    0.000    0.000 
#    0.000    0.000    0.000    0.000    0.000    0.000 
#
# Total GULP energy -83601.559706 kJ/mol
# GULP energy per Si atom -5573.437314 kJ/mol
# Density = 2.506656 g / cm^3
# Si number density = 25.123741 Si / 1000 Ang^3
#
#
#
# Elastic Constant Matrix: (Units=GPa)
#
#
# Indices 1 2 3 4 5 6 
#
# 1 110.8576 -0.1301 41.6018 -2.0488 -20.4019 -1.8393
# 2 -0.1301 134.5877 28.2174 -5.0768 -3.4282 -19.8803
# 3 41.6018 28.2174 73.6942 0.3329 -15.7275 -24.6437
# 4 -2.0488 -5.0768 0.3329 52.8951 -14.7157 0.8323
# 5 -20.4019 -3.4282 -15.7275 -14.7157 41.6330 -10.4772
# 6 -1.8393 -19.8803 -24.6437 0.8323 -10.4772 31.9021
#
#
#
# Elastic Compliance Matrix: (Units=1/GPa)
#
#
# Indices 1 2 3 4 5 6 
#
# 1 0.012639 0.001287 -0.008526 0.001433 0.002512 -0.004267
# 2 0.001287 0.008647 -0.002029 0.001444 0.002243 0.004594
# 3 -0.008526 -0.002029 0.031924 0.003264 0.015927 0.028050
# 4 0.001433 0.001444 0.003264 0.022199 0.011595 0.006733
# 5 0.002512 0.002243 0.015927 0.011595 0.042468 0.027491
# 6 -0.004267 0.004594 0.028050 0.006733 0.027491 0.064484
#
#
# Mechanical properties :
#
#
# Convention : Reuss Voigt Hill
#
# Bulk Modulus (GPa) = 28.83877 50.94641 39.89259
# Shear Modulus (GPa) = 23.53442 41.91607 32.72525
#
# Velocity S-wave (km/s) = 3.06394 4.08902 3.61302
# Velocity P-wave (km/s) = 4.90108 6.52807 5.77218
#
# Compressibility (1/GPa) = 0.03467555
#
# Stress axis : x y z
#
# Youngs Moduli (GPa) = 79.11735 115.64698 31.32432
#
# Poissons Ratio (x) = -0.14888 0.26706
# Poissons Ratio (y) = -0.10185 0.06356
# Poissons Ratio (z) = 0.67453 0.23467
#
# Static dielectric constant tensor:
#      x y z
#    x 2.111800 0.110400 0.111050 
#    y 0.110400 2.045140 -0.017690 
#    z 0.111050 -0.017690 2.057730 
# 
# From -- ./inp_files/104476.got.cif
#   From: 2010.05.17/outbox.cif.g08.bks.cpg/sg2_53_cif.got.tgz:104476.got - 2010.06.03 11:33:40.
