data_PCOD9035726
_publ_section_title
;
Structure prediction by ZEFSAII (Michael W. Deem and Ramdas Pophale) SiO2 
 PCOD9035726
Probable space group: P -1
;
_chemical_formula_sum "Si O2"
_cell_formula_units_Z 12
_cell_length_a 7.232156
_cell_length_b 8.671688
_cell_length_c 11.268548
_cell_angle_alpha 54.555520
_cell_angle_beta 51.439988
_cell_angle_gamma 71.994913
_cell_volume 448.677675
_symmetry_space_group_name_H-M "P -1"
_symmetry_group_IT_number 2
_symmetry_cell_setting 'triclinic'
loop_
_space_group_symop_operation_xyz
x,y,z
-x,-y,-z
loop_
_atom_site_type_symbol
_atom_site_label
_atom_site_fract_x
_atom_site_fract_y
_atom_site_fract_z
Si Si1 0.315553 0.679577 0.336825
Si Si2 0.544673 0.727921 0.575364
Si Si3 0.188918 0.918465 0.797242
Si Si4 0.908052 0.729202 0.647252
Si Si5 0.713098 0.910390 0.858662
Si Si6 0.247940 0.678678 0.110577
O O1 0.456563 0.491793 0.365382
O O2 0.164616 0.695681 0.509135
O O3 0.422056 0.897636 0.181449
O O4 0.145077 0.661476 0.294111
O O5 0.306847 0.786910 0.708859
O O6 0.736564 0.756858 0.592411
O O7 0.650067 0.881477 0.368097
O O8 0.195236 0.827987 0.965078
O O9 0.915195 0.928012 0.868644
O O10 0.866834 0.887908 0.688236
O O11 0.813429 0.525485 0.829421
O O12 0.522276 0.731099 0.011546
#
# Coordination Sequence:
#
# PCOD9035726 Si02
#       6
#     2   2   2   2   2   2
#     4  11  25  46  76 102 141 194 232 283 357 420
#     4  10  22  46  71 104 145 183 234 288 351 418
#     4  11  25  43  76 107 139 184 239 288 350 417
#     4  11  23  47  76  96 143 196 227 280 361 418
#     4  12  25  45  77 105 137 186 240 288 347 419
#     4  11  25  48  71 103 147 184 228 296 354 407
#
# _framework density 26.745258
#
# number of rings (size 3 to 8) (size 9 to 14) (size 15 to 20)
#    0.000    1.000    3.333    3.500    2.333    1.333 
#    0.000    3.333    0.000    1.000    0.000    0.000 
#    0.000    0.000    0.000    0.000    0.000    0.000 
#
# Total GULP energy -67148.685093 kJ/mol
# GULP energy per Si atom -5595.723758 kJ/mol
# Density = 2.668438 g / cm^3
# Si number density = 26.745258 Si / 1000 Ang^3
#
#
#
# Elastic Constant Matrix: (Units=GPa)
#
#
# Indices 1 2 3 4 5 6 
#
# 1 94.1325 25.1529 45.7020 -0.8882 0.9221 -14.1866
# 2 25.1529 184.6567 53.1640 -7.0773 1.8277 -22.4963
# 3 45.7020 53.1640 147.8407 -16.8537 18.0951 -11.5867
# 4 -0.8882 -7.0773 -16.8537 50.7703 -2.4586 2.2932
# 5 0.9221 1.8277 18.0951 -2.4586 51.0801 7.0616
# 6 -14.1866 -22.4963 -11.5867 2.2932 7.0616 31.9519
#
#
#
# Elastic Compliance Matrix: (Units=1/GPa)
#
#
# Indices 1 2 3 4 5 6 
#
# 1 0.013187 -0.000214 -0.003866 -0.001252 0.000486 0.004285
# 2 -0.000214 0.006467 -0.001950 0.000078 -0.000053 0.003757
# 3 -0.003866 -0.001950 0.009412 0.002593 -0.003186 0.000842
# 4 -0.001252 0.000078 0.002593 0.020607 0.000244 -0.001094
# 5 0.000486 -0.000053 -0.003186 0.000244 0.021505 -0.005747
# 6 0.004285 0.003757 0.000842 -0.001094 -0.005747 0.037499
#
#
# Mechanical properties :
#
#
# Convention : Reuss Voigt Hill
#
# Bulk Modulus (GPa) = 58.80158 74.96310 66.88234
# Shear Modulus (GPa) = 39.55544 46.93450 43.24497
#
# Velocity S-wave (km/s) = 3.84991 4.19366 4.02546
# Velocity P-wave (km/s) = 6.46498 7.17903 6.83134
#
# Compressibility (1/GPa) = 0.01700634
#
# Stress axis : x y z
#
# Youngs Moduli (GPa) = 75.83454 154.62672 106.25040
#
# Poissons Ratio (x) = 0.03309 0.41076
# Poissons Ratio (y) = 0.01623 0.20715
# Poissons Ratio (z) = 0.29317 0.30147
#
# Static dielectric constant tensor:
#      x y z
#    x 2.027830 -0.015750 0.010370 
#    y -0.015750 2.146840 0.062270 
#    z 0.010370 0.062270 2.235310 
# 
# From -- ./inp_files/377557.got.cif
#   From: 2010.05.17/outbox.cif.g08.bks.cpg/sg2_189_cif.got.tgz:377557.got - 2010.06.03 11:33:40.
