data_PCOD9035983
_publ_section_title
;
Structure prediction by ZEFSAII (Michael W. Deem and Ramdas Pophale) SiO2 
 PCOD9035983
Probable space group: P -1
;
_chemical_formula_sum "Si O2"
_cell_formula_units_Z 14
_cell_length_a 9.960471
_cell_length_b 11.280506
_cell_length_c 7.737775
_cell_angle_alpha 125.894087
_cell_angle_beta 82.424158
_cell_angle_gamma 100.046781
_cell_volume 693.034314
_symmetry_space_group_name_H-M "P -1"
_symmetry_group_IT_number 2
_symmetry_cell_setting 'triclinic'
loop_
_space_group_symop_operation_xyz
x,y,z
-x,-y,-z
loop_
_atom_site_type_symbol
_atom_site_label
_atom_site_fract_x
_atom_site_fract_y
_atom_site_fract_z
Si Si1 0.018490 0.163479 0.026053
Si Si2 0.495327 0.664929 0.568648
Si Si3 0.241228 0.824334 0.689849
Si Si4 0.915282 0.635323 0.142416
Si Si5 0.607213 0.638081 0.151316
Si Si6 0.668283 0.839851 0.983990
Si Si7 0.020214 0.891007 0.561108
O O1 0.825557 0.807076 0.907093
O O2 0.892855 0.208739 0.195698
O O3 0.990709 0.992986 0.817318
O O4 0.027297 0.257766 0.929974
O O5 0.500000 0.500000 0.500000
O O6 0.342005 0.702907 0.593959
O O7 0.567744 0.688456 0.390859
O O8 0.572856 0.771890 0.789196
O O9 0.173077 0.850571 0.536838
O O10 0.321416 0.983483 0.859680
O O11 0.756832 0.588128 0.096970
O O12 0.000000 0.500000 0.000000
O O13 0.933283 0.736210 0.398404
O O14 0.500000 0.500000 0.000000
O O15 0.616791 0.763816 0.109309
O O16 0.000000 0.000000 0.500000
#
# Coordination Sequence:
#
# PCOD9035983 Si02
#       7
#     2   2   2   2   2   2   2
#     4   9  21  41  67  94 132 163 216 288 331 387
#     4  12  27  44  67  96 140 186 221 268 342 398
#     4  11  24  42  69 101 131 169 226 281 330 408
#     4  10  23  38  66  97 125 175 223 267 333 397
#     4  11  25  44  65  92 140 180 220 278 327 400
#     4  10  22  47  66  97 132 175 226 278 335 391
#     4   9  19  40  64  96 128 162 211 276 334 381
#
# _framework density 20.201018999999999
#
# number of rings (size 3 to 8) (size 9 to 14) (size 15 to 20)
#    0.000    1.714    1.429    3.000    8.000    0.571 
#    2.571    1.429    0.000    0.000    0.000    0.000 
#    0.000    0.000    0.000    0.000    0.000    0.000 
#
# Total GULP energy -78084.837739 kJ/mol
# GULP energy per Si atom -5577.488410 kJ/mol
# Density = 2.015504 g / cm^3
# Si number density = 20.201019 Si / 1000 Ang^3
#
#
#
# Elastic Constant Matrix: (Units=GPa)
#
#
# Indices 1 2 3 4 5 6 
#
# 1 135.5358 68.8655 54.1221 1.5657 -10.9847 -19.7241
# 2 68.8655 84.8887 26.5776 -6.9203 -7.9439 3.6682
# 3 54.1221 26.5776 61.7847 -6.7506 12.6405 -6.6463
# 4 1.5657 -6.9203 -6.7506 43.8501 4.4885 -1.8962
# 5 -10.9847 -7.9439 12.6405 4.4885 42.8578 1.8204
# 6 -19.7241 3.6682 -6.6463 -1.8962 1.8204 36.6395
#
#
#
# Elastic Compliance Matrix: (Units=1/GPa)
#
#
# Indices 1 2 3 4 5 6 
#
# 1 0.022459 -0.013727 -0.014885 -0.005618 0.007762 0.010088
# 2 -0.013727 0.023237 0.001386 0.003932 0.000363 -0.009279
# 3 -0.014885 0.001386 0.032060 0.007032 -0.013696 -0.001292
# 4 -0.005618 0.003932 0.007032 0.025237 -0.005404 -0.000568
# 5 0.007762 0.000363 -0.013696 -0.005404 0.030000 -0.000112
# 6 0.010088 -0.009279 -0.001292 -0.000568 -0.000112 0.033394
#
#
# Mechanical properties :
#
#
# Convention : Reuss Voigt Hill
#
# Bulk Modulus (GPa) = 42.91275 64.59328 53.75302
# Shear Modulus (GPa) = 21.87160 33.51243 27.69201
#
# Velocity S-wave (km/s) = 3.29401 4.07744 3.70648
# Velocity P-wave (km/s) = 5.97966 7.36288 6.70702
#
# Compressibility (1/GPa) = 0.02330310
#
# Stress axis : x y z
#
# Youngs Moduli (GPa) = 44.52650 43.03415 31.19187
#
# Poissons Ratio (x) = 0.59071 0.46430
# Poissons Ratio (y) = 0.61119 -0.04322
# Poissons Ratio (z) = 0.66279 -0.05963
#
# Static dielectric constant tensor:
#      x y z
#    x 1.707240 -0.023730 0.018360 
#    y -0.023730 1.758190 -0.025950 
#    z 0.018360 -0.025950 1.757860 
# 
# From -- ./inp_files/183178.got.cif
#   From: 2010.05.17/outbox.cif.g08.bks.cpg/sg2_92_cif.got.tgz:183178.got - 2010.06.03 11:33:40.
