data_PCOD9035163
_publ_section_title
;
Structure prediction by ZEFSAII (Michael W. Deem and Ramdas Pophale) SiO2 
 PCOD9035163
Probable space group: P -1
;
_chemical_formula_sum "Si O2"
_cell_formula_units_Z 16
_cell_length_a 19.966893
_cell_length_b 9.393279
_cell_length_c 24.466566
_cell_angle_alpha 28.309227
_cell_angle_beta 17.395228
_cell_angle_gamma 34.489473
_cell_volume 646.478795
_symmetry_space_group_name_H-M "P -1"
_symmetry_group_IT_number 2
_symmetry_cell_setting 'triclinic'
loop_
_space_group_symop_operation_xyz
x,y,z
-x,-y,-z
loop_
_atom_site_type_symbol
_atom_site_label
_atom_site_fract_x
_atom_site_fract_y
_atom_site_fract_z
Si Si1 0.014717 0.271698 0.015974
Si Si2 0.180151 0.750429 0.301240
Si Si3 0.459118 0.222864 0.082873
Si Si4 0.303878 0.722299 0.575396
Si Si5 0.519801 0.799802 0.276926
Si Si6 0.306250 0.315546 0.546653
Si Si7 0.457952 0.346730 0.295873
Si Si8 0.863857 0.638210 0.809786
O O1 0.083301 0.495722 0.836227
O O2 0.233318 0.109009 0.920738
O O3 0.000000 0.500000 0.000000
O O4 0.804477 0.030212 0.249054
O O5 0.311068 0.585472 0.301534
O O6 0.000000 0.500000 0.500000
O O7 0.104340 0.047781 0.287502
O O8 0.348714 0.827793 0.093490
O O9 0.254480 0.286003 0.181210
O O10 0.462267 0.950152 0.214664
O O11 0.500000 0.500000 0.000000
O O12 0.500000 0.500000 0.500000
O O13 0.339723 0.869175 0.438666
O O14 0.344661 0.008184 0.485994
O O15 0.478000 0.442005 0.417518
O O16 0.431492 0.379829 0.369883
O O17 0.087675 0.491905 0.669264
O O18 0.695754 0.415127 0.055140
#
# Coordination Sequence:
#
# PCOD9035163 Si02
#       8
#     2   2   2   2   2   2   2   2
#     4  11  24  48  71 101 139 180 236 301 360 418
#     4  11  26  41  66 101 144 191 231 284 356 421
#     4  11  23  43  70 103 144 184 236 292 345 433
#     4  10  22  45  71  96 139 178 227 304 358 409
#     4  11  25  43  71 106 136 182 242 285 357 429
#     4  12  26  45  78 105 141 192 235 294 361 421
#     4  11  23  46  70 100 143 187 236 289 355 423
#     4  11  25  46  67 106 152 184 235 294 348 427
#
# _framework density 24.749455999999999
#
# number of rings (size 3 to 8) (size 9 to 14) (size 15 to 20)
#    0.000    1.000    1.250    6.750    7.000    2.000 
#    2.250    0.000    0.000    0.000    0.000    0.000 
#    0.000    0.000    0.000    0.000    0.000    0.000 
#
# Total GULP energy -89517.943344 kJ/mol
# GULP energy per Si atom -5594.871459 kJ/mol
# Density = 2.469313 g / cm^3
# Si number density = 24.749456 Si / 1000 Ang^3
#
#
#
# Elastic Constant Matrix: (Units=GPa)
#
#
# Indices 1 2 3 4 5 6 
#
# 1 101.2851 38.7177 40.0756 9.9429 8.8769 21.7585
# 2 38.7177 135.1493 17.3585 -5.0623 1.2442 17.1835
# 3 40.0756 17.3585 91.8750 -18.6477 7.2344 -13.0156
# 4 9.9429 -5.0623 -18.6477 38.6497 10.0973 -13.7993
# 5 8.8769 1.2442 7.2344 10.0973 44.2091 -7.8359
# 6 21.7585 17.1835 -13.0156 -13.7993 -7.8359 43.5684
#
#
#
# Elastic Compliance Matrix: (Units=1/GPa)
#
#
# Indices 1 2 3 4 5 6 
#
# 1 0.028436 -0.002788 -0.021569 -0.028094 -0.000750 -0.028578
# 2 -0.002788 0.008522 -0.000428 0.001027 -0.000164 -0.001801
# 3 -0.021569 -0.000428 0.031338 0.032034 -0.002794 0.029946
# 4 -0.028094 0.001027 0.032034 0.065810 -0.007081 0.042766
# 5 -0.000750 -0.000164 -0.002794 -0.007081 0.025185 0.001892
# 6 -0.028578 -0.001801 0.029946 0.042766 0.001892 0.060766
#
#
# Mechanical properties :
#
#
# Convention : Reuss Voigt Hill
#
# Bulk Modulus (GPa) = 53.40028 57.84591 55.62309
# Shear Modulus (GPa) = 18.12463 40.76259 29.44361
#
# Velocity S-wave (km/s) = 2.70909 4.06274 3.45290
# Velocity P-wave (km/s) = 5.60435 6.74026 6.19838
#
# Compressibility (1/GPa) = 0.01872649
#
# Stress axis : x y z
#
# Youngs Moduli (GPa) = 35.16660 117.34635 31.91056
#
# Poissons Ratio (x) = 0.32716 0.68827
# Poissons Ratio (y) = 0.09804 0.01365
# Poissons Ratio (z) = 0.75850 0.05019
#
# Static dielectric constant tensor:
#      x y z
#    x 1.983870 -0.078670 0.018790 
#    y -0.078670 2.063090 -0.055490 
#    z 0.018790 -0.055490 2.081860 
# 
# From -- ./inp_files/613570.got.cif
#   From: 2010.05.17/outbox.cif.g08.bks.cpg/sg2_307_cif.got.tgz:613570.got - 2010.06.03 11:33:40.
