data_PCOD9035739
_publ_section_title
;
Structure prediction by ZEFSAII (Michael W. Deem and Ramdas Pophale) SiO2 
 PCOD9035739
Probable space group: P -1
;
_chemical_formula_sum "Si O2"
_cell_formula_units_Z 16
_cell_length_a 24.204032
_cell_length_b 23.270247
_cell_length_c 9.734288
_cell_angle_alpha 154.409092
_cell_angle_beta 28.039455
_cell_angle_gamma 161.560684
_cell_volume 734.259625
_symmetry_space_group_name_H-M "P -1"
_symmetry_group_IT_number 2
_symmetry_cell_setting 'triclinic'
loop_
_space_group_symop_operation_xyz
x,y,z
-x,-y,-z
loop_
_atom_site_type_symbol
_atom_site_label
_atom_site_fract_x
_atom_site_fract_y
_atom_site_fract_z
Si Si1 0.234619 0.717786 0.194121
Si Si2 0.157847 0.568083 0.605599
Si Si3 0.032559 0.182919 0.353542
Si Si4 0.942788 0.812079 0.090755
Si Si5 0.256642 0.014650 0.653578
Si Si6 0.707377 0.162648 0.373199
Si Si7 0.369365 0.635581 0.528196
Si Si8 0.093553 0.933857 0.318242
O O1 0.205653 0.704739 0.392598
O O2 0.037763 0.535932 0.168688
O O3 0.305067 0.918563 0.415862
O O4 0.363975 0.711410 0.846845
O O5 0.240916 0.715567 0.614097
O O6 0.282361 0.664847 0.673037
O O7 0.129013 0.389142 0.238808
O O8 0.227828 0.396476 0.339915
O O9 0.881163 0.126966 0.474462
O O10 0.001952 0.180684 0.576474
O O11 0.000000 0.000000 0.000000
O O12 0.837867 0.855463 0.372323
O O13 0.965065 0.823552 0.229796
O O14 0.137671 0.992598 0.978987
O O15 0.434722 0.231415 0.669601
O O16 0.500000 0.000000 0.500000
O O17 0.763316 0.057406 0.006704
#
# Coordination Sequence:
#
# PCOD9035739 Si02
#       8
#     2   2   2   2   2   2   2   2
#     4  11  23  43  64  99 134 179 226 272 342 409
#     4  11  22  42  67  94 133 179 228 276 335 403
#     4  12  25  45  68  99 133 177 224 277 338 404
#     4  10  22  46  71  94 128 183 227 272 338 406
#     4  11  23  44  65 100 137 169 228 282 330 411
#     4  12  26  40  66 102 140 174 231 287 330 397
#     4  12  25  40  71  98 137 181 217 281 348 395
#     4  11  23  43  72  91 134 183 217 275 346 392
#
# _framework density 21.790656999999999
#
# number of rings (size 3 to 8) (size 9 to 14) (size 15 to 20)
#    0.000    0.750    6.250    2.625    5.250    0.500 
#    0.000    0.625    2.750    0.000    0.000    0.000 
#    0.000    0.000    0.000    0.000    0.000    0.000 
#
# Total GULP energy -89462.937374 kJ/mol
# GULP energy per Si atom -5591.433586 kJ/mol
# Density = 2.174106 g / cm^3
# Si number density = 21.790657 Si / 1000 Ang^3
#
#
#
# Elastic Constant Matrix: (Units=GPa)
#
#
# Indices 1 2 3 4 5 6 
#
# 1 83.8860 32.8625 21.7874 -12.2517 13.5299 -25.2632
# 2 32.8625 125.1279 32.8427 -19.2516 -4.3122 -11.9022
# 3 21.7874 32.8427 108.4712 -7.3850 -3.4526 -14.2366
# 4 -12.2517 -19.2516 -7.3850 24.1850 -13.8100 -0.4346
# 5 13.5299 -4.3122 -3.4526 -13.8100 35.0285 -0.6135
# 6 -25.2632 -11.9022 -14.2366 -0.4346 -0.6135 31.7365
#
#
#
# Elastic Compliance Matrix: (Units=1/GPa)
#
#
# Indices 1 2 3 4 5 6 
#
# 1 0.018950 -0.003096 -0.001071 0.003516 -0.006186 0.013372
# 2 -0.003096 0.011239 -0.001675 0.010687 0.006650 0.001274
# 3 -0.001071 -0.001675 0.010655 0.002827 0.002432 0.003385
# 4 0.003516 0.010687 0.002827 0.068270 0.027319 0.009539
# 5 -0.006186 0.006650 0.002432 0.027319 0.042764 -0.000138
# 6 0.013372 0.001274 0.003385 0.009539 -0.000138 0.044278
#
#
# Mechanical properties :
#
#
# Convention : Reuss Voigt Hill
#
# Bulk Modulus (GPa) = 34.29236 54.71893 44.50565
# Shear Modulus (GPa) = 22.98199 33.52283 28.25241
#
# Velocity S-wave (km/s) = 3.25109 3.92650 3.60465
# Velocity P-wave (km/s) = 5.46481 6.76183 6.14762
#
# Compressibility (1/GPa) = 0.02916101
#
# Stress axis : x y z
#
# Youngs Moduli (GPa) = 52.76911 88.97524 93.84902
#
# Poissons Ratio (x) = 0.27547 0.10055
# Poissons Ratio (y) = 0.16337 0.15716
# Poissons Ratio (z) = 0.05654 0.14900
#
# Static dielectric constant tensor:
#      x y z
#    x 1.845300 0.005860 0.022730 
#    y 0.005860 1.796690 0.023170 
#    z 0.022730 0.023170 1.839090 
# 
# From -- ./inp_files/355302.got.cif
#   From: 2010.05.17/outbox.cif.g08.bks.cpg/sg2_178_cif.got.tgz:355302.got - 2010.06.03 11:33:40.
