data_PCOD9035248
_publ_section_title
;
Structure prediction by ZEFSAII (Michael W. Deem and Ramdas Pophale) SiO2 
 PCOD9035248
Probable space group: P -1
;
_chemical_formula_sum "Si O2"
_cell_formula_units_Z 12
_cell_length_a 5.150503
_cell_length_b 12.615140
_cell_length_c 8.958970
_cell_angle_alpha 68.513299
_cell_angle_beta 67.748760
_cell_angle_gamma 66.017707
_cell_volume 476.468635
_symmetry_space_group_name_H-M "P -1"
_symmetry_group_IT_number 2
_symmetry_cell_setting 'triclinic'
loop_
_space_group_symop_operation_xyz
x,y,z
-x,-y,-z
loop_
_atom_site_type_symbol
_atom_site_label
_atom_site_fract_x
_atom_site_fract_y
_atom_site_fract_z
Si Si1 0.918795 0.246026 0.552843
Si Si2 0.272026 0.051831 0.390349
Si Si3 0.612681 0.501268 0.143387
Si Si4 0.208782 0.075191 0.859072
Si Si5 0.063513 0.456312 0.303908
Si Si6 0.662670 0.709951 0.206947
O O1 0.115115 0.190060 0.394345
O O2 0.061266 0.161064 0.706127
O O3 0.911501 0.382887 0.478381
O O4 0.583893 0.246263 0.634135
O O5 0.500000 0.000000 0.500000
O O6 0.473197 0.011365 0.221583
O O7 0.000000 0.000000 0.500000
O O8 0.941687 0.440010 0.170048
O O9 0.538618 0.638915 0.144971
O O10 0.401016 0.428796 0.292058
O O11 0.500000 0.500000 0.000000
O O12 0.248265 0.174369 0.915461
O O13 0.000000 0.000000 0.000000
O O14 0.927950 0.599739 0.265617
#
# Coordination Sequence:
#
# PCOD9035248 Si02
#       6
#     2   2   2   2   2   2
#     4  11  23  45  72 109 148 195 252 306 374 452
#     4  10  22  45  72  97 145 195 253 302 361 439
#     4  10  23  45  66 108 153 188 239 302 382 448
#     4  11  25  46  73 113 152 202 257 313 374 440
#     4  10  24  41  75 109 142 195 241 303 379 450
#     4  10  23  41  77 103 151 189 250 305 376 445
#
# _framework density 25.185288
#
# number of rings (size 3 to 8) (size 9 to 14) (size 15 to 20)
#    1.000    0.667    1.667    2.000    2.333    2.000 
#    6.000    0.000    0.000    0.000    0.000    0.000 
#    0.000    0.000    0.000    0.000    0.000    0.000 
#
# Total GULP energy -66869.815179 kJ/mol
# GULP energy per Si atom -5572.484598 kJ/mol
# Density = 2.512796 g / cm^3
# Si number density = 25.185288 Si / 1000 Ang^3
#
#
#
# Elastic Constant Matrix: (Units=GPa)
#
#
# Indices 1 2 3 4 5 6 
#
# 1 143.4628 56.8808 39.5241 1.8797 -9.9878 32.3723
# 2 56.8808 111.0524 66.3297 -21.0289 -9.0894 20.0414
# 3 39.5241 66.3297 94.7000 -21.2498 -2.4362 13.6873
# 4 1.8797 -21.0289 -21.2498 36.9829 1.8556 -11.9530
# 5 -9.9878 -9.0894 -2.4362 1.8556 52.3022 -2.8768
# 6 32.3723 20.0414 13.6873 -11.9530 -2.8768 45.7822
#
#
#
# Elastic Compliance Matrix: (Units=1/GPa)
#
#
# Indices 1 2 3 4 5 6 
#
# 1 0.010927 -0.004313 -0.001957 -0.006404 0.001096 -0.006856
# 2 -0.004313 0.018174 -0.009745 0.004653 0.001679 -0.000672
# 3 -0.001957 -0.009745 0.019357 0.006198 -0.001309 0.001399
# 4 -0.006404 0.004653 0.006198 0.036920 -0.000873 0.010222
# 5 0.001096 0.001679 -0.001309 -0.000873 0.019584 -0.000116
# 6 -0.006856 -0.000672 0.001399 0.010222 -0.000116 0.029228
#
#
# Mechanical properties :
#
#
# Convention : Reuss Voigt Hill
#
# Bulk Modulus (GPa) = 60.87388 74.96495 67.91942
# Shear Modulus (GPa) = 29.12088 39.44548 34.28318
#
# Velocity S-wave (km/s) = 3.40408 3.96183 3.69350
# Velocity P-wave (km/s) = 6.29867 7.12447 6.72426
#
# Compressibility (1/GPa) = 0.01642741
#
# Stress axis : x y z
#
# Youngs Moduli (GPa) = 91.51525 55.02233 51.66050
#
# Poissons Ratio (x) = 0.23734 0.10110
# Poissons Ratio (y) = 0.39475 0.50344
# Poissons Ratio (z) = 0.17910 0.53620
#
# Static dielectric constant tensor:
#      x y z
#    x 2.015830 0.069030 0.032460 
#    y 0.069030 2.035380 0.109140 
#    z 0.032460 0.109140 2.225610 
# 
# From -- ./inp_files/131399.got.cif
#   From: 2010.05.17/outbox.cif.g08.bks.cpg/sg2_66_cif.got.tgz:131399.got - 2010.06.03 11:33:40.
