data_PCOD9035186
_publ_section_title
;
Structure prediction by ZEFSAII (Michael W. Deem and Ramdas Pophale) SiO2 
 PCOD9035186
Probable space group: P -1
;
_chemical_formula_sum "Si O2"
_cell_formula_units_Z 12
_cell_length_a 16.455780
_cell_length_b 7.129762
_cell_length_c 6.991642
_cell_angle_alpha 120.712454
_cell_angle_beta 42.581686
_cell_angle_gamma 108.995459
_cell_volume 475.391912
_symmetry_space_group_name_H-M "P -1"
_symmetry_group_IT_number 2
_symmetry_cell_setting 'triclinic'
loop_
_space_group_symop_operation_xyz
x,y,z
-x,-y,-z
loop_
_atom_site_type_symbol
_atom_site_label
_atom_site_fract_x
_atom_site_fract_y
_atom_site_fract_z
Si Si1 0.302463 0.116082 0.276132
Si Si2 0.510917 0.240991 0.385726
Si Si3 0.892998 0.657306 0.034769
Si Si4 0.140184 0.726552 0.800891
Si Si5 0.383639 0.562450 0.352458
Si Si6 0.753664 0.833783 0.045155
O O1 0.182323 0.133253 0.620561
O O2 0.360260 0.330987 0.366480
O O3 0.264271 0.175774 0.155579
O O4 0.402734 0.912236 0.983766
O O5 0.500000 0.500000 0.500000
O O6 0.591440 0.249135 0.444865
O O7 0.380579 0.161852 0.624907
O O8 0.879116 0.439764 0.073742
O O9 0.833002 0.642369 0.923649
O O10 0.031283 0.704965 0.835712
O O11 0.272149 0.641141 0.453103
O O12 0.163456 0.965111 0.959618
O O13 0.500000 0.500000 0.000000
#
# Coordination Sequence:
#
# PCOD9035186 Si02
#       6
#     2   2   2   2   2   2
#     4  11  24  44  70 102 138 188 225 290 356 406
#     4  12  25  43  69 105 141 177 237 289 344 425
#     4  10  25  46  69 104 141 183 235 289 345 411
#     4  10  22  45  71  99 147 178 233 298 330 418
#     4  11  21  41  68  97 138 178 223 285 346 401
#     4  12  23  43  72  99 139 184 234 282 349 417
#
# _framework density 25.242331
#
# number of rings (size 3 to 8) (size 9 to 14) (size 15 to 20)
#    0.000    1.000    3.333    4.000    0.000    4.667 
#    0.000    7.500    0.000    0.000    0.000    0.000 
#    0.000    0.000    0.000    0.000    0.000    0.000 
#
# Total GULP energy -67048.889690 kJ/mol
# GULP energy per Si atom -5587.407474 kJ/mol
# Density = 2.518488 g / cm^3
# Si number density = 25.242331 Si / 1000 Ang^3
#
#
#
# Elastic Constant Matrix: (Units=GPa)
#
#
# Indices 1 2 3 4 5 6 
#
# 1 145.9093 47.9042 50.5470 -9.1114 -24.9882 0.3171
# 2 47.9042 109.8299 15.7442 5.2550 -8.9602 9.4145
# 3 50.5470 15.7442 88.1196 -6.2484 -19.5008 19.9242
# 4 -9.1114 5.2550 -6.2484 39.1598 7.5408 -4.6804
# 5 -24.9882 -8.9602 -19.5008 7.5408 48.5068 -5.9572
# 6 0.3171 9.4145 19.9242 -4.6804 -5.9572 43.1225
#
#
#
# Elastic Compliance Matrix: (Units=1/GPa)
#
#
# Indices 1 2 3 4 5 6 
#
# 1 0.010712 -0.004098 -0.005571 0.002113 0.002683 0.003990
# 2 -0.004098 0.011185 0.000941 -0.002747 0.000381 -0.003092
# 3 -0.005571 0.000941 0.016751 -0.000253 0.003157 -0.007495
# 4 0.002113 -0.002747 -0.000253 0.027391 -0.003385 0.003207
# 5 0.002683 0.000381 0.003157 -0.003385 0.024034 0.001391
# 6 0.003990 -0.003092 -0.007495 0.003207 0.001391 0.027839
#
#
# Mechanical properties :
#
#
# Convention : Reuss Voigt Hill
#
# Bulk Modulus (GPa) = 47.18739 63.58329 55.38534
# Shear Modulus (GPa) = 35.10451 41.46869 38.28660
#
# Velocity S-wave (km/s) = 3.73325 4.05757 3.89879
# Velocity P-wave (km/s) = 6.10879 6.86991 6.50050
#
# Compressibility (1/GPa) = 0.02119210
#
# Stress axis : x y z
#
# Youngs Moduli (GPa) = 93.35721 89.40575 59.69776
#
# Poissons Ratio (x) = 0.36636 0.33256
# Poissons Ratio (y) = 0.38255 -0.05616
# Poissons Ratio (z) = 0.52006 -0.08410
#
# Static dielectric constant tensor:
#      x y z
#    x 2.090790 -0.071360 -0.071180 
#    y -0.071360 2.196510 0.025970 
#    z -0.071180 0.025970 2.068980 
# 
# From -- ./inp_files/257568.got.cif
#   From: 2010.05.17/outbox.cif.g08.bks.cpg/sg2_129_cif.got.tgz:257568.got - 2010.06.03 11:33:40.
