data_PCOD9035428
_publ_section_title
;
Structure prediction by ZEFSAII (Michael W. Deem and Ramdas Pophale) SiO2 
 PCOD9035428
Probable space group: P -1
;
_chemical_formula_sum "Si O2"
_cell_formula_units_Z 14
_cell_length_a 7.501027
_cell_length_b 9.297328
_cell_length_c 13.915569
_cell_angle_alpha 130.967172
_cell_angle_beta 53.469140
_cell_angle_gamma 133.548251
_cell_volume 512.521344
_symmetry_space_group_name_H-M "P -1"
_symmetry_group_IT_number 2
_symmetry_cell_setting 'triclinic'
loop_
_space_group_symop_operation_xyz
x,y,z
-x,-y,-z
loop_
_atom_site_type_symbol
_atom_site_label
_atom_site_fract_x
_atom_site_fract_y
_atom_site_fract_z
Si Si1 0.629475 0.743056 0.974841
Si Si2 0.933639 0.835797 0.091580
Si Si3 0.003449 0.686127 0.334812
Si Si4 0.420145 0.586954 0.774752
Si Si5 0.260328 0.924572 0.191860
Si Si6 0.458128 0.048275 0.643739
Si Si7 0.746663 0.435326 0.489132
O O1 0.755378 0.682419 0.996100
O O2 0.462406 0.845311 0.115283
O O3 0.463471 0.582836 0.872495
O O4 0.864197 0.941789 0.930206
O O5 0.098303 0.783724 0.090152
O O6 0.767249 0.901463 0.242465
O O7 0.857453 0.498711 0.219744
O O8 0.822273 0.601572 0.448249
O O9 0.086233 0.893132 0.327382
O O10 0.275474 0.748861 0.319724
O O11 0.536672 0.448794 0.627365
O O12 0.590806 0.831680 0.788312
O O13 0.368971 0.812826 0.619588
O O14 0.500000 0.000000 0.500000
O O15 0.000000 0.500000 0.500000
#
# Coordination Sequence:
#
# PCOD9035428 Si02
#       7
#     2   2   2   2   2   2   2
#     4  10  22  47  77 107 145 195 244 299 363 427
#     4  10  22  45  78 106 139 198 238 294 371 421
#     4  12  27  44  74 104 149 193 239 304 365 429
#     4  11  26  46  72 109 144 193 246 296 368 432
#     4  11  24  48  76 106 148 193 242 300 363 429
#     4  12  26  48  74 105 149 189 242 301 368 432
#     4  12  26  47  72 108 145 188 243 305 359 436
#
# _framework density 27.315937000000002
#
# number of rings (size 3 to 8) (size 9 to 14) (size 15 to 20)
#    0.000    0.857    2.857    4.714    2.000    1.714 
#    2.571    0.714    0.000    0.000    0.000    0.000 
#    0.000    0.000    0.000    0.000    0.000    0.000 
#
# Total GULP energy -78406.344285 kJ/mol
# GULP energy per Si atom -5600.453163 kJ/mol
# Density = 2.725377 g / cm^3
# Si number density = 27.315937 Si / 1000 Ang^3
#
#
#
# Elastic Constant Matrix: (Units=GPa)
#
#
# Indices 1 2 3 4 5 6 
#
# 1 157.2843 35.7865 49.3999 -1.4558 30.9981 20.8032
# 2 35.7865 135.2095 38.8484 -5.4329 11.7344 10.0194
# 3 49.3999 38.8484 126.9567 -17.0550 15.1622 2.4726
# 4 -1.4558 -5.4329 -17.0550 48.1081 -8.9219 11.6517
# 5 30.9981 11.7344 15.1622 -8.9219 58.5779 0.7056
# 6 20.8032 10.0194 2.4726 11.6517 0.7056 60.2948
#
#
#
# Elastic Compliance Matrix: (Units=1/GPa)
#
#
# Indices 1 2 3 4 5 6 
#
# 1 0.008450 -0.001023 -0.002605 -0.000882 -0.003698 -0.002425
# 2 -0.001023 0.008389 -0.002038 0.000338 -0.000548 -0.001016
# 3 -0.002605 -0.002038 0.009965 0.003108 -0.000322 0.000232
# 4 -0.000882 0.000338 0.003108 0.023585 0.003240 -0.004475
# 5 -0.003698 -0.000548 -0.000322 0.003240 0.019708 0.000523
# 6 -0.002425 -0.001016 0.000232 -0.004475 0.000523 0.018440
#
#
# Mechanical properties :
#
#
# Convention : Reuss Voigt Hill
#
# Bulk Modulus (GPa) = 64.63032 74.16890 69.39961
# Shear Modulus (GPa) = 47.60726 53.09055 50.34891
#
# Velocity S-wave (km/s) = 4.17926 4.41338 4.29792
# Velocity P-wave (km/s) = 6.85565 7.29258 7.07749
#
# Compressibility (1/GPa) = 0.01547261
#
# Stress axis : x y z
#
# Youngs Moduli (GPa) = 118.34294 119.20705 100.34795
#
# Poissons Ratio (x) = 0.12195 0.26136
# Poissons Ratio (y) = 0.12106 0.20453
# Poissons Ratio (z) = 0.30823 0.24297
#
# Static dielectric constant tensor:
#      x y z
#    x 2.119870 0.026900 0.062010 
#    y 0.026900 2.153150 0.006830 
#    z 0.062010 0.006830 2.067220 
# 
# From -- ./inp_files/500792.got.cif
#   From: 2010.05.17/outbox.cif.g08.bks.cpg/sg2_251_cif.got.tgz:500792.got - 2010.06.03 11:33:40.
