data_PCOD9035255
_publ_section_title
;
Structure prediction by ZEFSAII (Michael W. Deem and Ramdas Pophale) SiO2 
 PCOD9035255
Probable space group: P -1
;
_chemical_formula_sum "Si O2"
_cell_formula_units_Z 16
_cell_length_a 23.982284
_cell_length_b 10.662649
_cell_length_c 5.060623
_cell_angle_alpha 111.793538
_cell_angle_beta 75.369386
_cell_angle_gamma 150.277180
_cell_volume 588.857823
_symmetry_space_group_name_H-M "P -1"
_symmetry_group_IT_number 2
_symmetry_cell_setting 'triclinic'
loop_
_space_group_symop_operation_xyz
x,y,z
-x,-y,-z
loop_
_atom_site_type_symbol
_atom_site_label
_atom_site_fract_x
_atom_site_fract_y
_atom_site_fract_z
Si Si1 0.347115 0.703397 0.731376
Si Si2 0.086296 0.996238 0.819214
Si Si3 0.139170 0.367207 0.385117
Si Si4 0.338006 0.902152 0.274954
Si Si5 0.709266 0.955983 0.871195
Si Si6 0.040850 0.500544 0.198737
Si Si7 0.693943 0.749158 0.248494
Si Si8 0.472323 0.736515 0.321436
O O1 0.217535 0.474928 0.618101
O O2 0.382084 0.624813 0.542089
O O3 0.439557 0.976889 0.676410
O O4 0.361673 0.793552 0.076324
O O5 0.989874 0.837963 0.590217
O O6 0.012310 0.754496 0.918007
O O7 0.196316 0.125810 0.728540
O O8 0.125346 0.211319 0.084969
O O9 0.219517 0.644326 0.372479
O O10 0.341248 0.997649 0.078780
O O11 0.437759 0.165929 0.537555
O O12 0.826947 0.222559 0.789890
O O13 0.655728 0.741444 0.560788
O O14 0.722657 0.919824 0.116850
O O15 0.000000 0.500000 0.500000
O O16 0.000000 0.500000 0.000000
O O17 0.597550 0.471497 0.992372
#
# Coordination Sequence:
#
# PCOD9035255 Si02
#       8
#     2   2   2   2   2   2   2   2
#     4  10  22  45  72  99 137 186 233 298 364 421
#     4  11  22  44  69 102 144 181 238 294 356 424
#     4  10  23  43  68 105 139 180 234 302 358 416
#     4  11  25  43  72 102 142 185 241 292 359 425
#     4  12  27  45  72 104 145 195 235 293 351 422
#     4  12  23  44  70  98 139 193 235 280 345 422
#     4  12  27  47  73 106 147 188 242 290 352 427
#     4  10  24  45  71 101 138 184 238 296 359 423
#
# _framework density 27.171246
#
# number of rings (size 3 to 8) (size 9 to 14) (size 15 to 20)
#    0.000    1.000    5.000    0.375    5.250    3.000 
#    4.500    1.250    0.000    0.000    0.000    0.000 
#    0.000    0.000    0.000    0.000    0.000    0.000 
#
# Total GULP energy -89553.086743 kJ/mol
# GULP energy per Si atom -5597.067921 kJ/mol
# Density = 2.710940 g / cm^3
# Si number density = 27.171246 Si / 1000 Ang^3
#
#
#
# Elastic Constant Matrix: (Units=GPa)
#
#
# Indices 1 2 3 4 5 6 
#
# 1 127.2821 40.1021 47.7019 13.9934 1.8537 5.2432
# 2 40.1021 144.7529 33.9220 26.3336 10.4759 8.3636
# 3 47.7019 33.9220 132.2275 9.4769 7.6104 17.9757
# 4 13.9934 26.3336 9.4769 46.3892 1.2051 5.8708
# 5 1.8537 10.4759 7.6104 1.2051 36.5123 3.2174
# 6 5.2432 8.3636 17.9757 5.8708 3.2174 41.3887
#
#
#
# Elastic Compliance Matrix: (Units=1/GPa)
#
#
# Indices 1 2 3 4 5 6 
#
# 1 0.009684 -0.001801 -0.003054 -0.001369 0.000653 0.000607
# 2 -0.001801 0.008553 -0.001104 -0.003997 -0.001974 -0.000300
# 3 -0.003054 -0.001104 0.009477 0.000076 -0.001204 -0.003423
# 4 -0.001369 -0.003997 0.000076 0.024534 0.000618 -0.002580
# 5 0.000653 -0.001974 -0.001204 0.000618 0.028279 -0.001447
# 6 0.000607 -0.000300 -0.003423 -0.002580 -0.001447 0.026110
#
#
# Mechanical properties :
#
#
# Convention : Reuss Voigt Hill
#
# Bulk Modulus (GPa) = 63.29795 71.96830 67.63313
# Shear Modulus (GPa) = 40.38123 43.69380 42.03752
#
# Velocity S-wave (km/s) = 3.85928 4.01445 3.93763
# Velocity P-wave (km/s) = 6.57307 6.93053 6.75416
#
# Compressibility (1/GPa) = 0.01579830
#
# Stress axis : x y z
#
# Youngs Moduli (GPa) = 103.25974 116.91447 105.52142
#
# Poissons Ratio (x) = 0.21051 0.32223
# Poissons Ratio (y) = 0.18593 0.11647
# Poissons Ratio (z) = 0.31532 0.12904
#
# Static dielectric constant tensor:
#      x y z
#    x 2.591900 0.314000 0.050010 
#    y 0.314000 2.450750 0.086030 
#    z 0.050010 0.086030 2.068200 
# 
# From -- ./inp_files/126886.got.cif
#   From: 2010.05.17/outbox.cif.g08.bks.cpg/sg2_64_cif.got.tgz:126886.got - 2010.06.03 11:33:40.
