data_PCOD9035266
_publ_section_title
;
Structure prediction by ZEFSAII (Michael W. Deem and Ramdas Pophale) SiO2 
 PCOD9035266
Probable space group: P -1
;
_chemical_formula_sum "Si O2"
_cell_formula_units_Z 14
_cell_length_a 7.646811
_cell_length_b 17.795487
_cell_length_c 11.512768
_cell_angle_alpha 149.858940
_cell_angle_beta 119.225250
_cell_angle_gamma 52.848312
_cell_volume 624.728203
_symmetry_space_group_name_H-M "P -1"
_symmetry_group_IT_number 2
_symmetry_cell_setting 'triclinic'
loop_
_space_group_symop_operation_xyz
x,y,z
-x,-y,-z
loop_
_atom_site_type_symbol
_atom_site_label
_atom_site_fract_x
_atom_site_fract_y
_atom_site_fract_z
Si Si1 0.822615 0.695622 0.210977
Si Si2 0.936186 0.153600 0.099265
Si Si3 0.732410 0.497918 0.091743
Si Si4 0.576882 0.748251 0.960131
Si Si5 0.918540 0.141600 0.564155
Si Si6 0.323978 0.013810 0.859425
Si Si7 0.027859 0.527978 0.412592
O O1 0.899952 0.843999 0.445639
O O2 0.712932 0.667730 0.254255
O O3 0.665030 0.729192 0.094201
O O4 0.000000 0.500000 0.000000
O O5 0.675456 0.224551 0.086803
O O6 0.991960 0.289654 0.364615
O O7 0.086484 0.109568 0.973062
O O8 0.000000 0.000000 0.000000
O O9 0.877355 0.314229 0.843302
O O10 0.500000 0.500000 0.000000
O O11 0.834404 0.497374 0.247607
O O12 0.741639 0.590428 0.729518
O O13 0.614439 0.893204 0.099826
O O14 0.717865 0.133857 0.414397
O O15 0.000000 0.000000 0.500000
O O16 0.500000 0.000000 0.000000
O O17 0.000000 0.500000 0.500000
#
# Coordination Sequence:
#
# PCOD9035266 Si02
#       7
#     2   2   2   2   2   2   2
#     4  10  22  45  73 101 146 191 247 301 368 438
#     4  12  29  45  74 111 147 196 248 306 382 441
#     4  11  27  45  74 109 145 195 255 304 375 445
#     4  12  24  49  76 110 148 202 251 306 373 451
#     4  11  23  46  75 100 144 195 244 306 374 441
#     4  12  26  47  74 111 157 190 247 314 382 445
#     4  12  26  48  74 107 154 196 249 309 373 444
#
# _framework density 22.409745000000001
#
# number of rings (size 3 to 8) (size 9 to 14) (size 15 to 20)
#    0.000    0.571    7.143    0.429    6.000    0.000 
#    2.571    1.429    0.000    0.000    0.000    0.000 
#    0.000    0.000    0.000    0.000    0.000    0.000 
#
# Total GULP energy -78072.554573 kJ/mol
# GULP energy per Si atom -5576.611041 kJ/mol
# Density = 2.235874 g / cm^3
# Si number density = 22.409745 Si / 1000 Ang^3
#
#
#
# Elastic Constant Matrix: (Units=GPa)
#
#
# Indices 1 2 3 4 5 6 
#
# 1 89.6307 36.6888 21.9559 -15.3889 21.1931 -1.4983
# 2 36.6888 144.3495 60.5915 -25.4787 18.9379 13.0768
# 3 21.9559 60.5915 142.8543 -19.3363 36.8609 8.6873
# 4 -15.3889 -25.4787 -19.3363 49.9323 6.7462 12.6074
# 5 21.1931 18.9379 36.8609 6.7462 35.0588 1.7917
# 6 -1.4983 13.0768 8.6873 12.6074 1.7917 41.1305
#
#
#
# Elastic Compliance Matrix: (Units=1/GPa)
#
#
# Indices 1 2 3 4 5 6 
#
# 1 0.015357 -0.002219 0.002589 0.006408 -0.012004 -0.000723
# 2 -0.002219 0.010037 -0.002427 0.004849 -0.002250 -0.004148
# 3 0.002589 -0.002427 0.012641 0.007310 -0.014778 -0.003401
# 4 0.006408 0.004849 0.007310 0.033058 -0.019921 -0.012118
# 5 -0.012004 -0.002250 -0.014778 -0.019921 0.056005 0.007066
# 6 -0.000723 -0.004148 -0.003401 -0.012118 0.007066 0.029730
#
#
# Mechanical properties :
#
#
# Convention : Reuss Voigt Hill
#
# Bulk Modulus (GPa) = 29.47899 68.36743 48.92321
# Shear Modulus (GPa) = 29.02774 42.39755 35.71265
#
# Velocity S-wave (km/s) = 3.60296 4.35435 3.99635
# Velocity P-wave (km/s) = 5.52191 7.47359 6.57062
#
# Compressibility (1/GPa) = 0.03392246
#
# Stress axis : x y z
#
# Youngs Moduli (GPa) = 65.11622 99.62947 79.10695
#
# Poissons Ratio (x) = 0.22106 -0.20484
# Poissons Ratio (y) = 0.14448 0.19200
# Poissons Ratio (z) = -0.16861 0.24181
#
# Static dielectric constant tensor:
#      x y z
#    x 2.443850 0.152440 0.006480 
#    y 0.152440 1.788140 -0.010120 
#    z 0.006480 -0.010120 1.745350 
# 
# From -- ./inp_files/402550.got.cif
#   From: 2010.05.17/outbox.cif.g08.bks.cpg/sg2_202_cif.got.tgz:402550.got - 2010.06.03 11:33:40.
