data_PCOD9035086
_publ_section_title
;
Structure prediction by ZEFSAII (Michael W. Deem and Ramdas Pophale) SiO2 
 PCOD9035086
Probable space group: P -1
;
_chemical_formula_sum "Si O2"
_cell_formula_units_Z 16
_cell_length_a 12.831727
_cell_length_b 11.019209
_cell_length_c 12.581374
_cell_angle_alpha 58.223591
_cell_angle_beta 32.551389
_cell_angle_gamma 80.083355
_cell_volume 654.639943
_symmetry_space_group_name_H-M "P -1"
_symmetry_group_IT_number 2
_symmetry_cell_setting 'triclinic'
loop_
_space_group_symop_operation_xyz
x,y,z
-x,-y,-z
loop_
_atom_site_type_symbol
_atom_site_label
_atom_site_fract_x
_atom_site_fract_y
_atom_site_fract_z
Si Si1 0.056660 0.005171 0.093585
Si Si2 0.992504 0.699824 0.972506
Si Si3 0.844493 0.334144 0.357821
Si Si4 0.649213 0.258556 0.788441
Si Si5 0.504981 0.973926 0.342938
Si Si6 0.559956 0.721682 0.719113
Si Si7 0.852144 0.069192 0.721514
Si Si8 0.337406 0.356029 0.101944
O O1 0.092247 0.002996 0.191788
O O2 0.780419 0.835125 0.396456
O O3 0.099560 0.191371 0.954462
O O4 0.238721 0.986086 0.881761
O O5 0.974231 0.675971 0.870029
O O6 0.872188 0.507212 0.211171
O O7 0.285984 0.832678 0.675634
O O8 0.813245 0.338932 0.506662
O O9 0.598628 0.145434 0.620150
O O10 0.790984 0.201343 0.759687
O O11 0.571119 0.373964 0.850644
O O12 0.385894 0.083972 0.063846
O O13 0.511224 0.147729 0.251799
O O14 0.649438 0.673538 0.769044
O O15 0.348686 0.519386 0.966845
O O16 0.068524 0.177475 0.400380
#
# Coordination Sequence:
#
# PCOD9035086 Si02
#       8
#     2   2   2   2   2   2   2   2
#     4  10  17  32  58  78 101 137 172 214 257 305
#     4   8  18  33  50  78 107 128 171 217 260 300
#     4   9  18  35  50  77 109 135 162 220 258 302
#     4  11  21  34  51  76 113 139 167 205 257 321
#     4   9  16  32  52  75 101 131 168 214 257 296
#     4   9  20  34  52  74 106 135 181 215 244 297
#     4  10  21  33  51  78 107 141 164 205 265 308
#     4  10  21  35  50  75 104 145 174 210 250 303
#
# _framework density 24.440918
#
# number of rings (size 3 to 8) (size 9 to 14) (size 15 to 20)
#    0.750    1.750    1.250    1.125    1.750    2.500 
#    0.000    3.750    0.000    3.000    0.000    5.250 
#    0.000    0.000    0.000    0.000    0.000    0.000 
#
# Total GULP energy -89152.475521 kJ/mol
# GULP energy per Si atom -5572.029720 kJ/mol
# Density = 2.438529 g / cm^3
# Si number density = 24.440918 Si / 1000 Ang^3
#
#
#
# Elastic Constant Matrix: (Units=GPa)
#
#
# Indices 1 2 3 4 5 6 
#
# 1 38.2096 21.2096 21.1047 -3.0573 12.9544 0.0289
# 2 21.2096 180.0975 76.3648 -9.2131 4.8873 -28.1572
# 3 21.1047 76.3648 47.6319 -2.4377 3.4407 -14.1021
# 4 -3.0573 -9.2131 -2.4377 40.4427 -7.3642 1.1853
# 5 12.9544 4.8873 3.4407 -7.3642 21.5711 0.3472
# 6 0.0289 -28.1572 -14.1021 1.1853 0.3472 17.9372
#
#
#
# Elastic Compliance Matrix: (Units=1/GPa)
#
#
# Indices 1 2 3 4 5 6 
#
# 1 0.053619 0.009651 -0.042549 -0.000815 -0.027592 -0.017800
# 2 0.009651 0.020008 -0.034761 0.002338 -0.004051 0.003988
# 3 -0.042549 -0.034761 0.101820 -0.002867 0.015800 0.025435
# 4 -0.000815 0.002338 -0.002867 0.026783 0.009569 -0.000537
# 5 -0.027592 -0.004051 0.015800 0.009569 0.064525 0.004226
# 6 -0.017800 0.003988 0.025435 -0.000537 0.004226 0.081989
#
#
# Mechanical properties :
#
#
# Convention : Reuss Voigt Hill
#
# Bulk Modulus (GPa) = 24.91990 55.92190 40.42090
# Shear Modulus (GPa) = 10.05150 25.80752 17.92951
#
# Velocity S-wave (km/s) = 2.03015 3.25301 2.71142
# Velocity P-wave (km/s) = 3.96402 6.08601 5.13580
#
# Compressibility (1/GPa) = 0.04012858
#
# Stress axis : x y z
#
# Youngs Moduli (GPa) = 18.65024 49.97897 9.82129
#
# Poissons Ratio (x) = -0.48235 0.41788
# Poissons Ratio (y) = -0.17999 0.34140
# Poissons Ratio (z) = 0.79354 1.73734
#
# Static dielectric constant tensor:
#      x y z
#    x 2.117080 0.059820 -0.132400 
#    y 0.059820 2.010020 -0.046980 
#    z -0.132400 -0.046980 2.029120 
# 
# From -- ./inp_files/532395.got.cif
#   From: 2010.05.17/outbox.cif.g08.bks.cpg/sg2_267_cif.got.tgz:532395.got - 2010.06.03 11:33:40.
