data_PCOD9035437
_publ_section_title
;
Structure prediction by ZEFSAII (Michael W. Deem and Ramdas Pophale) SiO2 
 PCOD9035437
Probable space group: P -1
;
_chemical_formula_sum "Si O2"
_cell_formula_units_Z 12
_cell_length_a 8.929341
_cell_length_b 16.040161
_cell_length_c 10.148113
_cell_angle_alpha 144.246019
_cell_angle_beta 148.411604
_cell_angle_gamma 48.765331
_cell_volume 442.406678
_symmetry_space_group_name_H-M "P -1"
_symmetry_group_IT_number 2
_symmetry_cell_setting 'triclinic'
loop_
_space_group_symop_operation_xyz
x,y,z
-x,-y,-z
loop_
_atom_site_type_symbol
_atom_site_label
_atom_site_fract_x
_atom_site_fract_y
_atom_site_fract_z
Si Si1 0.183069 0.387200 0.742583
Si Si2 0.145411 0.352399 0.389602
Si Si3 0.048410 0.124976 0.593855
Si Si4 0.526908 0.360303 0.241883
Si Si5 0.843040 0.039467 0.797634
Si Si6 0.255733 0.607221 0.243173
O O1 0.300861 0.338614 0.632685
O O2 0.000000 0.500000 0.500000
O O3 0.851465 0.328050 0.427882
O O4 0.381126 0.371209 0.999857
O O5 0.394097 0.371625 0.490740
O O6 0.936626 0.205129 0.039517
O O7 0.842690 0.442651 0.041217
O O8 0.062706 0.059584 0.376377
O O9 0.000000 0.000000 0.500000
O O10 0.816879 0.237575 0.574278
O O11 0.340523 0.221428 0.975907
O O12 0.500000 0.000000 0.500000
O O13 0.000000 0.000000 0.000000
O O14 0.500000 0.500000 0.500000
O O15 0.000000 0.500000 0.000000
#
# Coordination Sequence:
#
# PCOD9035437 Si02
#       6
#     2   2   2   2   2   2
#     4  10  22  45  80 113 158 206 274 332 403 481
#     4  12  24  48  83 119 163 215 282 338 404 496
#     4  12  29  54  82 123 171 217 277 349 419 498
#     4  10  23  49  76 113 157 214 271 328 411 482
#     4  12  32  59  84 118 173 229 274 338 429 506
#     4  10  26  46  80 121 160 211 276 343 414 483
#
# _framework density 27.124365000000001
#
# number of rings (size 3 to 8) (size 9 to 14) (size 15 to 20)
#    1.000    0.000    1.667    3.000    4.667    1.333 
#    6.000    0.000    0.000    0.000    0.000    0.000 
#    0.000    0.000    0.000    0.000    0.000    0.000 
#
# Total GULP energy -66984.836864 kJ/mol
# GULP energy per Si atom -5582.069739 kJ/mol
# Density = 2.706263 g / cm^3
# Si number density = 27.124365 Si / 1000 Ang^3
#
#
#
# Elastic Constant Matrix: (Units=GPa)
#
#
# Indices 1 2 3 4 5 6 
#
# 1 229.6296 103.5890 102.2478 12.1250 0.4492 3.6988
# 2 103.5890 205.9957 102.5449 45.3160 22.9142 0.7844
# 3 102.2478 102.5449 215.7519 8.9873 17.4928 12.6870
# 4 12.1250 45.3160 8.9873 56.4276 3.9898 -8.1104
# 5 0.4492 22.9142 17.4928 3.9898 71.9808 3.4967
# 6 3.6988 0.7844 12.6870 -8.1104 3.4967 49.0485
#
#
#
# Elastic Compliance Matrix: (Units=1/GPa)
#
#
# Indices 1 2 3 4 5 6 
#
# 1 0.006307 -0.002556 -0.001917 0.000938 0.001182 0.000132
# 2 -0.002556 0.009031 -0.002664 -0.006169 -0.001862 -0.000150
# 3 -0.001917 -0.002664 0.006899 0.001321 -0.000826 -0.001320
# 4 0.000938 -0.006169 0.001321 0.022742 0.000210 0.003432
# 5 0.001182 -0.001862 -0.000826 0.000210 0.014709 -0.000860
# 6 0.000132 -0.000150 -0.001320 0.003432 -0.000860 0.021351
#
#
# Mechanical properties :
#
#
# Convention : Reuss Voigt Hill
#
# Bulk Modulus (GPa) = 125.57689 140.90451 133.24070
# Shear Modulus (GPa) = 51.03719 58.35776 54.69747
#
# Velocity S-wave (km/s) = 4.34245 4.64345 4.49547
# Velocity P-wave (km/s) = 8.45811 8.98939 8.72780
#
# Compressibility (1/GPa) = 0.00796325
#
# Stress axis : x y z
#
# Youngs Moduli (GPa) = 158.54270 110.73353 144.94220
#
# Poissons Ratio (x) = 0.28301 0.27787
# Poissons Ratio (y) = 0.40520 0.38616
# Poissons Ratio (z) = 0.30394 0.29502
#
# Static dielectric constant tensor:
#      x y z
#    x 2.044980 0.174380 -0.106560 
#    y 0.174380 2.247120 -0.011600 
#    z -0.106560 -0.011600 2.152650 
# 
# From -- ./inp_files/428828.got.cif
#   From: 2010.05.17/outbox.cif.g08.bks.cpg/sg2_215_cif.got.tgz:428828.got - 2010.06.03 11:33:40.
