data_PCOD9035135
_publ_section_title
;
Structure prediction by ZEFSAII (Michael W. Deem and Ramdas Pophale) SiO2 
 PCOD9035135
Probable space group: P -1
;
_chemical_formula_sum "Si O2"
_cell_formula_units_Z 16
_cell_length_a 13.275146
_cell_length_b 5.364925
_cell_length_c 11.710315
_cell_angle_alpha 50.751531
_cell_angle_beta 107.806808
_cell_angle_gamma 92.363745
_cell_volume 601.673674
_symmetry_space_group_name_H-M "P -1"
_symmetry_group_IT_number 2
_symmetry_cell_setting 'triclinic'
loop_
_space_group_symop_operation_xyz
x,y,z
-x,-y,-z
loop_
_atom_site_type_symbol
_atom_site_label
_atom_site_fract_x
_atom_site_fract_y
_atom_site_fract_z
Si Si1 0.628497 0.519483 0.671181
Si Si2 0.537790 0.129862 0.323234
Si Si3 0.799126 0.547370 0.159650
Si Si4 0.921236 0.445502 0.589171
Si Si5 0.853810 0.616212 0.746675
Si Si6 0.915546 0.138532 0.106467
Si Si7 0.741789 0.311605 0.441667
Si Si8 0.445387 0.102899 0.074228
O O1 0.578923 0.751971 0.693501
O O2 0.757389 0.421387 0.740946
O O3 0.585281 0.749194 0.481674
O O4 0.582030 0.201366 0.774029
O O5 0.618686 0.326463 0.359921
O O6 0.526798 0.213337 0.161924
O O7 0.854569 0.339595 0.132719
O O8 0.801136 0.322492 0.337851
O O9 0.852132 0.858010 0.122109
O O10 0.673065 0.679638 0.049652
O O11 0.926523 0.627137 0.657275
O O12 0.798856 0.549461 0.468526
O O13 0.000000 0.500000 0.500000
O O14 0.968242 0.065460 0.752883
O O15 0.779378 0.977063 0.622146
O O16 0.917145 0.398330 0.930995
O O17 0.500000 0.000000 0.000000
#
# Coordination Sequence:
#
# PCOD9035135 Si02
#       8
#     2   2   2   2   2   2   2   2
#     4  10  22  45  71 106 152 200 252 314 389 462
#     4  10  24  44  72 108 154 201 260 315 389 463
#     4  12  28  49  80 113 161 205 263 319 401 465
#     4  12  27  50  79 109 154 202 269 325 407 460
#     4  11  26  46  80 114 150 205 261 329 392 473
#     4  12  28  51  80 113 157 206 262 332 389 466
#     4  11  27  46  76 108 154 207 265 319 394 471
#     4  12  26  42  77 110 158 204 255 316 392 466
#
# _framework density 26.592486000000001
#
# number of rings (size 3 to 8) (size 9 to 14) (size 15 to 20)
#    0.000    0.750    2.500    3.000    5.250    8.500 
#    0.000    0.000    0.000    0.000    0.000    0.000 
#    0.000    0.000    0.000    0.000    0.000    0.000 
#
# Total GULP energy -89552.914720 kJ/mol
# GULP energy per Si atom -5597.057170 kJ/mol
# Density = 2.653196 g / cm^3
# Si number density = 26.592486 Si / 1000 Ang^3
#
#
#
# Elastic Constant Matrix: (Units=GPa)
#
#
# Indices 1 2 3 4 5 6 
#
# 1 109.8213 39.7810 39.2113 22.4307 13.7024 3.2606
# 2 39.7810 97.5021 35.1076 23.8343 16.5294 1.2920
# 3 39.2113 35.1076 193.4091 18.8103 6.1594 9.0882
# 4 22.4307 23.8343 18.8103 51.6767 6.4021 -3.9516
# 5 13.7024 16.5294 6.1594 6.4021 51.7181 0.3647
# 6 3.2606 1.2920 9.0882 -3.9516 0.3647 44.4347
#
#
#
# Elastic Compliance Matrix: (Units=1/GPa)
#
#
# Indices 1 2 3 4 5 6 
#
# 1 0.011580 -0.003253 -0.001395 -0.002887 -0.001500 -0.000714
# 2 -0.003253 0.013512 -0.001303 -0.004016 -0.002803 -0.000222
# 3 -0.001395 -0.001303 0.005837 -0.001034 0.000227 -0.001147
# 4 -0.002887 -0.004016 -0.001034 0.023119 -0.000709 0.002602
# 5 -0.001500 -0.002803 0.000227 -0.000709 0.020690 -0.000088
# 6 -0.000714 -0.000222 -0.001147 0.002602 -0.000088 0.023031
#
#
# Mechanical properties :
#
#
# Convention : Reuss Voigt Hill
#
# Bulk Modulus (GPa) = 52.55600 69.88134 61.21867
# Shear Modulus (GPa) = 43.09816 48.67473 45.88644
#
# Velocity S-wave (km/s) = 4.03015 4.28295 4.15847
# Velocity P-wave (km/s) = 6.43914 7.12698 6.79177
#
# Compressibility (1/GPa) = 0.01902732
#
# Stress axis : x y z
#
# Youngs Moduli (GPa) = 86.35453 74.00678 171.32057
#
# Poissons Ratio (x) = 0.24074 0.23902
# Poissons Ratio (y) = 0.28090 0.22324
# Poissons Ratio (z) = 0.12048 0.09643
#
# Static dielectric constant tensor:
#      x y z
#    x 2.088920 0.128540 -0.005960 
#    y 0.128540 2.293150 -0.017250 
#    z -0.005960 -0.017250 2.029890 
# 
# From -- ./inp_files/441578.got.cif
#   From: 2010.05.17/outbox.cif.g08.bks.cpg/sg2_221_cif.got.tgz:441578.got - 2010.06.03 11:33:40.
