data_PCOD9035129
_publ_section_title
;
Structure prediction by ZEFSAII (Michael W. Deem and Ramdas Pophale) SiO2 
 PCOD9035129
Probable space group: P -1
;
_chemical_formula_sum "Si O2"
_cell_formula_units_Z 14
_cell_length_a 5.425695
_cell_length_b 9.101198
_cell_length_c 12.045178
_cell_angle_alpha 54.806256
_cell_angle_beta 87.077500
_cell_angle_gamma 87.079216
_cell_volume 485.269217
_symmetry_space_group_name_H-M "P -1"
_symmetry_group_IT_number 2
_symmetry_cell_setting 'triclinic'
loop_
_space_group_symop_operation_xyz
x,y,z
-x,-y,-z
loop_
_atom_site_type_symbol
_atom_site_label
_atom_site_fract_x
_atom_site_fract_y
_atom_site_fract_z
Si Si1 0.299074 0.601109 0.301039
Si Si2 0.353789 0.479697 0.860166
Si Si3 0.340197 0.932248 0.802976
Si Si4 0.896361 0.205237 0.392235
Si Si5 0.847914 0.718644 0.863080
Si Si6 0.883534 0.831164 0.133152
Si Si7 0.534596 0.732161 0.456235
O O1 0.400476 0.598206 0.173437
O O2 0.497183 0.650567 0.369642
O O3 0.267403 0.394454 0.428040
O O4 0.071867 0.739117 0.256616
O O5 0.316627 0.684299 0.729765
O O6 0.172228 0.338486 0.867458
O O7 0.245741 0.464544 0.994432
O O8 0.081807 0.830202 0.853198
O O9 0.596589 0.827557 0.848028
O O10 0.343434 0.064221 0.851082
O O11 0.357630 0.069834 0.639778
O O12 0.107514 0.281505 0.270086
O O13 0.736632 0.253394 0.486628
O O14 0.000000 0.000000 0.500000
O O15 0.000000 0.000000 0.000000
#
# Coordination Sequence:
#
# PCOD9035129 Si02
#       7
#     2   2   2   2   2   2   2
#     4  10  23  44  68 107 152 181 251 308 375 446
#     4  11  25  45  73 109 144 193 245 306 377 434
#     4  12  25  44  77 107 147 194 243 302 372 437
#     4  11  25  49  74 101 148 201 252 303 360 445
#     4  12  27  49  73 110 152 195 249 302 363 450
#     4  12  24  40  71 111 144 192 235 314 378 445
#     4  10  22  45  71 105 143 201 240 310 374 438
#
# _framework density 28.849964
#
# number of rings (size 3 to 8) (size 9 to 14) (size 15 to 20)
#    0.000    0.857    4.286    2.143    0.000    3.429 
#    5.143    1.429    0.000    0.000    0.000    0.000 
#    0.000    0.000    0.000    0.000    0.000    0.000 
#
# Total GULP energy -78003.592693 kJ/mol
# GULP energy per Si atom -5571.685192 kJ/mol
# Density = 2.878430 g / cm^3
# Si number density = 28.849964 Si / 1000 Ang^3
#
#
#
# Elastic Constant Matrix: (Units=GPa)
#
#
# Indices 1 2 3 4 5 6 
#
# 1 106.8341 46.1439 31.5695 -4.5210 -26.7164 -21.0063
# 2 46.1439 138.1494 44.5579 3.1578 -0.6555 -24.9899
# 3 31.5695 44.5579 163.2710 -10.5852 -26.6015 14.0072
# 4 -4.5210 3.1578 -10.5852 67.4815 -14.9829 -1.9327
# 5 -26.7164 -0.6555 -26.6015 -14.9829 41.1994 -0.9881
# 6 -21.0063 -24.9899 14.0072 -1.9327 -0.9881 50.3809
#
#
#
# Elastic Compliance Matrix: (Units=1/GPa)
#
#
# Indices 1 2 3 4 5 6 
#
# 1 0.015042 -0.004197 -0.000101 0.003786 0.011109 0.004581
# 2 -0.004197 0.010575 -0.003514 -0.002451 -0.005611 0.004268
# 3 -0.000101 -0.003514 0.008671 0.002828 0.006411 -0.003961
# 4 0.003786 -0.002451 0.002828 0.018046 0.010816 0.000481
# 5 0.011109 -0.005611 0.006411 0.010816 0.039490 0.001256
# 6 0.004581 0.004268 -0.003961 0.000481 0.001256 0.025021
#
#
# Mechanical properties :
#
#
# Convention : Reuss Voigt Hill
#
# Bulk Modulus (GPa) = 53.57562 72.53301 63.05432
# Shear Modulus (GPa) = 36.05191 50.87791 43.46491
#
# Velocity S-wave (km/s) = 3.53885 4.20400 3.88569
# Velocity P-wave (km/s) = 5.94211 6.98290 6.48342
#
# Compressibility (1/GPa) = 0.01866521
#
# Stress axis : x y z
#
# Youngs Moduli (GPa) = 66.48122 94.56065 115.32859
#
# Poissons Ratio (x) = 0.39686 0.01160
# Poissons Ratio (y) = 0.27902 0.40525
# Poissons Ratio (z) = 0.00669 0.33227
#
# Static dielectric constant tensor:
#      x y z
#    x 2.450670 0.085740 0.069280 
#    y 0.085740 2.326540 -0.021060 
#    z 0.069280 -0.021060 2.626990 
# 
# From -- ./inp_files/482514.got.cif
#   From: 2010.05.17/outbox.cif.g08.bks.cpg/sg2_242_cif.got.tgz:482514.got - 2010.06.03 11:33:40.
