data_PCOD9035145
_publ_section_title
;
Structure prediction by ZEFSAII (Michael W. Deem and Ramdas Pophale) SiO2 
 PCOD9035145
Probable space group: P -1
;
_chemical_formula_sum "Si O2"
_cell_formula_units_Z 16
_cell_length_a 11.002692
_cell_length_b 10.974847
_cell_length_c 9.314195
_cell_angle_alpha 82.013673
_cell_angle_beta 129.594995
_cell_angle_gamma 119.632540
_cell_volume 726.790270
_symmetry_space_group_name_H-M "P -1"
_symmetry_group_IT_number 2
_symmetry_cell_setting 'triclinic'
loop_
_space_group_symop_operation_xyz
x,y,z
-x,-y,-z
loop_
_atom_site_type_symbol
_atom_site_label
_atom_site_fract_x
_atom_site_fract_y
_atom_site_fract_z
Si Si1 0.350428 0.449076 0.023500
Si Si2 0.939856 0.642301 0.390364
Si Si3 0.110996 0.096674 0.702550
Si Si4 0.545326 0.857273 0.195960
Si Si5 0.333451 0.810588 0.776204
Si Si6 0.595389 0.749657 0.544041
Si Si7 0.294439 0.140055 0.096747
Si Si8 0.345765 0.447483 0.551448
O O1 0.294438 0.287001 0.048281
O O2 0.469425 0.536202 0.236689
O O3 0.500000 0.500000 0.000000
O O4 0.176872 0.448849 0.822773
O O5 0.962886 0.797279 0.349863
O O6 0.804911 0.582420 0.437192
O O7 0.143680 0.682993 0.582852
O O8 0.320096 0.180168 0.782799
O O9 0.133224 0.033122 0.880454
O O10 0.000000 0.000000 0.500000
O O11 0.533012 0.811610 0.357982
O O12 0.644056 0.032032 0.235963
O O13 0.363068 0.789245 0.969864
O O14 0.510990 0.833306 0.818929
O O15 0.702763 0.870638 0.728230
O O16 0.422753 0.602810 0.509078
O O17 0.717281 0.687264 0.580255
#
# Coordination Sequence:
#
# PCOD9035145 Si02
#       8
#     2   2   2   2   2   2   2   2
#     4   8  16  31  55  81 100 133 185 230 263 298
#     4  10  17  32  58  84 107 133 186 238 260 306
#     4  10  17  32  58  82 106 137 190 231 259 305
#     4  10  20  35  56  80 107 150 180 219 271 323
#     4  10  21  34  55  82 110 142 184 219 270 325
#     4  10  19  36  58  75 111 146 180 215 276 331
#     4   9  20  34  53  81 111 143 178 217 273 333
#     4   9  18  33  60  82 101 141 183 230 272 314
#
# _framework density 22.014603999999999
#
# number of rings (size 3 to 8) (size 9 to 14) (size 15 to 20)
#    0.000    2.500    2.500    0.000    1.750    0.500 
#    0.000    6.875   11.000    0.000    0.000    0.000 
#    0.000    0.000    0.000    0.000    0.000    0.000 
#
# Total GULP energy -89136.361824 kJ/mol
# GULP energy per Si atom -5571.022614 kJ/mol
# Density = 2.196450 g / cm^3
# Si number density = 22.014604 Si / 1000 Ang^3
#
#
#
# Elastic Constant Matrix: (Units=GPa)
#
#
# Indices 1 2 3 4 5 6 
#
# 1 47.8021 0.3002 40.3082 -0.0589 -0.4616 -2.0586
# 2 0.3002 41.3447 39.9406 -4.1592 0.9134 -2.2539
# 3 40.3082 39.9406 194.3437 -9.0505 -10.6111 8.7792
# 4 -0.0589 -4.1592 -9.0505 33.8780 0.3457 -4.6608
# 5 -0.4616 0.9134 -10.6111 0.3457 39.0193 2.9901
# 6 -2.0586 -2.2539 8.7792 -4.6608 2.9901 22.0259
#
#
#
# Elastic Compliance Matrix: (Units=1/GPa)
#
#
# Indices 1 2 3 4 5 6 
#
# 1 0.027702 0.007731 -0.007783 -0.000122 -0.002489 0.006795
# 2 0.007731 0.033702 -0.009003 0.003013 -0.003856 0.008921
# 3 -0.007783 -0.009003 0.009048 0.000503 0.003001 -0.005556
# 4 -0.000122 0.003013 0.000503 0.030957 -0.000726 0.006745
# 5 -0.002489 -0.003856 0.003001 -0.000726 0.026943 -0.005635
# 6 0.006795 0.008921 -0.005556 0.006745 -0.005635 0.051356
#
#
# Mechanical properties :
#
#
# Convention : Reuss Voigt Hill
#
# Bulk Modulus (GPa) = 19.10500 49.39872 34.25186
# Shear Modulus (GPa) = 23.22693 32.51408 27.87050
#
# Velocity S-wave (km/s) = 3.25171 3.84726 3.56195
# Velocity P-wave (km/s) = 4.77444 6.49792 5.70168
#
# Compressibility (1/GPa) = 0.05234231
#
# Stress axis : x y z
#
# Youngs Moduli (GPa) = 36.09822 29.67140 110.51854
#
# Poissons Ratio (x) = -0.22938 0.86015
# Poissons Ratio (y) = -0.27906 0.99499
# Poissons Ratio (z) = 0.28095 0.26713
#
# Static dielectric constant tensor:
#      x y z
#    x 1.803420 -0.017090 -0.026540 
#    y -0.017090 1.920210 0.070110 
#    z -0.026540 0.070110 1.992500 
# 
# From -- ./inp_files/234787.got.cif
#   From: 2010.05.17/outbox.cif.g08.bks.cpg/sg2_118_cif.got.tgz:234787.got - 2010.06.03 11:33:40.
