data_PCOD9035082
_publ_section_title
;
Structure prediction by ZEFSAII (Michael W. Deem and Ramdas Pophale) SiO2 
 PCOD9035082
Probable space group: P -1
;
_chemical_formula_sum "Si O2"
_cell_formula_units_Z 13
_cell_length_a 15.050579
_cell_length_b 14.944857
_cell_length_c 5.242831
_cell_angle_alpha 70.507653
_cell_angle_beta 85.553041
_cell_angle_gamma 28.971537
_cell_volume 475.425663
_symmetry_space_group_name_H-M "P -1"
_symmetry_group_IT_number 2
_symmetry_cell_setting 'triclinic'
loop_
_space_group_symop_operation_xyz
x,y,z
-x,-y,-z
loop_
_atom_site_type_symbol
_atom_site_label
_atom_site_fract_x
_atom_site_fract_y
_atom_site_fract_z
Si Si1 0.578098 0.698765 0.224028
Si Si2 0.260549 0.853629 0.999813
Si Si3 0.884029 0.181337 0.156654
Si Si4 0.684205 0.752331 0.762755
Si Si5 0.000000 0.500000 0.500000
Si Si6 0.021759 0.740180 0.624681
Si Si7 0.789417 0.825316 0.973318
O O1 0.817153 0.442533 0.461129
O O2 0.434633 0.909125 0.218773
O O3 0.446627 0.728964 0.211146
O O4 0.606998 0.729303 0.922323
O O5 0.292722 0.715646 0.023510
O O6 0.175660 0.008590 0.659600
O O7 0.060278 0.037286 0.050615
O O8 0.836166 0.323625 0.178095
O O9 0.000000 0.000000 0.500000
O O10 0.794503 0.705216 0.020499
O O11 0.834070 0.607276 0.628851
O O12 0.500000 0.000000 0.500000
O O13 0.133587 0.266927 0.669966
O O14 0.930748 0.746955 0.822411
#
# Coordination Sequence:
#
# PCOD9035082 Si02
#       7
#     2   2   2   2   1   2   2
#     4  12  25  43  68 104 134 182 234 278 342 410
#     4  10  22  45  70  99 139 175 224 287 338 409
#     4   9  20  45  73  97 138 177 217 286 347 403
#     4  12  26  44  66  98 135 185 233 282 342 403
#     4  12  26  44  72  90 142 188 226 288 346 388
#     4  11  24  43  69 101 137 179 228 282 346 401
#     4  12  26  45  65 101 144 179 235 289 335 411
#
# _framework density 27.343917000000001
#
# number of rings (size 3 to 8) (size 9 to 14) (size 15 to 20)
#    0.000    0.923    4.615    1.846    0.000    0.615 
#    5.538    6.923    0.000    0.000    0.000    0.000 
#    0.000    0.000    0.000    0.000    0.000    0.000 
#
# Total GULP energy -72550.565985 kJ/mol
# GULP energy per Si atom -5580.812768 kJ/mol
# Density = 2.728168 g / cm^3
# Si number density = 27.343917 Si / 1000 Ang^3
#
#
#
# Elastic Constant Matrix: (Units=GPa)
#
#
# Indices 1 2 3 4 5 6 
#
# 1 170.9195 39.2763 21.8530 9.8196 -14.1109 -2.4727
# 2 39.2763 149.3012 1.7428 12.4093 -9.1647 -5.4182
# 3 21.8530 1.7428 67.4845 12.4070 -38.7612 -4.6064
# 4 9.8196 12.4093 12.4070 36.4596 -12.0620 0.0695
# 5 -14.1109 -9.1647 -38.7612 -12.0620 38.1665 10.1902
# 6 -2.4727 -5.4182 -4.6064 0.0695 10.1902 36.2355
#
#
#
# Elastic Compliance Matrix: (Units=1/GPa)
#
#
# Indices 1 2 3 4 5 6 
#
# 1 0.006513 -0.001664 -0.002194 -0.000577 -0.000411 0.000033
# 2 -0.001664 0.007463 0.002359 -0.001965 0.002814 0.000515
# 3 -0.002194 0.002359 0.038058 0.000118 0.040109 -0.006239
# 4 -0.000577 -0.001965 0.000118 0.031627 0.010305 -0.003277
# 5 -0.000411 0.002814 0.040109 0.010305 0.074877 -0.015585
# 6 0.000033 0.000515 -0.006239 -0.003277 -0.015585 0.031273
#
#
# Mechanical properties :
#
#
# Convention : Reuss Voigt Hill
#
# Bulk Modulus (GPa) = 20.39320 57.04993 38.72156
# Shear Modulus (GPa) = 23.90594 43.82786 33.86690
#
# Velocity S-wave (km/s) = 2.96001 4.00789 3.52313
# Velocity P-wave (km/s) = 4.37681 6.50590 5.54451
#
# Compressibility (1/GPa) = 0.04903595
#
# Stress axis : x y z
#
# Youngs Moduli (GPa) = 153.53288 133.99921 26.27601
#
# Poissons Ratio (x) = 0.22295 0.05764
# Poissons Ratio (y) = 0.25545 -0.06197
# Poissons Ratio (z) = 0.33679 -0.31605
#
# Static dielectric constant tensor:
#      x y z
#    x 2.061860 0.075220 -0.137540 
#    y 0.075220 2.111060 -0.099930 
#    z -0.137540 -0.099930 1.882500 
# 
# From -- ./inp_files/95965.got.cif
#   From: 2010.05.17/outbox.cif.g08.bks.cpg/sg2_48_cif.got.tgz:95965.got - 2010.06.03 11:33:40.
