data_PCOD9035055
_publ_section_title
;
Structure prediction by ZEFSAII (Michael W. Deem and Ramdas Pophale) SiO2 
 PCOD9035055
Probable space group: P -1
;
_chemical_formula_sum "Si O2"
_cell_formula_units_Z 14
_cell_length_a 9.378814
_cell_length_b 29.036909
_cell_length_c 12.182757
_cell_angle_alpha 161.437991
_cell_angle_beta 37.561759
_cell_angle_gamma 140.757150
_cell_volume 639.299183
_symmetry_space_group_name_H-M "P -1"
_symmetry_group_IT_number 2
_symmetry_cell_setting 'triclinic'
loop_
_space_group_symop_operation_xyz
x,y,z
-x,-y,-z
loop_
_atom_site_type_symbol
_atom_site_label
_atom_site_fract_x
_atom_site_fract_y
_atom_site_fract_z
Si Si1 0.622476 0.815684 0.741595
Si Si2 0.403595 0.906754 0.742500
Si Si3 0.029930 0.282392 0.315492
Si Si4 0.986788 0.291239 0.898100
Si Si5 0.464279 0.173710 0.927957
Si Si6 0.104501 0.162762 0.765469
Si Si7 0.258615 0.574306 0.321622
O O1 0.381171 0.728213 0.643626
O O2 0.839957 0.765636 0.427347
O O3 0.622273 0.800625 0.837440
O O4 0.622620 0.984469 0.094563
O O5 0.614872 0.816732 0.379323
O O6 0.157224 0.825769 0.747464
O O7 0.500000 0.000000 0.000000
O O8 0.874206 0.417903 0.698163
O O9 0.277616 0.246072 0.129834
O O10 0.056608 0.258427 0.114833
O O11 0.720280 0.262741 0.956936
O O12 0.000302 0.201386 0.799518
O O13 0.085437 0.459585 0.237795
O O14 0.500000 0.000000 0.500000
O O15 0.000000 0.000000 0.500000
O O16 0.500000 0.500000 0.000000
#
# Coordination Sequence:
#
# PCOD9035055 Si02
#       7
#     2   2   2   2   2   2   2
#     4  11  22  42  68  95 131 169 218 276 322 385
#     4  12  19  36  66  96 125 165 217 277 329 367
#     4  12  25  40  62  98 133 172 218 270 324 397
#     4  11  24  42  66  94 128 173 217 270 330 381
#     4  12  27  42  62  98 140 174 210 260 337 408
#     4  12  21  37  66  96 124 162 224 275 323 379
#     4  10  22  45  70  95 124 170 231 277 319 380
#
# _framework density 21.898980000000002
#
# number of rings (size 3 to 8) (size 9 to 14) (size 15 to 20)
#    0.000    0.571    4.286    5.143    0.000    6.286 
#    0.000    2.857    0.000    0.000    0.000    0.000 
#    0.000    0.000    0.000    0.000    0.000    0.000 
#
# Total GULP energy -78060.991232 kJ/mol
# GULP energy per Si atom -5575.785088 kJ/mol
# Density = 2.184914 g / cm^3
# Si number density = 21.898980 Si / 1000 Ang^3
#
#
#
# Elastic Constant Matrix: (Units=GPa)
#
#
# Indices 1 2 3 4 5 6 
#
# 1 145.4401 65.8439 32.0401 -15.1488 -42.7417 9.4585
# 2 65.8439 135.8812 30.9183 -10.2934 -3.3242 26.6172
# 3 32.0401 30.9183 31.9429 -0.5011 -21.7256 5.5516
# 4 -15.1488 -10.2934 -0.5011 46.1993 -3.6541 -4.9921
# 5 -42.7417 -3.3242 -21.7256 -3.6541 31.9464 -9.3213
# 6 9.4585 26.6172 5.5516 -4.9921 -9.3213 39.4990
#
#
#
# Elastic Compliance Matrix: (Units=1/GPa)
#
#
# Indices 1 2 3 4 5 6 
#
# 1 0.034646 -0.029615 0.047265 0.014910 0.084986 0.026957
# 2 -0.029615 0.040045 -0.065417 -0.012364 -0.091216 -0.033788
# 3 0.047265 -0.065417 0.166012 0.023802 0.188671 0.056964
# 4 0.014910 -0.012364 0.023802 0.029042 0.042586 0.015136
# 5 0.084986 -0.091216 0.188671 0.042586 0.294825 0.089557
# 6 0.026957 -0.033788 0.056964 0.015136 0.089557 0.056672
#
#
# Mechanical properties :
#
#
# Convention : Reuss Voigt Hill
#
# Bulk Modulus (GPa) = 6.88855 63.42988 35.15921
# Shear Modulus (GPa) = 6.53453 35.82641 21.18047
#
# Velocity S-wave (km/s) = 1.72928 4.04912 3.11334
# Velocity P-wave (km/s) = 2.67201 7.13359 5.38645
#
# Compressibility (1/GPa) = 0.14516850
#
# Stress axis : x y z
#
# Youngs Moduli (GPa) = 28.86316 24.97165 6.02367
#
# Poissons Ratio (x) = 0.73954 -0.28471
# Poissons Ratio (y) = 0.85479 0.39405
# Poissons Ratio (z) = -1.36421 1.63357
#
# Static dielectric constant tensor:
#      x y z
#    x 2.009210 0.195210 -0.335050 
#    y 0.195210 1.972580 -0.292890 
#    z -0.335050 -0.292890 2.438120 
# 
# From -- ./inp_files/188613.got.cif
#   From: 2010.05.17/outbox.cif.g08.bks.cpg/sg2_95_cif.got.tgz:188613.got - 2010.06.03 11:33:40.
