data_PCOD9035792
_publ_section_title
;
Structure prediction by ZEFSAII (Michael W. Deem and Ramdas Pophale) SiO2 
 PCOD9035792
Probable space group: P -1
;
_chemical_formula_sum "Si O2"
_cell_formula_units_Z 15
_cell_length_a 12.960225
_cell_length_b 5.347373
_cell_length_c 11.198773
_cell_angle_alpha 82.300758
_cell_angle_beta 53.782039
_cell_angle_gamma 67.537540
_cell_volume 574.239644
_symmetry_space_group_name_H-M "P -1"
_symmetry_group_IT_number 2
_symmetry_cell_setting 'triclinic'
loop_
_space_group_symop_operation_xyz
x,y,z
-x,-y,-z
loop_
_atom_site_type_symbol
_atom_site_label
_atom_site_fract_x
_atom_site_fract_y
_atom_site_fract_z
Si Si1 0.256256 0.521872 0.095182
Si Si2 0.079419 0.164267 0.189941
Si Si3 0.770144 0.927788 0.520656
Si Si4 0.602381 0.314703 0.204494
Si Si5 0.391473 0.295419 0.517799
Si Si6 0.000000 0.000000 0.500000
Si Si7 0.567789 0.904869 0.831483
Si Si8 0.809796 0.255789 0.245656
O O1 0.157823 0.371894 0.125711
O O2 0.318509 0.393169 0.187936
O O3 0.181692 0.847011 0.136942
O O4 0.375598 0.479862 0.918250
O O5 0.966676 0.219110 0.158557
O O6 0.004981 0.182199 0.366860
O O7 0.770686 0.113023 0.395311
O O8 0.714493 0.714278 0.512299
O O9 0.659769 0.049753 0.695560
O O10 0.916958 0.849174 0.485874
O O11 0.490757 0.427647 0.379574
O O12 0.543484 0.126379 0.180677
O O13 0.752071 0.166425 0.173077
O O14 0.292697 0.432186 0.686352
O O15 0.500000 0.000000 0.500000
O O16 0.500000 0.000000 0.000000
#
# Coordination Sequence:
#
# PCOD9035792 Si02
#       8
#     2   2   2   2   2   1   2   2
#     4  12  27  51  72 115 150 205 251 310 380 462
#     4  11  28  48  79 107 156 197 260 312 379 450
#     4  10  23  44  73 106 148 187 254 314 379 441
#     4  11  26  44  77 105 154 195 250 313 383 453
#     4  11  24  44  73 110 146 192 248 317 376 454
#     4  10  22  46  72 106 142 202 244 314 368 442
#     4  11  25  46  76 110 151 200 250 311 382 462
#     4  11  26  47  73 112 143 198 254 317 383 447
#
# _framework density 26.121499
#
# number of rings (size 3 to 8) (size 9 to 14) (size 15 to 20)
#    0.000    1.067    2.667    1.600    5.600    8.000 
#    0.000    0.000    0.000    0.000    0.000    0.000 
#    0.000    0.000    0.000    0.000    0.000    0.000 
#
# Total GULP energy -83672.850539 kJ/mol
# GULP energy per Si atom -5578.190036 kJ/mol
# Density = 2.606205 g / cm^3
# Si number density = 26.121499 Si / 1000 Ang^3
#
#
#
# Elastic Constant Matrix: (Units=GPa)
#
#
# Indices 1 2 3 4 5 6 
#
# 1 168.0645 14.6213 -3.1991 5.3914 22.2329 10.5100
# 2 14.6213 79.7214 8.3888 -2.1130 -1.0328 -6.6691
# 3 -3.1991 8.3888 77.6532 -22.2034 5.0936 2.3260
# 4 5.3914 -2.1130 -22.2034 39.9521 2.2057 -3.8075
# 5 22.2329 -1.0328 5.0936 2.2057 41.5068 -16.5694
# 6 10.5100 -6.6691 2.3260 -3.8075 -16.5694 37.4823
#
#
#
# Elastic Compliance Matrix: (Units=1/GPa)
#
#
# Indices 1 2 3 4 5 6 
#
# 1 0.007297 -0.001964 0.000847 -0.000779 -0.006106 -0.005227
# 2 -0.001964 0.013535 -0.001850 0.000203 0.003449 0.004619
# 3 0.000847 -0.001850 0.015899 0.008609 -0.003861 -0.002385
# 4 -0.000779 0.000203 0.008609 0.030214 -0.001368 0.002185
# 5 -0.006106 0.003449 -0.003861 -0.001368 0.035171 0.017974
# 6 -0.005227 0.004619 -0.002385 0.002185 0.017974 0.037282
#
#
# Mechanical properties :
#
#
# Convention : Reuss Voigt Hill
#
# Bulk Modulus (GPa) = 32.47070 40.56235 36.51652
# Shear Modulus (GPa) = 32.13422 44.16345 38.14883
#
# Velocity S-wave (km/s) = 3.51120 4.11627 3.82571
# Velocity P-wave (km/s) = 5.37547 6.17686 5.79004
#
# Compressibility (1/GPa) = 0.03079700
#
# Stress axis : x y z
#
# Youngs Moduli (GPa) = 137.04737 73.88210 62.89737
#
# Poissons Ratio (x) = 0.14513 -0.05329
# Poissons Ratio (y) = 0.26921 0.11635
# Poissons Ratio (z) = -0.11612 0.13666
#
# Static dielectric constant tensor:
#      x y z
#    x 1.983240 -0.026100 0.007220 
#    y -0.026100 2.148000 0.107250 
#    z 0.007220 0.107250 2.112120 
# 
# From -- ./inp_files/409107.got.cif
#   From: 2010.05.17/outbox.cif.g08.bks.cpg/sg2_205_cif.got.tgz:409107.got - 2010.06.03 11:33:40.
