data_PCOD9035907
_publ_section_title
;
Structure prediction by ZEFSAII (Michael W. Deem and Ramdas Pophale) SiO2 
 PCOD9035907
Probable space group: P -1
;
_chemical_formula_sum "Si O2"
_cell_formula_units_Z 16
_cell_length_a 28.408498
_cell_length_b 5.008167
_cell_length_c 5.906520
_cell_angle_alpha 81.523189
_cell_angle_beta 61.415659
_cell_angle_gamma 53.676885
_cell_volume 583.447185
_symmetry_space_group_name_H-M "P -1"
_symmetry_group_IT_number 2
_symmetry_cell_setting 'triclinic'
loop_
_space_group_symop_operation_xyz
x,y,z
-x,-y,-z
loop_
_atom_site_type_symbol
_atom_site_label
_atom_site_fract_x
_atom_site_fract_y
_atom_site_fract_z
Si Si1 0.040094 0.030987 0.097408
Si Si2 0.314344 0.451415 0.735083
Si Si3 0.796562 0.767485 0.508237
Si Si4 0.919181 0.540037 0.559943
Si Si5 0.296810 0.451661 0.270952
Si Si6 0.838473 0.056590 0.034073
Si Si7 0.583744 0.494346 0.444046
Si Si8 0.488453 0.810567 0.239732
O O1 0.111391 0.957241 0.899924
O O2 0.985571 0.403060 0.282085
O O3 0.058049 0.745816 0.272198
O O4 0.000000 0.000000 0.000000
O O5 0.334635 0.321649 0.442619
O O6 0.337658 0.698141 0.671074
O O7 0.334492 0.295780 0.964241
O O8 0.235425 0.614360 0.891716
O O9 0.861494 0.579539 0.538028
O O10 0.760891 0.594715 0.584420
O O11 0.740864 0.145495 0.687827
O O12 0.819994 0.822027 0.209580
O O13 0.883333 0.890923 0.729020
O O14 0.557739 0.530688 0.244732
O O15 0.548039 0.367031 0.686545
O O16 0.556807 0.874638 0.523485
O O17 0.500000 0.000000 0.000000
#
# Coordination Sequence:
#
# PCOD9035907 Si02
#       8
#     2   2   2   2   2   2   2   2
#     4  11  26  43  68  98 131 181 247 308 374 451
#     4  11  26  49  75 113 153 199 251 313 379 454
#     4  11  26  44  73  99 139 191 241 306 378 450
#     4  11  24  42  69  94 132 181 243 302 377 447
#     4  11  27  46  73 107 152 195 244 302 377 447
#     4  11  25  45  67  97 143 187 237 312 378 448
#     4  10  24  43  73 116 150 201 262 306 377 450
#     4  10  22  46  75 109 157 204 252 315 368 445
#
# _framework density 27.423221000000002
#
# number of rings (size 3 to 8) (size 9 to 14) (size 15 to 20)
#    0.000    1.250    1.250    2.250   10.500    6.000 
#    0.000    0.000    0.000    0.000    0.000    0.000 
#    0.000    0.000    0.000    0.000    0.000    0.000 
#
# Total GULP energy -89505.017068 kJ/mol
# GULP energy per Si atom -5594.063567 kJ/mol
# Density = 2.736080 g / cm^3
# Si number density = 27.423221 Si / 1000 Ang^3
#
#
#
# Elastic Constant Matrix: (Units=GPa)
#
#
# Indices 1 2 3 4 5 6 
#
# 1 207.4071 29.2741 58.2973 -9.4663 -14.1367 -10.5119
# 2 29.2741 85.0909 23.2556 5.5978 7.0972 -5.1335
# 3 58.2973 23.2556 161.2946 -17.0416 6.7090 -2.8458
# 4 -9.4663 5.5978 -17.0416 35.4985 -1.1045 -2.4342
# 5 -14.1367 7.0972 6.7090 -1.1045 50.2640 -9.6785
# 6 -10.5119 -5.1335 -2.8458 -2.4342 -9.6785 41.1921
#
#
#
# Elastic Compliance Matrix: (Units=1/GPa)
#
#
# Indices 1 2 3 4 5 6 
#
# 1 0.005895 -0.001703 -0.001835 0.001163 0.002521 0.001826
# 2 -0.001703 0.013178 -0.001538 -0.003309 -0.002129 0.000406
# 3 -0.001835 -0.001538 0.007481 0.003288 -0.001273 -0.000248
# 4 0.001163 -0.003309 0.003288 0.030783 0.001470 0.002276
# 5 0.002521 -0.002129 -0.001273 0.001470 0.022183 0.005589
# 6 0.001826 0.000406 -0.000248 0.002276 0.005589 0.026224
#
#
# Mechanical properties :
#
#
# Convention : Reuss Voigt Hill
#
# Bulk Modulus (GPa) = 60.97081 75.04961 68.01021
# Shear Modulus (GPa) = 41.19874 48.25531 44.72702
#
# Velocity S-wave (km/s) = 3.88020 4.19937 4.04293
# Velocity P-wave (km/s) = 6.50816 7.13719 6.82992
#
# Compressibility (1/GPa) = 0.01640129
#
# Stress axis : x y z
#
# Youngs Moduli (GPa) = 169.63491 75.88238 133.67655
#
# Poissons Ratio (x) = 0.12924 0.24527
# Poissons Ratio (y) = 0.28893 0.20565
# Poissons Ratio (z) = 0.31124 0.11674
#
# Static dielectric constant tensor:
#      x y z
#    x 2.162400 -0.057880 0.018720 
#    y -0.057880 2.202520 0.089510 
#    z 0.018720 0.089510 2.220990 
# 
# From -- ./inp_files/125766.got.cif
#   From: 2010.05.17/outbox.cif.g08.bks.cpg/sg2_63_cif.got.tgz:125766.got - 2010.06.03 11:33:40.
