data_PCOD9035579
_publ_section_title
;
Structure prediction by ZEFSAII (Michael W. Deem and Ramdas Pophale) SiO2 
 PCOD9035579
Probable space group: P -1
;
_chemical_formula_sum "Si O2"
_cell_formula_units_Z 14
_cell_length_a 10.053805
_cell_length_b 22.308511
_cell_length_c 6.346268
_cell_angle_alpha 108.568190
_cell_angle_beta 125.174296
_cell_angle_gamma 33.871461
_cell_volume 607.201522
_symmetry_space_group_name_H-M "P -1"
_symmetry_group_IT_number 2
_symmetry_cell_setting 'triclinic'
loop_
_space_group_symop_operation_xyz
x,y,z
-x,-y,-z
loop_
_atom_site_type_symbol
_atom_site_label
_atom_site_fract_x
_atom_site_fract_y
_atom_site_fract_z
Si Si1 0.823357 0.418831 0.119754
Si Si2 0.278399 0.409810 0.850791
Si Si3 0.785060 0.681784 0.006090
Si Si4 0.157411 0.763619 0.582231
Si Si5 0.916432 0.954399 0.849017
Si Si6 0.273310 0.196651 0.574498
Si Si7 0.675377 0.228144 0.641586
O O1 0.864481 0.481741 0.263781
O O2 0.063940 0.299313 0.330573
O O3 0.500000 0.500000 0.000000
O O4 0.933499 0.381063 0.933173
O O5 0.131744 0.406894 0.874219
O O6 0.459288 0.315778 0.730746
O O7 0.536398 0.356728 0.169946
O O8 0.652901 0.774495 0.152089
O O9 0.529734 0.745951 0.676391
O O10 0.213976 0.749515 0.371674
O O11 0.072537 0.860286 0.709267
O O12 0.908540 0.797891 0.467909
O O13 0.568634 0.069021 0.614924
O O14 0.031704 0.891760 0.109931
O O15 0.000000 0.000000 0.000000
#
# Coordination Sequence:
#
# PCOD9035579 Si02
#       7
#     2   2   2   2   2   2   2
#     4  12  26  44  69  98 137 179 219 280 336 386
#     4  10  22  46  68  98 134 177 227 272 325 397
#     4  11  25  42  69 100 134 176 226 271 331 399
#     4  10  23  42  68  99 135 173 220 275 334 393
#     4  11  23  43  69  97 133 174 224 274 326 402
#     4  12  26  42  66 104 135 172 225 275 331 400
#     4  10  23  44  70  96 133 178 216 277 333 392
#
# _framework density 23.056595999999999
#
# number of rings (size 3 to 8) (size 9 to 14) (size 15 to 20)
#    0.000    1.143    1.429    5.143    2.000    9.143 
#    0.000    0.000    0.000    0.000    0.000    0.000 
#    0.000    0.000    0.000    0.000    0.000    0.000 
#
# Total GULP energy -78162.155894 kJ/mol
# GULP energy per Si atom -5583.011135 kJ/mol
# Density = 2.300412 g / cm^3
# Si number density = 23.056596 Si / 1000 Ang^3
#
#
#
# Elastic Constant Matrix: (Units=GPa)
#
#
# Indices 1 2 3 4 5 6 
#
# 1 151.7448 27.1633 29.8318 -18.9017 -16.3723 -13.1519
# 2 27.1633 95.3575 30.1391 -19.8058 -9.0098 -8.7738
# 3 29.8318 30.1391 87.6423 -29.6625 -27.1758 -6.1646
# 4 -18.9017 -19.8058 -29.6625 43.8344 -4.6712 8.4711
# 5 -16.3723 -9.0098 -27.1758 -4.6712 26.6144 4.0005
# 6 -13.1519 -8.7738 -6.1646 8.4711 4.0005 35.1271
#
#
#
# Elastic Compliance Matrix: (Units=1/GPa)
#
#
# Indices 1 2 3 4 5 6 
#
# 1 0.007828 -0.001038 0.000971 0.003967 0.005971 0.001205
# 2 -0.001038 0.012508 -0.001811 0.003988 0.002267 0.001198
# 3 0.000971 -0.001811 0.032115 0.026401 0.038188 -0.005168
# 4 0.003967 0.003988 0.026401 0.050447 0.041065 -0.009728
# 5 0.005971 0.002267 0.038188 0.041065 0.089813 -0.010628
# 6 0.001205 0.001198 -0.005168 -0.009728 -0.010628 0.031868
#
#
# Mechanical properties :
#
#
# Convention : Reuss Voigt Hill
#
# Bulk Modulus (GPa) = 20.53559 56.55701 38.54630
# Shear Modulus (GPa) = 20.44442 37.62254 29.03348
#
# Velocity S-wave (km/s) = 2.98099 4.04387 3.55241
# Velocity P-wave (km/s) = 4.55789 6.81078 5.79487
#
# Compressibility (1/GPa) = 0.04869594
#
# Stress axis : x y z
#
# Youngs Moduli (GPa) = 127.75189 79.95128 31.13779
#
# Poissons Ratio (x) = 0.08297 -0.03025
# Poissons Ratio (y) = 0.13257 0.05639
# Poissons Ratio (z) = -0.12411 0.14480
#
# Static dielectric constant tensor:
#      x y z
#    x 1.923720 0.113860 -0.073730 
#    y 0.113860 2.030070 -0.168200 
#    z -0.073730 -0.168200 2.087840 
# 
# From -- ./inp_files/26798.got.cif
#   From: 2010.05.17/outbox.cif.g08.bks.cpg/sg2_14_cif.got.tgz:26798.got - 2010.06.03 11:33:40.
