data_PCOD9035443
_publ_section_title
;
Structure prediction by ZEFSAII (Michael W. Deem and Ramdas Pophale) SiO2 
 PCOD9035443
Probable space group: P -1
;
_chemical_formula_sum "Si O2"
_cell_formula_units_Z 14
_cell_length_a 9.108310
_cell_length_b 13.610343
_cell_length_c 12.129671
_cell_angle_alpha 60.477795
_cell_angle_beta 109.508735
_cell_angle_gamma 149.705652
_cell_volume 645.531805
_symmetry_space_group_name_H-M "P -1"
_symmetry_group_IT_number 2
_symmetry_cell_setting 'triclinic'
loop_
_space_group_symop_operation_xyz
x,y,z
-x,-y,-z
loop_
_atom_site_type_symbol
_atom_site_label
_atom_site_fract_x
_atom_site_fract_y
_atom_site_fract_z
Si Si1 0.262954 0.191570 0.815348
Si Si2 0.328849 0.741383 0.700463
Si Si3 0.348770 0.090178 0.084076
Si Si4 0.859322 0.276604 0.743334
Si Si5 0.312786 0.452194 0.591434
Si Si6 0.891001 0.142293 0.466049
Si Si7 0.673832 0.883489 0.358862
O O1 0.411737 0.404938 0.712597
O O2 0.224281 0.099406 0.743175
O O3 0.435976 0.221407 0.930061
O O4 0.939078 0.025392 0.871884
O O5 0.425933 0.785888 0.826823
O O6 0.183056 0.773781 0.627333
O O7 0.098340 0.501814 0.740809
O O8 0.619414 0.923330 0.592782
O O9 0.252349 0.905336 0.122829
O O10 0.583386 0.182861 0.690180
O O11 0.026025 0.329863 0.648592
O O12 0.525687 0.687382 0.493122
O O13 0.177479 0.320962 0.516494
O O14 0.907046 0.083083 0.389884
#
# Coordination Sequence:
#
# PCOD9035443 Si02
#       7
#     2   2   2   2   2   2   2
#     4  10  24  42  61  82 127 166 191 238 303 355
#     4  11  19  36  64  93 113 157 200 249 287 353
#     4  10  22  46  61  82 119 167 203 233 290 367
#     4  11  20  36  66  91 115 155 202 243 295 346
#     4  11  21  40  59  92 125 156 193 243 300 363
#     4  11  20  33  62  93 122 145 198 249 301 336
#     4  12  22  37  61  97 120 149 197 257 298 343
#
# _framework density 21.687546000000001
#
# number of rings (size 3 to 8) (size 9 to 14) (size 15 to 20)
#    0.000    1.143    7.143    1.714    0.000    1.143 
#    0.000   10.000    0.000    0.000    0.000    0.000 
#    0.000    0.000    0.000    0.000    0.000    0.000 
#
# Total GULP energy -78322.679975 kJ/mol
# GULP energy per Si atom -5594.477141 kJ/mol
# Density = 2.163818 g / cm^3
# Si number density = 21.687546 Si / 1000 Ang^3
#
#
#
# Elastic Constant Matrix: (Units=GPa)
#
#
# Indices 1 2 3 4 5 6 
#
# 1 84.9914 32.0753 45.1050 -8.3493 23.8511 -22.0676
# 2 32.0753 133.9412 58.0541 7.2239 20.3189 -18.6380
# 3 45.1050 58.0541 146.7889 5.5477 37.3209 -12.1023
# 4 -8.3493 7.2239 5.5477 23.0051 0.0829 2.6260
# 5 23.8511 20.3189 37.3209 0.0829 29.8739 3.4646
# 6 -22.0676 -18.6380 -12.1023 2.6260 3.4646 33.2063
#
#
#
# Elastic Compliance Matrix: (Units=1/GPa)
#
#
# Indices 1 2 3 4 5 6 
#
# 1 0.022193 -0.000318 -0.001110 0.006717 -0.017933 0.015506
# 2 -0.000318 0.010104 -0.002178 -0.003364 -0.004515 0.005403
# 3 -0.001110 -0.002178 0.011651 -0.002921 -0.012625 0.003835
# 4 0.006717 -0.003364 -0.002921 0.047933 0.000714 -0.002354
# 5 -0.017933 -0.004515 -0.012625 0.000714 0.069693 -0.026381
# 6 0.015506 0.005403 0.003835 -0.002354 -0.026381 0.047788
#
#
# Mechanical properties :
#
#
# Convention : Reuss Voigt Hill
#
# Bulk Modulus (GPa) = 27.21981 70.68781 48.95381
# Shear Modulus (GPa) = 21.85123 32.58285 27.21704
#
# Velocity S-wave (km/s) = 3.17763 3.88025 3.54639
# Velocity P-wave (km/s) = 5.10306 7.26221 6.27618
#
# Compressibility (1/GPa) = 0.03673795
#
# Stress axis : x y z
#
# Youngs Moduli (GPa) = 45.05887 98.96761 85.82723
#
# Poissons Ratio (x) = 0.03145 0.09524
# Poissons Ratio (y) = 0.01432 0.18692
# Poissons Ratio (z) = 0.05000 0.21554
#
# Static dielectric constant tensor:
#      x y z
#    x 1.832750 0.011040 -0.025130 
#    y 0.011040 1.761710 -0.003600 
#    z -0.025130 -0.003600 1.798700 
# 
# From -- ./inp_files/255663.got.cif
#   From: 2010.05.17/outbox.cif.g08.bks.cpg/sg2_128_cif.got.tgz:255663.got - 2010.06.03 11:33:40.
