data_PCOD9035511
_publ_section_title
;
Structure prediction by ZEFSAII (Michael W. Deem and Ramdas Pophale) SiO2 
 PCOD9035511
Probable space group: P -1
;
_chemical_formula_sum "Si O2"
_cell_formula_units_Z 16
_cell_length_a 8.380788
_cell_length_b 18.692464
_cell_length_c 11.778393
_cell_angle_alpha 41.731545
_cell_angle_beta 108.164048
_cell_angle_gamma 138.185100
_cell_volume 683.458397
_symmetry_space_group_name_H-M "P -1"
_symmetry_group_IT_number 2
_symmetry_cell_setting 'triclinic'
loop_
_space_group_symop_operation_xyz
x,y,z
-x,-y,-z
loop_
_atom_site_type_symbol
_atom_site_label
_atom_site_fract_x
_atom_site_fract_y
_atom_site_fract_z
Si Si1 0.819081 0.298000 0.163340
Si Si2 0.159671 0.183137 0.081126
Si Si3 0.184178 0.210065 0.551505
Si Si4 0.794938 0.710802 0.789020
Si Si5 0.779323 0.205228 0.501177
Si Si6 0.339253 0.647681 0.391020
Si Si7 0.322764 0.628817 0.148059
Si Si8 0.391471 0.005370 0.860725
O O1 0.654622 0.179083 0.382854
O O2 0.993172 0.280794 0.191820
O O3 0.665554 0.261386 0.060584
O O4 0.000000 0.500000 0.000000
O O5 0.149356 0.185641 0.212146
O O6 0.473653 0.349122 0.900226
O O7 0.018456 0.998823 0.224942
O O8 0.950458 0.170223 0.011371
O O9 0.238477 0.242106 0.390731
O O10 0.483930 0.362850 0.507469
O O11 0.988868 0.212100 0.530681
O O12 0.500000 0.500000 0.000000
O O13 0.538044 0.053936 0.717600
O O14 0.999794 0.414809 0.337297
O O15 0.416492 0.696944 0.216821
O O16 0.491633 0.815533 0.302206
O O17 0.000000 0.500000 0.500000
O O18 0.500000 0.000000 0.000000
#
# Coordination Sequence:
#
# PCOD9035511 Si02
#       8
#     2   2   2   2   2   2   2   2
#     4   9  21  39  67  98 130 167 219 281 324 386
#     4  11  26  43  66 101 134 179 217 281 343 391
#     4  10  25  42  67  97 141 174 221 280 338 401
#     4  11  23  42  70 101 132 176 227 277 333 399
#     4  10  22  46  67 100 131 181 226 275 332 398
#     4  11  25  44  67  98 131 183 227 276 331 399
#     4  11  24  43  69  99 134 178 228 274 335 401
#     4  11  27  43  67  97 141 176 225 277 334 404
#
# _framework density 23.410350000000001
#
# number of rings (size 3 to 8) (size 9 to 14) (size 15 to 20)
#    0.000    1.500    1.250    2.625    7.000    6.500 
#    0.000    2.500    0.000    0.000    0.000    0.000 
#    0.000    0.000    0.000    0.000    0.000    0.000 
#
# Total GULP energy -89339.875246 kJ/mol
# GULP energy per Si atom -5583.742203 kJ/mol
# Density = 2.335707 g / cm^3
# Si number density = 23.410350 Si / 1000 Ang^3
#
#
#
# Elastic Constant Matrix: (Units=GPa)
#
#
# Indices 1 2 3 4 5 6 
#
# 1 82.7435 43.1879 48.4331 26.3370 -18.3346 5.4998
# 2 43.1879 113.3553 34.7100 33.3395 -6.6773 11.4293
# 3 48.4331 34.7100 87.1279 27.1542 -15.5995 15.0734
# 4 26.3370 33.3395 27.1542 55.1164 -8.3917 7.4222
# 5 -18.3346 -6.6773 -15.5995 -8.3917 32.2153 4.6225
# 6 5.4998 11.4293 15.0734 7.4222 4.6225 43.1187
#
#
#
# Elastic Compliance Matrix: (Units=1/GPa)
#
#
# Indices 1 2 3 4 5 6 
#
# 1 0.021585 -0.004640 -0.008410 -0.002544 0.006421 0.001166
# 2 -0.004640 0.012332 -0.000859 -0.004874 -0.001574 -0.001369
# 3 -0.008410 -0.000859 0.019282 -0.003615 0.004187 -0.005267
# 4 -0.002544 -0.004874 -0.003615 0.024682 0.002455 -0.001632
# 5 0.006421 -0.001574 0.004187 0.002455 0.037948 -0.006356
# 6 0.001166 -0.001369 -0.005267 -0.001632 -0.006356 0.026209
#
#
# Mechanical properties :
#
#
# Convention : Reuss Voigt Hill
#
# Bulk Modulus (GPa) = 39.40053 59.54318 49.47186
# Shear Modulus (GPa) = 28.04038 36.54979 32.29508
#
# Velocity S-wave (km/s) = 3.46465 3.95557 3.71822
# Velocity P-wave (km/s) = 5.73341 6.80822 6.29380
#
# Compressibility (1/GPa) = 0.02538037
#
# Stress axis : x y z
#
# Youngs Moduli (GPa) = 46.32935 81.09285 51.86249
#
# Poissons Ratio (x) = 0.37625 0.43614
# Poissons Ratio (y) = 0.21496 0.04457
# Poissons Ratio (z) = 0.38961 0.06969
#
# Static dielectric constant tensor:
#      x y z
#    x 1.944580 -0.018640 0.028230 
#    y -0.018640 1.945120 -0.095700 
#    z 0.028230 -0.095700 1.962840 
# 
# From -- ./inp_files/405422.got.cif
#   From: 2010.05.17/outbox.cif.g08.bks.cpg/sg2_203_cif.got.tgz:405422.got - 2010.06.03 11:33:40.
