data_PCOD9035399
_publ_section_title
;
Structure prediction by ZEFSAII (Michael W. Deem and Ramdas Pophale) SiO2 
 PCOD9035399
Probable space group: P -1
;
_chemical_formula_sum "Si O2"
_cell_formula_units_Z 14
_cell_length_a 8.955307
_cell_length_b 15.560257
_cell_length_c 6.153294
_cell_angle_alpha 101.141100
_cell_angle_beta 56.568370
_cell_angle_gamma 77.026735
_cell_volume 642.183966
_symmetry_space_group_name_H-M "P -1"
_symmetry_group_IT_number 2
_symmetry_cell_setting 'triclinic'
loop_
_space_group_symop_operation_xyz
x,y,z
-x,-y,-z
loop_
_atom_site_type_symbol
_atom_site_label
_atom_site_fract_x
_atom_site_fract_y
_atom_site_fract_z
Si Si1 0.411053 0.317600 0.682795
Si Si2 0.600658 0.486100 0.159676
Si Si3 0.351347 0.827842 0.245244
Si Si4 0.750539 0.277165 0.061911
Si Si5 0.440654 0.103955 0.195684
Si Si6 0.835331 0.810872 0.185596
Si Si7 0.222385 0.984479 0.776285
O O1 0.318947 0.430560 0.858024
O O2 0.578017 0.261732 0.696212
O O3 0.539758 0.300678 0.351904
O O4 0.266213 0.263725 0.790267
O O5 0.500000 0.500000 0.500000
O O6 0.738780 0.374100 0.005336
O O7 0.500000 0.500000 0.000000
O O8 0.269972 0.928138 0.483052
O O9 0.211786 0.809721 0.176041
O O10 0.538965 0.826809 0.967244
O O11 0.934023 0.241655 0.057950
O O12 0.231788 0.149456 0.497221
O O13 0.610936 0.085884 0.231595
O O14 0.500000 0.000000 0.000000
O O15 0.761448 0.913289 0.173440
O O16 0.000000 0.000000 0.000000
#
# Coordination Sequence:
#
# PCOD9035399 Si02
#       7
#     2   2   2   2   2   2   2
#     4  11  23  45  70  96 136 177 227 284 350 409
#     4  10  22  45  76 103 140 184 232 295 359 423
#     4  12  21  41  67  89 135 176 225 279 339 411
#     4  11  25  43  68 101 131 176 233 277 354 413
#     4  12  24  40  60  91 132 177 222 276 339 398
#     4  12  24  43  65  98 136 176 228 285 334 419
#     4  12  26  42  62  96 135 177 231 276 336 412
#
# _framework density 21.800608
#
# number of rings (size 3 to 8) (size 9 to 14) (size 15 to 20)
#    0.000    0.571    5.714    3.000    2.000    1.714 
#    2.571    0.000    0.000    4.286    0.000    0.000 
#    0.000    0.000    0.000    0.000    0.000    0.000 
#
# Total GULP energy -77940.837397 kJ/mol
# GULP energy per Si atom -5567.202671 kJ/mol
# Density = 2.175099 g / cm^3
# Si number density = 21.800608 Si / 1000 Ang^3
#
#
#
# Elastic Constant Matrix: (Units=GPa)
#
#
# Indices 1 2 3 4 5 6 
#
# 1 82.6689 25.7993 21.3775 9.1023 5.3502 27.9799
# 2 25.7993 150.8852 4.4043 -3.2244 12.2732 29.1185
# 3 21.3775 4.4043 54.8773 -3.9940 6.1643 8.5463
# 4 9.1023 -3.2244 -3.9940 25.5703 3.4344 6.3079
# 5 5.3502 12.2732 6.1643 3.4344 24.1248 3.0884
# 6 27.9799 29.1185 8.5463 6.3079 3.0884 41.5870
#
#
#
# Elastic Compliance Matrix: (Units=1/GPa)
#
#
# Indices 1 2 3 4 5 6 
#
# 1 0.017563 -0.001206 -0.005714 -0.005076 0.000058 -0.009032
# 2 -0.001206 0.008265 0.001385 0.003596 -0.004099 -0.005501
# 3 -0.005714 0.001385 0.021833 0.006940 -0.005718 -0.002240
# 4 -0.005076 0.003596 0.006940 0.045207 -0.008043 -0.006788
# 5 0.000058 -0.004099 -0.005718 -0.008043 0.045897 0.001818
# 6 -0.009032 -0.005501 -0.002240 -0.006788 0.001818 0.035329
#
#
# Mechanical properties :
#
#
# Convention : Reuss Voigt Hill
#
# Bulk Modulus (GPa) = 27.32892 43.51041 35.41966
# Shear Modulus (GPa) = 25.33417 34.04643 29.69030
#
# Velocity S-wave (km/s) = 3.41264 3.95615 3.69440
# Velocity P-wave (km/s) = 5.30011 6.39295 5.87201
#
# Compressibility (1/GPa) = 0.03659127
#
# Stress axis : x y z
#
# Youngs Moduli (GPa) = 56.93941 120.98762 45.80125
#
# Poissons Ratio (x) = 0.14596 0.26171
# Poissons Ratio (y) = 0.06869 -0.06346
# Poissons Ratio (z) = 0.32536 -0.16763
#
# Static dielectric constant tensor:
#      x y z
#    x 1.849550 0.014670 0.053710 
#    y 0.014670 1.784500 -0.028120 
#    z 0.053710 -0.028120 1.890490 
# 
# From -- ./inp_files/37995.got.cif
#   From: 2010.05.17/outbox.cif.g08.bks.cpg/sg2_19_cif.got.tgz:37995.got - 2010.06.03 11:33:40.
