data_PCOD9035473
_publ_section_title
;
Structure prediction by ZEFSAII (Michael W. Deem and Ramdas Pophale) SiO2 
 PCOD9035473
Probable space group: P -1
;
_chemical_formula_sum "Si O2"
_cell_formula_units_Z 16
_cell_length_a 15.147299
_cell_length_b 12.090179
_cell_length_c 9.016468
_cell_angle_alpha 149.608012
_cell_angle_beta 56.251668
_cell_angle_gamma 127.905235
_cell_volume 657.774489
_symmetry_space_group_name_H-M "P -1"
_symmetry_group_IT_number 2
_symmetry_cell_setting 'triclinic'
loop_
_space_group_symop_operation_xyz
x,y,z
-x,-y,-z
loop_
_atom_site_type_symbol
_atom_site_label
_atom_site_fract_x
_atom_site_fract_y
_atom_site_fract_z
Si Si1 0.255865 0.717245 0.094976
Si Si2 0.922073 0.547392 0.254585
Si Si3 0.906447 0.105282 0.349121
Si Si4 0.745925 0.602388 0.847730
Si Si5 0.417901 0.147385 0.286651
Si Si6 0.560888 0.421824 0.048260
Si Si7 0.133281 0.745278 0.743439
Si Si8 0.336807 0.205017 0.115363
O O1 0.195638 0.527786 0.808261
O O2 0.352274 0.647920 0.007630
O O3 0.168748 0.755906 0.341051
O O4 0.309684 0.960365 0.242616
O O5 0.921765 0.379913 0.200124
O O6 0.978811 0.807828 0.562752
O O7 0.000000 0.500000 0.000000
O O8 0.934176 0.178332 0.235925
O O9 0.823115 0.844728 0.123602
O O10 0.817141 0.433128 0.589892
O O11 0.720095 0.637732 0.741041
O O12 0.628963 0.498430 0.922451
O O13 0.463535 0.355784 0.600653
O O14 0.386922 0.254862 0.289674
O O15 0.500000 0.000000 0.000000
O O16 0.443625 0.215395 0.923237
O O17 0.241395 0.960463 0.929873
#
# Coordination Sequence:
#
# PCOD9035473 Si02
#       8
#     2   2   2   2   2   2   2   2
#     4  11  22  43  67  94 132 175 220 273 327 385
#     4  10  23  42  71  96 127 171 224 276 334 387
#     4  10  22  46  65  96 130 176 221 272 333 383
#     4  11  25  42  66  99 135 174 220 271 323 393
#     4  12  25  42  66  95 136 176 218 271 326 387
#     4  12  25  43  67  97 137 177 221 266 325 392
#     4  11  23  43  69  93 137 172 218 275 327 391
#     4  11  26  40  66  99 133 176 218 264 323 397
#
# _framework density 24.324446999999999
#
# number of rings (size 3 to 8) (size 9 to 14) (size 15 to 20)
#    0.000    1.000    5.000    1.125    3.500    1.000 
#    0.000    1.875    0.000    0.000    0.000    0.000 
#    0.000    0.000    0.000    0.000    0.000    0.000 
#
# Total GULP energy -89535.861798 kJ/mol
# GULP energy per Si atom -5595.991362 kJ/mol
# Density = 2.426908 g / cm^3
# Si number density = 24.324447 Si / 1000 Ang^3
#
#
#
# Elastic Constant Matrix: (Units=GPa)
#
#
# Indices 1 2 3 4 5 6 
#
# 1 65.1267 12.1474 8.1191 4.2681 13.6905 -1.7393
# 2 12.1474 163.3833 14.6022 -21.0626 7.2821 -2.3534
# 3 8.1191 14.6022 63.8561 -23.6901 2.1261 -2.7622
# 4 4.2681 -21.0626 -23.6901 23.4463 -0.2272 3.6403
# 5 13.6905 7.2821 2.1261 -0.2272 33.8303 1.8033
# 6 -1.7393 -2.3534 -2.7622 3.6403 1.8033 41.9019
#
#
#
# Elastic Compliance Matrix: (Units=1/GPa)
#
#
# Indices 1 2 3 4 5 6 
#
# 1 0.018711 -0.002012 -0.005870 -0.011456 -0.006931 0.001570
# 2 -0.002012 0.007273 0.001888 0.008844 -0.000795 -0.000285
# 3 -0.005870 0.001888 0.027193 0.030402 0.000518 -0.001009
# 4 -0.011456 0.008844 0.030402 0.084248 0.001674 -0.005366
# 5 -0.006931 -0.000795 0.000518 0.001674 0.032612 -0.001847
# 6 0.001570 -0.000285 -0.001009 -0.005366 -0.001847 0.024394
#
#
# Mechanical properties :
#
#
# Convention : Reuss Voigt Hill
#
# Bulk Modulus (GPa) = 24.27880 40.23372 32.25626
# Shear Modulus (GPa) = 22.71186 37.00219 29.85703
#
# Velocity S-wave (km/s) = 3.05897 3.90448 3.50730
# Velocity P-wave (km/s) = 4.74124 6.07478 5.44896
#
# Compressibility (1/GPa) = 0.04118819
#
# Stress axis : x y z
#
# Youngs Moduli (GPa) = 53.44328 137.49753 36.77435
#
# Poissons Ratio (x) = 0.27662 0.21588
# Poissons Ratio (y) = 0.10752 -0.06942
# Poissons Ratio (z) = 0.31373 -0.25956
#
# Static dielectric constant tensor:
#      x y z
#    x 1.963260 0.035460 0.010030 
#    y 0.035460 1.949720 -0.002820 
#    z 0.010030 -0.002820 1.919500 
# 
# From -- ./inp_files/85032.got.cif
#   From: 2010.05.17/outbox.cif.g08.bks.cpg/sg2_43_cif.got.tgz:85032.got - 2010.06.03 11:33:40.
