data_PCOD9035332
_publ_section_title
;
Structure prediction by ZEFSAII (Michael W. Deem and Ramdas Pophale) SiO2 
 PCOD9035332
Probable space group: P -1
;
_chemical_formula_sum "Si O2"
_cell_formula_units_Z 14
_cell_length_a 9.399781
_cell_length_b 16.881653
_cell_length_c 5.300131
_cell_angle_alpha 74.312276
_cell_angle_beta 53.409133
_cell_angle_gamma 60.138563
_cell_volume 585.208154
_symmetry_space_group_name_H-M "P -1"
_symmetry_group_IT_number 2
_symmetry_cell_setting 'triclinic'
loop_
_space_group_symop_operation_xyz
x,y,z
-x,-y,-z
loop_
_atom_site_type_symbol
_atom_site_label
_atom_site_fract_x
_atom_site_fract_y
_atom_site_fract_z
Si Si1 0.793132 0.014153 0.587890
Si Si2 0.425807 0.080070 0.302686
Si Si3 0.342290 0.660656 0.114760
Si Si4 0.569358 0.191959 0.363403
Si Si5 0.996371 0.399912 0.595534
Si Si6 0.532020 0.584114 0.481088
Si Si7 0.790664 0.660805 0.076638
O O1 0.731058 0.095643 0.380052
O O2 0.772438 0.923551 0.588583
O O3 0.604249 0.052758 0.940017
O O4 0.000000 0.000000 0.500000
O O5 0.424949 0.167642 0.361126
O O6 0.500000 0.000000 0.500000
O O7 0.316939 0.758197 0.947085
O O8 0.511940 0.600390 0.786953
O O9 0.193467 0.615800 0.264209
O O10 0.389189 0.657570 0.363591
O O11 0.415008 0.257095 0.681085
O O12 0.000000 0.500000 0.500000
O O13 0.145492 0.337806 0.274779
O O14 0.054623 0.356931 0.850079
O O15 0.500000 0.500000 0.500000
O O16 0.746793 0.572245 0.201451
#
# Coordination Sequence:
#
# PCOD9035332 Si02
#       7
#     2   2   2   2   2   2   2
#     4  10  22  45  74 102 136 186 236 282 349 435
#     4   9  21  44  69  99 141 180 231 279 360 429
#     4  11  24  40  63  97 136 173 232 292 349 410
#     4  10  24  43  64  96 141 181 231 293 351 428
#     4  12  24  44  66  99 138 182 238 293 351 422
#     4  11  21  40  66  92 126 181 230 277 347 427
#     4  11  24  41  66  96 135 182 225 292 361 400
#
# _framework density 23.923113000000001
#
# number of rings (size 3 to 8) (size 9 to 14) (size 15 to 20)
#    0.000    1.429    0.000    5.143    6.000    2.286 
#   10.286    0.000    0.000    0.000    0.000    0.000 
#    0.000    0.000    0.000    0.000    0.000    0.000 
#
# Total GULP energy -78020.821009 kJ/mol
# GULP energy per Si atom -5572.915786 kJ/mol
# Density = 2.386866 g / cm^3
# Si number density = 23.923113 Si / 1000 Ang^3
#
#
#
# Elastic Constant Matrix: (Units=GPa)
#
#
# Indices 1 2 3 4 5 6 
#
# 1 173.1489 61.4574 16.0629 -9.2129 -23.8507 26.2205
# 2 61.4574 86.5890 39.2013 -22.2684 -1.5005 10.4047
# 3 16.0629 39.2013 77.8108 -15.0817 -16.1749 10.9728
# 4 -9.2129 -22.2684 -15.0817 33.8722 9.6715 0.6186
# 5 -23.8507 -1.5005 -16.1749 9.6715 37.1533 -2.8705
# 6 26.2205 10.4047 10.9728 0.6186 -2.8705 32.9440
#
#
#
# Elastic Compliance Matrix: (Units=1/GPa)
#
#
# Indices 1 2 3 4 5 6 
#
# 1 0.010900 -0.010051 0.004839 -0.004020 0.009263 -0.006230
# 2 -0.010051 0.027260 -0.012202 0.013742 -0.014089 0.001969
# 3 0.004839 -0.012202 0.021147 -0.000455 0.011472 -0.006033
# 4 -0.004020 0.013742 -0.000455 0.041065 -0.013138 -0.002905
# 5 0.009263 -0.014089 0.011472 -0.013138 0.040478 -0.002970
# 6 -0.006230 0.001969 -0.006033 -0.002905 -0.002970 0.036496
#
#
# Mechanical properties :
#
#
# Convention : Reuss Voigt Hill
#
# Bulk Modulus (GPa) = 40.85246 63.44354 52.14800
# Shear Modulus (GPa) = 22.69280 35.51572 29.10426
#
# Velocity S-wave (km/s) = 3.08323 3.85720 3.49173
# Velocity P-wave (km/s) = 5.45790 6.81283 6.17266
#
# Compressibility (1/GPa) = 0.02447833
#
# Stress axis : x y z
#
# Youngs Moduli (GPa) = 91.74708 36.68354 47.28713
#
# Poissons Ratio (x) = 0.36872 -0.22881
# Poissons Ratio (y) = 0.92219 0.57698
# Poissons Ratio (z) = -0.44394 0.44760
#
# Static dielectric constant tensor:
#      x y z
#    x 1.844860 -0.040260 0.194180 
#    y -0.040260 2.088650 -0.089740 
#    z 0.194180 -0.089740 2.161020 
# 
# From -- ./inp_files/43495.got.cif
#   From: 2010.05.17/outbox.cif.g08.bks.cpg/sg2_22_cif.got.tgz:43495.got - 2010.06.03 11:33:40.
