data_PCOD9035217
_publ_section_title
;
Structure prediction by ZEFSAII (Michael W. Deem and Ramdas Pophale) SiO2 
 PCOD9035217
Probable space group: P -1
;
_chemical_formula_sum "Si O2"
_cell_formula_units_Z 16
_cell_length_a 5.831586
_cell_length_b 8.096272
_cell_length_c 19.586034
_cell_angle_alpha 80.906885
_cell_angle_beta 103.028346
_cell_angle_gamma 59.167396
_cell_volume 731.065715
_symmetry_space_group_name_H-M "P -1"
_symmetry_group_IT_number 2
_symmetry_cell_setting 'triclinic'
loop_
_space_group_symop_operation_xyz
x,y,z
-x,-y,-z
loop_
_atom_site_type_symbol
_atom_site_label
_atom_site_fract_x
_atom_site_fract_y
_atom_site_fract_z
Si Si1 0.389979 0.121780 0.914251
Si Si2 0.269779 0.010524 0.669826
Si Si3 0.484606 0.599944 0.165963
Si Si4 0.109272 0.230492 0.215610
Si Si5 0.874037 0.974777 0.562247
Si Si6 0.002769 0.881125 0.215262
Si Si7 0.249703 0.266498 0.523170
Si Si8 0.132729 0.468725 0.085351
O O1 0.573107 0.193332 0.885141
O O2 0.262058 0.036251 0.860158
O O3 0.112796 0.336654 0.903256
O O4 0.500000 0.000000 0.000000
O O5 0.240768 0.150098 0.596258
O O6 0.111033 0.140278 0.718585
O O7 0.602234 0.846981 0.718567
O O8 0.104389 0.910975 0.640576
O O9 0.281974 0.680181 0.213882
O O10 0.397206 0.487961 0.113861
O O11 0.820406 0.432332 0.212606
O O12 0.162795 0.284029 0.139964
O O13 0.070370 0.048148 0.219647
O O14 0.799489 0.816885 0.545140
O O15 0.580267 0.189401 0.547116
O O16 0.000000 0.000000 0.500000
O O17 0.000000 0.500000 0.500000
O O18 0.000000 0.500000 0.000000
#
# Coordination Sequence:
#
# PCOD9035217 Si02
#       8
#     2   2   2   2   2   2   2   2
#     4  10  24  39  63  93 129 172 228 286 348 404
#     4  11  23  43  69  99 136 183 219 278 341 400
#     4  10  24  44  62  96 132 174 231 287 340 410
#     4  11  24  43  67  94 136 176 229 281 346 402
#     4   9  21  43  68 100 138 172 219 268 332 402
#     4  11  24  43  66  94 135 177 229 282 344 405
#     4  10  22  45  72 104 136 176 222 271 333 404
#     4  10  24  39  64  94 126 170 228 285 350 403
#
# _framework density 21.885857000000001
#
# number of rings (size 3 to 8) (size 9 to 14) (size 15 to 20)
#    0.000    1.750    0.000    2.250    7.000    4.000 
#    0.000   40.000    0.000    0.000    0.000    0.000 
#    0.000    0.000    0.000    0.000    0.000    0.000 
#
# Total GULP energy -89312.190579 kJ/mol
# GULP energy per Si atom -5582.011911 kJ/mol
# Density = 2.183604 g / cm^3
# Si number density = 21.885857 Si / 1000 Ang^3
#
#
#
# Elastic Constant Matrix: (Units=GPa)
#
#
# Indices 1 2 3 4 5 6 
#
# 1 112.3651 41.4652 59.5144 0.5185 13.7651 -18.1179
# 2 41.4652 92.7889 41.0932 -5.0146 10.5149 -27.8137
# 3 59.5144 41.0932 144.9531 8.4594 11.9542 -9.2654
# 4 0.5185 -5.0146 8.4594 32.3105 1.5762 1.1396
# 5 13.7651 10.5149 11.9542 1.5762 36.4772 1.1202
# 6 -18.1179 -27.8137 -9.2654 1.1396 1.1202 39.7171
#
#
#
# Elastic Compliance Matrix: (Units=1/GPa)
#
#
# Indices 1 2 3 4 5 6 
#
# 1 0.012931 -0.002645 -0.004150 0.000498 -0.002875 0.003145
# 2 -0.002645 0.016769 -0.002954 0.003233 -0.003310 0.009848
# 3 -0.004150 -0.002954 0.009544 -0.002806 -0.000538 -0.001640
# 4 0.000498 0.003233 -0.002806 0.032223 -0.001622 0.000957
# 5 -0.002875 -0.003310 -0.000538 -0.001622 0.029840 -0.004550
# 6 0.003145 0.009848 -0.001640 0.000957 -0.004550 0.033228
#
#
# Mechanical properties :
#
#
# Convention : Reuss Voigt Hill
#
# Bulk Modulus (GPa) = 50.64600 70.47252 60.55926
# Shear Modulus (GPa) = 31.13036 35.56993 33.35014
#
# Velocity S-wave (km/s) = 3.77556 4.03581 3.90785
# Velocity P-wave (km/s) = 6.49597 7.34758 6.93486
#
# Compressibility (1/GPa) = 0.01974490
#
# Stress axis : x y z
#
# Youngs Moduli (GPa) = 77.33470 59.63283 104.78250
#
# Poissons Ratio (x) = 0.15773 0.43486
# Poissons Ratio (y) = 0.20456 0.30955
# Poissons Ratio (z) = 0.32095 0.17617
#
# Static dielectric constant tensor:
#      x y z
#    x 1.909870 0.043280 0.007540 
#    y 0.043280 1.820200 0.020760 
#    z 0.007540 0.020760 1.867810 
# 
# From -- ./inp_files/582415.got.cif
#   From: 2010.05.17/outbox.cif.g08.bks.cpg/sg2_292_cif.got.tgz:582415.got - 2010.06.03 11:33:40.
