data_PCOD9035039
_publ_section_title
;
Structure prediction by ZEFSAII (Michael W. Deem and Ramdas Pophale) SiO2 
 PCOD9035039
Probable space group: P -1
;
_chemical_formula_sum "Si O2"
_cell_formula_units_Z 15
_cell_length_a 19.086892
_cell_length_b 11.038204
_cell_length_c 5.094851
_cell_angle_alpha 85.548014
_cell_angle_beta 96.996360
_cell_angle_gamma 147.154552
_cell_volume 577.245716
_symmetry_space_group_name_H-M "P -1"
_symmetry_group_IT_number 2
_symmetry_cell_setting 'triclinic'
loop_
_space_group_symop_operation_xyz
x,y,z
-x,-y,-z
loop_
_atom_site_type_symbol
_atom_site_label
_atom_site_fract_x
_atom_site_fract_y
_atom_site_fract_z
Si Si1 0.531370 0.122197 0.243950
Si Si2 0.288946 0.913857 0.314997
Si Si3 0.035291 0.416301 0.150157
Si Si4 0.246519 0.006768 0.778895
Si Si5 0.778198 0.603805 0.408467
Si Si6 0.719548 0.666345 0.863335
Si Si7 0.500000 0.500000 0.000000
Si Si8 0.990768 0.120383 0.827965
O O1 0.681618 0.367055 0.283261
O O2 0.500000 0.000000 0.500000
O O3 0.432725 0.091290 0.240538
O O4 0.500000 0.000000 0.000000
O O5 0.179035 0.649585 0.295246
O O6 0.291159 0.970272 0.596823
O O7 0.246545 0.955078 0.083965
O O8 0.044650 0.315150 0.974491
O O9 0.908664 0.200056 0.306651
O O10 0.000000 0.500000 0.000000
O O11 0.360632 0.270345 0.811888
O O12 0.727417 0.566259 0.677356
O O13 0.757789 0.679749 0.171145
O O14 0.925957 0.776246 0.415649
O O15 0.581316 0.528752 0.834282
O O16 0.837301 0.917563 0.765051
O O17 0.000000 0.000000 0.000000
#
# Coordination Sequence:
#
# PCOD9035039 Si02
#       8
#     2   2   2   2   2   2   1   2
#     4  12  24  41  66 101 134 187 243 298 369 439
#     4  11  24  44  67  98 143 187 238 300 368 436
#     4  10  22  45  70 106 146 196 247 303 367 446
#     4  11  24  43  67 103 137 190 236 301 368 434
#     4  11  24  44  67  98 143 187 238 300 368 436
#     4  11  24  43  67 103 137 190 236 301 368 434
#     4  12  24  44  72 102 152 180 246 310 370 438
#     4  10  22  45  70 106 146 196 247 303 367 446
#
# _framework density 25.985468000000001
#
# number of rings (size 3 to 8) (size 9 to 14) (size 15 to 20)
#    0.000    1.067    1.333    4.800    0.000    4.267 
#    0.000    8.000    0.000    0.000    0.000    0.000 
#    0.000    0.000    0.000    0.000    0.000    0.000 
#
# Total GULP energy -83611.120341 kJ/mol
# GULP energy per Si atom -5574.074689 kJ/mol
# Density = 2.592632 g / cm^3
# Si number density = 25.985468 Si / 1000 Ang^3
#
#
#
# Elastic Constant Matrix: (Units=GPa)
#
#
# Indices 1 2 3 4 5 6 
#
# 1 112.4040 37.3215 38.9177 -17.7252 -23.1319 14.9303
# 2 37.3215 117.1497 33.6507 10.4986 -6.3839 9.2353
# 3 38.9177 33.6507 86.5251 15.1445 -23.5646 -8.1373
# 4 -17.7252 10.4986 15.1445 47.5527 -4.2393 -25.7896
# 5 -23.1319 -6.3839 -23.5646 -4.2393 39.7180 7.3092
# 6 14.9303 9.2353 -8.1373 -25.7896 7.3092 41.2903
#
#
#
# Elastic Compliance Matrix: (Units=1/GPa)
#
#
# Indices 1 2 3 4 5 6 
#
# 1 0.014329 -0.003279 -0.004963 0.007050 0.006010 -0.002087
# 2 -0.003279 0.011226 -0.002749 -0.005789 -0.001391 -0.005237
# 3 -0.004963 -0.002749 0.017686 -0.005629 0.006328 0.001259
# 4 0.007050 -0.005789 -0.005629 0.038482 -0.000046 0.021680
# 5 0.006010 -0.001391 0.006328 -0.000046 0.033411 -0.006558
# 6 -0.002087 -0.005237 0.001259 0.021680 -0.006558 0.041095
#
#
# Mechanical properties :
#
#
# Convention : Reuss Voigt Hill
#
# Bulk Modulus (GPa) = 47.03943 59.53984 53.28963
# Shear Modulus (GPa) = 26.98355 39.45812 33.22084
#
# Velocity S-wave (km/s) = 3.22593 3.90098 3.57941
# Velocity P-wave (km/s) = 5.65836 6.57668 6.13473
#
# Compressibility (1/GPa) = 0.02125876
#
# Stress axis : x y z
#
# Youngs Moduli (GPa) = 69.78629 89.07640 56.54246
#
# Poissons Ratio (x) = 0.29210 0.28063
# Poissons Ratio (y) = 0.22884 0.15544
# Poissons Ratio (z) = 0.34636 0.24487
#
# Static dielectric constant tensor:
#      x y z
#    x 1.999840 -0.199740 0.089750 
#    y -0.199740 1.985400 -0.019450 
#    z 0.089750 -0.019450 2.039850 
# 
# From -- ./inp_files/118732.got.cif
#   From: 2010.05.17/outbox.cif.g08.bks.cpg/sg2_60_cif.got.tgz:118732.got - 2010.06.03 11:33:40.
