data_PCOD9035313
_publ_section_title
;
Structure prediction by ZEFSAII (Michael W. Deem and Ramdas Pophale) SiO2 
 PCOD9035313
Probable space group: P -1
;
_chemical_formula_sum "Si O2"
_cell_formula_units_Z 12
_cell_length_a 16.806597
_cell_length_b 6.014715
_cell_length_c 8.960146
_cell_angle_alpha 54.546820
_cell_angle_beta 51.519786
_cell_angle_gamma 73.024099
_cell_volume 574.193660
_symmetry_space_group_name_H-M "P -1"
_symmetry_group_IT_number 2
_symmetry_cell_setting 'triclinic'
loop_
_space_group_symop_operation_xyz
x,y,z
-x,-y,-z
loop_
_atom_site_type_symbol
_atom_site_label
_atom_site_fract_x
_atom_site_fract_y
_atom_site_fract_z
Si Si1 0.085233 0.730538 0.873307
Si Si2 0.383504 0.072399 0.123424
Si Si3 0.971919 0.667321 0.324076
Si Si4 0.626132 0.846448 0.549211
Si Si5 0.224483 0.561784 0.541150
Si Si6 0.561954 0.418588 0.314033
O O1 0.189093 0.652277 0.710140
O O2 0.063037 0.030508 0.724659
O O3 0.000000 0.500000 0.000000
O O4 0.066420 0.719503 0.076783
O O5 0.368286 0.167734 0.273527
O O6 0.305256 0.804143 0.291190
O O7 0.370225 0.316440 0.929859
O O8 0.500000 0.000000 0.000000
O O9 0.876378 0.495838 0.419327
O O10 0.000000 0.500000 0.500000
O O11 0.719326 0.711735 0.419209
O O12 0.522029 0.677719 0.676677
O O13 0.619422 0.157917 0.387031
O O14 0.500000 0.500000 0.500000
#
# Coordination Sequence:
#
# PCOD9035313 Si02
#       6
#     2   2   2   2   2   2
#     4   9  21  44  69  94 133 166 214 278 338 395
#     4  12  23  42  66  91 137 181 223 278 322 386
#     4  10  22  45  73  97 130 171 216 276 343 398
#     4  11  23  41  65  91 134 178 229 272 328 387
#     4  11  23  41  66  99 134 175 222 270 337 398
#     4  11  23  41  64  92 128 184 224 273 329 378
#
# _framework density 20.898873999999999
#
# number of rings (size 3 to 8) (size 9 to 14) (size 15 to 20)
#    0.000    1.333    3.333    1.500    0.000    2.667 
#    0.000   31.667    0.000    0.000    0.000    0.000 
#    0.000    0.000    0.000    0.000    0.000    0.000 
#
# Total GULP energy -67100.982066 kJ/mol
# GULP energy per Si atom -5591.748505 kJ/mol
# Density = 2.085131 g / cm^3
# Si number density = 20.898874 Si / 1000 Ang^3
#
#
#
# Elastic Constant Matrix: (Units=GPa)
#
#
# Indices 1 2 3 4 5 6 
#
# 1 78.0356 38.2643 45.6161 -4.8870 -0.9286 0.4817
# 2 38.2643 169.5120 82.4007 6.3617 14.1824 -23.9093
# 3 45.6161 82.4007 133.6329 -16.5077 6.5739 -24.4919
# 4 -4.8870 6.3617 -16.5077 39.5502 0.5314 -10.6698
# 5 -0.9286 14.1824 6.5739 0.5314 41.7256 -8.2099
# 6 0.4817 -23.9093 -24.4919 -10.6698 -8.2099 34.5118
#
#
#
# Elastic Compliance Matrix: (Units=1/GPa)
#
#
# Indices 1 2 3 4 5 6 
#
# 1 0.017240 -0.001737 -0.006235 -0.001897 0.000745 -0.006278
# 2 -0.001737 0.009337 -0.005301 -0.003600 -0.002112 0.001116
# 3 -0.006235 -0.005301 0.016067 0.009773 0.001196 0.011123
# 4 -0.001897 -0.003600 0.009773 0.033851 0.002254 0.015470
# 5 0.000745 -0.002112 0.001196 0.002254 0.025701 0.006186
# 6 -0.006278 0.001116 0.011123 0.015470 0.006186 0.043984
#
#
# Mechanical properties :
#
#
# Convention : Reuss Voigt Hill
#
# Bulk Modulus (GPa) = 62.11985 79.30474 70.71230
# Shear Modulus (GPa) = 28.07497 37.48416 32.77956
#
# Velocity S-wave (km/s) = 3.66918 4.23968 3.96471
# Velocity P-wave (km/s) = 6.90935 7.87374 7.40726
#
# Compressibility (1/GPa) = 0.01609791
#
# Stress axis : x y z
#
# Youngs Moduli (GPa) = 58.00344 107.09600 62.23812
#
# Poissons Ratio (x) = 0.18607 0.38808
# Poissons Ratio (y) = 0.10077 0.32991
# Poissons Ratio (z) = 0.36168 0.56770
#
# Static dielectric constant tensor:
#      x y z
#    x 1.757890 0.016730 -0.027740 
#    y 0.016730 1.767280 0.011750 
#    z -0.027740 0.011750 1.748120 
# 
# From -- ./inp_files/43476.got.cif
#   From: 2010.05.17/outbox.cif.g08.bks.cpg/sg2_22_cif.got.tgz:43476.got - 2010.06.03 11:33:40.
