data_PCOD9035208
_publ_section_title
;
Structure prediction by ZEFSAII (Michael W. Deem and Ramdas Pophale) SiO2 
 PCOD9035208
Probable space group: P -1
;
_chemical_formula_sum "Si O2"
_cell_formula_units_Z 14
_cell_length_a 8.203915
_cell_length_b 16.028415
_cell_length_c 8.482174
_cell_angle_alpha 115.590266
_cell_angle_beta 121.289138
_cell_angle_gamma 112.816379
_cell_volume 522.382639
_symmetry_space_group_name_H-M "P -1"
_symmetry_group_IT_number 2
_symmetry_cell_setting 'triclinic'
loop_
_space_group_symop_operation_xyz
x,y,z
-x,-y,-z
loop_
_atom_site_type_symbol
_atom_site_label
_atom_site_fract_x
_atom_site_fract_y
_atom_site_fract_z
Si Si1 0.669979 0.400293 0.671691
Si Si2 0.536089 0.740243 0.072248
Si Si3 0.181080 0.915323 0.022798
Si Si4 0.047640 0.689399 0.926973
Si Si5 0.209345 0.101854 0.001859
Si Si6 0.740118 0.514032 0.108613
Si Si7 0.095429 0.807201 0.386328
O O1 0.450560 0.238131 0.361271
O O2 0.767199 0.508544 0.670800
O O3 0.552666 0.394854 0.770922
O O4 0.000000 0.500000 0.000000
O O5 0.850964 0.795783 0.294732
O O6 0.370766 0.756726 0.110213
O O7 0.626815 0.822040 0.020464
O O8 0.261449 0.556887 0.805380
O O9 0.132109 0.967032 0.896408
O O10 0.543510 0.026359 0.288397
O O11 0.998584 0.748624 0.817847
O O12 0.088676 0.945938 0.151034
O O13 0.048942 0.748510 0.138306
O O14 0.043178 0.692619 0.368603
O O15 0.500000 0.500000 0.000000
#
# Coordination Sequence:
#
# PCOD9035208 Si02
#       7
#     2   2   2   2   2   2   2
#     4  11  22  45  73 103 133 188 232 286 355 419
#     4  11  23  43  73 113 135 178 241 300 334 412
#     4  11  25  47  66 100 148 197 220 284 358 427
#     4  11  23  41  73 106 135 187 236 280 354 411
#     4  11  26  46  72 100 146 185 235 290 353 410
#     4   9  20  41  69 106 134 173 235 288 340 406
#     4  10  22  45  72 101 147 186 228 282 357 425
#
# _framework density 26.800277999999999
#
# number of rings (size 3 to 8) (size 9 to 14) (size 15 to 20)
#    0.000    1.429    2.857    2.143    0.000    2.286 
#    0.000    2.857    0.000    0.000    0.000    0.000 
#    0.000    0.000    0.000    0.000    0.000    0.000 
#
# Total GULP energy -78067.025923 kJ/mol
# GULP energy per Si atom -5576.216137 kJ/mol
# Density = 2.673928 g / cm^3
# Si number density = 26.800278 Si / 1000 Ang^3
#
#
#
# Elastic Constant Matrix: (Units=GPa)
#
#
# Indices 1 2 3 4 5 6 
#
# 1 162.5875 25.1017 23.7795 -10.9356 22.8033 6.1048
# 2 25.1017 215.4434 14.5213 24.9571 0.6450 -10.1143
# 3 23.7795 14.5213 58.7570 14.7752 5.2868 2.8508
# 4 -10.9356 24.9571 14.7752 21.8250 0.9752 1.9929
# 5 22.8033 0.6450 5.2868 0.9752 26.9577 0.0943
# 6 6.1048 -10.1143 2.8508 1.9929 0.0943 53.5540
#
#
#
# Elastic Compliance Matrix: (Units=1/GPa)
#
#
# Indices 1 2 3 4 5 6 
#
# 1 0.008946 -0.001982 -0.005117 0.010659 -0.006896 -0.001506
# 2 -0.001982 0.005876 0.001355 -0.008845 0.001585 0.001590
# 3 -0.005117 0.001355 0.023806 -0.020275 0.000360 0.000326
# 4 0.010659 -0.008845 -0.020275 0.075759 -0.007553 -0.004612
# 5 -0.006896 0.001585 0.000360 -0.007553 0.043089 0.001272
# 6 -0.001506 0.001590 0.000326 -0.004612 0.001272 0.019297
#
#
# Mechanical properties :
#
#
# Convention : Reuss Voigt Hill
#
# Bulk Modulus (GPa) = 36.84955 62.62144 49.73550
# Shear Modulus (GPa) = 25.34117 45.35969 35.35043
#
# Velocity S-wave (km/s) = 3.07833 4.11847 3.63579
# Velocity P-wave (km/s) = 5.13949 6.78472 6.01859
#
# Compressibility (1/GPa) = 0.02713737
#
# Stress axis : x y z
#
# Youngs Moduli (GPa) = 111.78544 170.19052 42.00679
#
# Poissons Ratio (x) = 0.33735 0.21496
# Poissons Ratio (y) = 0.22158 -0.05690
# Poissons Ratio (z) = 0.57204 -0.23053
#
# Static dielectric constant tensor:
#      x y z
#    x 1.973330 0.083850 0.150470 
#    y 0.083850 2.156300 0.002670 
#    z 0.150470 0.002670 2.045670 
# 
# From -- ./inp_files/213140.got.cif
#   From: 2010.05.17/outbox.cif.g08.bks.cpg/sg2_107_cif.got.tgz:213140.got - 2010.06.03 11:33:40.
