data_PCOD9035765
_publ_section_title
;
Structure prediction by ZEFSAII (Michael W. Deem and Ramdas Pophale) SiO2 
 PCOD9035765
Probable space group: P -1
;
_chemical_formula_sum "Si O2"
_cell_formula_units_Z 15
_cell_length_a 15.735066
_cell_length_b 5.551128
_cell_length_c 12.304101
_cell_angle_alpha 108.905077
_cell_angle_beta 142.609103
_cell_angle_gamma 78.800568
_cell_volume 613.677592
_symmetry_space_group_name_H-M "P -1"
_symmetry_group_IT_number 2
_symmetry_cell_setting 'triclinic'
loop_
_space_group_symop_operation_xyz
x,y,z
-x,-y,-z
loop_
_atom_site_type_symbol
_atom_site_label
_atom_site_fract_x
_atom_site_fract_y
_atom_site_fract_z
Si Si1 0.500000 0.500000 0.500000
Si Si2 0.762191 0.687153 0.388245
Si Si3 0.498821 0.962244 0.121327
Si Si4 0.880756 0.258933 0.849684
Si Si5 0.676528 0.433556 0.482652
Si Si6 0.226886 0.637128 0.861008
Si Si7 0.005122 0.969044 0.769057
Si Si8 0.751280 0.564381 0.926376
O O1 0.584925 0.607808 0.488743
O O2 0.632317 0.622510 0.728894
O O3 0.765751 0.560204 0.492291
O O4 0.799042 0.518465 0.299247
O O5 0.602611 0.747084 0.219902
O O6 0.872840 0.940691 0.547761
O O7 0.571263 0.210218 0.290719
O O8 0.500000 0.000000 0.000000
O O9 0.342091 0.874186 0.987544
O O10 0.767964 0.309853 0.649250
O O11 0.801314 0.299017 0.887445
O O12 0.944233 0.005738 0.834177
O O13 0.000000 0.500000 0.000000
O O14 0.086969 0.731021 0.783394
O O15 0.292566 0.479972 0.000429
O O16 0.116548 0.218304 0.904976
#
# Coordination Sequence:
#
# PCOD9035765 Si02
#       8
#     1   2   2   2   2   2   2   2
#     4  10  22  46  72 100 138 188 226 298 336 406
#     4  12  27  45  73 106 141 188 231 286 361 424
#     4  12  26  47  72 101 141 187 232 287 356 416
#     4   9  21  46  68  98 140 187 222 289 346 404
#     4  11  23  46  72 100 143 182 235 287 344 417
#     4  12  27  43  73 109 136 187 236 291 350 418
#     4  11  25  46  69 106 142 185 232 288 357 412
#     4  10  24  46  72 102 147 177 238 294 345 418
#
# _framework density 24.442802
#
# number of rings (size 3 to 8) (size 9 to 14) (size 15 to 20)
#    0.000    1.067    2.667    2.400    7.467    1.067 
#    7.200    4.000    0.000    0.000    0.000    0.000 
#    0.000    0.000    0.000    0.000    0.000    0.000 
#
# Total GULP energy -83588.978375 kJ/mol
# GULP energy per Si atom -5572.598558 kJ/mol
# Density = 2.438717 g / cm^3
# Si number density = 24.442802 Si / 1000 Ang^3
#
#
#
# Elastic Constant Matrix: (Units=GPa)
#
#
# Indices 1 2 3 4 5 6 
#
# 1 138.4450 25.3390 54.8985 6.1450 -41.5039 -5.0541
# 2 25.3390 36.6892 12.9423 12.5389 -14.3235 -14.6845
# 3 54.8985 12.9423 153.5644 30.6339 -15.7606 9.6379
# 4 6.1450 12.5389 30.6339 34.6564 -1.5265 -2.1865
# 5 -41.5039 -14.3235 -15.7606 -1.5265 45.8794 -3.3919
# 6 -5.0541 -14.6845 9.6379 -2.1865 -3.3919 45.1690
#
#
#
# Elastic Compliance Matrix: (Units=1/GPa)
#
#
# Indices 1 2 3 4 5 6 
#
# 1 0.011911 -0.004030 -0.003785 0.003166 0.008441 0.001617
# 2 -0.004030 0.044810 0.000909 -0.014922 0.011198 0.014042
# 3 -0.003785 0.000909 0.009574 -0.008298 -0.000320 -0.002597
# 4 0.003166 -0.014922 -0.008298 0.040816 -0.003362 -0.001003
# 5 0.008441 0.011198 -0.000320 -0.003362 0.033223 0.006985
# 6 0.001617 0.014042 -0.002597 -0.001003 0.006985 0.027915
#
#
# Mechanical properties :
#
#
# Convention : Reuss Voigt Hill
#
# Bulk Modulus (GPa) = 19.05385 57.22869 38.14127
# Shear Modulus (GPa) = 25.05563 40.84220 32.94891
#
# Velocity S-wave (km/s) = 3.20515 4.09214 3.67550
# Velocity P-wave (km/s) = 4.63783 6.76695 5.80091
#
# Compressibility (1/GPa) = 0.05248284
#
# Stress axis : x y z
#
# Youngs Moduli (GPa) = 83.95823 22.31638 104.44892
#
# Poissons Ratio (x) = 0.08993 0.39535
# Poissons Ratio (y) = 0.33834 -0.09493
# Poissons Ratio (z) = 0.31779 -0.02028
#
# Static dielectric constant tensor:
#      x y z
#    x 2.008920 -0.115140 0.030340 
#    y -0.115140 2.023060 -0.044080 
#    z 0.030340 -0.044080 1.918480 
# 
# From -- ./inp_files/76338.got.cif
#   From: 2010.05.17/outbox.cif.g08.bks.cpg/sg2_39_cif.got.tgz:76338.got - 2010.06.03 11:33:40.
