data_PCOD9035500
_publ_section_title
;
Structure prediction by ZEFSAII (Michael W. Deem and Ramdas Pophale) SiO2 
 PCOD9035500
Probable space group: P -1
;
_chemical_formula_sum "Si O2"
_cell_formula_units_Z 16
_cell_length_a 22.155962
_cell_length_b 10.904019
_cell_length_c 15.568447
_cell_angle_alpha 147.783347
_cell_angle_beta 22.494094
_cell_angle_gamma 151.060116
_cell_volume 681.881921
_symmetry_space_group_name_H-M "P -1"
_symmetry_group_IT_number 2
_symmetry_cell_setting 'triclinic'
loop_
_space_group_symop_operation_xyz
x,y,z
-x,-y,-z
loop_
_atom_site_type_symbol
_atom_site_label
_atom_site_fract_x
_atom_site_fract_y
_atom_site_fract_z
Si Si1 0.859842 0.730978 0.672511
Si Si2 0.044428 0.859751 0.780124
Si Si3 0.576737 0.346478 0.955813
Si Si4 0.283168 0.716794 0.504251
Si Si5 0.438367 0.532557 0.505993
Si Si6 0.677983 0.789472 0.190184
Si Si7 0.770879 0.041452 0.585722
Si Si8 0.346612 0.974740 0.897253
O O1 0.716907 0.521506 0.802024
O O2 0.799174 0.593640 0.577155
O O3 0.058546 0.818069 0.494771
O O4 0.817950 0.974611 0.878709
O O5 0.142008 0.726731 0.625783
O O6 0.164894 0.972041 0.604469
O O7 0.849609 0.743511 0.924936
O O8 0.000000 0.000000 0.000000
O O9 0.660904 0.203361 0.819976
O O10 0.419570 0.110133 0.973337
O O11 0.535106 0.558858 0.184333
O O12 0.484797 0.858998 0.288245
O O13 0.282985 0.912046 0.695422
O O14 0.500000 0.500000 0.500000
O O15 0.608745 0.719407 0.336902
O O16 0.320435 0.684046 0.757539
O O17 0.347044 0.258213 0.416381
#
# Coordination Sequence:
#
# PCOD9035500 Si02
#       8
#     2   2   2   2   2   2   2   2
#     4  11  21  35  60  91 120 156 200 246 298 354
#     4  10  17  32  58  92 116 144 202 251 293 330
#     4  11  19  37  62  93 118 153 207 248 292 350
#     4   9  17  34  54  83 119 150 187 242 300 333
#     4  11  22  43  60  85 122 162 199 239 307 364
#     4  10  21  33  61  93 119 150 201 257 289 351
#     4  12  21  36  65  89 121 160 198 249 294 357
#     4  10  21  38  59  85 122 164 195 240 302 360
#
# _framework density 23.464473000000002
#
# number of rings (size 3 to 8) (size 9 to 14) (size 15 to 20)
#    0.000    1.500    5.000    4.125    0.000    1.000 
#    0.000    5.625    0.000    0.750    0.000    0.000 
#    0.000    0.000    0.000    0.000    0.000    0.000 
#
# Total GULP energy -89140.462303 kJ/mol
# GULP energy per Si atom -5571.278894 kJ/mol
# Density = 2.341107 g / cm^3
# Si number density = 23.464473 Si / 1000 Ang^3
#
#
#
# Elastic Constant Matrix: (Units=GPa)
#
#
# Indices 1 2 3 4 5 6 
#
# 1 49.7142 10.1313 15.3562 11.5469 -6.3023 19.5591
# 2 10.1313 92.1750 6.9927 36.1646 1.6166 19.4184
# 3 15.3562 6.9927 74.6787 31.3369 -7.7092 -3.3805
# 4 11.5469 36.1646 31.3369 42.5482 5.8216 1.9151
# 5 -6.3023 1.6166 -7.7092 5.8216 42.9637 8.0328
# 6 19.5591 19.4184 -3.3805 1.9151 8.0328 32.1887
#
#
#
# Elastic Compliance Matrix: (Units=1/GPa)
#
#
# Indices 1 2 3 4 5 6 
#
# 1 0.035475 0.008407 -0.001346 -0.016156 0.012231 -0.028860
# 2 0.008407 0.025483 0.009006 -0.031017 0.009861 -0.020151
# 3 -0.001346 0.009006 0.024600 -0.026380 0.007908 -0.002435
# 4 -0.016156 -0.031017 -0.026380 0.075373 -0.021112 0.026542
# 5 0.012231 0.009861 0.007908 -0.021112 0.032611 -0.019432
# 6 -0.028860 -0.020151 -0.002435 0.026542 -0.019432 0.063775
#
#
# Mechanical properties :
#
#
# Convention : Reuss Voigt Hill
#
# Bulk Modulus (GPa) = 8.49675 31.28092 19.88883
# Shear Modulus (GPa) = 18.90974 35.81263 27.36118
#
# Velocity S-wave (km/s) = 2.84190 3.91096 3.41848
# Velocity P-wave (km/s) = 3.79440 5.80984 4.90672
#
# Compressibility (1/GPa) = 0.11769212
#
# Stress axis : x y z
#
# Youngs Moduli (GPa) = 28.18883 39.24146 40.65061
#
# Poissons Ratio (x) = -0.32991 0.05473
# Poissons Ratio (y) = -0.23699 -0.36611
# Poissons Ratio (z) = 0.03795 -0.35341
#
# Static dielectric constant tensor:
#      x y z
#    x 2.001760 0.063750 -0.028400 
#    y 0.063750 1.947700 0.067280 
#    z -0.028400 0.067280 1.995520 
# 
# From -- ./inp_files/307893.got.cif
#   From: 2010.05.17/outbox.cif.g08.bks.cpg/sg2_154_cif.got.tgz:307893.got - 2010.06.03 11:33:40.
