data_PCOD9035017
_publ_section_title
;
Structure prediction by ZEFSAII (Michael W. Deem and Ramdas Pophale) SiO2 
 PCOD9035017
Probable space group: P -1
;
_chemical_formula_sum "Si O2"
_cell_formula_units_Z 15
_cell_length_a 8.218638
_cell_length_b 11.440266
_cell_length_c 12.200696
_cell_angle_alpha 41.113780
_cell_angle_beta 117.235118
_cell_angle_gamma 124.933138
_cell_volume 617.672051
_symmetry_space_group_name_H-M "P -1"
_symmetry_group_IT_number 2
_symmetry_cell_setting 'triclinic'
loop_
_space_group_symop_operation_xyz
x,y,z
-x,-y,-z
loop_
_atom_site_type_symbol
_atom_site_label
_atom_site_fract_x
_atom_site_fract_y
_atom_site_fract_z
Si Si1 0.974613 0.547193 0.334791
Si Si2 0.534053 0.373035 0.350921
Si Si3 0.206188 0.978321 0.065032
Si Si4 0.500000 0.500000 0.500000
Si Si5 0.522665 0.025884 0.285899
Si Si6 0.863448 0.722084 0.832492
Si Si7 0.894247 0.370806 0.221146
Si Si8 0.230169 0.074864 0.758684
O O1 0.747157 0.528845 0.268334
O O2 0.985487 0.404938 0.344987
O O3 0.000000 0.500000 0.500000
O O4 0.150631 0.749980 0.220307
O O5 0.480340 0.444185 0.399615
O O6 0.555286 0.171225 0.530220
O O7 0.359672 0.325124 0.241873
O O8 0.351983 0.075502 0.140924
O O9 0.282949 0.040958 0.922983
O O10 0.000000 0.000000 0.000000
O O11 0.307896 0.301388 0.607610
O O12 0.643890 0.992539 0.242258
O O13 0.678018 0.201912 0.275067
O O14 0.972458 0.686838 0.782439
O O15 0.880038 0.568325 0.033746
O O16 0.999474 0.937904 0.762623
#
# Coordination Sequence:
#
# PCOD9035017 Si02
#       8
#     2   2   2   1   2   2   2   2
#     4  12  26  47  67 103 145 181 228 287 351 409
#     4  11  25  44  66 104 140 184 229 283 345 408
#     4  12  25  44  68  99 139 184 228 287 348 412
#     4  10  24  40  70 106 132 176 232 284 338 408
#     4  10  24  45  67  99 137 181 233 283 343 408
#     4  10  23  45  73 101 138 182 236 281 342 412
#     4  10  24  44  71 102 136 185 229 286 344 411
#     4  10  22  45  70 103 136 179 232 287 342 409
#
# _framework density 24.28473
#
# number of rings (size 3 to 8) (size 9 to 14) (size 15 to 20)
#    0.000    1.333    2.667    1.200    5.600    6.933 
#    2.400    0.000    0.000    0.000    0.000    0.000 
#    0.000    0.000    0.000    0.000    0.000    0.000 
#
# Total GULP energy -83737.991165 kJ/mol
# GULP energy per Si atom -5582.532744 kJ/mol
# Density = 2.422946 g / cm^3
# Si number density = 24.284730 Si / 1000 Ang^3
#
#
#
# Elastic Constant Matrix: (Units=GPa)
#
#
# Indices 1 2 3 4 5 6 
#
# 1 51.6383 7.8208 30.2017 11.3592 -7.7261 12.5224
# 2 7.8208 145.6661 66.1325 -8.0538 2.7475 8.9430
# 3 30.2017 66.1325 89.8548 16.6752 -15.1891 2.4992
# 4 11.3592 -8.0538 16.6752 29.5684 8.8951 -9.9285
# 5 -7.7261 2.7475 -15.1891 8.8951 37.9361 13.5388
# 6 12.5224 8.9430 2.4992 -9.9285 13.5388 36.2240
#
#
#
# Elastic Compliance Matrix: (Units=1/GPa)
#
#
# Indices 1 2 3 4 5 6 
#
# 1 0.040957 -0.004882 0.004423 -0.042293 0.033754 -0.037466
# 2 -0.004882 0.019400 -0.024125 0.034872 -0.026694 0.018098
# 3 0.004423 -0.024125 0.047737 -0.060870 0.047984 -0.033484
# 4 -0.042293 0.034872 -0.060870 0.156596 -0.105226 0.092460
# 5 0.033754 -0.026694 0.047984 -0.105226 0.106552 -0.077054
# 6 -0.037466 0.018098 -0.033484 0.092460 -0.077054 0.092541
#
#
# Mechanical properties :
#
#
# Convention : Reuss Voigt Hill
#
# Bulk Modulus (GPa) = 16.97011 55.05211 36.01111
# Shear Modulus (GPa) = 9.38803 32.94599 21.16701
#
# Velocity S-wave (km/s) = 1.96830 3.68727 2.95552
# Velocity P-wave (km/s) = 3.48837 6.39114 5.14856
#
# Compressibility (1/GPa) = 0.05892712
#
# Stress axis : x y z
#
# Youngs Moduli (GPa) = 24.41581 51.54541 20.94813
#
# Poissons Ratio (x) = 0.25165 -0.09266
# Poissons Ratio (y) = 0.11920 0.50537
# Poissons Ratio (z) = -0.10800 1.24353
#
# Static dielectric constant tensor:
#      x y z
#    x 1.956140 -0.025300 0.055550 
#    y -0.025300 1.911890 -0.035220 
#    z 0.055550 -0.035220 1.950130 
# 
# From -- ./inp_files/377767.got.cif
#   From: 2010.05.17/outbox.cif.g08.bks.cpg/sg2_189_cif.got.tgz:377767.got - 2010.06.03 11:33:40.
