data_PCOD9035852
_publ_section_title
;
Structure prediction by ZEFSAII (Michael W. Deem and Ramdas Pophale) SiO2 
 PCOD9035852
Probable space group: P -1
;
_chemical_formula_sum "Si O2"
_cell_formula_units_Z 14
_cell_length_a 14.487187
_cell_length_b 5.206553
_cell_length_c 11.718663
_cell_angle_alpha 112.464923
_cell_angle_beta 141.941243
_cell_angle_gamma 64.974349
_cell_volume 491.845708
_symmetry_space_group_name_H-M "P -1"
_symmetry_group_IT_number 2
_symmetry_cell_setting 'triclinic'
loop_
_space_group_symop_operation_xyz
x,y,z
-x,-y,-z
loop_
_atom_site_type_symbol
_atom_site_label
_atom_site_fract_x
_atom_site_fract_y
_atom_site_fract_z
Si Si1 0.707173 0.484882 0.220878
Si Si2 0.864207 0.000507 0.453377
Si Si3 0.640027 0.476194 0.544268
Si Si4 0.284841 0.009526 0.213413
Si Si5 0.486970 0.039010 0.194408
Si Si6 0.985024 0.261917 0.823334
Si Si7 0.224020 0.507436 0.959250
O O1 0.738400 0.247825 0.309131
O O2 0.751966 0.351535 0.115332
O O3 0.823199 0.697486 0.371435
O O4 0.556670 0.732206 0.152700
O O5 0.935598 0.044864 0.651864
O O6 0.000000 0.000000 0.500000
O O7 0.500000 0.500000 0.500000
O O8 0.661396 0.806704 0.601239
O O9 0.602849 0.248080 0.376930
O O10 0.818112 0.367954 0.735177
O O11 0.402791 0.019469 0.228049
O O12 0.112863 0.141398 0.021163
O O13 0.285235 0.677288 0.150142
O O14 0.349351 0.215042 0.014758
O O15 0.064342 0.453991 0.845665
#
# Coordination Sequence:
#
# PCOD9035852 Si02
#       7
#     2   2   2   2   2   2   2
#     4  12  26  44  75 108 150 195 243 298 361 434
#     4  12  25  44  73 111 149 194 243 297 363 436
#     4  10  22  46  73  99 142 186 247 301 366 430
#     4  10  24  43  69 100 142 189 241 303 361 431
#     4  10  24  44  67 104 142 192 240 298 361 431
#     4  11  23  42  70 102 140 186 243 297 363 430
#     4  11  25  42  68 103 146 189 240 297 365 435
#
# _framework density 28.464209
#
# number of rings (size 3 to 8) (size 9 to 14) (size 15 to 20)
#    0.000    1.143    2.857    2.143    6.000    1.714 
#    0.000    5.714    0.000    0.000    0.000    0.000 
#    0.000    0.000    0.000    0.000    0.000    0.000 
#
# Total GULP energy -78092.398170 kJ/mol
# GULP energy per Si atom -5578.028441 kJ/mol
# Density = 2.839942 g / cm^3
# Si number density = 28.464209 Si / 1000 Ang^3
#
#
#
# Elastic Constant Matrix: (Units=GPa)
#
#
# Indices 1 2 3 4 5 6 
#
# 1 134.5761 31.7974 63.3407 -26.0117 26.7929 -11.1388
# 2 31.7974 133.6454 69.2222 10.0411 -9.3118 -24.6364
# 3 63.3407 69.2222 147.1262 13.6891 9.6852 -1.4858
# 4 -26.0117 10.0411 13.6891 80.1654 -11.2191 12.5718
# 5 26.7929 -9.3118 9.6852 -11.2191 52.0822 -3.5147
# 6 -11.1388 -24.6364 -1.4858 12.5718 -3.5147 29.0076
#
#
#
# Elastic Compliance Matrix: (Units=1/GPa)
#
#
# Indices 1 2 3 4 5 6 
#
# 1 0.011493 -0.000578 -0.004735 0.003780 -0.004218 0.001531
# 2 -0.000578 0.013494 -0.006046 -0.002201 0.004196 0.012391
# 3 -0.004735 -0.006046 0.011939 -0.002178 -0.001713 -0.005605
# 4 0.003780 -0.002201 -0.002178 0.015606 0.000945 -0.007179
# 5 -0.004218 0.004196 -0.001713 0.000945 0.022927 0.004225
# 6 0.001531 0.012391 -0.005605 -0.007179 0.004225 0.048922
#
#
# Mechanical properties :
#
#
# Convention : Reuss Voigt Hill
#
# Bulk Modulus (GPa) = 70.38331 82.67426 76.52878
# Shear Modulus (GPa) = 32.93093 48.98353 40.95723
#
# Velocity S-wave (km/s) = 3.40505 4.15285 3.79740
# Velocity P-wave (km/s) = 6.34348 7.21824 6.79495
#
# Compressibility (1/GPa) = 0.01420791
#
# Stress axis : x y z
#
# Youngs Moduli (GPa) = 87.01275 74.10971 83.76080
#
# Poissons Ratio (x) = 0.04281 0.39657
# Poissons Ratio (y) = 0.05027 0.50644
# Poissons Ratio (z) = 0.41197 0.44808
#
# Static dielectric constant tensor:
#      x y z
#    x 2.151500 -0.012100 0.049710 
#    y -0.012100 2.530190 -0.016410 
#    z 0.049710 -0.016410 2.258720 
# 
# From -- ./inp_files/334720.got.cif
#   From: 2010.05.17/outbox.cif.g08.bks.cpg/sg2_168_cif.got.tgz:334720.got - 2010.06.03 11:33:40.
