data_PCOD9035749
_publ_section_title
;
Structure prediction by ZEFSAII (Michael W. Deem and Ramdas Pophale) SiO2 
 PCOD9035749
Probable space group: P -1
;
_chemical_formula_sum "Si O2"
_cell_formula_units_Z 10
_cell_length_a 5.273174
_cell_length_b 21.324804
_cell_length_c 4.992238
_cell_angle_alpha 126.891196
_cell_angle_beta 92.364726
_cell_angle_gamma 58.870826
_cell_volume 353.395037
_symmetry_space_group_name_H-M "P -1"
_symmetry_group_IT_number 2
_symmetry_cell_setting 'triclinic'
loop_
_space_group_symop_operation_xyz
x,y,z
-x,-y,-z
loop_
_atom_site_type_symbol
_atom_site_label
_atom_site_fract_x
_atom_site_fract_y
_atom_site_fract_z
Si Si1 0.519045 0.293264 0.591664
Si Si2 0.794518 0.938665 0.564035
Si Si3 0.912146 0.443897 0.169748
Si Si4 0.281359 0.649820 0.730258
Si Si5 0.578573 0.118836 0.400576
O O1 0.750087 0.287103 0.364006
O O2 0.547683 0.195324 0.385969
O O3 0.582077 0.322486 0.953338
O O4 0.141512 0.387627 0.779627
O O5 0.752430 0.855838 0.437637
O O6 0.160393 0.896921 0.413596
O O7 0.500000 0.000000 0.500000
O O8 0.716695 0.015485 0.993033
O O9 0.538792 0.535251 0.340434
O O10 0.964970 0.357281 0.135442
O O11 0.000000 0.500000 0.500000
#
# Coordination Sequence:
#
# PCOD9035749 Si02
#       5
#     2   2   2   2   2
#     4  11  24  41  64 102 136 179 237 292 350 419
#     4  10  22  46  71  96 139 185 233 290 367 432
#     4   9  21  42  65  94 133 184 230 284 353 415
#     4  10  23  41  65  94 137 182 231 289 350 418
#     4  10  24  42  67 106 136 185 237 295 356 434
#
# _framework density 28.296942000000001
#
# number of rings (size 3 to 8) (size 9 to 14) (size 15 to 20)
#    0.000    2.000    0.000    1.200    5.600   10.400 
#    0.000    0.000    0.000    0.000    0.000    0.000 
#    0.000    0.000    0.000    0.000    0.000    0.000 
#
# Total GULP energy -55889.944515 kJ/mol
# GULP energy per Si atom -5588.994452 kJ/mol
# Density = 2.823254 g / cm^3
# Si number density = 28.296942 Si / 1000 Ang^3
#
#
#
# Elastic Constant Matrix: (Units=GPa)
#
#
# Indices 1 2 3 4 5 6 
#
# 1 197.4776 48.4381 52.4583 1.2202 30.8852 28.4715
# 2 48.4381 142.1805 43.1945 8.8304 25.9060 42.8569
# 3 52.4583 43.1945 90.3728 -6.9051 19.0340 17.7275
# 4 1.2202 8.8304 -6.9051 50.6772 7.6924 12.9593
# 5 30.8852 25.9060 19.0340 7.6924 48.0038 9.1001
# 6 28.4715 42.8569 17.7275 12.9593 9.1001 65.2890
#
#
#
# Elastic Compliance Matrix: (Units=1/GPa)
#
#
# Indices 1 2 3 4 5 6 
#
# 1 0.006522 -0.000502 -0.002671 0.000348 -0.002640 -0.001491
# 2 -0.000502 0.010247 -0.002991 -0.000400 -0.002971 -0.005202
# 3 -0.002671 -0.002991 0.015186 0.003432 -0.003000 -0.001258
# 4 0.000348 -0.000400 0.003432 0.022059 -0.004025 -0.004639
# 5 -0.002640 -0.002971 -0.003000 -0.004025 0.025755 0.001125
# 6 -0.001491 -0.005202 -0.001258 -0.004639 0.001125 0.020487
#
#
# Mechanical properties :
#
#
# Convention : Reuss Voigt Hill
#
# Bulk Modulus (GPa) = 50.94726 79.80138 65.37432
# Shear Modulus (GPa) = 41.97250 51.85667 46.91459
#
# Velocity S-wave (km/s) = 3.85553 4.28552 4.07620
# Velocity P-wave (km/s) = 6.15335 7.26293 6.73104
#
# Compressibility (1/GPa) = 0.01962814
#
# Stress axis : x y z
#
# Youngs Moduli (GPa) = 153.32501 97.58906 65.84944
#
# Poissons Ratio (x) = 0.04897 0.17588
# Poissons Ratio (y) = 0.07694 0.19694
# Poissons Ratio (z) = 0.40953 0.29186
#
# Static dielectric constant tensor:
#      x y z
#    x 2.366730 -0.100500 -0.136920 
#    y -0.100500 2.330090 0.058390 
#    z -0.136920 0.058390 2.118520 
# 
# From -- ./inp_files/9109.got.cif
#   From: 2010.05.17/outbox.cif.g08.bks.cpg/sg2_5_cif.got.tgz:9109.got - 2010.06.03 11:33:40.
