data_PCOD9035223
_publ_section_title
;
Structure prediction by ZEFSAII (Michael W. Deem and Ramdas Pophale) SiO2 
 PCOD9035223
Probable space group: P -1
;
_chemical_formula_sum "Si O2"
_cell_formula_units_Z 12
_cell_length_a 11.895267
_cell_length_b 8.423640
_cell_length_c 20.561646
_cell_angle_alpha 39.584231
_cell_angle_beta 23.718935
_cell_angle_gamma 35.826385
_cell_volume 481.561073
_symmetry_space_group_name_H-M "P -1"
_symmetry_group_IT_number 2
_symmetry_cell_setting 'triclinic'
loop_
_space_group_symop_operation_xyz
x,y,z
-x,-y,-z
loop_
_atom_site_type_symbol
_atom_site_label
_atom_site_fract_x
_atom_site_fract_y
_atom_site_fract_z
Si Si1 0.463143 0.486224 0.100391
Si Si2 0.786341 0.901155 0.959324
Si Si3 0.375395 0.177198 0.446483
Si Si4 0.792655 0.214454 0.674729
Si Si5 0.377086 0.995902 0.363810
Si Si6 0.073862 0.385978 0.887313
O O1 0.340110 0.265950 0.258327
O O2 0.500000 0.500000 0.000000
O O3 0.790766 0.400824 0.988882
O O4 0.250346 0.798361 0.129489
O O5 0.449848 0.896924 0.138500
O O6 0.899664 0.799247 0.004533
O O7 0.989121 0.683929 0.867862
O O8 0.387995 0.472021 0.351321
O O9 0.517425 0.022430 0.352034
O O10 0.022124 0.238152 0.599717
O O11 0.500000 0.000000 0.500000
O O12 0.036419 0.022792 0.553146
O O13 0.613694 0.741286 0.279114
#
# Coordination Sequence:
#
# PCOD9035223 Si02
#       6
#     2   2   2   2   2   2
#     4  12  25  45  72 105 145 193 236 292 359 429
#     4  11  25  48  72  99 154 189 229 302 360 420
#     4   9  20  42  72 104 142 186 232 298 360 417
#     4   9  22  44  69 106 137 185 239 293 351 426
#     4  10  22  45  72 106 138 181 250 288 346 434
#     4  11  25  45  68 108 144 187 240 290 358 428
#
# _framework density 24.918959000000001
#
# number of rings (size 3 to 8) (size 9 to 14) (size 15 to 20)
#    1.000    0.667    1.667    2.000    0.000    3.333 
#    6.000    0.833    0.000    2.000    0.000    0.000 
#    0.000    0.000    0.000    0.000    0.000    0.000 
#
# Total GULP energy -67220.428293 kJ/mol
# GULP energy per Si atom -5601.702358 kJ/mol
# Density = 2.486224 g / cm^3
# Si number density = 24.918959 Si / 1000 Ang^3
#
#
#
# Elastic Constant Matrix: (Units=GPa)
#
#
# Indices 1 2 3 4 5 6 
#
# 1 135.6204 42.3066 48.5266 12.0046 22.7344 -16.4989
# 2 42.3066 136.0826 68.3341 25.7849 26.4088 7.8291
# 3 48.5266 68.3341 104.6795 26.7528 25.9910 20.4424
# 4 12.0046 25.7849 26.7528 42.9440 3.9530 21.6898
# 5 22.7344 26.4088 25.9910 3.9530 49.9267 14.4810
# 6 -16.4989 7.8291 20.4424 21.6898 14.4810 48.7785
#
#
#
# Elastic Compliance Matrix: (Units=1/GPa)
#
#
# Indices 1 2 3 4 5 6 
#
# 1 0.011470 0.000195 -0.004822 -0.004623 -0.005196 0.009467
# 2 0.000195 0.012021 -0.006525 -0.004993 -0.003886 0.004245
# 3 -0.004822 -0.006525 0.018500 -0.002781 -0.001865 -0.006546
# 4 -0.004623 -0.004993 -0.002781 0.038187 0.008730 -0.019169
# 5 -0.005196 -0.003886 -0.001865 0.008730 0.028404 -0.012667
# 6 0.009467 0.004245 -0.006546 -0.019169 -0.012667 0.038049
#
#
# Mechanical properties :
#
#
# Convention : Reuss Voigt Hill
#
# Bulk Modulus (GPa) = 50.79650 77.19080 63.99365
# Shear Modulus (GPa) = 28.49051 42.81085 35.65068
#
# Velocity S-wave (km/s) = 3.38498 4.14938 3.78652
# Velocity P-wave (km/s) = 5.97548 7.34850 6.69727
#
# Compressibility (1/GPa) = 0.01968640
#
# Stress axis : x y z
#
# Youngs Moduli (GPa) = 87.18520 83.19006 54.05403
#
# Poissons Ratio (x) = -0.01622 0.26063
# Poissons Ratio (y) = -0.01700 0.35272
# Poissons Ratio (z) = 0.42037 0.54285
#
# Static dielectric constant tensor:
#      x y z
#    x 2.056860 0.033760 0.002030 
#    y 0.033760 1.965630 0.033500 
#    z 0.002030 0.033500 1.968570 
# 
# From -- ./inp_files/593372.got.cif
#   From: 2010.05.17/outbox.cif.g08.bks.cpg/sg2_297_cif.got.tgz:593372.got - 2010.06.03 11:33:40.
