data_PCOD9035743
_publ_section_title
;
Structure prediction by ZEFSAII (Michael W. Deem and Ramdas Pophale) SiO2 
 PCOD9035743
Probable space group: P -1
;
_chemical_formula_sum "Si O2"
_cell_formula_units_Z 13
_cell_length_a 9.011582
_cell_length_b 12.365103
_cell_length_c 9.199438
_cell_angle_alpha 57.612707
_cell_angle_beta 42.022109
_cell_angle_gamma 55.710256
_cell_volume 554.089841
_symmetry_space_group_name_H-M "P -1"
_symmetry_group_IT_number 2
_symmetry_cell_setting 'triclinic'
loop_
_space_group_symop_operation_xyz
x,y,z
-x,-y,-z
loop_
_atom_site_type_symbol
_atom_site_label
_atom_site_fract_x
_atom_site_fract_y
_atom_site_fract_z
Si Si1 0.802923 0.926910 0.685209
Si Si2 0.437016 0.372213 0.695045
Si Si3 0.221542 0.465039 0.085339
Si Si4 0.702779 0.293510 0.001115
Si Si5 0.306553 0.138572 0.865737
Si Si6 0.000000 0.000000 0.000000
Si Si7 0.917635 0.306951 0.531332
O O1 0.877648 0.819269 0.580323
O O2 0.557525 0.031069 0.757582
O O3 0.786393 0.862106 0.900783
O O4 0.000000 0.000000 0.500000
O O5 0.500000 0.500000 0.500000
O O6 0.346097 0.282908 0.713339
O O7 0.685520 0.287545 0.641724
O O8 0.264578 0.418032 0.922394
O O9 0.438923 0.370148 0.088302
O O10 0.991340 0.435034 0.332765
O O11 0.237154 0.615872 0.980596
O O12 0.762462 0.134398 0.088700
O O13 0.864115 0.311846 0.735747
O O14 0.143571 0.089658 0.911867
#
# Coordination Sequence:
#
# PCOD9035743 Si02
#       7
#     2   2   2   2   2   1   2
#     4  11  21  42  74  98 129 184 236 279 346 419
#     4  11  25  42  68 103 134 176 237 287 339 408
#     4  10  22  46  71  94 135 185 233 286 335 415
#     4  10  24  44  66 101 138 178 231 281 351 415
#     4  11  25  44  67 102 143 177 228 291 346 417
#     4  12  26  44  66 100 150 176 220 298 350 402
#     4  11  21  41  73  95 128 185 235 279 342 412
#
# _framework density 23.461901000000001
#
# number of rings (size 3 to 8) (size 9 to 14) (size 15 to 20)
#    0.000    1.231    3.077    2.308    6.462    1.846 
#    2.769    3.846    0.000    0.000    0.000    0.000 
#    0.000    0.000    0.000    0.000    0.000    0.000 
#
# Total GULP energy -72472.380138 kJ/mol
# GULP energy per Si atom -5574.798472 kJ/mol
# Density = 2.340850 g / cm^3
# Si number density = 23.461901 Si / 1000 Ang^3
#
#
#
# Elastic Constant Matrix: (Units=GPa)
#
#
# Indices 1 2 3 4 5 6 
#
# 1 100.9590 43.9573 22.7784 -10.7496 -31.9298 28.2143
# 2 43.9573 155.9452 12.4136 -10.9313 -10.6818 30.7677
# 3 22.7784 12.4136 72.3230 7.4520 -21.6277 8.6581
# 4 -10.7496 -10.9313 7.4520 30.1385 4.1807 -9.8312
# 5 -31.9298 -10.6818 -21.6277 4.1807 15.0990 -7.2756
# 6 28.2143 30.7677 8.6581 -9.8312 -7.2756 44.7299
#
#
#
# Elastic Compliance Matrix: (Units=1/GPa)
#
#
# Indices 1 2 3 4 5 6 
#
# 1 0.074377 -0.007464 0.048056 -0.025166 0.217582 -0.021223
# 2 -0.007464 0.008318 -0.004756 0.003352 -0.018803 -0.002415
# 3 0.048056 -0.004756 0.059603 -0.029862 0.184621 -0.015111
# 4 -0.025166 0.003352 -0.029862 0.051457 -0.101014 0.014228
# 5 0.217582 -0.018803 0.184621 -0.101014 0.778680 -0.055591
# 6 -0.021223 -0.002415 -0.015111 0.014228 -0.055591 0.034415
#
#
# Mechanical properties :
#
#
# Convention : Reuss Voigt Hill
#
# Bulk Modulus (GPa) = 4.67353 54.16951 29.42152
# Shear Modulus (GPa) = 4.96770 34.66534 19.81652
#
# Velocity S-wave (km/s) = 1.45669 3.84802 2.90940
# Velocity P-wave (km/s) = 2.19671 6.54839 4.88400
#
# Compressibility (1/GPa) = 0.21397092
#
# Stress axis : x y z
#
# Youngs Moduli (GPa) = 13.44494 120.21484 16.77759
#
# Poissons Ratio (x) = 0.89724 -0.80626
# Poissons Ratio (y) = 0.10035 0.07980
# Poissons Ratio (z) = -0.64611 0.57176
#
# Static dielectric constant tensor:
#      x y z
#    x 1.891270 -0.067910 0.002680 
#    y -0.067910 1.922620 -0.026680 
#    z 0.002680 -0.026680 1.876630 
# 
# From -- ./inp_files/25230.got.cif
#   From: 2010.05.17/outbox.cif.g08.bks.cpg/sg2_13_cif.got.tgz:25230.got - 2010.06.03 11:33:40.
