data_PCOD9035003
_publ_section_title
;
Structure prediction by ZEFSAII (Michael W. Deem and Ramdas Pophale) SiO2 
 PCOD9035003
Probable space group: P -1
;
_chemical_formula_sum "Si O2"
_cell_formula_units_Z 14
_cell_length_a 8.912123
_cell_length_b 14.898095
_cell_length_c 5.124551
_cell_angle_alpha 86.436354
_cell_angle_beta 63.646699
_cell_angle_gamma 61.682049
_cell_volume 527.145491
_symmetry_space_group_name_H-M "P -1"
_symmetry_group_IT_number 2
_symmetry_cell_setting 'triclinic'
loop_
_space_group_symop_operation_xyz
x,y,z
-x,-y,-z
loop_
_atom_site_type_symbol
_atom_site_label
_atom_site_fract_x
_atom_site_fract_y
_atom_site_fract_z
Si Si1 0.234780 0.773466 0.153094
Si Si2 0.459963 0.280543 0.703043
Si Si3 0.110190 0.556865 0.285120
Si Si4 0.069196 0.320628 0.118998
Si Si5 0.812750 0.873899 0.305711
Si Si6 0.512911 0.572682 0.699289
Si Si7 0.566370 0.105678 0.270369
O O1 0.312234 0.671989 0.928712
O O2 0.339730 0.839575 0.978225
O O3 0.347297 0.725014 0.340378
O O4 0.008331 0.848364 0.305928
O O5 0.275025 0.313538 0.017323
O O6 0.386020 0.366915 0.521645
O O7 0.525352 0.167432 0.562741
O O8 0.340518 0.488512 0.165230
O O9 0.000000 0.500000 0.500000
O O10 0.045491 0.592906 0.032999
O O11 0.041672 0.652245 0.527272
O O12 0.120813 0.214883 0.949774
O O13 0.647492 0.876548 0.623472
O O14 0.712040 0.985276 0.223784
O O15 0.500000 0.500000 0.500000
#
# Coordination Sequence:
#
# PCOD9035003 Si02
#       7
#     2   2   2   2   2   2   2
#     4  11  23  43  68  98 137 182 228 295 353 424
#     4  10  23  41  64  98 136 177 234 288 353 421
#     4  12  24  43  68  98 136 194 237 285 355 421
#     4  11  25  43  68 104 139 186 240 293 349 426
#     4  10  22  45  70 101 137 178 236 287 355 426
#     4  11  25  40  62  94 139 180 232 292 346 416
#     4   9  22  46  67  99 137 177 232 289 357 422
#
# _framework density 26.558130999999999
#
# number of rings (size 3 to 8) (size 9 to 14) (size 15 to 20)
#    0.000    1.429    1.429    2.571    8.000    1.143 
#    2.571    2.143    0.000    0.000    0.000    0.000 
#    0.000    0.000    0.000    0.000    0.000    0.000 
#
# Total GULP energy -78431.288879 kJ/mol
# GULP energy per Si atom -5602.234920 kJ/mol
# Density = 2.649768 g / cm^3
# Si number density = 26.558131 Si / 1000 Ang^3
#
#
#
# Elastic Constant Matrix: (Units=GPa)
#
#
# Indices 1 2 3 4 5 6 
#
# 1 184.9084 47.8016 34.4618 6.7090 -24.8378 -36.1898
# 2 47.8016 157.2666 34.1117 12.4135 -7.9127 -7.4546
# 3 34.4618 34.1117 83.1963 0.3989 -3.9814 -22.8216
# 4 6.7090 12.4135 0.3989 32.2753 -3.8701 -7.4312
# 5 -24.8378 -7.9127 -3.9814 -3.8701 46.5734 5.6024
# 6 -36.1898 -7.4546 -22.8216 -7.4312 5.6024 47.3311
#
#
#
# Elastic Compliance Matrix: (Units=1/GPa)
#
#
# Indices 1 2 3 4 5 6 
#
# 1 0.007305 -0.001694 -0.000927 0.000567 0.003022 0.004603
# 2 -0.001694 0.007667 -0.002972 -0.003006 0.000137 -0.002009
# 3 -0.000927 -0.002972 0.015439 0.002659 -0.000266 0.006717
# 4 0.000567 -0.003006 0.002659 0.033684 0.002062 0.006287
# 5 0.003022 0.000137 -0.000266 0.002062 0.023283 -0.000228
# 6 0.004603 -0.002009 0.006717 0.006287 -0.000228 0.028584
#
#
# Mechanical properties :
#
#
# Convention : Reuss Voigt Hill
#
# Bulk Modulus (GPa) = 52.01329 73.12463 62.56896
# Shear Modulus (GPa) = 37.43777 45.83568 41.63673
#
# Velocity S-wave (km/s) = 3.75861 4.15886 3.96379
# Velocity P-wave (km/s) = 6.20189 7.11723 6.67527
#
# Compressibility (1/GPa) = 0.01922586
#
# Stress axis : x y z
#
# Youngs Moduli (GPa) = 136.89285 130.42777 64.77018
#
# Poissons Ratio (x) = 0.22092 0.06003
# Poissons Ratio (y) = 0.23187 0.19250
# Poissons Ratio (z) = 0.12688 0.38764
#
# Static dielectric constant tensor:
#      x y z
#    x 2.116460 0.055650 -0.016110 
#    y 0.055650 2.081690 -0.058670 
#    z -0.016110 -0.058670 2.091520 
# 
# From -- ./inp_files/38417.got.cif
#   From: 2010.05.17/outbox.cif.g08.bks.cpg/sg2_20_cif.got.tgz:38417.got - 2010.06.03 11:33:40.
