data_PCOD9035297
_publ_section_title
;
Structure prediction by ZEFSAII (Michael W. Deem and Ramdas Pophale) SiO2 
 PCOD9035297
Probable space group: P -1
;
_chemical_formula_sum "Si O2"
_cell_formula_units_Z 12
_cell_length_a 4.838480
_cell_length_b 12.719677
_cell_length_c 8.924276
_cell_angle_alpha 63.202707
_cell_angle_beta 70.557427
_cell_angle_gamma 61.645751
_cell_volume 426.476102
_symmetry_space_group_name_H-M "P -1"
_symmetry_group_IT_number 2
_symmetry_cell_setting 'triclinic'
loop_
_space_group_symop_operation_xyz
x,y,z
-x,-y,-z
loop_
_atom_site_type_symbol
_atom_site_label
_atom_site_fract_x
_atom_site_fract_y
_atom_site_fract_z
Si Si1 0.500000 0.000000 0.000000
Si Si2 0.136495 0.972652 0.661553
Si Si3 0.724352 0.740028 0.281319
Si Si4 0.654588 0.311934 0.218532
Si Si5 0.000000 0.000000 0.000000
Si Si6 0.070297 0.545752 0.119318
Si Si7 0.959259 0.240886 0.512904
O O1 0.767015 0.870672 0.133148
O O2 0.107890 0.010579 0.160773
O O3 0.356934 0.825183 0.714019
O O4 0.372910 0.912502 0.967798
O O5 0.000000 0.000000 0.500000
O O6 0.223147 0.096217 0.581218
O O7 0.374897 0.772077 0.386640
O O8 0.783042 0.631075 0.217877
O O9 0.968849 0.686420 0.408544
O O10 0.325116 0.427222 0.236342
O O11 0.901842 0.294423 0.321426
O O12 0.767287 0.355777 0.018446
O O13 0.000000 0.500000 0.000000
#
# Coordination Sequence:
#
# PCOD9035297 Si02
#       7
#     1   2   2   2   1   2   2
#     4  12  22  40  72 102 138 178 236 296 354 432
#     4  10  22  45  73 108 143 186 237 304 369 437
#     4  12  26  45  75 107 142 191 244 295 362 437
#     4  10  26  50  68 103 149 187 242 302 360 436
#     4  12  22  40  68 102 140 186 224 290 362 424
#     4  11  28  45  72 102 141 202 241 294 358 438
#     4  11  26  47  75 110 142 184 241 306 371 424
#
# _framework density 28.137566
#
# number of rings (size 3 to 8) (size 9 to 14) (size 15 to 20)
#    0.000    1.000    3.333    1.000    9.333    1.333 
#    0.000    5.000    0.000    0.000    0.000    0.000 
#    0.000    0.000    0.000    0.000    0.000    0.000 
#
# Total GULP energy -66847.619355 kJ/mol
# GULP energy per Si atom -5570.634946 kJ/mol
# Density = 2.807352 g / cm^3
# Si number density = 28.137566 Si / 1000 Ang^3
#
#
#
# Elastic Constant Matrix: (Units=GPa)
#
#
# Indices 1 2 3 4 5 6 
#
# 1 126.3607 16.4952 53.5576 7.0459 31.3135 1.7288
# 2 16.4952 164.5814 72.8959 -0.6031 20.3740 -14.8101
# 3 53.5576 72.8959 175.0165 -13.1434 11.7143 1.7280
# 4 7.0459 -0.6031 -13.1434 50.5193 8.2994 18.3310
# 5 31.3135 20.3740 11.7143 8.2994 61.7698 1.6898
# 6 1.7288 -14.8101 1.7280 18.3310 1.6898 32.5294
#
#
#
# Elastic Compliance Matrix: (Units=1/GPa)
#
#
# Indices 1 2 3 4 5 6 
#
# 1 0.010593 0.001302 -0.003645 -0.002244 -0.004854 0.001740
# 2 0.001302 0.008564 -0.004067 -0.002820 -0.002492 0.005764
# 3 -0.003645 -0.004067 0.008814 0.004234 0.001074 -0.004568
# 4 -0.002244 -0.002820 0.004234 0.027615 -0.001985 -0.016848
# 5 -0.004854 -0.002492 0.001074 -0.001985 0.019558 -0.000831
# 6 0.001740 0.005764 -0.004568 -0.016848 -0.000831 0.043053
#
#
# Mechanical properties :
#
#
# Convention : Reuss Voigt Hill
#
# Bulk Modulus (GPa) = 66.00123 83.53956 74.77040
# Shear Modulus (GPa) = 36.74667 50.49770 43.62219
#
# Velocity S-wave (km/s) = 3.61773 4.24095 3.94168
# Velocity P-wave (km/s) = 6.39986 7.33042 6.88089
#
# Compressibility (1/GPa) = 0.01515123
#
# Stress axis : x y z
#
# Youngs Moduli (GPa) = 94.40253 116.77008 113.45223
#
# Poissons Ratio (x) = -0.15202 0.41349
# Poissons Ratio (y) = -0.12290 0.46143
# Poissons Ratio (z) = 0.34406 0.47492
#
# Static dielectric constant tensor:
#      x y z
#    x 5.426680 -0.719710 -1.201240 
#    y -0.719710 2.241360 0.281850 
#    z -1.201240 0.281850 2.815470 
# 
# From -- ./inp_files/26186.got.cif
#   From: 2010.05.17/outbox.cif.g08.bks.cpg/sg2_14_cif.got.tgz:26186.got - 2010.06.03 11:33:40.
