data_PCOD9035526
_publ_section_title
;
Structure prediction by ZEFSAII (Michael W. Deem and Ramdas Pophale) SiO2 
 PCOD9035526
Probable space group: P -1
;
_chemical_formula_sum "Si O2"
_cell_formula_units_Z 14
_cell_length_a 14.989756
_cell_length_b 18.597596
_cell_length_c 9.086160
_cell_angle_alpha 133.755295
_cell_angle_beta 132.101782
_cell_angle_gamma 20.676900
_cell_volume 643.288669
_symmetry_space_group_name_H-M "P -1"
_symmetry_group_IT_number 2
_symmetry_cell_setting 'triclinic'
loop_
_space_group_symop_operation_xyz
x,y,z
-x,-y,-z
loop_
_atom_site_type_symbol
_atom_site_label
_atom_site_fract_x
_atom_site_fract_y
_atom_site_fract_z
Si Si1 0.604406 0.814459 0.859316
Si Si2 0.740781 0.394469 0.593692
Si Si3 0.915401 0.955901 0.910963
Si Si4 0.733004 0.069346 0.559286
Si Si5 0.266108 0.536588 0.655864
Si Si6 0.055624 0.428627 0.627578
Si Si7 0.574475 0.718559 0.996827
O O1 0.447237 0.873159 0.644277
O O2 0.575842 0.778522 0.930564
O O3 0.889202 0.603746 0.817849
O O4 0.500000 0.000000 0.000000
O O5 0.500000 0.500000 0.500000
O O6 0.721007 0.450401 0.484879
O O7 0.727741 0.502288 0.836011
O O8 0.995611 0.140743 0.519184
O O9 0.783778 0.003094 0.688941
O O10 0.708616 0.109490 0.027037
O O11 0.155670 0.712298 0.866729
O O12 0.000000 0.000000 0.000000
O O13 0.550273 0.299146 0.682860
O O14 0.053138 0.604661 0.533915
O O15 0.000000 0.500000 0.500000
O O16 0.326090 0.275007 0.760961
#
# Coordination Sequence:
#
# PCOD9035526 Si02
#       7
#     2   2   2   2   2   2   2
#     4  11  24  40  66 106 134 175 227 279 344 409
#     4  11  23  43  69  99 137 176 228 282 333 400
#     4  11  26  46  67  96 138 182 232 275 335 409
#     4  10  22  46  67  92 139 175 222 280 338 400
#     4  10  23  45  66  97 135 176 226 274 345 405
#     4  11  24  42  68  98 139 176 223 279 347 410
#     4  12  23  42  70 104 136 178 226 287 340 397
#
# _framework density 21.763169999999999
#
# number of rings (size 3 to 8) (size 9 to 14) (size 15 to 20)
#    0.000    1.143    2.857    4.714    6.000    1.714 
#    5.143    0.000    0.000    0.000    0.000    0.000 
#    0.000    0.000    0.000    0.000    0.000    0.000 
#
# Total GULP energy -78066.506812 kJ/mol
# GULP energy per Si atom -5576.179058 kJ/mol
# Density = 2.171364 g / cm^3
# Si number density = 21.763170 Si / 1000 Ang^3
#
#
#
# Elastic Constant Matrix: (Units=GPa)
#
#
# Indices 1 2 3 4 5 6 
#
# 1 152.6382 32.5963 39.1032 15.8545 11.8877 -8.1168
# 2 32.5963 136.5188 19.2344 38.6406 13.9303 -7.0836
# 3 39.1032 19.2344 67.9649 3.2151 3.2423 3.2063
# 4 15.8545 38.6406 3.2151 44.7507 0.1763 -4.4065
# 5 11.8877 13.9303 3.2423 0.1763 35.3959 -0.2909
# 6 -8.1168 -7.0836 3.2063 -4.4065 -0.2909 31.9283
#
#
#
# Elastic Compliance Matrix: (Units=1/GPa)
#
#
# Indices 1 2 3 4 5 6 
#
# 1 0.008307 -0.000436 -0.004560 -0.002017 -0.002173 0.002175
# 2 -0.000436 0.010677 -0.002233 -0.008768 -0.003797 0.001238
# 3 -0.004560 -0.002233 0.017993 0.001934 0.000726 -0.003188
# 4 -0.002017 -0.008768 0.001934 0.030636 0.003811 0.001611
# 5 -0.002173 -0.003797 0.000726 0.003811 0.030385 -0.000665
# 6 0.002175 0.001238 -0.003188 0.001611 -0.000665 0.032684
#
#
# Mechanical properties :
#
#
# Convention : Reuss Voigt Hill
#
# Bulk Modulus (GPa) = 44.40586 59.88772 52.14679
# Shear Modulus (GPa) = 32.75564 40.16086 36.45825
#
# Velocity S-wave (km/s) = 3.88376 4.30042 4.09739
# Velocity P-wave (km/s) = 6.36867 7.22744 6.81160
#
# Compressibility (1/GPa) = 0.02251955
#
# Stress axis : x y z
#
# Youngs Moduli (GPa) = 120.38201 93.65950 55.57686
#
# Poissons Ratio (x) = 0.04081 0.25341
# Poissons Ratio (y) = 0.05245 0.12413
# Poissons Ratio (z) = 0.54889 0.20918
#
# Static dielectric constant tensor:
#      x y z
#    x 1.826450 -0.070850 0.037940 
#    y -0.070850 2.056550 0.076370 
#    z 0.037940 0.076370 1.826620 
# 
# From -- ./inp_files/184685.got.cif
#   From: 2010.05.17/outbox.cif.g08.bks.cpg/sg2_93_cif.got.tgz:184685.got - 2010.06.03 11:33:40.
