data_PCOD9035408
_publ_section_title
;
Structure prediction by ZEFSAII (Michael W. Deem and Ramdas Pophale) SiO2 
 PCOD9035408
Probable space group: P -1
;
_chemical_formula_sum "Si O2"
_cell_formula_units_Z 14
_cell_length_a 24.361071
_cell_length_b 5.130377
_cell_length_c 5.982313
_cell_angle_alpha 73.271634
_cell_angle_beta 84.330288
_cell_angle_gamma 127.917748
_cell_volume 525.929135
_symmetry_space_group_name_H-M "P -1"
_symmetry_group_IT_number 2
_symmetry_cell_setting 'triclinic'
loop_
_space_group_symop_operation_xyz
x,y,z
-x,-y,-z
loop_
_atom_site_type_symbol
_atom_site_label
_atom_site_fract_x
_atom_site_fract_y
_atom_site_fract_z
Si Si1 0.221764 0.515607 0.479891
Si Si2 0.581631 0.169080 0.848250
Si Si3 0.278127 0.122852 0.585916
Si Si4 0.488458 0.656296 0.669020
Si Si5 0.946653 0.566413 0.920711
Si Si6 0.669660 0.714785 0.015975
Si Si7 0.080851 0.395445 0.578205
O O1 0.239352 0.266690 0.465463
O O2 0.137739 0.335731 0.521167
O O3 0.244210 0.710610 0.667526
O O4 0.278001 0.911668 0.236961
O O5 0.556338 0.849683 0.769954
O O6 0.500000 0.000000 0.500000
O O7 0.634328 0.555653 0.597812
O O8 0.500000 0.000000 0.000000
O O9 0.278976 0.198172 0.824820
O O10 0.366937 0.668961 0.994240
O O11 0.500000 0.500000 0.500000
O O12 0.404228 0.368600 0.860349
O O13 0.916338 0.423131 0.706858
O O14 0.900406 0.452830 0.203764
O O15 0.997319 0.002807 0.746987
O O16 0.000000 0.500000 0.000000
#
# Coordination Sequence:
#
# PCOD9035408 Si02
#       7
#     2   2   2   2   2   2   2
#     4  11  28  45  68 106 143 191 238 292 361 444
#     4   9  21  42  66  96 129 172 239 296 364 426
#     4  11  25  46  68  99 141 184 243 293 365 438
#     4  11  23  40  70  95 130 179 233 304 375 428
#     4  10  22  45  76 110 147 189 245 298 354 432
#     4  10  24  46  70  97 137 185 236 303 365 444
#     4  10  24  44  70 111 147 192 244 297 360 432
#
# _framework density 26.619555999999999
#
# number of rings (size 3 to 8) (size 9 to 14) (size 15 to 20)
#    0.000    1.714    1.429    0.429    6.000    5.714 
#    0.000    5.714    0.000    0.000    0.000    0.000 
#    0.000    0.000    0.000    0.000    0.000    0.000 
#
# Total GULP energy -77960.544788 kJ/mol
# GULP energy per Si atom -5568.610342 kJ/mol
# Density = 2.655897 g / cm^3
# Si number density = 26.619556 Si / 1000 Ang^3
#
#
#
# Elastic Constant Matrix: (Units=GPa)
#
#
# Indices 1 2 3 4 5 6 
#
# 1 106.2096 10.2128 37.0194 -0.9391 -13.5427 -17.6670
# 2 10.2128 96.5944 23.6852 0.0372 -16.1121 -12.9941
# 3 37.0194 23.6852 121.0384 18.3572 5.5382 1.3165
# 4 -0.9391 0.0372 18.3572 47.8990 2.5926 -6.0780
# 5 -13.5427 -16.1121 5.5382 2.5926 46.0320 -0.2883
# 6 -17.6670 -12.9941 1.3165 -6.0780 -0.2883 41.4721
#
#
#
# Elastic Compliance Matrix: (Units=1/GPa)
#
#
# Indices 1 2 3 4 5 6 
#
# 1 0.012663 0.001507 -0.004859 0.002671 0.004727 0.006445
# 2 0.001507 0.012582 -0.003473 0.001701 0.005200 0.004980
# 3 -0.004859 -0.003473 0.011372 -0.004786 -0.003771 -0.004247
# 4 0.002671 0.001701 -0.004786 0.023393 0.000673 0.005256
# 5 0.004727 0.005200 -0.003771 0.000673 0.025376 0.004038
# 6 0.006445 0.004980 -0.004247 0.005256 0.004038 0.029352
#
#
# Mechanical properties :
#
#
# Convention : Reuss Voigt Hill
#
# Bulk Modulus (GPa) = 43.54269 51.74191 47.64230
# Shear Modulus (GPa) = 36.75310 43.94230 40.34770
#
# Velocity S-wave (km/s) = 3.71978 4.06735 3.89744
# Velocity P-wave (km/s) = 5.90271 6.44496 6.17979
#
# Compressibility (1/GPa) = 0.02296597
#
# Stress axis : x y z
#
# Youngs Moduli (GPa) = 78.97241 79.48168 87.93340
#
# Poissons Ratio (x) = -0.11980 0.42730
# Poissons Ratio (y) = -0.11903 0.30540
# Poissons Ratio (z) = 0.38376 0.27605
#
# Static dielectric constant tensor:
#      x y z
#    x 2.120300 0.005250 0.124780 
#    y 0.005250 2.183520 0.229430 
#    z 0.124780 0.229430 2.545700 
# 
# From -- ./inp_files/120913.got.cif
#   From: 2010.05.17/outbox.cif.g08.bks.cpg/sg2_61_cif.got.tgz:120913.got - 2010.06.03 11:33:40.
