data_PCOD9035406
_publ_section_title
;
Structure prediction by ZEFSAII (Michael W. Deem and Ramdas Pophale) SiO2 
 PCOD9035406
Probable space group: P -1
;
_chemical_formula_sum "Si O2"
_cell_formula_units_Z 16
_cell_length_a 6.167324
_cell_length_b 24.373616
_cell_length_c 9.606916
_cell_angle_alpha 138.123245
_cell_angle_beta 54.072550
_cell_angle_gamma 125.266713
_cell_volume 753.772866
_symmetry_space_group_name_H-M "P -1"
_symmetry_group_IT_number 2
_symmetry_cell_setting 'triclinic'
loop_
_space_group_symop_operation_xyz
x,y,z
-x,-y,-z
loop_
_atom_site_type_symbol
_atom_site_label
_atom_site_fract_x
_atom_site_fract_y
_atom_site_fract_z
Si Si1 0.213812 0.431348 0.633910
Si Si2 0.411058 0.279003 0.382585
Si Si3 0.533545 0.801848 0.085052
Si Si4 0.996185 0.407134 0.382438
Si Si5 0.179193 0.011923 0.606060
Si Si6 0.949407 0.834578 0.454778
Si Si7 0.628338 0.450794 0.970779
Si Si8 0.288912 0.290771 0.916139
O O1 0.222366 0.341235 0.524464
O O2 0.218583 0.422996 0.452673
O O3 0.937151 0.460002 0.823021
O O4 0.419372 0.504856 0.782735
O O5 0.702064 0.348105 0.440455
O O6 0.242330 0.216276 0.445990
O O7 0.473811 0.225070 0.124589
O O8 0.769376 0.890252 0.184222
O O9 0.249534 0.814045 0.284327
O O10 0.607113 0.728231 0.009139
O O11 0.000000 0.500000 0.500000
O O12 0.066343 0.345674 0.122088
O O13 0.500000 0.000000 0.500000
O O14 0.997884 0.936039 0.626359
O O15 0.000000 0.000000 0.500000
O O16 0.810342 0.797693 0.292015
O O17 0.509856 0.351380 0.849101
O O18 0.500000 0.500000 0.000000
#
# Coordination Sequence:
#
# PCOD9035406 Si02
#       8
#     2   2   2   2   2   2   2   2
#     4  11  23  41  60  91 131 176 230 287 349 406
#     4  12  25  43  68 101 138 181 239 287 350 427
#     4  11  24  44  71 100 140 178 236 290 360 433
#     4  12  26  40  63  96 139 181 235 292 347 415
#     4  10  22  45  76 110 146 191 238 297 373 441
#     4  11  24  44  72 100 137 183 232 291 360 431
#     4  11  24  40  62  92 130 174 234 292 342 420
#     4  12  22  40  66  91 132 183 227 285 355 420
#
# _framework density 21.226555000000001
#
# number of rings (size 3 to 8) (size 9 to 14) (size 15 to 20)
#    0.000    0.750    3.750    4.500    1.750    3.500 
#    0.000    0.000    0.000    3.750    0.000    0.000 
#    0.000    0.000    0.000    0.000    0.000    0.000 
#
# Total GULP energy -89086.228295 kJ/mol
# GULP energy per Si atom -5567.889268 kJ/mol
# Density = 2.117824 g / cm^3
# Si number density = 21.226555 Si / 1000 Ang^3
#
#
#
# Elastic Constant Matrix: (Units=GPa)
#
#
# Indices 1 2 3 4 5 6 
#
# 1 77.3605 37.4894 25.1941 -2.7800 12.4722 -1.8496
# 2 37.4894 151.8254 34.2440 0.3930 9.6840 -3.6878
# 3 25.1941 34.2440 78.3839 -4.8455 11.5482 6.6609
# 4 -2.7800 0.3930 -4.8455 34.7309 2.5505 1.0075
# 5 12.4722 9.6840 11.5482 2.5505 34.8269 7.9691
# 6 -1.8496 -3.6878 6.6609 1.0075 7.9691 28.9668
#
#
#
# Elastic Compliance Matrix: (Units=1/GPa)
#
#
# Indices 1 2 3 4 5 6 
#
# 1 0.016297 -0.002889 -0.003461 0.001113 -0.004582 0.002691
# 2 -0.002889 0.007978 -0.002646 -0.000692 -0.000631 0.001637
# 3 -0.003461 -0.002646 0.015856 0.002262 -0.002634 -0.003558
# 4 0.001113 -0.000692 0.002262 0.029443 -0.002940 -0.000752
# 5 -0.004582 -0.000631 -0.002634 -0.002940 0.033661 -0.008925
# 6 0.002691 0.001637 -0.003558 -0.000752 -0.008925 0.038202
#
#
# Mechanical properties :
#
#
# Convention : Reuss Voigt Hill
#
# Bulk Modulus (GPa) = 45.16665 55.71388 50.44026
# Shear Modulus (GPa) = 29.97445 33.74774 31.86110
#
# Velocity S-wave (km/s) = 3.76190 3.99166 3.87848
# Velocity P-wave (km/s) = 6.33985 6.89556 6.62353
#
# Compressibility (1/GPa) = 0.02214023
#
# Stress axis : x y z
#
# Youngs Moduli (GPa) = 61.36267 125.33837 63.06620
#
# Poissons Ratio (x) = 0.36206 0.21826
# Poissons Ratio (y) = 0.17726 0.16688
# Poissons Ratio (z) = 0.21236 0.33166
#
# Static dielectric constant tensor:
#      x y z
#    x 1.899150 0.017410 0.020250 
#    y 0.017410 1.706230 0.000860 
#    z 0.020250 0.000860 1.794220 
# 
# From -- ./inp_files/52688.got.cif
#   From: 2010.05.17/outbox.cif.g08.bks.cpg/sg2_27_cif.got.tgz:52688.got - 2010.06.03 11:33:40.
