data_PCOD9035271
_publ_section_title
;
Structure prediction by ZEFSAII (Michael W. Deem and Ramdas Pophale) SiO2 
 PCOD9035271
Probable space group: P -1
;
_chemical_formula_sum "Si O2"
_cell_formula_units_Z 16
_cell_length_a 8.692223
_cell_length_b 15.138846
_cell_length_c 5.459561
_cell_angle_alpha 86.016228
_cell_angle_beta 66.317935
_cell_angle_gamma 93.719391
_cell_volume 652.942361
_symmetry_space_group_name_H-M "P -1"
_symmetry_group_IT_number 2
_symmetry_cell_setting 'triclinic'
loop_
_space_group_symop_operation_xyz
x,y,z
-x,-y,-z
loop_
_atom_site_type_symbol
_atom_site_label
_atom_site_fract_x
_atom_site_fract_y
_atom_site_fract_z
Si Si1 0.695210 0.995062 0.798791
Si Si2 0.183507 0.525606 0.474870
Si Si3 0.695971 0.833395 0.561016
Si Si4 0.757005 0.278540 0.706073
Si Si5 0.652744 0.521652 0.140403
Si Si6 0.334525 0.863858 0.580595
Si Si7 0.948545 0.146775 0.861979
Si Si8 0.526302 0.650922 0.848157
O O1 0.740750 0.894830 0.759336
O O2 0.696666 0.040392 0.521792
O O3 0.835374 0.058288 0.847780
O O4 0.500000 0.000000 0.000000
O O5 0.205382 0.631273 0.485024
O O6 0.222409 0.476749 0.711709
O O7 0.000000 0.500000 0.500000
O O8 0.280111 0.504720 0.165801
O O9 0.511563 0.862701 0.603975
O O10 0.662356 0.727920 0.651196
O O11 0.851769 0.857534 0.271516
O O12 0.646428 0.203009 0.642524
O O13 0.917965 0.230440 0.690773
O O14 0.645600 0.304238 0.002572
O O15 0.519483 0.433566 0.286313
O O16 0.580560 0.612744 0.086104
O O17 0.159208 0.833049 0.834799
#
# Coordination Sequence:
#
# PCOD9035271 Si02
#       8
#     2   2   2   2   2   2   2   2
#     4  11  23  46  70  97 146 187 232 294 369 433
#     4  11  24  43  69 104 147 192 244 313 378 444
#     4  12  23  42  72 103 137 186 241 298 365 437
#     4  10  23  45  68  95 144 187 229 301 367 433
#     4  10  24  44  72 104 142 195 252 306 378 451
#     4  11  23  46  70  98 142 186 237 298 361 439
#     4  11  25  44  67 103 141 182 237 295 359 439
#     4  10  22  45  73 102 142 191 246 307 373 446
#
# _framework density 24.504456999999999
#
# number of rings (size 3 to 8) (size 9 to 14) (size 15 to 20)
#    0.000    1.250    2.500    2.625    3.500    6.000 
#    9.000    0.000    0.000    0.000    0.000    0.000 
#    0.000    0.000    0.000    0.000    0.000    0.000 
#
# Total GULP energy -89286.278127 kJ/mol
# GULP energy per Si atom -5580.392383 kJ/mol
# Density = 2.444868 g / cm^3
# Si number density = 24.504457 Si / 1000 Ang^3
#
#
#
# Elastic Constant Matrix: (Units=GPa)
#
#
# Indices 1 2 3 4 5 6 
#
# 1 91.7533 29.0051 44.9762 -10.1126 -3.6916 8.9568
# 2 29.0051 83.8712 11.6984 -3.1955 -5.1327 0.9512
# 3 44.9762 11.6984 69.0245 -10.1057 -2.3032 -3.8717
# 4 -10.1126 -3.1955 -10.1057 31.6183 -1.5808 -6.2116
# 5 -3.6916 -5.1327 -2.3032 -1.5808 49.4693 -5.1495
# 6 8.9568 0.9512 -3.8717 -6.2116 -5.1495 15.5694
#
#
#
# Elastic Compliance Matrix: (Units=1/GPa)
#
#
# Indices 1 2 3 4 5 6 
#
# 1 0.020590 -0.005168 -0.013706 -0.001527 -0.001352 -0.015994
# 2 -0.005168 0.013597 0.001433 0.000911 0.001469 0.003348
# 3 -0.013706 0.001433 0.025358 0.007502 0.002409 0.017893
# 4 -0.001527 0.000911 0.007502 0.037496 0.003485 0.018801
# 5 -0.001352 0.001469 0.002409 0.003485 0.021509 0.009791
# 6 -0.015994 0.003348 0.017893 0.018801 0.009791 0.088413
#
#
# Mechanical properties :
#
#
# Convention : Reuss Voigt Hill
#
# Bulk Modulus (GPa) = 40.54735 46.22314 43.38524
# Shear Modulus (GPa) = 19.99471 29.92935 24.96203
#
# Velocity S-wave (km/s) = 2.85960 3.49862 3.19513
# Velocity P-wave (km/s) = 5.24271 5.93503 5.59958
#
# Compressibility (1/GPa) = 0.02466252
#
# Stress axis : x y z
#
# Youngs Moduli (GPa) = 48.56794 73.54493 39.43556
#
# Poissons Ratio (x) = 0.38010 0.54051
# Poissons Ratio (y) = 0.25101 -0.05653
# Poissons Ratio (z) = 0.66568 -0.10542
#
# Static dielectric constant tensor:
#      x y z
#    x 2.153340 -0.564680 -0.225610 
#    y -0.564680 3.803590 0.663150 
#    z -0.225610 0.663150 2.287850 
# 
# From -- ./inp_files/37826.got.cif
#   From: 2010.05.17/outbox.cif.g08.bks.cpg/sg2_19_cif.got.tgz:37826.got - 2010.06.03 11:33:40.
