data_PCOD9035515
_publ_section_title
;
Structure prediction by ZEFSAII (Michael W. Deem and Ramdas Pophale) SiO2 
 PCOD9035515
Probable space group: P -1
;
_chemical_formula_sum "Si O2"
_cell_formula_units_Z 16
_cell_length_a 16.590294
_cell_length_b 18.933584
_cell_length_c 8.935900
_cell_angle_alpha 142.735496
_cell_angle_beta 148.202870
_cell_angle_gamma 30.679320
_cell_volume 732.318465
_symmetry_space_group_name_H-M "P -1"
_symmetry_group_IT_number 2
_symmetry_cell_setting 'triclinic'
loop_
_space_group_symop_operation_xyz
x,y,z
-x,-y,-z
loop_
_atom_site_type_symbol
_atom_site_label
_atom_site_fract_x
_atom_site_fract_y
_atom_site_fract_z
Si Si1 0.637137 0.394295 0.404326
Si Si2 0.154728 0.357269 0.219212
Si Si3 0.765048 0.592698 0.895489
Si Si4 0.327099 0.994813 0.654654
Si Si5 0.525983 0.235209 0.757025
Si Si6 0.341193 0.152795 0.694468
Si Si7 0.963635 0.861113 0.309645
Si Si8 0.722486 0.974772 0.865597
O O1 0.500000 0.500000 0.500000
O O2 0.714715 0.481355 0.607178
O O3 0.815331 0.243645 0.494059
O O4 0.557615 0.349495 0.069352
O O5 0.237259 0.343515 0.160240
O O6 0.304990 0.324622 0.525644
O O7 0.099055 0.248033 0.971652
O O8 0.962741 0.513202 0.160236
O O9 0.634477 0.723684 0.019507
O O10 0.240965 0.124206 0.617902
O O11 0.170602 0.029528 0.587374
O O12 0.389883 0.855069 0.418923
O O13 0.500000 0.000000 0.000000
O O14 0.626731 0.107952 0.825257
O O15 0.238230 0.158501 0.392242
O O16 0.554462 0.016078 0.782890
O O17 0.897210 0.938883 0.175961
#
# Coordination Sequence:
#
# PCOD9035515 Si02
#       8
#     2   2   2   2   2   2   2   2
#     4  11  27  45  60  86 137 181 210 248 310 388
#     4  10  20  37  65  98 119 155 215 270 307 366
#     4  10  21  38  65  90 124 167 209 258 311 369
#     4  11  18  35  68  97 124 151 203 279 322 362
#     4  11  23  41  63  95 132 165 215 254 320 380
#     4  10  17  32  58  96 123 149 205 262 321 359
#     4  11  21  40  67  97 126 161 213 264 325 371
#     4  10  21  33  61  96 125 160 200 266 318 376
#
# _framework density 21.848420000000001
#
# number of rings (size 3 to 8) (size 9 to 14) (size 15 to 20)
#    0.000    1.500    3.750    2.250    0.000    2.500 
#    0.000    3.125    5.500    0.000    0.000    0.000 
#    0.000    0.000    0.000    0.000    0.000    0.000 
#
# Total GULP energy -89142.333045 kJ/mol
# GULP energy per Si atom -5571.395815 kJ/mol
# Density = 2.179869 g / cm^3
# Si number density = 21.848420 Si / 1000 Ang^3
#
#
#
# Elastic Constant Matrix: (Units=GPa)
#
#
# Indices 1 2 3 4 5 6 
#
# 1 48.3728 27.7163 19.3219 -8.8893 -18.3544 -11.9672
# 2 27.7163 80.4901 61.8881 0.1068 -11.0410 -0.4976
# 3 19.3219 61.8881 161.7319 2.7684 -10.4220 -11.0508
# 4 -8.8893 0.1068 2.7684 44.8776 0.6484 -6.5065
# 5 -18.3544 -11.0410 -10.4220 0.6484 20.9645 -0.2104
# 6 -11.9672 -0.4976 -11.0508 -6.5065 -0.2104 32.0229
#
#
#
# Elastic Compliance Matrix: (Units=1/GPa)
#
#
# Indices 1 2 3 4 5 6 
#
# 1 0.049395 -0.014300 0.003267 0.012284 0.037180 0.022105
# 2 -0.014300 0.022664 -0.007763 -0.003565 -0.004418 -0.008424
# 3 0.003267 -0.007763 0.009276 0.000691 0.003406 0.004464
# 4 0.012284 -0.003565 0.000691 0.026026 0.008517 0.010118
# 5 0.037180 -0.004418 0.003406 0.008517 0.079527 0.017254
# 6 0.022105 -0.008424 0.004464 0.010118 0.017254 0.043067
#
#
# Mechanical properties :
#
#
# Convention : Reuss Voigt Hill
#
# Bulk Modulus (GPa) = 22.86158 56.49415 39.67787
# Shear Modulus (GPa) = 17.72237 31.68423 24.70330
#
# Velocity S-wave (km/s) = 2.85116 3.81226 3.36619
# Velocity P-wave (km/s) = 4.61793 6.72987 5.77133
#
# Compressibility (1/GPa) = 0.04374152
#
# Stress axis : x y z
#
# Youngs Moduli (GPa) = 20.24499 44.12275 107.80260
#
# Poissons Ratio (x) = 0.63097 -0.35219
# Poissons Ratio (y) = 0.28951 0.83692
# Poissons Ratio (z) = -0.06614 0.34254
#
# Static dielectric constant tensor:
#      x y z
#    x 1.874730 -0.001560 0.008650 
#    y -0.001560 1.829420 0.013550 
#    z 0.008650 0.013550 1.851590 
# 
# From -- ./inp_files/338224.got.cif
#   From: 2010.05.17/outbox.cif.g08.bks.cpg/sg2_170_cif.got.tgz:338224.got - 2010.06.03 11:33:40.
