data_PCOD9035264
_publ_section_title
;
Structure prediction by ZEFSAII (Michael W. Deem and Ramdas Pophale) SiO2 
 PCOD9035264
Probable space group: P -1
;
_chemical_formula_sum "Si O2"
_cell_formula_units_Z 14
_cell_length_a 8.871904
_cell_length_b 19.897872
_cell_length_c 5.295781
_cell_angle_alpha 112.919802
_cell_angle_beta 57.373952
_cell_angle_gamma 133.575750
_cell_volume 570.169941
_symmetry_space_group_name_H-M "P -1"
_symmetry_group_IT_number 2
_symmetry_cell_setting 'triclinic'
loop_
_space_group_symop_operation_xyz
x,y,z
-x,-y,-z
loop_
_atom_site_type_symbol
_atom_site_label
_atom_site_fract_x
_atom_site_fract_y
_atom_site_fract_z
Si Si1 0.208073 0.196636 0.322399
Si Si2 0.743314 0.099371 0.464037
Si Si3 0.902458 0.385923 0.260464
Si Si4 0.376472 0.891184 0.908980
Si Si5 0.458876 0.212927 0.621582
Si Si6 0.795816 0.638915 0.330850
Si Si7 0.695461 0.477600 0.547566
O O1 0.310042 0.209970 0.525880
O O2 0.189310 0.279573 0.428278
O O3 0.949048 0.103324 0.392626
O O4 0.354969 0.199182 0.969563
O O5 0.813490 0.142598 0.183355
O O6 0.500000 0.000000 0.500000
O O7 0.696494 0.145903 0.795276
O O8 0.710191 0.312533 0.525217
O O9 0.781138 0.421751 0.272776
O O10 0.141831 0.474535 0.287407
O O11 0.980894 0.333474 0.969917
O O12 0.520996 0.865459 0.603961
O O13 0.500000 0.000000 0.000000
O O14 0.746074 0.560357 0.452777
O O15 0.575550 0.591015 0.275244
#
# Coordination Sequence:
#
# PCOD9035264 Si02
#       7
#     2   2   2   2   2   2   2
#     4  12  27  45  70 107 146 185 242 297 354 431
#     4  10  22  45  73 101 137 181 235 286 361 428
#     4  11  24  42  70  98 147 191 243 295 360 414
#     4  10  22  45  73 101 137 181 235 286 361 428
#     4  12  27  45  70 107 146 185 242 297 354 431
#     4  11  24  42  70  98 147 191 243 295 360 414
#     4  10  24  42  66 106 140 188 252 292 356 416
#
# _framework density 24.554084
#
# number of rings (size 3 to 8) (size 9 to 14) (size 15 to 20)
#    0.000    1.143    1.429    3.429    6.000    4.571 
#    0.000   17.143    0.000    0.000    0.000    0.000 
#    0.000    0.000    0.000    0.000    0.000    0.000 
#
# Total GULP energy -78178.657385 kJ/mol
# GULP energy per Si atom -5584.189813 kJ/mol
# Density = 2.449820 g / cm^3
# Si number density = 24.554084 Si / 1000 Ang^3
#
#
#
# Elastic Constant Matrix: (Units=GPa)
#
#
# Indices 1 2 3 4 5 6 
#
# 1 92.1446 12.3706 14.4008 14.4983 -5.1565 -5.8575
# 2 12.3706 85.8209 12.3809 17.1685 -14.6351 8.3626
# 3 14.4008 12.3809 126.4707 13.6524 -6.2929 1.6380
# 4 14.4983 17.1685 13.6524 35.8295 -0.9679 -6.2138
# 5 -5.1565 -14.6351 -6.2929 -0.9679 50.0599 7.0537
# 6 -5.8575 8.3626 1.6380 -6.2138 7.0537 23.0191
#
#
#
# Elastic Compliance Matrix: (Units=1/GPa)
#
#
# Indices 1 2 3 4 5 6 
#
# 1 0.011860 -0.001036 -0.000877 -0.003546 0.000405 0.002375
# 2 -0.001036 0.015438 -0.000066 -0.008517 0.005627 -0.009891
# 3 -0.000877 -0.000066 0.008437 -0.003145 0.001173 -0.002008
# 4 -0.003546 -0.008517 -0.003145 0.036887 -0.004474 0.013744
# 5 0.000405 0.005627 0.001173 -0.004474 0.023180 -0.010336
# 6 0.002375 -0.009891 -0.002008 0.013744 -0.010336 0.054660
#
#
# Mechanical properties :
#
#
# Convention : Reuss Voigt Hill
#
# Bulk Modulus (GPa) = 31.46857 42.52677 36.99767
# Shear Modulus (GPa) = 30.30066 39.46730 34.88398
#
# Velocity S-wave (km/s) = 3.51670 4.01354 3.77331
# Velocity P-wave (km/s) = 5.41603 6.23179 5.83818
#
# Compressibility (1/GPa) = 0.03177774
#
# Stress axis : x y z
#
# Youngs Moduli (GPa) = 84.31548 64.77439 118.52335
#
# Poissons Ratio (x) = 0.06711 0.10393
# Poissons Ratio (y) = 0.08736 0.00781
# Poissons Ratio (z) = 0.07394 0.00427
#
# Static dielectric constant tensor:
#      x y z
#    x 2.032530 -0.036740 0.021310 
#    y -0.036740 2.110830 -0.029490 
#    z 0.021310 -0.029490 1.987000 
# 
# From -- ./inp_files/50703.got.cif
#   From: 2010.05.17/outbox.cif.g08.bks.cpg/sg2_26_cif.got.tgz:50703.got - 2010.06.03 11:33:40.
