data_PCOD9035993
_publ_section_title
;
Structure prediction by ZEFSAII (Michael W. Deem and Ramdas Pophale) SiO2 
 PCOD9035993
Probable space group: P -1
;
_chemical_formula_sum "Si O2"
_cell_formula_units_Z 13
_cell_length_a 8.880460
_cell_length_b 11.940069
_cell_length_c 13.321229
_cell_angle_alpha 148.215859
_cell_angle_beta 133.443989
_cell_angle_gamma 44.592450
_cell_volume 509.218920
_symmetry_space_group_name_H-M "P -1"
_symmetry_group_IT_number 2
_symmetry_cell_setting 'triclinic'
loop_
_space_group_symop_operation_xyz
x,y,z
-x,-y,-z
loop_
_atom_site_type_symbol
_atom_site_label
_atom_site_fract_x
_atom_site_fract_y
_atom_site_fract_z
Si Si1 0.731936 0.839849 0.169872
Si Si2 0.664566 0.762252 0.796885
Si Si3 0.518841 0.740217 0.323151
Si Si4 0.970203 0.094714 0.807263
Si Si5 0.000000 0.000000 0.500000
Si Si6 0.635333 0.462630 0.720963
Si Si7 0.004142 0.415894 0.551254
O O1 0.948490 0.898986 0.268131
O O2 0.791604 0.888936 0.345005
O O3 0.510011 0.019999 0.166393
O O4 0.738977 0.599370 0.951667
O O5 0.543702 0.651030 0.736922
O O6 0.796720 0.582408 0.640135
O O7 0.850356 0.830347 0.994280
O O8 0.282745 0.750159 0.175814
O O9 0.505870 0.643174 0.355132
O O10 0.767101 0.591986 0.295790
O O11 0.500000 0.000000 0.500000
O O12 0.994800 0.839704 0.647355
O O13 0.188976 0.743325 0.410156
O O14 0.000000 0.500000 0.500000
#
# Coordination Sequence:
#
# PCOD9035993 Si02
#       7
#     2   2   2   2   1   2   2
#     4  11  25  43  71 110 143 177 241 300 346 422
#     4  11  27  43  74 106 138 191 237 289 359 418
#     4  10  24  46  69  99 147 187 228 294 350 416
#     4  10  22  47  67  98 145 180 236 298 342 418
#     4  12  24  38  74 102 140 184 232 282 364 400
#     4  11  24  46  73 105 140 186 240 293 347 417
#     4  11  27  45  68 101 143 189 234 291 353 423
#
# _framework density 25.529294
#
# number of rings (size 3 to 8) (size 9 to 14) (size 15 to 20)
#    0.000    1.231    1.538    3.231   10.769    2.462 
#    0.000    0.000    0.000    0.000    0.000    0.000 
#    0.000    0.000    0.000    0.000    0.000    0.000 
#
# Total GULP energy -72553.849368 kJ/mol
# GULP energy per Si atom -5581.065336 kJ/mol
# Density = 2.547119 g / cm^3
# Si number density = 25.529294 Si / 1000 Ang^3
#
#
#
# Elastic Constant Matrix: (Units=GPa)
#
#
# Indices 1 2 3 4 5 6 
#
# 1 77.7528 41.6553 47.5108 4.3651 20.5498 10.4613
# 2 41.6553 99.9199 47.3244 -7.0805 12.9753 -13.8797
# 3 47.5108 47.3244 148.4306 -8.0317 -2.3562 -5.6685
# 4 4.3651 -7.0805 -8.0317 53.8537 -4.5181 12.4835
# 5 20.5498 12.9753 -2.3562 -4.5181 33.6206 1.7994
# 6 10.4613 -13.8797 -5.6685 12.4835 1.7994 57.7175
#
#
#
# Elastic Compliance Matrix: (Units=1/GPa)
#
#
# Indices 1 2 3 4 5 6 
#
# 1 0.024778 -0.006575 -0.006454 -0.003673 -0.013259 -0.005498
# 2 -0.006575 0.014837 -0.002440 0.000938 -0.001987 0.004379
# 3 -0.006454 -0.002440 0.009813 0.001931 0.005783 0.000949
# 4 -0.003673 0.000938 0.001931 0.020508 0.004962 -0.003509
# 5 -0.013259 -0.001987 0.005783 0.004962 0.039677 0.000183
# 6 -0.005498 0.004379 0.000949 -0.003509 0.000183 0.020222
#
#
# Mechanical properties :
#
#
# Convention : Reuss Voigt Hill
#
# Bulk Modulus (GPa) = 54.07954 66.56494 60.32224
# Shear Modulus (GPa) = 29.95172 41.67920 35.81546
#
# Velocity S-wave (km/s) = 3.42896 4.04493 3.74962
# Velocity P-wave (km/s) = 6.07506 6.92429 6.51353
#
# Compressibility (1/GPa) = 0.01849128
#
# Stress axis : x y z
#
# Youngs Moduli (GPa) = 40.35893 67.39798 101.90254
#
# Poissons Ratio (x) = 0.44314 0.65767
# Poissons Ratio (y) = 0.26536 0.24860
# Poissons Ratio (z) = 0.26047 0.16442
#
# Static dielectric constant tensor:
#      x y z
#    x 2.094800 0.063250 -0.034980 
#    y 0.063250 2.073600 -0.158040 
#    z -0.034980 -0.158040 2.156650 
# 
# From -- ./inp_files/497249.got.cif
#   From: 2010.05.17/outbox.cif.g08.bks.cpg/sg2_249_cif.got.tgz:497249.got - 2010.06.03 11:33:40.
