data_PCOD9035395
_publ_section_title
;
Structure prediction by ZEFSAII (Michael W. Deem and Ramdas Pophale) SiO2 
 PCOD9035395
Probable space group: P -1
;
_chemical_formula_sum "Si O2"
_cell_formula_units_Z 15
_cell_length_a 13.812665
_cell_length_b 8.787874
_cell_length_c 15.284511
_cell_angle_alpha 31.564499
_cell_angle_beta 37.705572
_cell_angle_gamma 50.636492
_cell_volume 589.345762
_symmetry_space_group_name_H-M "P -1"
_symmetry_group_IT_number 2
_symmetry_cell_setting 'triclinic'
loop_
_space_group_symop_operation_xyz
x,y,z
-x,-y,-z
loop_
_atom_site_type_symbol
_atom_site_label
_atom_site_fract_x
_atom_site_fract_y
_atom_site_fract_z
Si Si1 0.549196 0.604014 0.580305
Si Si2 0.082391 0.617891 0.186361
Si Si3 0.000000 0.500000 0.000000
Si Si4 0.175022 0.955080 0.786255
Si Si5 0.591256 0.956369 0.662762
Si Si6 0.345664 0.659206 0.122304
Si Si7 0.796277 0.172183 0.554846
Si Si8 0.263864 0.143209 0.072234
O O1 0.674993 0.414390 0.537703
O O2 0.416248 0.383801 0.830826
O O3 0.658839 0.843668 0.441426
O O4 0.464428 0.783851 0.480336
O O5 0.193610 0.581932 0.206036
O O6 0.970919 0.335551 0.369142
O O7 0.184285 0.761592 0.961941
O O8 0.960846 0.840558 0.194846
O O9 0.887073 0.248549 0.148810
O O10 0.885337 0.745762 0.924452
O O11 0.589248 0.651049 0.763065
O O12 0.761177 0.063115 0.534985
O O13 0.471829 0.875078 0.869778
O O14 0.299280 0.836951 0.152247
O O15 0.758399 0.925681 0.775981
#
# Coordination Sequence:
#
# PCOD9035395 Si02
#       8
#     2   2   1   2   2   2   2   2
#     4  11  24  48  77 106 145 195 249 300 366 443
#     4  10  22  45  75  99 148 190 247 305 360 430
#     4  12  28  46  76 110 150 190 248 300 380 442
#     4  10  23  46  73 109 137 194 247 305 359 435
#     4  11  25  44  78 112 140 196 256 295 368 444
#     4  11  24  46  72 106 153 190 239 315 366 435
#     4  11  26  45  74 111 149 197 244 305 372 438
#     4  12  28  49  72 108 158 192 239 311 375 438
#
# _framework density 25.451953
#
# number of rings (size 3 to 8) (size 9 to 14) (size 15 to 20)
#    0.000    1.067    4.000    0.800    3.733    2.667 
#    4.800    0.000    0.000    0.000    0.000    0.000 
#    0.000    0.000    0.000    0.000    0.000    0.000 
#
# Total GULP energy -83944.924719 kJ/mol
# GULP energy per Si atom -5596.328315 kJ/mol
# Density = 2.539402 g / cm^3
# Si number density = 25.451953 Si / 1000 Ang^3
#
#
#
# Elastic Constant Matrix: (Units=GPa)
#
#
# Indices 1 2 3 4 5 6 
#
# 1 134.4881 53.9629 35.8082 -7.2304 -15.3865 7.5605
# 2 53.9629 110.6334 47.4848 -18.1763 5.8419 -4.0472
# 3 35.8082 47.4848 106.6756 -12.5266 -8.5011 12.0601
# 4 -7.2304 -18.1763 -12.5266 37.5155 4.5689 -3.4937
# 5 -15.3865 5.8419 -8.5011 4.5689 53.2370 -15.5384
# 6 7.5605 -4.0472 12.0601 -3.4937 -15.5384 39.6178
#
#
#
# Elastic Compliance Matrix: (Units=1/GPa)
#
#
# Indices 1 2 3 4 5 6 
#
# 1 0.009984 -0.004850 -0.000977 -0.001220 0.003073 -0.001006
# 2 -0.004850 0.014651 -0.004893 0.005222 -0.003346 0.003060
# 3 -0.000977 -0.004893 0.012509 0.001149 0.001107 -0.003586
# 4 -0.001220 0.005222 0.001149 0.029851 -0.002726 0.001980
# 5 0.003073 -0.003346 0.001107 -0.002726 0.022597 0.007357
# 6 -0.001006 0.003060 -0.003586 0.001980 0.007357 0.029897
#
#
# Mechanical properties :
#
#
# Convention : Reuss Voigt Hill
#
# Bulk Modulus (GPa) = 63.67872 69.58988 66.63430
# Shear Modulus (GPa) = 34.20782 40.37681 37.29232
#
# Velocity S-wave (km/s) = 3.67006 3.98728 3.83195
# Velocity P-wave (km/s) = 6.55992 6.97129 6.76873
#
# Compressibility (1/GPa) = 0.01570383
#
# Stress axis : x y z
#
# Youngs Moduli (GPa) = 100.15628 68.25324 79.94357
#
# Poissons Ratio (x) = 0.33103 0.07812
# Poissons Ratio (y) = 0.48576 0.39117
# Poissons Ratio (z) = 0.09788 0.33397
#
# Static dielectric constant tensor:
#      x y z
#    x 1.947990 -0.020010 0.000340 
#    y -0.020010 2.008150 -0.005380 
#    z 0.000340 -0.005380 1.993790 
# 
# From -- ./inp_files/514787.got.cif
#   From: 2010.05.17/outbox.cif.g08.bks.cpg/sg2_258_cif.got.tgz:514787.got - 2010.06.03 11:33:40.
