data_PCOD9035891
_publ_section_title
;
Structure prediction by ZEFSAII (Michael W. Deem and Ramdas Pophale) SiO2 
 PCOD9035891
Probable space group: P -1
;
_chemical_formula_sum "Si O2"
_cell_formula_units_Z 14
_cell_length_a 5.422952
_cell_length_b 21.917238
_cell_length_c 22.935468
_cell_angle_alpha 12.540424
_cell_angle_beta 63.657347
_cell_angle_gamma 63.370958
_cell_volume 528.840664
_symmetry_space_group_name_H-M "P -1"
_symmetry_group_IT_number 2
_symmetry_cell_setting 'triclinic'
loop_
_space_group_symop_operation_xyz
x,y,z
-x,-y,-z
loop_
_atom_site_type_symbol
_atom_site_label
_atom_site_fract_x
_atom_site_fract_y
_atom_site_fract_z
Si Si1 0.068527 0.529108 0.657164
Si Si2 0.197031 0.041208 0.795658
Si Si3 0.364073 0.430693 0.507493
Si Si4 0.500000 0.000000 0.000000
Si Si5 0.265365 0.331385 0.942256
Si Si6 0.418719 0.675232 0.713150
Si Si7 0.770006 0.207127 0.186695
Si Si8 0.000000 0.500000 0.000000
O O1 0.344537 0.597142 0.531899
O O2 0.854708 0.782782 0.422537
O O3 0.111441 0.498943 0.749577
O O4 0.000368 0.213496 0.938668
O O5 0.163586 0.279140 0.626195
O O6 0.499119 0.881152 0.911642
O O7 0.317129 0.764287 0.206908
O O8 0.393801 0.246436 0.734274
O O9 0.046107 0.173663 0.150062
O O10 0.410140 0.536502 0.779779
O O11 0.575633 0.952753 0.440971
O O12 0.576781 0.455960 0.945176
O O13 0.107747 0.681571 0.763213
O O14 0.858601 0.287441 0.166848
#
# Coordination Sequence:
#
# PCOD9035891 Si02
#       8
#     2   2   2   1   2   2   2   1
#     4  12  26  45  72 105 142 190 238 288 355 425
#     4  12  26  45  72 105 142 190 238 288 355 425
#     4  11  24  46  70 102 142 183 234 294 348 413
#     4  10  22  46  74  98 142 186 228 296 352 402
#     4  11  27  45  70 105 147 187 236 296 354 425
#     4  11  26  45  70 104 140 186 236 292 356 421
#     4  11  26  45  70 104 140 186 236 292 356 421
#     4  10  24  46  74 100 140 184 238 296 352 418
#
# _framework density 26.473001
#
# number of rings (size 3 to 8) (size 9 to 14) (size 15 to 20)
#    0.000    0.857    0.000    6.000    0.000   17.143 
#    0.000   14.286    0.000    1.714    0.000    0.000 
#    0.000    0.000    0.000    0.000    0.000    0.000 
#
# Total GULP energy -78097.027692 kJ/mol
# GULP energy per Si atom -5578.359121 kJ/mol
# Density = 2.641275 g / cm^3
# Si number density = 26.473001 Si / 1000 Ang^3
#
#
#
# Elastic Constant Matrix: (Units=GPa)
#
#
# Indices 1 2 3 4 5 6 
#
# 1 65.9399 21.0732 55.3879 -4.8008 -18.7033 17.4233
# 2 21.0732 61.9369 39.5407 -2.7528 -28.0411 24.9397
# 3 55.3879 39.5407 269.2346 -22.8382 -37.1158 29.8855
# 4 -4.8008 -2.7528 -22.8382 34.6145 11.4082 -16.1674
# 5 -18.7033 -28.0411 -37.1158 11.4082 53.6117 3.4354
# 6 17.4233 24.9397 29.8855 -16.1674 3.4354 55.3121
#
#
#
# Elastic Compliance Matrix: (Units=1/GPa)
#
#
# Indices 1 2 3 4 5 6 
#
# 1 0.021049 0.000555 -0.003069 -0.004620 0.006941 -0.007004
# 2 0.000555 0.034174 -0.001089 -0.014750 0.021777 -0.020659
# 3 -0.003069 -0.001089 0.004948 0.001940 0.001419 -0.000736
# 4 -0.004620 -0.014750 0.001940 0.044467 -0.018806 0.021223
# 5 0.006941 0.021777 0.001419 -0.018806 0.038773 -0.020677
# 6 -0.007004 -0.020659 -0.000736 0.021223 -0.020677 0.037486
#
#
# Mechanical properties :
#
#
# Convention : Reuss Voigt Hill
#
# Bulk Modulus (GPa) = 18.88087 69.90165 44.39126
# Shear Modulus (GPa) = 24.30038 47.44828 35.87433
#
# Velocity S-wave (km/s) = 3.03302 4.23818 3.68520
# Velocity P-wave (km/s) = 4.40605 7.10013 5.90868
#
# Compressibility (1/GPa) = 0.05296367
#
# Stress axis : x y z
#
# Youngs Moduli (GPa) = 47.50793 29.26195 202.11835
#
# Poissons Ratio (x) = -0.01624 0.62040
# Poissons Ratio (y) = -0.02637 0.22011
# Poissons Ratio (z) = 0.14583 0.03187
#
# Static dielectric constant tensor:
#      x y z
#    x 2.164500 -0.014190 0.017270 
#    y -0.014190 2.147430 -0.032670 
#    z 0.017270 -0.032670 1.958730 
# 
# From -- ./inp_files/605190.got.cif
#   From: 2010.05.17/outbox.cif.g08.bks.cpg/sg2_303_cif.got.tgz:605190.got - 2010.06.03 11:33:40.
