data_PCOD9035237
_publ_section_title
;
Structure prediction by ZEFSAII (Michael W. Deem and Ramdas Pophale) SiO2 
 PCOD9035237
Probable space group: P -1
;
_chemical_formula_sum "Si O2"
_cell_formula_units_Z 16
_cell_length_a 17.194988
_cell_length_b 10.450996
_cell_length_c 9.104500
_cell_angle_alpha 73.417620
_cell_angle_beta 148.887264
_cell_angle_gamma 121.470867
_cell_volume 670.860081
_symmetry_space_group_name_H-M "P -1"
_symmetry_group_IT_number 2
_symmetry_cell_setting 'triclinic'
loop_
_space_group_symop_operation_xyz
x,y,z
-x,-y,-z
loop_
_atom_site_type_symbol
_atom_site_label
_atom_site_fract_x
_atom_site_fract_y
_atom_site_fract_z
Si Si1 0.981973 0.380211 0.385443
Si Si2 0.303170 0.665839 0.280934
Si Si3 0.573445 0.562106 0.398942
Si Si4 0.672938 0.792675 0.222030
Si Si5 0.250568 0.651119 0.528773
Si Si6 0.692213 0.049066 0.364869
Si Si7 0.339169 0.146487 0.344252
Si Si8 0.176953 0.228244 0.828049
O O1 0.136733 0.480172 0.479406
O O2 0.014470 0.251486 0.546029
O O3 0.000000 0.500000 0.500000
O O4 0.797254 0.315814 0.022232
O O5 0.310119 0.507589 0.338391
O O6 0.216624 0.655748 0.300656
O O7 0.511850 0.813028 0.551812
O O8 0.649194 0.653960 0.336714
O O9 0.588091 0.693417 0.490820
O O10 0.365013 0.408557 0.097572
O O11 0.747279 0.952102 0.386059
O O12 0.790408 0.824877 0.258005
O O13 0.464920 0.725330 0.862746
O O14 0.202400 0.760771 0.505574
O O15 0.681384 0.983164 0.533220
O O16 0.500000 0.000000 0.000000
O O17 0.172034 0.121555 0.989265
#
# Coordination Sequence:
#
# PCOD9035237 Si02
#       8
#     2   2   2   2   2   2   2   2
#     4  12  25  37  59  89 126 158 185 237 304 356
#     4  11  22  35  58  92 120 154 188 242 301 348
#     4  10  17  32  58  83 120 148 194 243 286 341
#     4  10  18  35  61  88 112 153 198 247 286 337
#     4  11  21  40  57  88 122 155 196 240 293 347
#     4   9  22  37  61  89 116 153 196 250 287 337
#     4  10  20  36  60  90 116 149 198 244 291 338
#     4  11  19  35  60  87 118 147 196 249 289 338
#
# _framework density 23.849979999999999
#
# number of rings (size 3 to 8) (size 9 to 14) (size 15 to 20)
#    0.000    1.500    3.750    4.500    3.500    0.500 
#    0.000    0.000    0.000   13.500    0.000    0.000 
#    0.000    0.000    0.000    0.000    0.000    0.000 
#
# Total GULP energy -89511.917695 kJ/mol
# GULP energy per Si atom -5594.494856 kJ/mol
# Density = 2.379570 g / cm^3
# Si number density = 23.849980 Si / 1000 Ang^3
#
#
#
# Elastic Constant Matrix: (Units=GPa)
#
#
# Indices 1 2 3 4 5 6 
#
# 1 83.8099 13.3969 16.9644 -9.7997 -15.0483 1.3272
# 2 13.3969 76.8864 25.5755 -32.7215 1.6198 15.0408
# 3 16.9644 25.5755 121.3816 -47.2141 -2.7875 13.4144
# 4 -9.7997 -32.7215 -47.2141 39.7162 7.0623 -5.1157
# 5 -15.0483 1.6198 -2.7875 7.0623 31.4433 -13.2301
# 6 1.3272 15.0408 13.4144 -5.1157 -13.2301 27.7197
#
#
#
# Elastic Compliance Matrix: (Units=1/GPa)
#
#
# Indices 1 2 3 4 5 6 
#
# 1 0.015369 -0.007391 -0.005151 -0.009521 0.013896 0.010642
# 2 -0.007391 0.034617 0.013222 0.043297 -0.026224 -0.029354
# 3 -0.005151 0.013222 0.022107 0.036536 -0.017483 -0.019228
# 4 -0.009521 0.043297 0.036536 0.104416 -0.045077 -0.042962
# 5 0.013896 -0.026224 -0.017483 -0.045077 0.067751 0.046042
# 6 0.010642 -0.029354 -0.019228 -0.042962 0.046042 0.074844
#
#
# Mechanical properties :
#
#
# Convention : Reuss Voigt Hill
#
# Bulk Modulus (GPa) = 13.61391 43.77240 28.69315
# Shear Modulus (GPa) = 14.61010 34.85192 24.73101
#
# Velocity S-wave (km/s) = 2.47773 3.82684 3.22365
# Velocity P-wave (km/s) = 3.72908 6.15787 5.09045
#
# Compressibility (1/GPa) = 0.07345430
#
# Stress axis : x y z
#
# Youngs Moduli (GPa) = 65.06575 28.88745 45.23423
#
# Poissons Ratio (x) = 0.21350 0.23300
# Poissons Ratio (y) = 0.48090 -0.59810
# Poissons Ratio (z) = 0.33515 -0.38196
#
# Static dielectric constant tensor:
#      x y z
#    x 1.934660 0.016700 -0.003950 
#    y 0.016700 1.936690 -0.011190 
#    z -0.003950 -0.011190 1.917990 
# 
# From -- ./inp_files/244992.got.cif
#   From: 2010.05.17/outbox.cif.g08.bks.cpg/sg2_123_cif.got.tgz:244992.got - 2010.06.03 11:33:40.
