data_PCOD9035485
_publ_section_title
;
Structure prediction by ZEFSAII (Michael W. Deem and Ramdas Pophale) SiO2 
 PCOD9035485
Probable space group: P -1
;
_chemical_formula_sum "Si O2"
_cell_formula_units_Z 12
_cell_length_a 9.252931
_cell_length_b 5.177491
_cell_length_c 18.608175
_cell_angle_alpha 99.359644
_cell_angle_beta 39.954953
_cell_angle_gamma 106.603868
_cell_volume 546.302646
_symmetry_space_group_name_H-M "P -1"
_symmetry_group_IT_number 2
_symmetry_cell_setting 'triclinic'
loop_
_space_group_symop_operation_xyz
x,y,z
-x,-y,-z
loop_
_atom_site_type_symbol
_atom_site_label
_atom_site_fract_x
_atom_site_fract_y
_atom_site_fract_z
Si Si1 0.864397 0.859537 0.253674
Si Si2 0.413586 0.913287 0.198556
Si Si3 0.037444 0.462226 0.272327
Si Si4 0.381106 0.759734 0.363953
Si Si5 0.940765 0.765234 0.598075
Si Si6 0.916457 0.201886 0.986315
O O1 0.590734 0.816713 0.341789
O O2 0.904559 0.648766 0.288315
O O3 0.983089 0.169098 0.243514
O O4 0.976879 0.801831 0.133204
O O5 0.305550 0.639573 0.183215
O O6 0.480858 0.851822 0.251203
O O7 0.200610 0.049252 0.300177
O O8 0.636452 0.104917 0.085935
O O9 0.976256 0.404956 0.377038
O O10 0.242271 0.448113 0.390373
O O11 0.175731 0.896936 0.471721
O O12 0.000000 0.500000 0.000000
O O13 0.000000 0.000000 0.000000
#
# Coordination Sequence:
#
# PCOD9035485 Si02
#       6
#     2   2   2   2   2   2
#     4  12  25  46  66 107 131 182 224 277 338 396
#     4  11  23  46  70  98 140 176 230 274 337 400
#     4  11  26  45  67  99 147 174 222 272 345 405
#     4  10  23  40  75  96 137 178 233 280 322 403
#     4  10  22  46  66 105 131 187 222 276 340 394
#     4  12  26  44  74 103 131 173 228 286 330 393
#
# _framework density 21.965847
#
# number of rings (size 3 to 8) (size 9 to 14) (size 15 to 20)
#    0.000    1.000    3.333    2.500    4.667    2.667 
#    0.000    0.000    0.000    0.000    0.000    0.000 
#    0.000    0.000    0.000    0.000    0.000    0.000 
#
# Total GULP energy -67085.858452 kJ/mol
# GULP energy per Si atom -5590.488204 kJ/mol
# Density = 2.191585 g / cm^3
# Si number density = 21.965847 Si / 1000 Ang^3
#
#
#
# Elastic Constant Matrix: (Units=GPa)
#
#
# Indices 1 2 3 4 5 6 
#
# 1 113.2683 60.9115 11.3170 -1.5492 -0.6007 8.3390
# 2 60.9115 165.5437 38.1519 6.3198 -3.4802 17.7424
# 3 11.3170 38.1519 96.7625 -4.7810 -21.3829 22.9472
# 4 -1.5492 6.3198 -4.7810 25.3655 0.0139 2.4322
# 5 -0.6007 -3.4802 -21.3829 0.0139 14.9887 -3.9439
# 6 8.3390 17.7424 22.9472 2.4322 -3.9439 45.2654
#
#
#
# Elastic Compliance Matrix: (Units=1/GPa)
#
#
# Indices 1 2 3 4 5 6 
#
# 1 0.011126 -0.004240 0.000727 0.001953 0.000276 -0.000837
# 2 -0.004240 0.008566 -0.003600 -0.002984 -0.003551 -0.000900
# 3 0.000727 -0.003600 0.018825 0.005092 0.024355 -0.006417
# 4 0.001953 -0.002984 0.005092 0.041579 0.005687 -0.003510
# 5 0.000276 -0.003551 0.024355 0.005687 0.099959 -0.002602
# 6 -0.000837 -0.000900 -0.006417 -0.003510 -0.002602 0.025814
#
#
# Mechanical properties :
#
#
# Convention : Reuss Voigt Hill
#
# Bulk Modulus (GPa) = 41.17090 66.25947 53.71518
# Shear Modulus (GPa) = 21.91117 34.80353 28.35735
#
# Velocity S-wave (km/s) = 3.16177 3.98482 3.59691
# Velocity P-wave (km/s) = 5.66682 7.16952 6.46200
#
# Compressibility (1/GPa) = 0.02428900
#
# Stress axis : x y z
#
# Youngs Moduli (GPa) = 89.87891 116.73484 53.12172
#
# Poissons Ratio (x) = 0.49499 -0.03860
# Poissons Ratio (y) = 0.38112 0.19126
# Poissons Ratio (z) = -0.06530 0.42028
#
# Static dielectric constant tensor:
#      x y z
#    x 1.832930 -0.044390 0.002690 
#    y -0.044390 1.823940 0.007260 
#    z 0.002690 0.007260 1.789490 
# 
# From -- ./inp_files/20290.got.cif
#   From: 2010.05.17/outbox.cif.g08.bks.cpg/sg2_11_cif.got.tgz:20290.got - 2010.06.03 11:33:40.
