data_PCOD9035867
_publ_section_title
;
Structure prediction by ZEFSAII (Michael W. Deem and Ramdas Pophale) SiO2 
 PCOD9035867
Probable space group: P -1
;
_chemical_formula_sum "Si O2"
_cell_formula_units_Z 16
_cell_length_a 19.111451
_cell_length_b 21.158392
_cell_length_c 5.063261
_cell_angle_alpha 89.797687
_cell_angle_beta 77.543600
_cell_angle_gamma 155.486821
_cell_volume 721.611655
_symmetry_space_group_name_H-M "P -1"
_symmetry_group_IT_number 2
_symmetry_cell_setting 'triclinic'
loop_
_space_group_symop_operation_xyz
x,y,z
-x,-y,-z
loop_
_atom_site_type_symbol
_atom_site_label
_atom_site_fract_x
_atom_site_fract_y
_atom_site_fract_z
Si Si1 0.124875 0.278683 0.231423
Si Si2 0.655451 0.333087 0.602728
Si Si3 0.759643 0.205016 0.050459
Si Si4 0.637893 0.426492 0.244243
Si Si5 0.656162 0.574570 0.436913
Si Si6 0.676091 0.923552 0.760721
Si Si7 0.512715 0.907670 0.593024
Si Si8 0.001666 0.431372 0.368905
O O1 0.266987 0.363342 0.329466
O O2 0.207228 0.417067 0.095464
O O3 0.159558 0.272286 0.923300
O O4 0.905970 0.099669 0.529423
O O5 0.734287 0.457331 0.372985
O O6 0.651024 0.267150 0.430183
O O7 0.782621 0.421505 0.756845
O O8 0.425530 0.157038 0.867531
O O9 0.599416 0.129611 0.157269
O O10 0.917063 0.356633 0.145331
O O11 0.651101 0.055866 0.265346
O O12 0.858419 0.275468 0.687899
O O13 0.567546 0.431969 0.450849
O O14 0.457125 0.240167 0.265846
O O15 0.500000 0.500000 0.500000
O O16 0.628790 0.952533 0.670359
O O17 0.000000 0.500000 0.500000
#
# Coordination Sequence:
#
# PCOD9035867 Si02
#       8
#     2   2   2   2   2   2   2   2
#     4  10  24  43  73 100 138 179 221 267 334 395
#     4  11  24  41  68  91 137 173 225 283 337 393
#     4  11  26  43  62  91 124 168 229 282 341 411
#     4   9  24  42  68 101 137 180 221 276 332 395
#     4  10  22  46  74 104 139 177 221 271 325 397
#     4  11  24  43  66 100 139 174 228 278 332 408
#     4  10  25  41  62  90 127 173 216 289 340 388
#     4  12  25  42  66  91 126 174 227 278 344 402
#
# _framework density 22.172591000000001
#
# number of rings (size 3 to 8) (size 9 to 14) (size 15 to 20)
#    0.750    0.750    1.250    2.250   10.500    2.000 
#    0.000    1.250    0.000    0.000    0.000    0.000 
#    0.000    0.000    0.000    0.000    0.000    0.000 
#
# Total GULP energy -89461.845903 kJ/mol
# GULP energy per Si atom -5591.365369 kJ/mol
# Density = 2.212212 g / cm^3
# Si number density = 22.172591 Si / 1000 Ang^3
#
#
#
# Elastic Constant Matrix: (Units=GPa)
#
#
# Indices 1 2 3 4 5 6 
#
# 1 69.8102 24.3117 4.6167 -13.2733 -3.9527 4.5759
# 2 24.3117 58.6950 4.3784 -3.9691 2.5134 3.7713
# 3 4.6167 4.3784 100.5722 -17.6449 3.5453 9.6372
# 4 -13.2733 -3.9691 -17.6449 38.7885 5.7240 -1.6840
# 5 -3.9527 2.5134 3.5453 5.7240 21.6648 2.9171
# 6 4.5759 3.7713 9.6372 -1.6840 2.9171 30.6253
#
#
#
# Elastic Compliance Matrix: (Units=1/GPa)
#
#
# Indices 1 2 3 4 5 6 
#
# 1 0.018064 -0.007170 0.000468 0.005139 0.002957 -0.001963
# 2 -0.007170 0.020239 -0.000349 -0.000076 -0.003446 -0.000987
# 3 0.000468 -0.000349 0.011296 0.005543 -0.002781 -0.003012
# 4 0.005139 -0.000076 0.005543 0.031266 -0.008221 0.000000
# 5 0.002957 -0.003446 -0.002781 -0.008221 0.050315 -0.004387
# 6 -0.001963 -0.000987 -0.003012 0.000000 -0.004387 0.034433
#
#
# Mechanical properties :
#
#
# Convention : Reuss Voigt Hill
#
# Bulk Modulus (GPa) = 28.17138 32.85455 30.51297
# Shear Modulus (GPa) = 26.10320 31.26709 28.68515
#
# Velocity S-wave (km/s) = 3.43486 3.75930 3.60074
# Velocity P-wave (km/s) = 5.33518 5.80456 5.57481
#
# Compressibility (1/GPa) = 0.03549702
#
# Stress axis : x y z
#
# Youngs Moduli (GPa) = 55.35936 49.40953 88.52756
#
# Poissons Ratio (x) = 0.35427 -0.04147
# Poissons Ratio (y) = 0.39693 0.03091
# Poissons Ratio (z) = -0.02593 0.01725
#
# Static dielectric constant tensor:
#      x y z
#    x 1.772990 -0.010050 0.004940 
#    y -0.010050 1.853040 -0.000750 
#    z 0.004940 -0.000750 1.876140 
# 
# From -- ./inp_files/112402.got.cif
#   From: 2010.05.17/outbox.cif.g08.bks.cpg/sg2_57_cif.got.tgz:112402.got - 2010.06.03 11:33:40.
