data_PCOD9035466
_publ_section_title
;
Structure prediction by ZEFSAII (Michael W. Deem and Ramdas Pophale) SiO2 
 PCOD9035466
Probable space group: P -1
;
_chemical_formula_sum "Si O2"
_cell_formula_units_Z 14
_cell_length_a 11.096583
_cell_length_b 8.672496
_cell_length_c 10.693026
_cell_angle_alpha 83.164848
_cell_angle_beta 39.997935
_cell_angle_gamma 86.122703
_cell_volume 656.280051
_symmetry_space_group_name_H-M "P -1"
_symmetry_group_IT_number 2
_symmetry_cell_setting 'triclinic'
loop_
_space_group_symop_operation_xyz
x,y,z
-x,-y,-z
loop_
_atom_site_type_symbol
_atom_site_label
_atom_site_fract_x
_atom_site_fract_y
_atom_site_fract_z
Si Si1 0.334724 0.465299 0.037799
Si Si2 0.129052 0.237147 0.398799
Si Si3 0.958137 0.611840 0.302780
Si Si4 0.236858 0.901729 0.415748
Si Si5 0.208909 0.691178 0.677819
Si Si6 0.433629 0.286568 0.746965
Si Si7 0.951389 0.818978 0.062518
O O1 0.223492 0.311269 0.193925
O O2 0.179599 0.594291 0.146747
O O3 0.500000 0.500000 0.000000
O O4 0.406575 0.431544 0.845107
O O5 0.133595 0.365576 0.491591
O O6 0.912865 0.184295 0.548766
O O7 0.229600 0.082992 0.377972
O O8 0.881894 0.458962 0.304850
O O9 0.919725 0.758818 0.233443
O O10 0.166426 0.845029 0.614652
O O11 0.443536 0.832973 0.258123
O O12 0.431753 0.678525 0.482835
O O13 0.118069 0.719041 0.880393
O O14 0.234497 0.221155 0.865941
O O15 0.000000 0.000000 0.000000
#
# Coordination Sequence:
#
# PCOD9035466 Si02
#       7
#     2   2   2   2   2   2   2
#     4  12  23  39  65 102 134 168 216 266 324 393
#     4  11  21  40  66  96 136 172 212 267 326 381
#     4  12  24  41  67  96 134 174 217 267 329 382
#     4   9  21  41  68  92 131 170 213 269 325 377
#     4  10  22  46  65  93 132 164 220 274 319 381
#     4  10  23  44  69  96 130 169 224 263 326 384
#     4  12  26  45  68  93 133 175 218 272 325 387
#
# _framework density 21.332356000000001
#
# number of rings (size 3 to 8) (size 9 to 14) (size 15 to 20)
#    0.857    0.286    2.857    3.429    0.000    4.000 
#    2.571    0.000    0.000    0.000    0.000    0.000 
#    0.000    0.000    0.000    0.000    0.000    0.000 
#
# Total GULP energy -78172.062200 kJ/mol
# GULP energy per Si atom -5583.718729 kJ/mol
# Density = 2.128380 g / cm^3
# Si number density = 21.332356 Si / 1000 Ang^3
#
#
#
# Elastic Constant Matrix: (Units=GPa)
#
#
# Indices 1 2 3 4 5 6 
#
# 1 51.2210 19.2083 11.2962 -6.3515 -21.5242 -1.0674
# 2 19.2083 57.1687 6.5420 -1.9481 -15.4283 -4.8301
# 3 11.2962 6.5420 89.0709 12.8884 -8.2679 13.4397
# 4 -6.3515 -1.9481 12.8884 24.8026 0.6478 5.7159
# 5 -21.5242 -15.4283 -8.2679 0.6478 30.8265 -3.3964
# 6 -1.0674 -4.8301 13.4397 5.7159 -3.3964 41.8278
#
#
#
# Elastic Compliance Matrix: (Units=1/GPa)
#
#
# Indices 1 2 3 4 5 6 
#
# 1 0.030731 -0.004586 -0.003327 0.008378 0.018277 0.001663
# 2 -0.004586 0.021470 -0.000764 -0.000038 0.007696 0.003238
# 3 -0.003327 -0.000764 0.013302 -0.007050 0.000632 -0.003432
# 4 0.008378 -0.000038 -0.007050 0.046917 0.002543 -0.003730
# 5 0.018277 0.007696 0.000632 0.002543 0.049702 0.004840
# 6 0.001663 0.003238 -0.003432 -0.003730 0.004840 0.026329
#
#
# Mechanical properties :
#
#
# Convention : Reuss Voigt Hill
#
# Bulk Modulus (GPa) = 20.76949 30.17260 25.47104
# Shear Modulus (GPa) = 22.53731 30.18567 26.36149
#
# Velocity S-wave (km/s) = 3.25389 3.76575 3.51914
# Velocity P-wave (km/s) = 4.88614 5.75175 5.33652
#
# Compressibility (1/GPa) = 0.04814755
#
# Stress axis : x y z
#
# Youngs Moduli (GPa) = 32.54078 46.57769 75.17828
#
# Poissons Ratio (x) = 0.21361 0.25013
# Poissons Ratio (y) = 0.14924 0.05743
# Poissons Ratio (z) = 0.10827 0.03558
#
# Static dielectric constant tensor:
#      x y z
#    x 1.746730 -0.009830 -0.000390 
#    y -0.009830 1.743370 0.000650 
#    z -0.000390 0.000650 1.777400 
# 
# From -- ./inp_files/414856.got.cif
#   From: 2010.05.17/outbox.cif.g08.bks.cpg/sg2_208_cif.got.tgz:414856.got - 2010.06.03 11:33:40.
