data_PCOD9035563
_publ_section_title
;
Structure prediction by ZEFSAII (Michael W. Deem and Ramdas Pophale) SiO2 
 PCOD9035563
Probable space group: P -1
;
_chemical_formula_sum "Si O2"
_cell_formula_units_Z 16
_cell_length_a 9.089155
_cell_length_b 14.962323
_cell_length_c 6.258054
_cell_angle_alpha 61.428033
_cell_angle_beta 75.290920
_cell_angle_gamma 75.945529
_cell_volume 715.501358
_symmetry_space_group_name_H-M "P -1"
_symmetry_group_IT_number 2
_symmetry_cell_setting 'triclinic'
loop_
_space_group_symop_operation_xyz
x,y,z
-x,-y,-z
loop_
_atom_site_type_symbol
_atom_site_label
_atom_site_fract_x
_atom_site_fract_y
_atom_site_fract_z
Si Si1 0.055177 0.737191 0.303870
Si Si2 0.229137 0.254749 0.298634
Si Si3 0.811210 0.097596 0.650413
Si Si4 0.356923 0.556319 0.855627
Si Si5 0.162453 0.526199 0.335240
Si Si6 0.652553 0.616359 0.261999
Si Si7 0.072484 0.127194 0.188473
Si Si8 0.520489 0.240011 0.522696
O O1 0.138241 0.825866 0.276863
O O2 0.171485 0.635584 0.320026
O O3 0.924699 0.711793 0.545327
O O4 0.968179 0.782520 0.070971
O O5 0.190308 0.156978 0.289690
O O6 0.377342 0.234711 0.421855
O O7 0.254468 0.337494 0.013716
O O8 0.633308 0.134087 0.624849
O O9 0.916182 0.112357 0.387057
O O10 0.855833 0.978506 0.829405
O O11 0.377460 0.490706 0.708713
O O12 0.377094 0.674783 0.696607
O O13 0.500000 0.500000 0.000000
O O14 0.202320 0.543159 0.055444
O O15 0.272174 0.427701 0.494731
O O16 0.000000 0.500000 0.500000
O O17 0.534457 0.712208 0.280676
#
# Coordination Sequence:
#
# PCOD9035563 Si02
#       8
#     2   2   2   2   2   2   2   2
#     4  11  23  43  67  94 128 172 221 270 321 386
#     4  11  24  42  64  93 134 171 213 266 329 389
#     4  10  24  41  70  97 122 166 222 268 330 389
#     4  12  24  40  62  93 130 172 213 260 318 378
#     4  12  25  40  64  97 129 175 218 261 321 385
#     4  12  24  41  62  89 135 173 209 265 314 386
#     4  10  22  46  68  93 127 166 212 281 327 382
#     4  12  24  41  64  99 130 171 214 263 327 391
#
# _framework density 22.361941999999999
#
# number of rings (size 3 to 8) (size 9 to 14) (size 15 to 20)
#    0.000    0.750    2.500    5.250    1.750    5.500 
#    0.000    2.500    0.000    0.000    0.000    0.000 
#    0.000    0.000    0.000    0.000    0.000    0.000 
#
# Total GULP energy -89402.722093 kJ/mol
# GULP energy per Si atom -5587.670131 kJ/mol
# Density = 2.231105 g / cm^3
# Si number density = 22.361942 Si / 1000 Ang^3
#
#
#
# Elastic Constant Matrix: (Units=GPa)
#
#
# Indices 1 2 3 4 5 6 
#
# 1 67.3377 32.3004 22.8232 8.2038 1.5585 -2.6959
# 2 32.3004 125.7789 0.5858 11.4651 10.4171 -13.3537
# 3 22.8232 0.5858 79.1935 10.7931 -12.8055 -7.2256
# 4 8.2038 11.4651 10.7931 28.6397 -4.2298 5.7396
# 5 1.5585 10.4171 -12.8055 -4.2298 31.5333 1.4541
# 6 -2.6959 -13.3537 -7.2256 5.7396 1.4541 31.2389
#
#
#
# Elastic Compliance Matrix: (Units=1/GPa)
#
#
# Indices 1 2 3 4 5 6 
#
# 1 0.019250 -0.004778 -0.005737 -0.001438 -0.001833 -0.001359
# 2 -0.004778 0.010528 0.001979 -0.005229 -0.003401 0.005665
# 3 -0.005737 0.001979 0.016317 -0.005496 0.005293 0.004888
# 4 -0.001438 -0.005229 -0.005496 0.042710 0.005837 -0.011750
# 5 -0.001833 -0.003401 0.005293 0.005837 0.036004 -0.003136
# 6 -0.001359 0.005665 0.004888 -0.011750 -0.003136 0.037751
#
#
# Mechanical properties :
#
#
# Convention : Reuss Voigt Hill
#
# Bulk Modulus (GPa) = 34.45578 42.63653 38.54615
# Shear Modulus (GPa) = 26.41221 32.72243 29.56732
#
# Velocity S-wave (km/s) = 3.44048 3.82947 3.64017
# Velocity P-wave (km/s) = 5.58786 6.21780 5.91123
#
# Compressibility (1/GPa) = 0.02902271
#
# Stress axis : x y z
#
# Youngs Moduli (GPa) = 51.94778 94.98455 61.28599
#
# Poissons Ratio (x) = 0.45385 0.35159
# Poissons Ratio (y) = 0.24821 -0.12127
# Poissons Ratio (z) = 0.29801 -0.18795
#
# Static dielectric constant tensor:
#      x y z
#    x 1.926240 0.036750 -0.017780 
#    y 0.036750 1.874480 0.064240 
#    z -0.017780 0.064240 1.864680 
# 
# From -- ./inp_files/37256.got.cif
#   From: 2010.05.17/outbox.cif.g08.bks.cpg/sg2_19_cif.got.tgz:37256.got - 2010.06.03 11:33:40.
