data_PCOD9035881
_publ_section_title
;
Structure prediction by ZEFSAII (Michael W. Deem and Ramdas Pophale) SiO2 
 PCOD9035881
Probable space group: P -1
;
_chemical_formula_sum "Si O2"
_cell_formula_units_Z 15
_cell_length_a 9.003560
_cell_length_b 11.357169
_cell_length_c 14.733194
_cell_angle_alpha 135.555191
_cell_angle_beta 39.208386
_cell_angle_gamma 117.486408
_cell_volume 652.405633
_symmetry_space_group_name_H-M "P -1"
_symmetry_group_IT_number 2
_symmetry_cell_setting 'triclinic'
loop_
_space_group_symop_operation_xyz
x,y,z
-x,-y,-z
loop_
_atom_site_type_symbol
_atom_site_label
_atom_site_fract_x
_atom_site_fract_y
_atom_site_fract_z
Si Si1 0.829659 0.576429 0.041924
Si Si2 0.333299 0.302144 0.448520
Si Si3 0.693692 0.775254 0.949884
Si Si4 0.924852 0.703230 0.620556
Si Si5 0.277206 0.985422 0.378194
Si Si6 0.868262 0.303380 0.181040
Si Si7 0.613394 0.161816 0.561553
Si Si8 0.500000 0.500000 0.000000
O O1 0.593329 0.672873 0.258577
O O2 0.725142 0.472096 0.954708
O O3 0.000000 0.500000 0.000000
O O4 0.971985 0.699467 0.986272
O O5 0.176599 0.272183 0.419438
O O6 0.614105 0.250739 0.260720
O O7 0.231359 0.498787 0.631785
O O8 0.307605 0.180596 0.479242
O O9 0.724277 0.778202 0.830354
O O10 0.658118 0.592789 0.906373
O O11 0.946347 0.795768 0.886802
O O12 0.460797 0.904885 0.168635
O O13 0.000000 0.500000 0.500000
O O14 0.147002 0.800749 0.575661
O O15 0.346259 0.858909 0.360301
O O16 0.000000 0.000000 0.500000
O O17 0.500000 0.000000 0.500000
#
# Coordination Sequence:
#
# PCOD9035881 Si02
#       8
#     2   2   2   2   2   2   2   1
#     4  11  26  44  76 111 144 203 258 312 377 465
#     4  11  26  44  72 106 147 188 251 310 384 453
#     4  11  25  44  75 101 147 196 244 315 379 449
#     4  12  26  47  76 111 145 193 256 319 370 455
#     4  12  27  49  70 104 148 198 244 301 383 468
#     4  10  24  45  70 107 137 195 251 312 373 445
#     4  12  29  49  71 112 156 196 246 319 390 452
#     4  10  22  46  74 108 144 192 262 300 380 448
#
# _framework density 22.991831999999999
#
# number of rings (size 3 to 8) (size 9 to 14) (size 15 to 20)
#    0.000    0.800    5.333    0.800   13.067    2.133 
#    0.000    0.000    0.000    0.000    0.000    0.000 
#    0.000    0.000    0.000    0.000    0.000    0.000 
#
# Total GULP energy -83548.818876 kJ/mol
# GULP energy per Si atom -5569.921258 kJ/mol
# Density = 2.293950 g / cm^3
# Si number density = 22.991832 Si / 1000 Ang^3
#
#
#
# Elastic Constant Matrix: (Units=GPa)
#
#
# Indices 1 2 3 4 5 6 
#
# 1 96.7933 33.5223 19.2280 -3.1707 -29.0461 2.7703
# 2 33.5223 79.3048 13.7763 -22.3058 -1.3336 11.0545
# 3 19.2280 13.7763 101.1778 -17.3478 -14.8052 7.8053
# 4 -3.1707 -22.3058 -17.3478 33.1852 -4.2762 -11.7100
# 5 -29.0461 -1.3336 -14.8052 -4.2762 41.3588 -9.0478
# 6 2.7703 11.0545 7.8053 -11.7100 -9.0478 40.1822
#
#
#
# Elastic Compliance Matrix: (Units=1/GPa)
#
#
# Indices 1 2 3 4 5 6 
#
# 1 0.016402 -0.007385 -0.000879 -0.001190 0.011571 0.003330
# 2 -0.007385 0.019013 0.000298 0.010848 -0.003890 -0.002494
# 3 -0.000879 0.000298 0.011844 0.007173 0.004547 0.000792
# 4 -0.001190 0.010848 0.007173 0.046246 0.009332 0.011282
# 5 0.011571 -0.003890 0.004547 0.009332 0.037059 0.010453
# 6 0.003330 -0.002494 0.000792 0.011282 0.010453 0.030831
#
#
# Mechanical properties :
#
#
# Convention : Reuss Voigt Hill
#
# Bulk Modulus (GPa) = 31.92161 45.59211 38.75686
# Shear Modulus (GPa) = 26.62853 36.99519 31.81186
#
# Velocity S-wave (km/s) = 3.40689 4.01566 3.72373
# Velocity P-wave (km/s) = 5.42124 6.43222 5.94825
#
# Compressibility (1/GPa) = 0.03132674
#
# Stress axis : x y z
#
# Youngs Moduli (GPa) = 60.97000 52.59614 84.42871
#
# Poissons Ratio (x) = 0.38840 0.07423
# Poissons Ratio (y) = 0.45023 -0.02514
# Poissons Ratio (z) = 0.05361 -0.01566
#
# Static dielectric constant tensor:
#      x y z
#    x 1.898140 0.081900 0.043180 
#    y 0.081900 1.967110 0.057290 
#    z 0.043180 0.057290 1.807320 
# 
# From -- ./inp_files/500771.got.cif
#   From: 2010.05.17/outbox.cif.g08.bks.cpg/sg2_251_cif.got.tgz:500771.got - 2010.06.03 11:33:40.
