data_PCOD9035625
_publ_section_title
;
Structure prediction by ZEFSAII (Michael W. Deem and Ramdas Pophale) SiO2 
 PCOD9035625
Probable space group: P -1
;
_chemical_formula_sum "Si O2"
_cell_formula_units_Z 14
_cell_length_a 8.361921
_cell_length_b 16.385500
_cell_length_c 11.863055
_cell_angle_alpha 33.753044
_cell_angle_beta 127.746556
_cell_angle_gamma 139.943437
_cell_volume 579.849017
_symmetry_space_group_name_H-M "P -1"
_symmetry_group_IT_number 2
_symmetry_cell_setting 'triclinic'
loop_
_space_group_symop_operation_xyz
x,y,z
-x,-y,-z
loop_
_atom_site_type_symbol
_atom_site_label
_atom_site_fract_x
_atom_site_fract_y
_atom_site_fract_z
Si Si1 0.355322 0.334109 0.401953
Si Si2 0.414048 0.036306 0.805067
Si Si3 0.649278 0.335258 0.190709
Si Si4 0.746442 0.697297 0.365789
Si Si5 0.424589 0.254946 0.973812
Si Si6 0.259514 0.891742 0.346554
Si Si7 0.147915 0.273477 0.135224
O O1 0.492200 0.240319 0.596044
O O2 0.174738 0.265897 0.510947
O O3 0.540835 0.552587 0.221905
O O4 0.204821 0.260742 0.305265
O O5 0.534639 0.023218 0.758995
O O6 0.116517 0.894668 0.827621
O O7 0.500000 0.000000 0.000000
O O8 0.666563 0.192040 0.429997
O O9 0.380368 0.298228 0.141674
O O10 0.665458 0.315779 0.085176
O O11 0.836191 0.541502 0.076721
O O12 0.500000 0.500000 0.500000
O O13 0.646076 0.785421 0.142839
O O14 0.986382 0.732947 0.367481
O O15 0.234500 0.055462 0.174195
#
# Coordination Sequence:
#
# PCOD9035625 Si02
#       7
#     2   2   2   2   2   2   2
#     4  10  22  46  69  95 141 189 219 275 353 409
#     4  12  27  44  71 107 138 178 236 291 336 409
#     4  10  23  43  69 104 134 185 228 286 335 413
#     4  10  24  45  68  98 142 185 224 279 349 406
#     4  10  23  42  69  98 141 179 225 279 347 402
#     4  12  25  42  68 107 134 178 239 282 337 407
#     4  10  23  44  69  97 145 181 226 279 357 397
#
# _framework density 24.144217000000001
#
# number of rings (size 3 to 8) (size 9 to 14) (size 15 to 20)
#    0.000    1.429    1.429    2.143    4.000    5.714 
#    0.000    8.571    0.000    0.000    0.000    0.000 
#    0.000    0.000    0.000    0.000    0.000    0.000 
#
# Total GULP energy -77939.890794 kJ/mol
# GULP energy per Si atom -5567.135057 kJ/mol
# Density = 2.408926 g / cm^3
# Si number density = 24.144217 Si / 1000 Ang^3
#
#
#
# Elastic Constant Matrix: (Units=GPa)
#
#
# Indices 1 2 3 4 5 6 
#
# 1 53.7634 27.2088 27.3915 -4.0661 -6.1931 2.7889
# 2 27.2088 94.7853 59.3805 2.6992 0.4670 2.5991
# 3 27.3915 59.3805 247.0659 12.2899 9.9084 -12.4618
# 4 -4.0661 2.6992 12.2899 40.8870 -6.6827 -13.4324
# 5 -6.1931 0.4670 9.9084 -6.6827 19.2864 2.8181
# 6 2.7889 2.5991 -12.4618 -13.4324 2.8181 28.9584
#
#
#
# Elastic Compliance Matrix: (Units=1/GPa)
#
#
# Indices 1 2 3 4 5 6 
#
# 1 0.024271 -0.005836 -0.002034 0.004660 0.010826 -0.001581
# 2 -0.005836 0.014064 -0.002737 -0.001696 -0.001021 -0.002565
# 3 -0.002034 -0.002737 0.005296 -0.001498 -0.004182 0.002433
# 4 0.004660 -0.001696 -0.001498 0.031464 0.011376 0.012547
# 5 0.010826 -0.001021 -0.004182 0.011376 0.061953 -0.003503
# 6 -0.001581 -0.002565 0.002433 0.012547 -0.003503 0.042122
#
#
# Mechanical properties :
#
#
# Convention : Reuss Voigt Hill
#
# Bulk Modulus (GPa) = 44.60925 69.28627 56.94776
# Shear Modulus (GPa) = 24.05501 36.60195 30.32848
#
# Velocity S-wave (km/s) = 3.15985 3.89777 3.54805
# Velocity P-wave (km/s) = 5.64174 7.00114 6.35788
#
# Compressibility (1/GPa) = 0.02241688
#
# Stress axis : x y z
#
# Youngs Moduli (GPa) = 41.20116 71.10447 188.82817
#
# Poissons Ratio (x) = 0.41494 0.38408
# Poissons Ratio (y) = 0.24044 0.51687
# Poissons Ratio (z) = 0.08380 0.19463
#
# Static dielectric constant tensor:
#      x y z
#    x 2.181580 -0.142350 0.067360 
#    y -0.142350 2.038810 -0.007680 
#    z 0.067360 -0.007680 1.936780 
# 
# From -- ./inp_files/402755.got.cif
#   From: 2010.05.17/outbox.cif.g08.bks.cpg/sg2_202_cif.got.tgz:402755.got - 2010.06.03 11:33:40.
