data_PCOD9035902
_publ_section_title
;
Structure prediction by ZEFSAII (Michael W. Deem and Ramdas Pophale) SiO2 
 PCOD9035902
Probable space group: P -1
;
_chemical_formula_sum "Si O2"
_cell_formula_units_Z 15
_cell_length_a 4.925504
_cell_length_b 13.187742
_cell_length_c 8.559423
_cell_angle_alpha 71.957823
_cell_angle_beta 91.566487
_cell_angle_gamma 86.544743
_cell_volume 527.068392
_symmetry_space_group_name_H-M "P -1"
_symmetry_group_IT_number 2
_symmetry_cell_setting 'triclinic'
loop_
_space_group_symop_operation_xyz
x,y,z
-x,-y,-z
loop_
_atom_site_type_symbol
_atom_site_label
_atom_site_fract_x
_atom_site_fract_y
_atom_site_fract_z
Si Si1 0.297721 0.305691 0.237732
Si Si2 0.218180 0.685681 0.208536
Si Si3 0.025560 0.023026 0.750580
Si Si4 0.319311 0.894344 0.555427
Si Si5 0.500000 0.000000 0.000000
Si Si6 0.113894 0.592862 0.566763
Si Si7 0.274442 0.427275 0.880118
Si Si8 0.220409 0.162692 0.011231
O O1 0.534059 0.220567 0.345997
O O2 0.181426 0.230586 0.135161
O O3 0.111410 0.340844 0.364894
O O4 0.319028 0.409551 0.073624
O O5 0.251721 0.659661 0.404091
O O6 0.514871 0.662864 0.149235
O O7 0.032831 0.600130 0.157009
O O8 0.004453 0.787420 0.132638
O O9 0.111941 0.930949 0.671139
O O10 0.821563 0.967137 0.894059
O O11 0.300422 0.049991 0.823799
O O12 0.850521 0.108226 0.605039
O O13 0.500000 0.000000 0.500000
O O14 0.466618 0.872449 0.003066
O O15 0.306540 0.534033 0.728839
O O16 0.000000 0.500000 0.500000
#
# Coordination Sequence:
#
# PCOD9035902 Si02
#       8
#     2   2   2   2   1   2   2   2
#     4  11  22  45  76 107 150 200 261 310 387 477
#     4  10  23  43  73 105 151 188 254 312 391 458
#     4  11  23  42  68 102 146 202 246 321 376 456
#     4  11  22  42  69 102 154 188 256 310 381 450
#     4  12  24  44  68 100 152 188 262 306 386 438
#     4  10  23  46  72 110 151 197 250 327 394 458
#     4  10  22  46  75 106 144 198 252 320 384 466
#     4  11  24  43  69 103 142 200 249 313 378 467
#
# _framework density 28.459306999999999
#
# number of rings (size 3 to 8) (size 9 to 14) (size 15 to 20)
#    0.000    1.333    2.667    2.000    1.867    2.133 
#    4.800   18.667    0.000    0.000    0.000    0.000 
#    0.000    0.000    0.000    0.000    0.000    0.000 
#
# Total GULP energy -83710.517058 kJ/mol
# GULP energy per Si atom -5580.701137 kJ/mol
# Density = 2.839453 g / cm^3
# Si number density = 28.459307 Si / 1000 Ang^3
#
#
#
# Elastic Constant Matrix: (Units=GPa)
#
#
# Indices 1 2 3 4 5 6 
#
# 1 81.1271 28.3352 34.4485 0.7098 11.9323 -9.2222
# 2 28.3352 158.1758 43.7329 -4.3998 -2.4015 -52.2329
# 3 34.4485 43.7329 186.9431 -1.3308 34.2531 -2.8767
# 4 0.7098 -4.3998 -1.3308 62.0883 -20.6597 14.6675
# 5 11.9323 -2.4015 34.2531 -20.6597 60.9829 20.3623
# 6 -9.2222 -52.2329 -2.8767 14.6675 20.3623 40.5490
#
#
#
# Elastic Compliance Matrix: (Units=1/GPa)
#
#
# Indices 1 2 3 4 5 6 
#
# 1 0.014767 0.000298 -0.001564 -0.004180 -0.006167 0.008241
# 2 0.000298 0.016533 -0.001145 -0.010624 -0.012920 0.031614
# 3 -0.001564 -0.001145 0.006798 -0.001930 -0.004799 0.001760
# 4 -0.004180 -0.010624 -0.001930 0.033561 0.026239 -0.040089
# 5 -0.006167 -0.012920 -0.004799 0.026239 0.045641 -0.050796
# 6 0.008241 0.031614 0.001760 -0.040089 -0.050796 0.107393
#
#
# Mechanical properties :
#
#
# Convention : Reuss Voigt Hill
#
# Bulk Modulus (GPa) = 30.05053 71.03101 50.54077
# Shear Modulus (GPa) = 20.78090 54.03932 37.41011
#
# Velocity S-wave (km/s) = 2.70515 4.36228 3.62955
# Velocity P-wave (km/s) = 4.50989 7.09828 5.94663
#
# Compressibility (1/GPa) = 0.03327728
#
# Stress axis : x y z
#
# Youngs Moduli (GPa) = 67.72080 60.48480 147.10602
#
# Poissons Ratio (x) = -0.01805 0.23006
# Poissons Ratio (y) = -0.02021 0.16838
# Poissons Ratio (z) = 0.10591 0.06923
#
# Static dielectric constant tensor:
#      x y z
#    x 2.362530 -0.004240 -0.164900 
#    y -0.004240 2.505780 0.021720 
#    z -0.164900 0.021720 2.339020 
# 
# From -- ./inp_files/134076.got.cif
#   From: 2010.05.17/outbox.cif.g08.bks.cpg/sg2_68_cif.got.tgz:134076.got - 2010.06.03 11:33:40.
