data_PCOD9035026
_publ_section_title
;
Structure prediction by ZEFSAII (Michael W. Deem and Ramdas Pophale) SiO2 
 PCOD9035026
Probable space group: P -1
;
_chemical_formula_sum "Si O2"
_cell_formula_units_Z 14
_cell_length_a 7.888204
_cell_length_b 11.564929
_cell_length_c 17.583035
_cell_angle_alpha 33.291353
_cell_angle_beta 134.234090
_cell_angle_gamma 124.567339
_cell_volume 630.334705
_symmetry_space_group_name_H-M "P -1"
_symmetry_group_IT_number 2
_symmetry_cell_setting 'triclinic'
loop_
_space_group_symop_operation_xyz
x,y,z
-x,-y,-z
loop_
_atom_site_type_symbol
_atom_site_label
_atom_site_fract_x
_atom_site_fract_y
_atom_site_fract_z
Si Si1 0.274029 0.439946 0.415457
Si Si2 0.444555 0.487596 0.270254
Si Si3 0.393785 0.288113 0.050702
Si Si4 0.091952 0.271281 0.185242
Si Si5 0.185260 0.303360 0.815861
Si Si6 0.826732 0.018762 0.363964
Si Si7 0.928828 0.132134 0.061023
O O1 0.500000 0.500000 0.500000
O O2 0.365102 0.423928 0.365219
O O3 0.185934 0.217217 0.539556
O O4 0.057512 0.604365 0.273740
O O5 0.347318 0.315242 0.275835
O O6 0.709378 0.541263 0.300052
O O7 0.300768 0.712159 0.089671
O O8 0.126718 0.258144 0.009380
O O9 0.556209 0.102495 0.241359
O O10 0.500000 0.500000 0.000000
O O11 0.376212 0.283479 0.956014
O O12 0.051226 0.106664 0.195806
O O13 0.933386 0.191057 0.247706
O O14 0.000000 0.500000 0.000000
O O15 0.135377 0.079691 0.885126
O O16 0.000000 0.000000 0.500000
#
# Coordination Sequence:
#
# PCOD9035026 Si02
#       7
#     2   2   2   2   2   2   2
#     4  12  28  47  70 105 154 191 237 305 371 436
#     4  11  23  46  72 102 146 187 246 305 357 432
#     4  12  23  43  76 107 139 192 248 297 365 436
#     4  10  22  45  70 104 139 188 244 299 352 432
#     4  12  26  46  75 105 142 196 249 296 365 438
#     4  12  25  46  72 105 151 190 239 306 370 426
#     4  11  23  42  74 106 141 184 254 308 347 430
#
# _framework density 22.210422000000001
#
# number of rings (size 3 to 8) (size 9 to 14) (size 15 to 20)
#    0.000    0.571    2.857    6.857    4.000    0.571 
#    2.571    1.429    0.000    0.000    0.000    0.000 
#    0.000    0.000    0.000    0.000    0.000    0.000 
#
# Total GULP energy -78224.380884 kJ/mol
# GULP energy per Si atom -5587.455777 kJ/mol
# Density = 2.215987 g / cm^3
# Si number density = 22.210422 Si / 1000 Ang^3
#
#
#
# Elastic Constant Matrix: (Units=GPa)
#
#
# Indices 1 2 3 4 5 6 
#
# 1 102.0375 21.8476 24.7610 13.8959 -17.0858 11.5762
# 2 21.8476 184.4721 43.5114 3.7795 -1.5754 -0.7820
# 3 24.7610 43.5114 82.0301 13.4202 0.4938 -9.4421
# 4 13.8959 3.7795 13.4202 22.1586 4.6804 -1.2805
# 5 -17.0858 -1.5754 0.4938 4.6804 35.5866 -3.1616
# 6 11.5762 -0.7820 -9.4421 -1.2805 -3.1616 36.0305
#
#
#
# Elastic Compliance Matrix: (Units=1/GPa)
#
#
# Indices 1 2 3 4 5 6 
#
# 1 0.013559 -0.000698 -0.002946 -0.008398 0.007197 -0.004810
# 2 -0.000698 0.006274 -0.003412 0.001457 -0.000246 -0.000504
# 3 -0.002946 -0.003412 0.016653 -0.007287 -0.000399 0.004943
# 4 -0.008398 0.001457 -0.007287 0.057034 -0.011202 0.001864
# 5 0.007197 -0.000246 -0.000399 -0.011202 0.033031 0.000078
# 6 -0.004810 -0.000504 0.004943 0.001864 0.000078 0.030657
#
#
# Mechanical properties :
#
#
# Convention : Reuss Voigt Hill
#
# Bulk Modulus (GPa) = 44.69318 60.97552 52.83435
# Shear Modulus (GPa) = 27.96750 37.31645 32.64197
#
# Velocity S-wave (km/s) = 3.55238 4.10339 3.83779
# Velocity P-wave (km/s) = 6.08212 7.06849 6.59377
#
# Compressibility (1/GPa) = 0.02237478
#
# Stress axis : x y z
#
# Youngs Moduli (GPa) = 73.75094 159.38044 60.04838
#
# Poissons Ratio (x) = 0.11123 0.17689
# Poissons Ratio (y) = 0.05147 0.20490
# Poissons Ratio (z) = 0.21725 0.54385
#
# Static dielectric constant tensor:
#      x y z
#    x 1.885880 -0.025550 -0.006970 
#    y -0.025550 1.799090 0.025130 
#    z -0.006970 0.025130 1.856250 
# 
# From -- ./inp_files/559611.got.cif
#   From: 2010.05.17/outbox.cif.g08.bks.cpg/sg2_280_cif.got.tgz:559611.got - 2010.06.03 11:33:40.
