data_PCOD9035773
_publ_section_title
;
Structure prediction by ZEFSAII (Michael W. Deem and Ramdas Pophale) SiO2 
 PCOD9035773
Probable space group: P -1
;
_chemical_formula_sum "Si O2"
_cell_formula_units_Z 11
_cell_length_a 11.405389
_cell_length_b 12.245160
_cell_length_c 10.293587
_cell_angle_alpha 52.735165
_cell_angle_beta 124.085178
_cell_angle_gamma 156.861502
_cell_volume 449.555727
_symmetry_space_group_name_H-M "P -1"
_symmetry_group_IT_number 2
_symmetry_cell_setting 'triclinic'
loop_
_space_group_symop_operation_xyz
x,y,z
-x,-y,-z
loop_
_atom_site_type_symbol
_atom_site_label
_atom_site_fract_x
_atom_site_fract_y
_atom_site_fract_z
Si Si1 0.815128 0.469562 0.855500
Si Si2 0.878854 0.716431 0.171065
Si Si3 0.000000 0.000000 0.500000
Si Si4 0.283594 0.356247 0.160241
Si Si5 0.632958 0.907751 0.352474
Si Si6 0.523311 0.857123 0.616273
O O1 0.702785 0.477798 0.890757
O O2 0.562688 0.191863 0.807010
O O3 0.027759 0.746788 0.695315
O O4 0.000000 0.500000 0.000000
O O5 0.607681 0.566823 0.180644
O O6 0.753764 0.454645 0.265589
O O7 0.108429 0.211968 0.017744
O O8 0.182902 0.955583 0.267434
O O9 0.104912 0.117474 0.328346
O O10 0.330383 0.217046 0.577935
O O11 0.513681 0.817406 0.486147
O O12 0.500000 0.000000 0.500000
#
# Coordination Sequence:
#
# PCOD9035773 Si02
#       6
#     2   2   1   2   2   2
#     4  11  26  43  70 100 143 180 237 291 360 415
#     4  11  26  47  73 108 142 188 244 289 360 420
#     4  10  22  46  72 102 142 178 240 288 358 416
#     4  10  25  45  76 105 145 188 237 303 348 429
#     4  11  25  43  70 102 134 186 236 292 351 422
#     4  12  27  46  75 101 148 188 239 294 357 428
#
# _framework density 24.468601
#
# number of rings (size 3 to 8) (size 9 to 14) (size 15 to 20)
#    0.000    1.091    1.818    2.182    7.636    7.273 
#    0.000    0.000    0.000    0.000    0.000    0.000 
#    0.000    0.000    0.000    0.000    0.000    0.000 
#
# Total GULP energy -61292.861313 kJ/mol
# GULP energy per Si atom -5572.078301 kJ/mol
# Density = 2.441291 g / cm^3
# Si number density = 24.468601 Si / 1000 Ang^3
#
#
#
# Elastic Constant Matrix: (Units=GPa)
#
#
# Indices 1 2 3 4 5 6 
#
# 1 83.4330 10.0023 66.6841 12.5317 -4.5470 -2.2607
# 2 10.0023 86.2666 35.6115 18.4258 -4.9281 -1.1161
# 3 66.6841 35.6115 158.8265 27.0787 -24.1064 9.3997
# 4 12.5317 18.4258 27.0787 61.4189 8.1864 8.7174
# 5 -4.5470 -4.9281 -24.1064 8.1864 51.2427 -4.0931
# 6 -2.2607 -1.1161 9.3997 8.7174 -4.0931 16.5728
#
#
#
# Elastic Compliance Matrix: (Units=1/GPa)
#
#
# Indices 1 2 3 4 5 6 
#
# 1 0.019303 0.001810 -0.008958 -0.001518 -0.001423 0.008283
# 2 0.001810 0.013719 -0.003343 -0.003899 0.000958 0.005354
# 3 -0.008958 -0.003343 0.012247 -0.002313 0.004531 -0.006058
# 4 -0.001518 -0.003899 -0.002313 0.021247 -0.005935 -0.011799
# 5 -0.001423 0.000958 0.004531 -0.005935 0.023049 0.006115
# 6 0.008283 0.005354 -0.006058 -0.011799 0.006115 0.072983
#
#
# Mechanical properties :
#
#
# Convention : Reuss Voigt Hill
#
# Bulk Modulus (GPa) = 41.17243 61.45801 51.31522
# Shear Modulus (GPa) = 26.09278 40.26207 33.17743
#
# Velocity S-wave (km/s) = 3.26909 4.06083 3.68627
# Velocity P-wave (km/s) = 5.57785 6.86722 6.25584
#
# Compressibility (1/GPa) = 0.02428810
#
# Stress axis : x y z
#
# Youngs Moduli (GPa) = 51.80554 72.89308 81.65206
#
# Poissons Ratio (x) = -0.13192 0.73140
# Poissons Ratio (y) = -0.09376 0.27293
# Poissons Ratio (z) = 0.46405 0.24365
#
# Static dielectric constant tensor:
#      x y z
#    x 2.007650 -0.092330 0.073300 
#    y -0.092330 2.010630 0.003060 
#    z 0.073300 0.003060 1.875000 
# 
# From -- ./inp_files/420233.got.cif
#   From: 2010.05.17/outbox.cif.g08.bks.cpg/sg2_211_cif.got.tgz:420233.got - 2010.06.03 11:33:40.
