data_PCOD9035942
_publ_section_title
;
Structure prediction by ZEFSAII (Michael W. Deem and Ramdas Pophale) SiO2 
 PCOD9035942
Probable space group: P -1
;
_chemical_formula_sum "Si O2"
_cell_formula_units_Z 16
_cell_length_a 23.238329
_cell_length_b 9.248276
_cell_length_c 5.562318
_cell_angle_alpha 124.858162
_cell_angle_beta 92.648892
_cell_angle_gamma 127.068578
_cell_volume 628.049405
_symmetry_space_group_name_H-M "P -1"
_symmetry_group_IT_number 2
_symmetry_cell_setting 'triclinic'
loop_
_space_group_symop_operation_xyz
x,y,z
-x,-y,-z
loop_
_atom_site_type_symbol
_atom_site_label
_atom_site_fract_x
_atom_site_fract_y
_atom_site_fract_z
Si Si1 0.472034 0.790169 0.485760
Si Si2 0.059978 0.932193 0.695292
Si Si3 0.313761 0.263203 0.656527
Si Si4 0.114422 0.252647 0.518425
Si Si5 0.762319 0.332975 0.423044
Si Si6 0.406451 0.200510 0.277166
Si Si7 0.696075 0.545523 0.581683
Si Si8 0.167817 0.854848 0.586172
O O1 0.561384 0.898144 0.676973
O O2 0.409353 0.707504 0.614010
O O3 0.500000 0.000000 0.500000
O O4 0.396411 0.485431 0.064776
O O5 0.105610 0.126468 0.647132
O O6 0.080591 0.771883 0.525550
O O7 0.090049 0.078202 0.105704
O O8 0.958206 0.760586 0.491944
O O9 0.354421 0.215461 0.442981
O O10 0.300261 0.417889 0.667159
O O11 0.215930 0.977024 0.454371
O O12 0.208281 0.560863 0.747511
O O13 0.741899 0.482710 0.646194
O O14 0.833833 0.355797 0.548452
O O15 0.665957 0.017008 0.143895
O O16 0.500000 0.500000 0.500000
O O17 0.756604 0.852968 0.975419
#
# Coordination Sequence:
#
# PCOD9035942 Si02
#       8
#     2   2   2   2   2   2   2   2
#     4  11  25  38  62  90 120 178 232 293 356 417
#     4  10  22  46  77 106 152 183 231 292 360 428
#     4  11  23  43  64  87 137 177 231 296 358 419
#     4  10  23  45  76 112 141 191 232 291 357 431
#     4  12  25  41  72 100 136 183 238 290 350 436
#     4  12  24  43  63  93 134 181 234 294 356 417
#     4  11  23  45  61  95 132 175 230 293 354 417
#     4  11  24  42  67 101 135 182 225 292 354 417
#
# _framework density 25.475704
#
# number of rings (size 3 to 8) (size 9 to 14) (size 15 to 20)
#    0.000    1.000    3.750    2.625    3.500    3.500 
#    0.000    0.000    0.000    5.250    0.000    0.000 
#    0.000    0.000    0.000    0.000    0.000    0.000 
#
# Total GULP energy -89301.991565 kJ/mol
# GULP energy per Si atom -5581.374473 kJ/mol
# Density = 2.541772 g / cm^3
# Si number density = 25.475704 Si / 1000 Ang^3
#
#
#
# Elastic Constant Matrix: (Units=GPa)
#
#
# Indices 1 2 3 4 5 6 
#
# 1 191.0762 34.0085 7.5225 -12.9061 -15.9440 -29.7247
# 2 34.0085 125.8433 -6.0865 -6.8289 -11.1749 -3.8629
# 3 7.5225 -6.0865 46.6685 -5.4627 1.0409 -2.8316
# 4 -12.9061 -6.8289 -5.4627 22.7905 2.0720 0.8823
# 5 -15.9440 -11.1749 1.0409 2.0720 28.4086 5.0590
# 6 -29.7247 -3.8629 -2.8316 0.8823 5.0590 46.8520
#
#
#
# Elastic Compliance Matrix: (Units=1/GPa)
#
#
# Indices 1 2 3 4 5 6 
#
# 1 0.006435 -0.001312 -0.000719 0.002731 0.002276 0.003634
# 2 -0.001312 0.008698 0.001503 0.002005 0.002544 -0.000337
# 3 -0.000719 0.001503 0.022475 0.005501 -0.001225 0.001055
# 4 0.002731 0.002005 0.005501 0.047432 -0.001608 0.001511
# 5 0.002276 0.002544 -0.001225 -0.001608 0.038086 -0.002503
# 6 0.003634 -0.000337 0.001055 0.001511 -0.002503 0.023927
#
#
# Mechanical properties :
#
#
# Convention : Reuss Voigt Hill
#
# Bulk Modulus (GPa) = 27.35755 48.27521 37.81638
# Shear Modulus (GPa) = 31.19303 41.48645 36.33974
#
# Velocity S-wave (km/s) = 3.50297 4.03981 3.78093
# Velocity P-wave (km/s) = 5.20798 6.38363 5.82554
#
# Compressibility (1/GPa) = 0.03655298
#
# Stress axis : x y z
#
# Youngs Moduli (GPa) = 155.40090 114.96848 44.49401
#
# Poissons Ratio (x) = 0.15084 0.03199
# Poissons Ratio (y) = 0.20388 -0.06689
# Poissons Ratio (z) = 0.11172 -0.17285
#
# Static dielectric constant tensor:
#      x y z
#    x 2.091740 -0.036400 -0.054980 
#    y -0.036400 2.118040 -0.099690 
#    z -0.054980 -0.099690 2.311790 
# 
# From -- ./inp_files/117374.got.cif
#   From: 2010.05.17/outbox.cif.g08.bks.cpg/sg2_59_cif.got.tgz:117374.got - 2010.06.03 11:33:40.
