data_PCOD9035261
_publ_section_title
;
Structure prediction by ZEFSAII (Michael W. Deem and Ramdas Pophale) SiO2 
 PCOD9035261
Probable space group: P -1
;
_chemical_formula_sum "Si O2"
_cell_formula_units_Z 13
_cell_length_a 9.951783
_cell_length_b 13.237815
_cell_length_c 10.225835
_cell_angle_alpha 40.691500
_cell_angle_beta 66.713252
_cell_angle_gamma 95.554566
_cell_volume 604.568558
_symmetry_space_group_name_H-M "P -1"
_symmetry_group_IT_number 2
_symmetry_cell_setting 'triclinic'
loop_
_space_group_symop_operation_xyz
x,y,z
-x,-y,-z
loop_
_atom_site_type_symbol
_atom_site_label
_atom_site_fract_x
_atom_site_fract_y
_atom_site_fract_z
Si Si1 0.334340 0.469331 0.510966
Si Si2 0.011734 0.467589 0.681602
Si Si3 0.056546 0.843445 0.358721
Si Si4 0.393538 0.983281 0.688848
Si Si5 0.000000 0.000000 0.000000
Si Si6 0.339090 0.255153 0.324239
Si Si7 0.395779 0.133342 0.149326
O O1 0.500000 0.500000 0.500000
O O2 0.210899 0.515533 0.587396
O O3 0.439911 0.631331 0.192324
O O4 0.171852 0.236686 0.753113
O O5 0.005347 0.627425 0.599734
O O6 0.000000 0.500000 0.500000
O O7 0.827482 0.232846 0.018861
O O8 0.105868 0.927204 0.110277
O O9 0.866045 0.814678 0.488091
O O10 0.225883 0.005373 0.234521
O O11 0.505608 0.966073 0.773918
O O12 0.500000 0.000000 0.500000
O O13 0.396321 0.170901 0.496653
O O14 0.318940 0.144513 0.306233
O O15 0.500000 0.500000 0.000000
#
# Coordination Sequence:
#
# PCOD9035261 Si02
#       7
#     2   2   2   2   1   2   2
#     4  12  25  45  70 105 146 188 248 295 361 433
#     4  12  24  45  71  99 146 190 238 295 363 437
#     4  12  25  43  69 104 143 188 246 296 366 430
#     4  10  22  45  73 100 140 190 236 299 366 428
#     4  12  22  42  72 102 138 194 230 298 364 422
#     4  11  24  46  75 100 141 193 245 302 369 435
#     4  11  24  46  68 108 144 187 245 304 358 440
#
# _framework density 21.502936999999999
#
# number of rings (size 3 to 8) (size 9 to 14) (size 15 to 20)
#    0.000    0.615    4.615    4.154    0.000    0.615 
#    8.308    3.846    0.000    0.000    0.000    0.000 
#    0.000    0.000    0.000    0.000    0.000    0.000 
#
# Total GULP energy -72479.520419 kJ/mol
# GULP energy per Si atom -5575.347725 kJ/mol
# Density = 2.145400 g / cm^3
# Si number density = 21.502937 Si / 1000 Ang^3
#
#
#
# Elastic Constant Matrix: (Units=GPa)
#
#
# Indices 1 2 3 4 5 6 
#
# 1 170.4623 34.8356 13.9017 -19.2317 15.4952 -14.5566
# 2 34.8356 60.6687 10.0218 -16.9651 -0.6192 -8.3772
# 3 13.9017 10.0218 85.6071 -22.3638 25.2374 -13.5725
# 4 -19.2317 -16.9651 -22.3638 40.0932 -6.3311 -4.7823
# 5 15.4952 -0.6192 25.2374 -6.3311 36.2523 -3.0041
# 6 -14.5566 -8.3772 -13.5725 -4.7823 -3.0041 46.2021
#
#
#
# Elastic Compliance Matrix: (Units=1/GPa)
#
#
# Indices 1 2 3 4 5 6 
#
# 1 0.007219 -0.003430 0.001162 0.002368 -0.003372 0.002020
# 2 -0.003430 0.021387 -0.000296 0.008295 0.003802 0.003816
# 3 0.001162 -0.000296 0.018215 0.009560 -0.011021 0.005936
# 4 0.002368 0.008295 0.009560 0.035878 -0.000536 0.008737
# 5 -0.003372 0.003802 -0.011021 -0.000536 0.036563 -0.001289
# 6 0.002020 0.003816 0.005936 0.008737 -0.001289 0.025537
#
#
# Mechanical properties :
#
#
# Convention : Reuss Voigt Hill
#
# Bulk Modulus (GPa) = 23.98492 48.25071 36.11782
# Shear Modulus (GPa) = 30.52080 41.70811 36.11446
#
# Velocity S-wave (km/s) = 3.77155 4.40892 4.10263
# Velocity P-wave (km/s) = 5.49041 6.95744 6.26700
#
# Compressibility (1/GPa) = 0.04169286
#
# Stress axis : x y z
#
# Youngs Moduli (GPa) = 138.52695 46.75785 54.90042
#
# Poissons Ratio (x) = 0.16040 -0.06381
# Poissons Ratio (y) = 0.47521 0.01623
# Poissons Ratio (z) = -0.16101 0.01382
#
# Static dielectric constant tensor:
#      x y z
#    x 1.776830 -0.021350 0.039370 
#    y -0.021350 1.862960 0.065740 
#    z 0.039370 0.065740 1.779000 
# 
# From -- ./inp_files/270320.got.cif
#   From: 2010.05.17/outbox.cif.g08.bks.cpg/sg2_136_cif.got.tgz:270320.got - 2010.06.03 11:33:40.
