data_PCOD9035994
_publ_section_title
;
Structure prediction by ZEFSAII (Michael W. Deem and Ramdas Pophale) SiO2 
 PCOD9035994
Probable space group: P -1
;
_chemical_formula_sum "Si O2"
_cell_formula_units_Z 16
_cell_length_a 8.862687
_cell_length_b 20.463380
_cell_length_c 6.779139
_cell_angle_alpha 67.628711
_cell_angle_beta 126.612113
_cell_angle_gamma 131.474080
_cell_volume 739.216665
_symmetry_space_group_name_H-M "P -1"
_symmetry_group_IT_number 2
_symmetry_cell_setting 'triclinic'
loop_
_space_group_symop_operation_xyz
x,y,z
-x,-y,-z
loop_
_atom_site_type_symbol
_atom_site_label
_atom_site_fract_x
_atom_site_fract_y
_atom_site_fract_z
Si Si1 0.682319 0.839074 0.793258
Si Si2 0.193053 0.488264 0.734295
Si Si3 0.174743 0.879150 0.242967
Si Si4 0.562157 0.352328 0.023078
Si Si5 0.920218 0.364862 0.021736
Si Si6 0.394034 0.814191 0.235106
Si Si7 0.526410 0.079669 0.215107
Si Si8 0.296928 0.408227 0.549152
O O1 0.614029 0.841348 0.510859
O O2 0.623803 0.897107 0.801463
O O3 0.509659 0.739328 0.847356
O O4 0.936173 0.864551 0.013440
O O5 0.235311 0.439653 0.658710
O O6 0.000000 0.500000 0.500000
O O7 0.407413 0.585425 0.847076
O O8 0.098518 0.433337 0.922787
O O9 0.209860 0.811920 0.239379
O O10 0.236860 0.881464 0.520044
O O11 0.383340 0.975671 0.219532
O O12 0.381881 0.349624 0.741055
O O13 0.796339 0.394858 0.029997
O O14 0.073894 0.352267 0.302128
O O15 0.721977 0.279032 0.850061
O O16 0.443926 0.879420 0.021990
O O17 0.500000 0.500000 0.500000
#
# Coordination Sequence:
#
# PCOD9035994 Si02
#       8
#     2   2   2   2   2   2   2   2
#     4  11  25  42  66 102 133 175 222 275 330 398
#     4  12  24  44  70  90 133 177 216 276 332 390
#     4  10  24  42  73  98 133 175 221 272 336 399
#     4  12  25  44  65  95 136 174 226 275 332 392
#     4  12  26  45  65  96 135 177 219 278 330 391
#     4  11  25  41  68  99 137 174 223 272 334 395
#     4  10  22  47  67  99 135 175 217 275 336 398
#     4  12  27  44  69  99 126 178 229 272 333 398
#
# _framework density 21.644532000000002
#
# number of rings (size 3 to 8) (size 9 to 14) (size 15 to 20)
#    0.000    0.750    3.750    3.000    3.500    2.500 
#    0.000    0.000    0.000    0.000    0.000    0.000 
#    0.000    0.000    0.000    0.000    0.000    0.000 
#
# Total GULP energy -89466.286362 kJ/mol
# GULP energy per Si atom -5591.642898 kJ/mol
# Density = 2.159527 g / cm^3
# Si number density = 21.644532 Si / 1000 Ang^3
#
#
#
# Elastic Constant Matrix: (Units=GPa)
#
#
# Indices 1 2 3 4 5 6 
#
# 1 38.8957 -2.8871 51.4558 2.5655 14.1772 6.1290
# 2 -2.8871 50.2281 10.8179 -2.7044 -16.4162 -7.8602
# 3 51.4558 10.8179 163.0944 10.5651 25.1726 -1.5803
# 4 2.5655 -2.7044 10.5651 34.5924 2.3551 6.6111
# 5 14.1772 -16.4162 25.1726 2.3551 44.6043 0.2084
# 6 6.1290 -7.8602 -1.5803 6.6111 0.2084 16.5144
#
#
#
# Elastic Compliance Matrix: (Units=1/GPa)
#
#
# Indices 1 2 3 4 5 6 
#
# 1 0.053509 0.000743 -0.016362 0.006086 -0.007712 -0.023410
# 2 0.000743 0.026314 -0.003639 0.000095 0.011442 0.011718
# 3 -0.016362 -0.003639 0.012313 -0.004001 -0.002909 0.007157
# 4 0.006086 0.000095 -0.004001 0.032775 -0.001299 -0.015701
# 5 -0.007712 0.011442 -0.002909 -0.001299 0.030754 0.008161
# 6 -0.023410 0.011718 0.007157 -0.015701 0.008161 0.081686
#
#
# Mechanical properties :
#
#
# Convention : Reuss Voigt Hill
#
# Bulk Modulus (GPa) = 18.64934 41.22127 29.93531
# Shear Modulus (GPa) = 17.02196 31.99767 24.50981
#
# Velocity S-wave (km/s) = 2.80738 3.84907 3.36873
# Velocity P-wave (km/s) = 4.37532 6.23216 5.38439
#
# Compressibility (1/GPa) = 0.05362121
#
# Stress axis : x y z
#
# Youngs Moduli (GPa) = 18.68851 38.00257 81.21813
#
# Poissons Ratio (x) = -0.02825 1.32889
# Poissons Ratio (y) = -0.01389 0.29552
# Poissons Ratio (z) = 0.30578 0.13827
#
# Static dielectric constant tensor:
#      x y z
#    x 1.763290 0.015120 0.008900 
#    y 0.015120 1.754010 0.010360 
#    z 0.008900 0.010360 1.831420 
# 
# From -- ./inp_files/52801.got.cif
#   From: 2010.05.17/outbox.cif.g08.bks.cpg/sg2_27_cif.got.tgz:52801.got - 2010.06.03 11:33:40.
