data_PCOD9035096
_publ_section_title
;
Structure prediction by ZEFSAII (Michael W. Deem and Ramdas Pophale) SiO2 
 PCOD9035096
Probable space group: P -1
;
_chemical_formula_sum "Si O2"
_cell_formula_units_Z 16
_cell_length_a 8.310909
_cell_length_b 8.810294
_cell_length_c 14.630963
_cell_angle_alpha 99.445542
_cell_angle_beta 61.871553
_cell_angle_gamma 59.357396
_cell_volume 687.772582
_symmetry_space_group_name_H-M "P -1"
_symmetry_group_IT_number 2
_symmetry_cell_setting 'triclinic'
loop_
_space_group_symop_operation_xyz
x,y,z
-x,-y,-z
loop_
_atom_site_type_symbol
_atom_site_label
_atom_site_fract_x
_atom_site_fract_y
_atom_site_fract_z
Si Si1 0.862834 0.234919 0.086870
Si Si2 0.341221 0.013184 0.261351
Si Si3 0.150799 0.526915 0.589931
Si Si4 0.719240 0.895855 0.503538
Si Si5 0.022735 0.045494 0.697029
Si Si6 0.290778 0.190556 0.012532
Si Si7 0.231864 0.579952 0.064978
Si Si8 0.415430 0.600010 0.650523
O O1 0.626768 0.349460 0.226014
O O2 0.821273 0.357543 0.020288
O O3 0.054383 0.221295 0.094386
O O4 0.000000 0.000000 0.000000
O O5 0.367488 0.012292 0.362684
O O6 0.129654 0.255040 0.311393
O O7 0.216359 0.924106 0.254096
O O8 0.598119 0.886827 0.127256
O O9 0.156468 0.343009 0.552820
O O10 0.313229 0.493864 0.630325
O O11 0.305382 0.525119 0.467573
O O12 0.889257 0.931564 0.419003
O O13 0.500000 0.000000 0.500000
O O14 0.955069 0.220497 0.801480
O O15 0.237672 0.821917 0.665452
O O16 0.235912 0.398294 0.067590
O O17 0.500000 0.000000 0.000000
O O18 0.500000 0.500000 0.000000
#
# Coordination Sequence:
#
# PCOD9035096 Si02
#       8
#     2   2   2   2   2   2   2   2
#     4  12  26  45  76 104 143 190 236 299 365 422
#     4  11  26  47  69 101 145 186 234 285 357 423
#     4  10  23  45  69 101 135 184 233 288 345 420
#     4  12  26  42  71 103 137 182 237 295 347 408
#     4  11  23  46  71  99 146 181 232 292 354 426
#     4  12  27  49  74 107 148 188 240 298 358 436
#     4  12  26  48  70 109 140 190 242 292 363 429
#     4  10  22  45  71 101 141 181 234 285 358 418
#
# _framework density 23.263504999999999
#
# number of rings (size 3 to 8) (size 9 to 14) (size 15 to 20)
#    0.000    0.750    3.750    3.375    7.000    2.000 
#    0.000    0.000    0.000    0.000    0.000    0.000 
#    0.000    0.000    0.000    0.000    0.000    0.000 
#
# Total GULP energy -89639.004529 kJ/mol
# GULP energy per Si atom -5602.437783 kJ/mol
# Density = 2.321056 g / cm^3
# Si number density = 23.263505 Si / 1000 Ang^3
#
#
#
# Elastic Constant Matrix: (Units=GPa)
#
#
# Indices 1 2 3 4 5 6 
#
# 1 45.0419 20.1531 -6.7350 7.7321 5.7099 4.8559
# 2 20.1531 82.9036 6.6844 4.8427 23.0335 18.6954
# 3 -6.7350 6.6844 117.0763 0.5609 20.6687 10.6796
# 4 7.7321 4.8427 0.5609 34.9770 -1.8510 5.9986
# 5 5.7099 23.0335 20.6687 -1.8510 42.1558 -0.0284
# 6 4.8559 18.6954 10.6796 5.9986 -0.0284 35.8640
#
#
#
# Elastic Compliance Matrix: (Units=1/GPa)
#
#
# Indices 1 2 3 4 5 6 
#
# 1 0.026205 -0.005675 0.002201 -0.005067 -0.001750 -0.000399
# 2 -0.005675 0.018081 0.001174 -0.000242 -0.009703 -0.008973
# 3 0.002201 0.001174 0.009985 -0.000466 -0.005858 -0.003810
# 4 -0.005067 -0.000242 -0.000466 0.030592 0.002387 -0.004164
# 5 -0.001750 -0.009703 -0.005858 0.002387 0.032241 0.006665
# 6 -0.000399 -0.008973 -0.003810 -0.004164 0.006665 0.034451
#
#
# Mechanical properties :
#
#
# Convention : Reuss Voigt Hill
#
# Bulk Modulus (GPa) = 20.13305 31.69187 25.91246
# Shear Modulus (GPa) = 28.94996 37.59400 33.27198
#
# Velocity S-wave (km/s) = 3.53148 4.02432 3.78593
# Velocity P-wave (km/s) = 5.03007 5.93684 5.50217
#
# Compressibility (1/GPa) = 0.04966958
#
# Stress axis : x y z
#
# Youngs Moduli (GPa) = 38.16115 55.30786 100.15013
#
# Poissons Ratio (x) = 0.31389 -0.22045
# Poissons Ratio (y) = 0.21658 -0.11756
# Poissons Ratio (z) = -0.08400 -0.06492
#
# Static dielectric constant tensor:
#      x y z
#    x 1.860650 0.003460 0.013370 
#    y 0.003460 1.851300 -0.026550 
#    z 0.013370 -0.026550 1.901520 
# 
# From -- ./inp_files/188793.got.cif
#   From: 2010.05.17/outbox.cif.g08.bks.cpg/sg2_95_cif.got.tgz:188793.got - 2010.06.03 11:33:40.
