data_PCOD9035426
_publ_section_title
;
Structure prediction by ZEFSAII (Michael W. Deem and Ramdas Pophale) SiO2 
 PCOD9035426
Probable space group: P -1
;
_chemical_formula_sum "Si O2"
_cell_formula_units_Z 16
_cell_length_a 5.276047
_cell_length_b 8.727664
_cell_length_c 30.941808
_cell_angle_alpha 36.140812
_cell_angle_beta 64.944060
_cell_angle_gamma 80.867800
_cell_volume 715.026297
_symmetry_space_group_name_H-M "P -1"
_symmetry_group_IT_number 2
_symmetry_cell_setting 'triclinic'
loop_
_space_group_symop_operation_xyz
x,y,z
-x,-y,-z
loop_
_atom_site_type_symbol
_atom_site_label
_atom_site_fract_x
_atom_site_fract_y
_atom_site_fract_z
Si Si1 0.799459 0.316137 0.594004
Si Si2 0.224426 0.461765 0.608358
Si Si3 0.676924 0.954775 0.552328
Si Si4 0.872259 0.539153 0.294266
Si Si5 0.350655 0.676232 0.069168
Si Si6 0.020390 0.349180 0.986465
Si Si7 0.889765 0.706789 0.161214
Si Si8 0.715978 0.792674 0.678583
O O1 0.469710 0.325330 0.612054
O O2 0.000000 0.500000 0.500000
O O3 0.975424 0.435174 0.597291
O O4 0.784946 0.000505 0.665392
O O5 0.049985 0.330595 0.694481
O O6 0.405569 0.794889 0.519627
O O7 0.476714 0.632280 0.636140
O O8 0.663481 0.970488 0.601752
O O9 0.000000 0.000000 0.500000
O O10 0.959310 0.719747 0.204380
O O11 0.009871 0.298916 0.333124
O O12 0.629346 0.566955 0.071377
O O13 0.181047 0.622671 0.046740
O O14 0.101172 0.585030 0.145498
O O15 0.500000 0.000000 0.000000
O O16 0.000000 0.500000 0.000000
O O17 0.915441 0.015069 0.076045
O O18 0.560762 0.484802 0.231181
#
# Coordination Sequence:
#
# PCOD9035426 Si02
#       8
#     2   2   2   2   2   2   2   2
#     4  12  26  43  64  92 132 174 234 292 343 395
#     4  12  25  43  65  92 131 174 236 290 340 397
#     4  11  21  40  66  94 121 180 244 285 331 405
#     4  11  25  41  67  94 135 181 227 288 347 402
#     4  10  22  45  78 105 137 188 226 268 336 432
#     4  11  24  47  78 112 140 177 229 281 341 414
#     4  10  25  44  70 101 142 177 228 276 339 423
#     4  11  25  41  66  95 134 183 227 284 342 400
#
# _framework density 22.376798000000001
#
# number of rings (size 3 to 8) (size 9 to 14) (size 15 to 20)
#    0.000    1.000    2.500    4.125   10.500    0.000 
#    2.250    0.000    0.000    0.000    0.000    0.000 
#    0.000    0.000    0.000    0.000    0.000    0.000 
#
# Total GULP energy -89270.590327 kJ/mol
# GULP energy per Si atom -5579.411895 kJ/mol
# Density = 2.232587 g / cm^3
# Si number density = 22.376798 Si / 1000 Ang^3
#
#
#
# Elastic Constant Matrix: (Units=GPa)
#
#
# Indices 1 2 3 4 5 6 
#
# 1 92.4527 27.4707 20.0522 17.7865 -7.1676 -4.8431
# 2 27.4707 90.3468 17.7426 8.7252 -15.0858 -10.6223
# 3 20.0522 17.7426 83.1561 18.1704 -3.6628 2.0726
# 4 17.7865 8.7252 18.1704 27.2822 6.0611 -1.8220
# 5 -7.1676 -15.0858 -3.6628 6.0611 27.6005 10.5066
# 6 -4.8431 -10.6223 2.0726 -1.8220 10.5066 43.6173
#
#
#
# Elastic Compliance Matrix: (Units=1/GPa)
#
#
# Indices 1 2 3 4 5 6 
#
# 1 0.013672 -0.002558 -0.000685 -0.008579 0.004105 -0.000419
# 2 -0.002558 0.013728 -0.001326 -0.003279 0.006877 0.001329
# 3 -0.000685 -0.001326 0.014961 -0.010223 0.004308 -0.002575
# 4 -0.008579 -0.003279 -0.010223 0.054844 -0.019609 0.005749
# 5 0.004105 0.006877 0.004308 -0.019609 0.050107 -0.010963
# 6 -0.000419 0.001329 -0.002575 0.005749 -0.010963 0.026207
#
#
# Mechanical properties :
#
#
# Convention : Reuss Voigt Hill
#
# Bulk Modulus (GPa) = 30.09966 44.05405 37.07685
# Shear Modulus (GPa) = 25.80886 33.07935 29.44411
#
# Velocity S-wave (km/s) = 3.39982 3.84902 3.63138
# Velocity P-wave (km/s) = 5.37515 6.28358 5.84703
#
# Compressibility (1/GPa) = 0.03322297
#
# Stress axis : x y z
#
# Youngs Moduli (GPa) = 73.14393 72.84492 66.83858
#
# Poissons Ratio (x) = 0.18632 0.04580
# Poissons Ratio (y) = 0.18709 0.08863
# Poissons Ratio (z) = 0.05012 0.09659
#
# Static dielectric constant tensor:
#      x y z
#    x 1.816250 0.207740 0.040900 
#    y 0.207740 1.877960 -0.020960 
#    z 0.040900 -0.020960 1.840500 
# 
# From -- ./inp_files/621687.got.cif
#   From: 2010.05.17/outbox.cif.g08.bks.cpg/sg2_311_cif.got.tgz:621687.got - 2010.06.03 11:33:40.
