data_PCOD9035470
_publ_section_title
;
Structure prediction by ZEFSAII (Michael W. Deem and Ramdas Pophale) SiO2 
 PCOD9035470
Probable space group: P -1
;
_chemical_formula_sum "Si O2"
_cell_formula_units_Z 16
_cell_length_a 9.134454
_cell_length_b 9.296587
_cell_length_c 12.505589
_cell_angle_alpha 69.285388
_cell_angle_beta 124.828229
_cell_angle_gamma 122.536014
_cell_volume 733.253302
_symmetry_space_group_name_H-M "P -1"
_symmetry_group_IT_number 2
_symmetry_cell_setting 'triclinic'
loop_
_space_group_symop_operation_xyz
x,y,z
-x,-y,-z
loop_
_atom_site_type_symbol
_atom_site_label
_atom_site_fract_x
_atom_site_fract_y
_atom_site_fract_z
Si Si1 0.444143 0.065836 0.851362
Si Si2 0.064365 0.674558 0.419877
Si Si3 0.881784 0.795525 0.004283
Si Si4 0.683145 0.683798 0.164087
Si Si5 0.519954 0.182418 0.507010
Si Si6 0.194233 0.966595 0.577723
Si Si7 0.853107 0.386319 0.871775
Si Si8 0.348004 0.389902 0.238388
O O1 0.309810 0.155910 0.810276
O O2 0.304921 0.936779 0.736225
O O3 0.655526 0.213061 0.862481
O O4 0.500000 0.000000 0.000000
O O5 0.246971 0.713273 0.406410
O O6 0.000000 0.500000 0.500000
O O7 0.876713 0.665975 0.282592
O O8 0.135129 0.818082 0.504444
O O9 0.810889 0.753491 0.864292
O O10 0.704047 0.727986 0.035327
O O11 0.010101 0.689872 0.107653
O O12 0.000000 0.000000 0.000000
O O13 0.493397 0.526346 0.176294
O O14 0.373057 0.134674 0.557950
O O15 0.458033 0.298317 0.373213
O O16 0.500000 0.000000 0.500000
O O17 0.000000 0.000000 0.500000
O O18 0.758078 0.514958 0.762031
O O19 0.000000 0.500000 0.000000
#
# Coordination Sequence:
#
# PCOD9035470 Si02
#       8
#     2   2   2   2   2   2   2   2
#     4  11  24  45  70  99 137 180 229 284 344 417
#     4  11  23  46  68 100 138 181 231 289 349 415
#     4  11  24  38  70 103 133 179 230 286 351 408
#     4  11  23  42  67  97 140 178 231 286 343 417
#     4  10  24  41  69  96 132 177 232 285 341 412
#     4  11  25  46  71 100 140 183 232 287 355 417
#     4   9  22  44  64  98 138 175 225 282 345 413
#     4  10  22  46  65  94 141 180 227 289 349 415
#
# _framework density 21.820564999999998
#
# number of rings (size 3 to 8) (size 9 to 14) (size 15 to 20)
#    0.000    1.500    2.500    1.125    5.250    5.000 
#    9.000    3.125    0.000    0.000    0.000    0.000 
#    0.000    0.000    0.000    0.000    0.000    0.000 
#
# Total GULP energy -89182.663190 kJ/mol
# GULP energy per Si atom -5573.916449 kJ/mol
# Density = 2.177090 g / cm^3
# Si number density = 21.820565 Si / 1000 Ang^3
#
#
#
# Elastic Constant Matrix: (Units=GPa)
#
#
# Indices 1 2 3 4 5 6 
#
# 1 107.4575 9.7194 -12.8171 1.8862 10.0256 3.7136
# 2 9.7194 75.3803 0.4549 2.9254 0.4015 -4.5910
# 3 -12.8171 0.4549 52.1463 10.3617 10.5177 -2.2332
# 4 1.8862 2.9254 10.3617 31.4191 0.9580 1.4009
# 5 10.0256 0.4015 10.5177 0.9580 35.3580 0.8337
# 6 3.7136 -4.5910 -2.2332 1.4009 0.8337 26.9091
#
#
#
# Elastic Compliance Matrix: (Units=1/GPa)
#
#
# Indices 1 2 3 4 5 6 
#
# 1 0.010283 -0.001339 0.003574 -0.001501 -0.003896 -0.001152
# 2 -0.001339 0.013643 -0.000135 -0.001267 0.000239 0.002560
# 3 0.003574 -0.000135 0.023245 -0.007723 -0.007766 0.002056
# 4 -0.001501 -0.001267 -0.007723 0.034638 0.001858 -0.002511
# 5 -0.003896 0.000239 -0.007766 0.001858 0.031671 -0.001144
# 6 -0.001152 0.002560 0.002056 -0.002511 -0.001144 0.038095
#
#
# Mechanical properties :
#
#
# Convention : Reuss Voigt Hill
#
# Bulk Modulus (GPa) = 19.46567 25.52206 22.49386
# Shear Modulus (GPa) = 30.39544 34.57903 32.48723
#
# Velocity S-wave (km/s) = 3.73630 3.98515 3.86273
# Velocity P-wave (km/s) = 5.24914 5.73558 5.49774
#
# Compressibility (1/GPa) = 0.05137250
#
# Stress axis : x y z
#
# Youngs Moduli (GPa) = 97.24807 73.29624 43.01932
#
# Poissons Ratio (x) = 0.09811 -0.15375
# Poissons Ratio (y) = 0.13018 0.00580
# Poissons Ratio (z) = -0.34755 0.00988
#
# Static dielectric constant tensor:
#      x y z
#    x 1.831880 -0.003750 -0.026170 
#    y -0.003750 1.778230 0.017670 
#    z -0.026170 0.017670 1.805920 
# 
# From -- ./inp_files/381802.got.cif
#   From: 2010.05.17/outbox.cif.g08.bks.cpg/sg2_191_cif.got.tgz:381802.got - 2010.06.03 11:33:40.
