data_PCOD9035147
_publ_section_title
;
Structure prediction by ZEFSAII (Michael W. Deem and Ramdas Pophale) SiO2 
 PCOD9035147
Probable space group: P -1
;
_chemical_formula_sum "Si O2"
_cell_formula_units_Z 16
_cell_length_a 20.872732
_cell_length_b 8.132538
_cell_length_c 11.252256
_cell_angle_alpha 141.472409
_cell_angle_beta 30.980783
_cell_angle_gamma 131.673020
_cell_volume 612.325701
_symmetry_space_group_name_H-M "P -1"
_symmetry_group_IT_number 2
_symmetry_cell_setting 'triclinic'
loop_
_space_group_symop_operation_xyz
x,y,z
-x,-y,-z
loop_
_atom_site_type_symbol
_atom_site_label
_atom_site_fract_x
_atom_site_fract_y
_atom_site_fract_z
Si Si1 0.943762 0.115754 0.462115
Si Si2 0.266460 0.484166 0.406058
Si Si3 0.297977 0.891728 0.011299
Si Si4 0.111552 0.597414 0.499084
Si Si5 0.700365 0.762102 0.148453
Si Si6 0.169934 0.749250 0.908905
Si Si7 0.575840 0.870144 0.651159
Si Si8 0.492016 0.430854 0.179595
O O1 0.803655 0.099626 0.719107
O O2 0.944534 0.151273 0.338060
O O3 0.006849 0.379660 0.564603
O O4 0.036358 0.880020 0.219188
O O5 0.191598 0.641461 0.513284
O O6 0.400059 0.536842 0.283527
O O7 0.290653 0.194340 0.148426
O O8 0.176578 0.498204 0.671902
O O9 0.244336 0.716572 0.893328
O O10 0.435303 0.821958 0.797723
O O11 0.199928 0.455071 0.178823
O O12 0.670919 0.786305 0.348924
O O13 0.572769 0.664478 0.235927
O O14 0.754268 0.032722 0.165170
O O15 0.581084 0.714508 0.679197
O O16 0.574378 0.184578 0.858424
#
# Coordination Sequence:
#
# PCOD9035147 Si02
#       8
#     2   2   2   2   2   2   2   2
#     4  10  22  45  71  88 131 171 212 269 323 375
#     4  11  24  42  63  97 133 162 221 260 317 384
#     4  11  22  45  66  92 131 171 212 268 316 378
#     4  10  23  43  67 100 125 168 216 266 323 379
#     4  11  22  41  66  93 132 170 212 261 319 381
#     4  11  25  41  66  99 123 172 220 260 322 382
#     4  10  23  40  67  96 130 171 214 258 322 385
#     4  10  23  41  62  97 133 172 209 263 318 383
#
# _framework density 26.129885999999999
#
# number of rings (size 3 to 8) (size 9 to 14) (size 15 to 20)
#    0.000    1.500    2.500    2.250    1.750    4.500 
#    0.000    0.000    0.000    0.000    0.000    0.000 
#    0.000    0.000    0.000    0.000    0.000    0.000 
#
# Total GULP energy -89596.857153 kJ/mol
# GULP energy per Si atom -5599.803572 kJ/mol
# Density = 2.607041 g / cm^3
# Si number density = 26.129886 Si / 1000 Ang^3
#
#
#
# Elastic Constant Matrix: (Units=GPa)
#
#
# Indices 1 2 3 4 5 6 
#
# 1 145.5866 29.7684 7.6088 8.2633 -1.3004 2.9442
# 2 29.7684 67.0796 4.0710 -17.5388 -0.2677 12.9962
# 3 7.6088 4.0710 68.6416 2.9871 13.2217 3.8086
# 4 8.2633 -17.5388 2.9871 35.4465 -1.4496 -0.6643
# 5 -1.3004 -0.2677 13.2217 -1.4496 45.4943 0.3879
# 6 2.9442 12.9962 3.8086 -0.6643 0.3879 25.4584
#
#
#
# Elastic Compliance Matrix: (Units=1/GPa)
#
#
# Indices 1 2 3 4 5 6 
#
# 1 0.008133 -0.005002 -0.000547 -0.004287 0.000212 0.001580
# 2 -0.005002 0.022374 -0.000861 0.012144 0.000715 -0.010409
# 3 -0.000547 -0.000861 0.015757 -0.001851 -0.004643 -0.001832
# 4 -0.004287 0.012144 -0.001851 0.035358 0.001652 -0.004529
# 5 0.000212 0.000715 -0.004643 0.001652 0.023393 -0.000008
# 6 0.001580 -0.010409 -0.001832 -0.004529 -0.000008 0.044567
#
#
# Mechanical properties :
#
#
# Convention : Reuss Voigt Hill
#
# Bulk Modulus (GPa) = 29.90064 40.46713 35.18388
# Shear Modulus (GPa) = 28.80999 37.27047 33.04023
#
# Velocity S-wave (km/s) = 3.32410 3.78081 3.55978
# Velocity P-wave (km/s) = 5.11867 5.88047 5.51274
#
# Compressibility (1/GPa) = 0.03344410
#
# Stress axis : x y z
#
# Youngs Moduli (GPa) = 122.94923 44.69398 63.46518
#
# Poissons Ratio (x) = 0.22357 0.03470
# Poissons Ratio (y) = 0.61503 0.05465
# Poissons Ratio (z) = 0.06723 0.03848
#
# Static dielectric constant tensor:
#      x y z
#    x 2.009000 -0.008500 0.011610 
#    y -0.008500 2.142160 0.029080 
#    z 0.011610 0.029080 2.077940 
# 
# From -- ./inp_files/470185.got.cif
#   From: 2010.05.17/outbox.cif.g08.bks.cpg/sg2_236_cif.got.tgz:470185.got - 2010.06.03 11:33:40.
