data_PCOD9035802
_publ_section_title
;
Structure prediction by ZEFSAII (Michael W. Deem and Ramdas Pophale) SiO2 
 PCOD9035802
Probable space group: P -1
;
_chemical_formula_sum "Si O2"
_cell_formula_units_Z 12
_cell_length_a 16.300297
_cell_length_b 8.640147
_cell_length_c 21.177857
_cell_angle_alpha 140.010523
_cell_angle_beta 15.950202
_cell_angle_gamma 141.956441
_cell_volume 504.401654
_symmetry_space_group_name_H-M "P -1"
_symmetry_group_IT_number 2
_symmetry_cell_setting 'triclinic'
loop_
_space_group_symop_operation_xyz
x,y,z
-x,-y,-z
loop_
_atom_site_type_symbol
_atom_site_label
_atom_site_fract_x
_atom_site_fract_y
_atom_site_fract_z
Si Si1 0.170747 0.017231 0.276144
Si Si2 0.243415 0.198599 0.034534
Si Si3 0.885122 0.313738 0.661691
Si Si4 0.259647 0.408474 0.593460
Si Si5 0.221147 0.283292 0.935444
Si Si6 0.765601 0.658835 0.199668
O O1 0.090157 0.830161 0.337150
O O2 0.895191 0.889703 0.391056
O O3 0.129542 0.274229 0.415742
O O4 0.500000 0.000000 0.000000
O O5 0.126765 0.410437 0.223439
O O6 0.361249 0.277257 0.899935
O O7 0.541848 0.172965 0.843723
O O8 0.961045 0.944363 0.159955
O O9 0.500000 0.500000 0.500000
O O10 0.454697 0.541771 0.431475
O O11 0.978742 0.523485 0.846989
O O12 0.344900 0.351547 0.794357
O O13 0.000000 0.000000 0.000000
O O14 0.000000 0.500000 0.000000
#
# Coordination Sequence:
#
# PCOD9035802 Si02
#       6
#     2   2   2   2   2   2
#     4  11  26  47  73 104 142 195 244 295 358 435
#     4  10  22  46  72 110 146 184 241 298 366 427
#     4  10  23  47  73  99 149 188 240 297 357 441
#     4  12  25  44  71 109 137 184 245 292 357 425
#     4  10  23  43  65 107 144 176 231 296 357 422
#     4  11  23  42  74 104 141 188 230 303 355 420
#
# _framework density 23.790565000000001
#
# number of rings (size 3 to 8) (size 9 to 14) (size 15 to 20)
#    0.000    1.333    3.333    1.000    4.667    5.333 
#    3.000    5.000    0.000    0.000    0.000    0.000 
#    0.000    0.000    0.000    0.000    0.000    0.000 
#
# Total GULP energy -67046.974571 kJ/mol
# GULP energy per Si atom -5587.247881 kJ/mol
# Density = 2.373642 g / cm^3
# Si number density = 23.790565 Si / 1000 Ang^3
#
#
#
# Elastic Constant Matrix: (Units=GPa)
#
#
# Indices 1 2 3 4 5 6 
#
# 1 109.5333 27.1822 13.3518 -15.7861 9.4498 29.7533
# 2 27.1822 117.6967 46.4342 6.5001 12.5289 36.7532
# 3 13.3518 46.4342 110.8069 1.2363 38.9295 20.3916
# 4 -15.7861 6.5001 1.2363 39.3779 -3.8708 -0.0088
# 5 9.4498 12.5289 38.9295 -3.8708 45.3498 -6.0275
# 6 29.7533 36.7532 20.3916 -0.0088 -6.0275 42.0827
#
#
#
# Elastic Compliance Matrix: (Units=1/GPa)
#
#
# Indices 1 2 3 4 5 6 
#
# 1 0.013090 -0.000156 0.002635 0.004593 -0.006052 -0.011262
# 2 -0.000156 0.013357 -0.002415 -0.002512 -0.003241 -0.010850
# 3 0.002635 -0.002415 0.017364 -0.000689 -0.016241 -0.010494
# 4 0.004593 -0.002512 -0.000689 0.027935 0.002669 -0.000331
# 5 -0.006052 -0.003241 -0.016241 0.002669 0.041151 0.020874
# 6 -0.011262 -0.010850 -0.010494 -0.000331 0.020874 0.049276
#
#
# Mechanical properties :
#
#
# Convention : Reuss Voigt Hill
#
# Bulk Modulus (GPa) = 22.75806 56.88593 39.82200
# Shear Modulus (GPa) = 28.29787 42.10000 35.19894
#
# Velocity S-wave (km/s) = 3.45259 4.21124 3.85064
# Velocity P-wave (km/s) = 5.04783 6.89993 6.04523
#
# Compressibility (1/GPa) = 0.04394047
#
# Stress axis : x y z
#
# Youngs Moduli (GPa) = 76.39253 74.86662 57.58958
#
# Poissons Ratio (x) = 0.01165 -0.15176
# Poissons Ratio (y) = 0.01189 0.13909
# Poissons Ratio (z) = -0.20131 0.18082
#
# Static dielectric constant tensor:
#      x y z
#    x 1.671180 -0.348720 -0.123710 
#    y -0.348720 1.521750 -0.115810 
#    z -0.123710 -0.115810 1.904640 
# 
# From -- ./inp_files/27976.got.cif
#   From: 2010.05.17/outbox.cif.g08.bks.cpg/sg2_14_cif.got.tgz:27976.got - 2010.06.03 11:33:40.
