data_PCOD9035476
_publ_section_title
;
Structure prediction by ZEFSAII (Michael W. Deem and Ramdas Pophale) SiO2 
 PCOD9035476
Probable space group: P -1
;
_chemical_formula_sum "Si O2"
_cell_formula_units_Z 14
_cell_length_a 19.466187
_cell_length_b 10.825671
_cell_length_c 6.686708
_cell_angle_alpha 73.252895
_cell_angle_beta 96.981527
_cell_angle_gamma 147.497197
_cell_volume 704.571588
_symmetry_space_group_name_H-M "P -1"
_symmetry_group_IT_number 2
_symmetry_cell_setting 'triclinic'
loop_
_space_group_symop_operation_xyz
x,y,z
-x,-y,-z
loop_
_atom_site_type_symbol
_atom_site_label
_atom_site_fract_x
_atom_site_fract_y
_atom_site_fract_z
Si Si1 0.075268 0.071074 0.298141
Si Si2 0.355133 0.447123 0.395638
Si Si3 0.758453 0.205351 0.175570
Si Si4 0.024088 0.236209 0.944942
Si Si5 0.757414 0.926449 0.163239
Si Si6 0.483979 0.126079 0.469908
Si Si7 0.578305 0.827454 0.972430
O O1 0.217910 0.250763 0.329515
O O2 0.083781 0.205859 0.088988
O O3 0.000000 0.000000 0.500000
O O4 0.998667 0.838457 0.258606
O O5 0.334628 0.299886 0.615087
O O6 0.400359 0.640291 0.454746
O O7 0.467748 0.611146 0.193407
O O8 0.879190 0.491738 0.110993
O O9 0.801707 0.124601 0.208878
O O10 0.654024 0.062430 0.381290
O O11 0.671820 0.081621 0.998685
O O12 0.881409 0.041860 0.079581
O O13 0.673949 0.854346 0.982383
O O14 0.481814 0.206513 0.229333
O O15 0.500000 0.000000 0.500000
#
# Coordination Sequence:
#
# PCOD9035476 Si02
#       7
#     2   2   2   2   2   2   2
#     4  11  26  42  66 100 129 178 220 269 328 383
#     4  11  24  43  68  97 136 166 225 276 318 399
#     4   9  24  43  65  98 132 168 224 267 323 399
#     4  11  24  44  69  95 135 175 217 269 331 392
#     4  10  22  46  66 100 132 173 220 267 334 387
#     4  11  26  41  67 100 130 178 222 269 332 387
#     4   9  24  42  68  96 130 173 212 277 328 383
#
# _framework density 19.870231
#
# number of rings (size 3 to 8) (size 9 to 14) (size 15 to 20)
#    0.857    0.857    1.429    0.857    8.000    2.857 
#    0.000    1.429    0.000    0.000    0.000    0.000 
#    0.000    0.000    0.000    0.000    0.000    0.000 
#
# Total GULP energy -78110.711176 kJ/mol
# GULP energy per Si atom -5579.336513 kJ/mol
# Density = 1.982501 g / cm^3
# Si number density = 19.870231 Si / 1000 Ang^3
#
#
#
# Elastic Constant Matrix: (Units=GPa)
#
#
# Indices 1 2 3 4 5 6 
#
# 1 58.4905 -5.8696 -2.2249 11.2348 9.3128 4.1904
# 2 -5.8696 67.8309 -1.6559 10.7391 6.8151 1.3959
# 3 -2.2249 -1.6559 52.3215 10.9938 2.8532 9.8619
# 4 11.2348 10.7391 10.9938 22.5815 0.8592 2.7563
# 5 9.3128 6.8151 2.8532 0.8592 29.0477 2.0709
# 6 4.1904 1.3959 9.8619 2.7563 2.0709 30.0580
#
#
#
# Elastic Compliance Matrix: (Units=1/GPa)
#
#
# Indices 1 2 3 4 5 6 
#
# 1 0.022424 0.005464 0.005479 -0.015720 -0.008319 -0.003163
# 2 0.005464 0.017971 0.004079 -0.012862 -0.005892 -0.001349
# 3 0.005479 0.004079 0.024311 -0.015463 -0.004129 -0.007227
# 4 -0.015720 -0.012862 -0.015463 0.065298 0.007549 0.001354
# 5 -0.008319 -0.005892 -0.004129 0.007549 0.038699 -0.000570
# 6 -0.003163 -0.001349 -0.007227 0.001354 -0.000570 0.036059
#
#
# Mechanical properties :
#
#
# Convention : Reuss Voigt Hill
#
# Bulk Modulus (GPa) = 10.55388 17.68246 14.11817
# Shear Modulus (GPa) = 24.23653 28.89699 26.56676
#
# Velocity S-wave (km/s) = 3.49627 3.81765 3.66049
# Velocity P-wave (km/s) = 4.64989 5.32455 4.99862
#
# Compressibility (1/GPa) = 0.09475189
#
# Stress axis : x y z
#
# Youngs Moduli (GPa) = 44.59473 55.64508 41.13330
#
# Poissons Ratio (x) = -0.30404 -0.22539
# Poissons Ratio (y) = -0.24366 -0.16780
# Poissons Ratio (z) = -0.24435 -0.22700
#
# Static dielectric constant tensor:
#      x y z
#    x 1.696160 -0.004240 -0.006020 
#    y -0.004240 1.697790 0.019100 
#    z -0.006020 0.019100 1.695000 
# 
# From -- ./inp_files/118216.got.cif
#   From: 2010.05.17/outbox.cif.g08.bks.cpg/sg2_60_cif.got.tgz:118216.got - 2010.06.03 11:33:40.
