data_PCOD9035565
_publ_section_title
;
Structure prediction by ZEFSAII (Michael W. Deem and Ramdas Pophale) SiO2 
 PCOD9035565
Probable space group: P -1
;
_chemical_formula_sum "Si O2"
_cell_formula_units_Z 16
_cell_length_a 13.213545
_cell_length_b 7.528068
_cell_length_c 9.446516
_cell_angle_alpha 97.426341
_cell_angle_beta 71.850143
_cell_angle_gamma 124.917383
_cell_volume 730.718694
_symmetry_space_group_name_H-M "P -1"
_symmetry_group_IT_number 2
_symmetry_cell_setting 'triclinic'
loop_
_space_group_symop_operation_xyz
x,y,z
-x,-y,-z
loop_
_atom_site_type_symbol
_atom_site_label
_atom_site_fract_x
_atom_site_fract_y
_atom_site_fract_z
Si Si1 0.379251 0.427419 0.644899
Si Si2 0.194971 0.611153 0.011538
Si Si3 0.794562 0.049760 0.442866
Si Si4 0.446526 0.657835 0.928444
Si Si5 0.814641 0.439322 0.304186
Si Si6 0.053107 0.348868 0.475501
Si Si7 0.741736 0.004785 0.791352
Si Si8 0.771344 0.636480 0.814895
O O1 0.500000 0.500000 0.500000
O O2 0.423441 0.494224 0.794718
O O3 0.307942 0.545322 0.648193
O O4 0.279463 0.172483 0.633783
O O5 0.156218 0.392544 0.088951
O O6 0.183790 0.766392 0.137471
O O7 0.350224 0.730003 0.938602
O O8 0.140443 0.566907 0.874014
O O9 0.788213 0.229613 0.377798
O O10 0.942277 0.134191 0.422205
O O11 0.740351 0.023134 0.623664
O O12 0.592962 0.855328 0.890138
O O13 0.378279 0.523975 0.088370
O O14 0.920134 0.647428 0.371135
O O15 0.000000 0.500000 0.500000
O O16 0.186714 0.437939 0.346724
O O17 0.799165 0.867216 0.794192
#
# Coordination Sequence:
#
# PCOD9035565 Si02
#       8
#     2   2   2   2   2   2   2   2
#     4  11  22  43  64  98 138 164 214 269 327 391
#     4   9  22  39  62  93 131 167 210 261 330 383
#     4  11  25  41  70  94 127 173 223 262 326 382
#     4   9  22  41  61  94 131 170 210 266 321 387
#     4  10  23  43  66  94 131 171 217 270 321 381
#     4  10  22  46  68  94 128 173 228 270 315 384
#     4  12  21  41  64  98 130 171 218 260 327 397
#     4  10  23  41  66  92 130 172 215 273 321 377
#
# _framework density 21.896250999999999
#
# number of rings (size 3 to 8) (size 9 to 14) (size 15 to 20)
#    0.750    1.000    1.250    3.000    1.750    2.500 
#    0.000    6.250    0.000    0.000    0.000    0.000 
#    0.000    0.000    0.000    0.000    0.000    0.000 
#
# Total GULP energy -89246.859802 kJ/mol
# GULP energy per Si atom -5577.928738 kJ/mol
# Density = 2.184641 g / cm^3
# Si number density = 21.896251 Si / 1000 Ang^3
#
#
#
# Elastic Constant Matrix: (Units=GPa)
#
#
# Indices 1 2 3 4 5 6 
#
# 1 73.4276 36.6616 45.0231 5.8939 7.0156 -9.8470
# 2 36.6616 94.4854 44.9549 11.0281 14.7281 -12.0831
# 3 45.0231 44.9549 136.5272 12.3058 -3.0694 -6.2216
# 4 5.8939 11.0281 12.3058 33.6978 1.6265 0.8613
# 5 7.0156 14.7281 -3.0694 1.6265 41.6013 -4.3018
# 6 -9.8470 -12.0831 -6.2216 0.8613 -4.3018 35.9564
#
#
#
# Elastic Compliance Matrix: (Units=1/GPa)
#
#
# Indices 1 2 3 4 5 6 
#
# 1 0.019395 -0.004625 -0.004776 -0.000122 -0.001699 0.002731
# 2 -0.004625 0.015312 -0.003227 -0.002881 -0.004471 0.002855
# 3 -0.004776 -0.003227 0.010189 -0.001955 0.002750 -0.000254
# 4 -0.000122 -0.002881 -0.001955 0.031436 -0.000556 -0.002159
# 5 -0.001699 -0.004471 0.002750 -0.000556 0.026304 0.001668
# 6 0.002731 0.002855 -0.000254 -0.002159 0.001668 0.029726
#
#
# Mechanical properties :
#
#
# Convention : Reuss Voigt Hill
#
# Bulk Modulus (GPa) = 50.91863 61.96883 56.44373
# Shear Modulus (GPa) = 30.45737 34.10448 32.28092
#
# Velocity S-wave (km/s) = 3.73364 3.95086 3.84378
# Velocity P-wave (km/s) = 6.47238 7.01249 6.74784
#
# Compressibility (1/GPa) = 0.01963918
#
# Stress axis : x y z
#
# Youngs Moduli (GPa) = 51.56080 65.30813 98.14808
#
# Poissons Ratio (x) = 0.30204 0.46872
# Poissons Ratio (y) = 0.23846 0.31677
# Poissons Ratio (z) = 0.24624 0.21078
#
# Static dielectric constant tensor:
#      x y z
#    x 1.837850 0.011660 -0.019140 
#    y 0.011660 1.820680 -0.016080 
#    z -0.019140 -0.016080 1.828790 
# 
# From -- ./inp_files/292753.got.cif
#   From: 2010.05.17/outbox.cif.g08.bks.cpg/sg2_147_cif.got.tgz:292753.got - 2010.06.03 11:33:40.
