data_PCOD9035777
_publ_section_title
;
Structure prediction by ZEFSAII (Michael W. Deem and Ramdas Pophale) SiO2 
 PCOD9035777
Probable space group: P -1
;
_chemical_formula_sum "Si O2"
_cell_formula_units_Z 16
_cell_length_a 5.039585
_cell_length_b 16.267129
_cell_length_c 7.947926
_cell_angle_alpha 82.686206
_cell_angle_beta 109.674659
_cell_angle_gamma 88.197947
_cell_volume 606.607959
_symmetry_space_group_name_H-M "P -1"
_symmetry_group_IT_number 2
_symmetry_cell_setting 'triclinic'
loop_
_space_group_symop_operation_xyz
x,y,z
-x,-y,-z
loop_
_atom_site_type_symbol
_atom_site_label
_atom_site_fract_x
_atom_site_fract_y
_atom_site_fract_z
Si Si1 0.261189 0.450762 0.374211
Si Si2 0.872817 0.060473 0.808721
Si Si3 0.336702 0.566425 0.073015
Si Si4 0.674565 0.234220 0.663658
Si Si5 0.834811 0.656998 0.330711
Si Si6 0.368232 0.987875 0.787332
Si Si7 0.160394 0.301446 0.194478
Si Si8 0.308001 0.801942 0.718925
O O1 0.500000 0.500000 0.500000
O O2 0.174248 0.515864 0.193571
O O3 0.070147 0.411848 0.487082
O O4 0.352899 0.364938 0.318850
O O5 0.796470 0.155052 0.818766
O O6 0.595943 0.019515 0.703495
O O7 0.096761 0.052042 0.710883
O O8 0.000000 0.000000 0.000000
O O9 0.603185 0.612829 0.186144
O O10 0.500000 0.500000 0.000000
O O11 0.096322 0.634158 0.939404
O O12 0.365847 0.267384 0.651435
O O13 0.671059 0.203351 0.478056
O O14 0.893981 0.305784 0.700618
O O15 0.307091 0.894448 0.765011
O O16 0.500000 0.000000 0.000000
O O17 0.395469 0.249268 0.146325
O O18 0.975496 0.238287 0.272599
#
# Coordination Sequence:
#
# PCOD9035777 Si02
#       8
#     2   2   2   2   2   2   2   2
#     4  10  22  46  72 102 144 191 240 299 362 432
#     4  10  23  42  68 100 141 181 239 293 361 431
#     4  11  27  46  73 109 148 195 246 308 368 433
#     4  12  24  46  74 105 142 191 246 301 366 435
#     4  11  26  47  76 105 145 195 247 301 369 439
#     4  10  23  43  66 101 141 188 233 289 365 428
#     4  12  25  46  71 108 146 187 247 296 367 425
#     4  12  25  44  74 101 148 191 238 304 354 435
#
# _framework density 26.376176000000001
#
# number of rings (size 3 to 8) (size 9 to 14) (size 15 to 20)
#    0.000    1.000    2.500    2.625    0.000   11.000 
#    0.000    5.000    0.000    0.000    0.000    0.000 
#    0.000    0.000    0.000    0.000    0.000    0.000 
#
# Total GULP energy -89499.338006 kJ/mol
# GULP energy per Si atom -5593.708625 kJ/mol
# Density = 2.631614 g / cm^3
# Si number density = 26.376176 Si / 1000 Ang^3
#
#
#
# Elastic Constant Matrix: (Units=GPa)
#
#
# Indices 1 2 3 4 5 6 
#
# 1 163.5244 37.0960 9.1463 -4.4866 19.5765 3.6805
# 2 37.0960 168.0678 34.7332 5.0685 8.1859 3.7781
# 3 9.1463 34.7332 69.9780 2.5599 4.7654 0.5039
# 4 -4.4866 5.0685 2.5599 50.1928 2.1975 2.2723
# 5 19.5765 8.1859 4.7654 2.1975 16.4282 -4.7656
# 6 3.6805 3.7781 0.5039 2.2723 -4.7656 54.7775
#
#
#
# Elastic Compliance Matrix: (Units=1/GPa)
#
#
# Indices 1 2 3 4 5 6 
#
# 1 0.007523 -0.001282 0.000224 0.001237 -0.008918 -0.001246
# 2 -0.001282 0.006973 -0.003196 -0.000589 -0.001067 -0.000434
# 3 0.000224 -0.003196 0.016090 -0.000321 -0.003363 -0.000222
# 4 0.001237 -0.000589 -0.000321 0.020349 -0.004171 -0.001247
# 5 -0.008918 -0.001067 -0.003363 -0.004171 0.075729 0.007465
# 6 -0.001246 -0.000434 -0.000222 -0.001247 0.007465 0.019073
#
#
# Mechanical properties :
#
#
# Convention : Reuss Voigt Hill
#
# Bulk Modulus (GPa) = 45.29408 62.61345 53.95376
# Shear Modulus (GPa) = 30.93999 45.65268 38.29634
#
# Velocity S-wave (km/s) = 3.42867 4.16484 3.81455
# Velocity P-wave (km/s) = 5.73445 6.84967 6.31672
#
# Compressibility (1/GPa) = 0.02207794
#
# Stress axis : x y z
#
# Youngs Moduli (GPa) = 132.92215 143.41269 62.15180
#
# Poissons Ratio (x) = 0.18382 -0.01392
# Poissons Ratio (y) = 0.17037 0.19864
# Poissons Ratio (z) = -0.02976 0.45836
#
# Static dielectric constant tensor:
#      x y z
#    x 2.166390 -0.058020 0.048460 
#    y -0.058020 2.035210 -0.007420 
#    z 0.048460 -0.007420 2.214540 
# 
# From -- ./inp_files/135204.got.cif
#   From: 2010.05.17/outbox.cif.g08.bks.cpg/sg2_68_cif.got.tgz:135204.got - 2010.06.03 11:33:40.
