data_PCOD9035638
_publ_section_title
;
Structure prediction by ZEFSAII (Michael W. Deem and Ramdas Pophale) SiO2 
 PCOD9035638
Probable space group: P -1
;
_chemical_formula_sum "Si O2"
_cell_formula_units_Z 13
_cell_length_a 6.924213
_cell_length_b 16.699090
_cell_length_c 9.099097
_cell_angle_alpha 133.280177
_cell_angle_beta 106.268341
_cell_angle_gamma 52.918412
_cell_volume 594.761682
_symmetry_space_group_name_H-M "P -1"
_symmetry_group_IT_number 2
_symmetry_cell_setting 'triclinic'
loop_
_space_group_symop_operation_xyz
x,y,z
-x,-y,-z
loop_
_atom_site_type_symbol
_atom_site_label
_atom_site_fract_x
_atom_site_fract_y
_atom_site_fract_z
Si Si1 0.558893 0.537781 0.217824
Si Si2 0.453619 0.773923 0.852130
Si Si3 0.591684 0.852473 0.391251
Si Si4 0.867228 0.124428 0.813378
Si Si5 0.065810 0.295945 0.968189
Si Si6 0.500000 0.500000 0.500000
Si Si7 0.370294 0.842890 0.595339
O O1 0.498977 0.494100 0.303181
O O2 0.425076 0.697943 0.394091
O O3 0.859265 0.451264 0.162568
O O4 0.500000 0.500000 0.000000
O O5 0.680439 0.761613 0.964562
O O6 0.526735 0.623938 0.650617
O O7 0.396860 0.850203 0.783179
O O8 0.215413 0.847584 0.999596
O O9 0.380041 0.835241 0.271652
O O10 0.572437 0.850079 0.558600
O O11 0.500000 0.000000 0.500000
O O12 0.850980 0.738165 0.227080
O O13 0.095274 0.967710 0.646409
O O14 0.956549 0.214093 0.891129
#
# Coordination Sequence:
#
# PCOD9035638 Si02
#       7
#     2   2   2   2   2   1   2
#     4  11  25  45  70 104 138 181 233 283 345 413
#     4  10  24  45  69  99 137 177 232 278 349 407
#     4  11  24  42  67 100 133 179 226 278 346 407
#     4  11  22  45  70  96 139 176 227 286 342 407
#     4  11  24  45  71  93 139 184 216 288 346 404
#     4  10  22  46  70 100 138 182 222 286 344 406
#     4  11  24  42  67 104 133 176 233 279 340 417
#
# _framework density 21.857493999999999
#
# number of rings (size 3 to 8) (size 9 to 14) (size 15 to 20)
#    0.000    1.231    3.077    1.846    4.308    3.692 
#    5.538    0.000    0.000    0.000    0.000    0.000 
#    0.000    0.000    0.000    0.000    0.000    0.000 
#
# Total GULP energy -72396.580849 kJ/mol
# GULP energy per Si atom -5568.967758 kJ/mol
# Density = 2.180775 g / cm^3
# Si number density = 21.857494 Si / 1000 Ang^3
#
#
#
# Elastic Constant Matrix: (Units=GPa)
#
#
# Indices 1 2 3 4 5 6 
#
# 1 109.5406 35.1281 41.3662 -9.3462 -18.0499 17.7791
# 2 35.1281 81.6347 20.9768 -13.7089 -19.0007 18.9132
# 3 41.3662 20.9768 83.5228 -8.6263 -17.4327 5.6035
# 4 -9.3462 -13.7089 -8.6263 48.4458 15.2771 -17.4952
# 5 -18.0499 -19.0007 -17.4327 15.2771 34.6101 -1.9667
# 6 17.7791 18.9132 5.6035 -17.4952 -1.9667 36.6712
#
#
#
# Elastic Compliance Matrix: (Units=1/GPa)
#
#
# Indices 1 2 3 4 5 6 
#
# 1 0.013072 -0.002752 -0.004945 -0.001996 0.003417 -0.004932
# 2 -0.002752 0.016927 -0.000958 -0.000847 0.007337 -0.007261
# 3 -0.004945 -0.000958 0.015607 0.000449 0.004613 0.000968
# 4 -0.001996 -0.000847 0.000449 0.029709 -0.013554 0.014783
# 5 0.003417 0.007337 0.004613 -0.013554 0.042422 -0.010337
# 6 -0.004932 -0.007261 0.000968 0.014783 -0.010337 0.039755
#
#
# Mechanical properties :
#
#
# Convention : Reuss Voigt Hill
#
# Bulk Modulus (GPa) = 35.33902 52.18227 43.76064
# Shear Modulus (GPa) = 27.13934 35.76053 31.44993
#
# Velocity S-wave (km/s) = 3.52753 4.04923 3.79735
# Velocity P-wave (km/s) = 5.72663 6.76664 6.26824
#
# Compressibility (1/GPa) = 0.02829734
#
# Stress axis : x y z
#
# Youngs Moduli (GPa) = 76.49887 59.07579 64.07484
#
# Poissons Ratio (x) = 0.16255 0.31687
# Poissons Ratio (y) = 0.21050 0.06135
# Poissons Ratio (z) = 0.37831 0.05657
#
# Static dielectric constant tensor:
#      x y z
#    x 1.775500 0.000820 -0.046350 
#    y 0.000820 1.827490 -0.048240 
#    z -0.046350 -0.048240 1.888920 
# 
# From -- ./inp_files/36203.got.cif
#   From: 2010.05.17/outbox.cif.g08.bks.cpg/sg2_19_cif.got.tgz:36203.got - 2010.06.03 11:33:40.
