data_PCOD9035214
_publ_section_title
;
Structure prediction by ZEFSAII (Michael W. Deem and Ramdas Pophale) SiO2 
 PCOD9035214
Probable space group: P -1
;
_chemical_formula_sum "Si O2"
_cell_formula_units_Z 14
_cell_length_a 19.027295
_cell_length_b 8.722310
_cell_length_c 10.377160
_cell_angle_alpha 136.781221
_cell_angle_beta 140.012763
_cell_angle_gamma 36.179158
_cell_volume 625.087570
_symmetry_space_group_name_H-M "P -1"
_symmetry_group_IT_number 2
_symmetry_cell_setting 'triclinic'
loop_
_space_group_symop_operation_xyz
x,y,z
-x,-y,-z
loop_
_atom_site_type_symbol
_atom_site_label
_atom_site_fract_x
_atom_site_fract_y
_atom_site_fract_z
Si Si1 0.938669 0.898675 0.956366
Si Si2 0.386224 0.800288 0.975744
Si Si3 0.340623 0.738182 0.329690
Si Si4 0.001520 0.594467 0.417591
Si Si5 0.394204 0.313448 0.336749
Si Si6 0.896203 0.096871 0.295656
Si Si7 0.724983 0.146209 0.405194
O O1 0.990408 0.599756 0.799826
O O2 0.781106 0.101573 0.838263
O O3 0.964132 0.918187 0.152968
O O4 0.000000 0.000000 0.000000
O O5 0.241457 0.867851 0.850163
O O6 0.383475 0.808518 0.821198
O O7 0.500000 0.500000 0.000000
O O8 0.397429 0.044883 0.186369
O O9 0.368346 0.450202 0.240397
O O10 0.468251 0.725215 0.455131
O O11 0.300186 0.892631 0.506023
O O12 0.125285 0.617889 0.594132
O O13 0.000000 0.500000 0.500000
O O14 0.863130 0.885398 0.396570
O O15 0.284982 0.570725 0.427096
O O16 0.000000 0.000000 0.500000
#
# Coordination Sequence:
#
# PCOD9035214 Si02
#       7
#     2   2   2   2   2   2   2
#     4  12  26  44  80 110 143 195 254 303 379 442
#     4  12  29  44  72 106 146 206 247 299 379 459
#     4   9  21  45  72 108 138 195 242 317 365 428
#     4  12  23  46  76 110 146 191 250 314 357 456
#     4   9  23  46  70 103 149 186 250 310 367 434
#     4  12  29  50  69 112 153 195 246 308 394 440
#     4  10  22  45  72 103 147 188 249 308 369 426
#
# _framework density 22.396863
#
# number of rings (size 3 to 8) (size 9 to 14) (size 15 to 20)
#    0.857    0.286    4.286    0.000    6.000    2.857 
#    0.000    0.000    0.000    0.000    0.000    0.000 
#    0.000    0.000    0.000    0.000    0.000    0.000 
#
# Total GULP energy -78101.059025 kJ/mol
# GULP energy per Si atom -5578.647073 kJ/mol
# Density = 2.234589 g / cm^3
# Si number density = 22.396863 Si / 1000 Ang^3
#
#
#
# Elastic Constant Matrix: (Units=GPa)
#
#
# Indices 1 2 3 4 5 6 
#
# 1 87.9706 34.9999 55.1995 -2.5173 2.8326 -4.2897
# 2 34.9999 155.3912 83.4700 4.6989 9.7922 -6.8311
# 3 55.1995 83.4700 134.0772 22.1708 -3.6574 -6.8089
# 4 -2.5173 4.6989 22.1708 52.5793 5.9380 -5.6636
# 5 2.8326 9.7922 -3.6574 5.9380 49.8769 -1.8883
# 6 -4.2897 -6.8311 -6.8089 -5.6636 -1.8883 25.1324
#
#
#
# Elastic Compliance Matrix: (Units=1/GPa)
#
#
# Indices 1 2 3 4 5 6 
#
# 1 0.016285 0.000572 -0.007762 0.004415 -0.002069 0.001672
# 2 0.000572 0.010251 -0.007047 0.002544 -0.002814 0.001337
# 3 -0.007762 -0.007047 0.016309 -0.007068 0.003857 -0.000125
# 4 0.004415 0.002544 -0.007068 0.022889 -0.003827 0.004401
# 5 -0.002069 -0.002814 0.003857 -0.003827 0.021483 0.000679
# 6 0.001672 0.001337 -0.000125 0.004401 0.000679 0.041447
#
#
# Mechanical properties :
#
#
# Convention : Reuss Voigt Hill
#
# Bulk Modulus (GPa) = 69.58774 80.53085 75.05930
# Shear Modulus (GPa) = 30.87780 39.10238 34.99009
#
# Velocity S-wave (km/s) = 3.71707 4.18291 3.95685
# Velocity P-wave (km/s) = 7.03988 7.70476 7.37981
#
# Compressibility (1/GPa) = 0.01437035
#
# Stress axis : x y z
#
# Youngs Moduli (GPa) = 61.40641 97.55134 61.31703
#
# Poissons Ratio (x) = -0.05579 0.47595
# Poissons Ratio (y) = -0.03512 0.43209
# Poissons Ratio (z) = 0.47665 0.68743
#
# Static dielectric constant tensor:
#      x y z
#    x 1.899270 0.013940 0.016960 
#    y 0.013940 1.877260 0.011410 
#    z 0.016960 0.011410 1.847550 
# 
# From -- ./inp_files/462584.got.cif
#   From: 2010.05.17/outbox.cif.g08.bks.cpg/sg2_232_cif.got.tgz:462584.got - 2010.06.03 11:33:40.
