data_PCOD9035056
_publ_section_title
;
Structure prediction by ZEFSAII (Michael W. Deem and Ramdas Pophale) SiO2 
 PCOD9035056
Probable space group: P -1
;
_chemical_formula_sum "Si O2"
_cell_formula_units_Z 16
_cell_length_a 9.940281
_cell_length_b 9.468951
_cell_length_c 16.595773
_cell_angle_alpha 61.719769
_cell_angle_beta 90.650719
_cell_angle_gamma 136.401443
_cell_volume 794.569809
_symmetry_space_group_name_H-M "P -1"
_symmetry_group_IT_number 2
_symmetry_cell_setting 'triclinic'
loop_
_space_group_symop_operation_xyz
x,y,z
-x,-y,-z
loop_
_atom_site_type_symbol
_atom_site_label
_atom_site_fract_x
_atom_site_fract_y
_atom_site_fract_z
Si Si1 0.963156 0.184390 0.722442
Si Si2 0.746256 0.358527 0.264539
Si Si3 0.244949 0.327103 0.935186
Si Si4 0.174733 0.025990 0.505742
Si Si5 0.376884 0.382159 0.617045
Si Si6 0.716276 0.616444 0.900043
Si Si7 0.098707 0.822307 0.742050
Si Si8 0.223370 0.829500 0.419619
O O1 0.087904 0.429359 0.717037
O O2 0.160774 0.292390 0.639629
O O3 0.778987 0.085948 0.689498
O O4 0.841027 0.911461 0.834082
O O5 0.720403 0.499602 0.177344
O O6 0.858803 0.325492 0.221229
O O7 0.493190 0.043994 0.376103
O O8 0.459651 0.408777 0.920712
O O9 0.262556 0.428074 0.996706
O O10 0.000000 0.000000 0.000000
O O11 0.428190 0.347250 0.401056
O O12 0.129969 0.912019 0.625358
O O13 0.149518 0.866879 0.482979
O O14 0.000000 0.000000 0.500000
O O15 0.500000 0.500000 0.500000
O O16 0.292155 0.121464 0.707768
O O17 0.860634 0.650284 0.828397
O O18 0.000000 0.500000 0.500000
#
# Coordination Sequence:
#
# PCOD9035056 Si02
#       8
#     2   2   2   2   2   2   2   2
#     4  11  21  41  64  90 127 174 219 264 314 390
#     4  12  25  42  66  99 135 170 219 273 333 385
#     4  11  23  44  76  97 119 171 220 269 335 397
#     4  11  22  38  61  90 129 184 229 253 314 385
#     4   9  19  36  59  83 123 173 219 261 301 378
#     4  10  22  45  70  95 125 161 223 272 321 399
#     4  10  24  41  61  95 135 167 214 279 327 374
#     4  12  26  38  61  95 137 177 215 263 321 385
#
# _framework density 20.136683999999999
#
# number of rings (size 3 to 8) (size 9 to 14) (size 15 to 20)
#    0.000    1.250    3.750    3.000    5.250    1.500 
#    0.000    0.625    0.000    0.000    0.000    0.000 
#    0.000    0.000    0.000    0.000    0.000    0.000 
#
# Total GULP energy -89184.889143 kJ/mol
# GULP energy per Si atom -5574.055571 kJ/mol
# Density = 2.009085 g / cm^3
# Si number density = 20.136684 Si / 1000 Ang^3
#
#
#
# Elastic Constant Matrix: (Units=GPa)
#
#
# Indices 1 2 3 4 5 6 
#
# 1 83.4745 46.2751 20.6120 -7.1055 -27.8115 -7.5877
# 2 46.2751 125.5352 22.7866 -10.9002 -21.9365 -9.8913
# 3 20.6120 22.7866 55.5498 0.3404 -13.9087 1.9542
# 4 -7.1055 -10.9002 0.3404 36.3426 6.7025 -1.8433
# 5 -27.8115 -21.9365 -13.9087 6.7025 30.7896 1.8256
# 6 -7.5877 -9.8913 1.9542 -1.8433 1.8256 36.5887
#
#
#
# Elastic Compliance Matrix: (Units=1/GPa)
#
#
# Indices 1 2 3 4 5 6 
#
# 1 0.019625 -0.004265 -0.002240 0.000211 0.013490 0.002374
# 2 -0.004265 0.010687 -0.002361 0.002113 0.002108 0.002132
# 3 -0.002240 -0.002361 0.021623 -0.002746 0.006822 -0.002736
# 4 0.000211 0.002113 -0.002746 0.029473 -0.006111 0.002551
# 5 0.013490 0.002108 0.006822 -0.006111 0.050568 0.000172
# 6 0.002374 0.002132 -0.002736 0.002551 0.000172 0.028666
#
#
# Mechanical properties :
#
#
# Convention : Reuss Voigt Hill
#
# Bulk Modulus (GPa) = 29.23740 49.32299 39.28020
# Shear Modulus (GPa) = 26.34714 32.40323 29.37518
#
# Velocity S-wave (km/s) = 3.62113 4.01579 3.82355
# Velocity P-wave (km/s) = 5.65989 6.78597 6.24835
#
# Compressibility (1/GPa) = 0.03420277
#
# Stress axis : x y z
#
# Youngs Moduli (GPa) = 50.95429 93.57580 46.24758
#
# Poissons Ratio (x) = 0.39912 0.10358
# Poissons Ratio (y) = 0.21733 0.10920
# Poissons Ratio (z) = 0.11412 0.22094
#
# Static dielectric constant tensor:
#      x y z
#    x 1.688010 0.035870 0.007300 
#    y 0.035870 1.777110 0.013400 
#    z 0.007300 0.013400 2.023550 
# 
# From -- ./inp_files/202882.got.cif
#   From: 2010.05.17/outbox.cif.g08.bks.cpg/sg2_102_cif.got.tgz:202882.got - 2010.06.03 11:33:40.
