data_PCOD9035338
_publ_section_title
;
Structure prediction by ZEFSAII (Michael W. Deem and Ramdas Pophale) SiO2 
 PCOD9035338
Probable space group: P -1
;
_chemical_formula_sum "Si O2"
_cell_formula_units_Z 14
_cell_length_a 20.179015
_cell_length_b 4.947845
_cell_length_c 7.345133
_cell_angle_alpha 71.280013
_cell_angle_beta 134.048385
_cell_angle_gamma 93.327630
_cell_volume 484.313870
_symmetry_space_group_name_H-M "P -1"
_symmetry_group_IT_number 2
_symmetry_cell_setting 'triclinic'
loop_
_space_group_symop_operation_xyz
x,y,z
-x,-y,-z
loop_
_atom_site_type_symbol
_atom_site_label
_atom_site_fract_x
_atom_site_fract_y
_atom_site_fract_z
Si Si1 0.079365 0.693773 0.754148
Si Si2 0.181204 0.029485 0.415948
Si Si3 0.081963 0.532974 0.383436
Si Si4 0.748690 0.074960 0.806401
Si Si5 0.387336 0.910924 0.889960
Si Si6 0.603424 0.783428 0.789706
Si Si7 0.585887 0.601617 0.414369
O O1 0.100497 0.526486 0.637887
O O2 0.023970 0.516934 0.819756
O O3 0.170131 0.792065 0.978293
O O4 0.000000 0.000000 0.500000
O O5 0.104501 0.836468 0.301822
O O6 0.204655 0.111019 0.239063
O O7 0.148722 0.284197 0.444284
O O8 0.285069 0.838704 0.721014
O O9 0.665750 0.355773 0.525166
O O10 0.694586 0.900452 0.871092
O O11 0.475986 0.629617 0.146422
O O12 0.390691 0.155521 0.997096
O O13 0.401380 0.082787 0.695822
O O14 0.604904 0.551120 0.676243
O O15 0.500000 0.000000 0.500000
#
# Coordination Sequence:
#
# PCOD9035338 Si02
#       7
#     2   2   2   2   2   2   2
#     4  11  26  52  77 111 152 202 263 328 398 470
#     4  12  25  47  74 118 152 206 256 319 397 467
#     4  11  26  50  78 112 148 203 257 319 404 464
#     4  12  27  46  75 111 154 202 267 325 385 478
#     4  10  22  45  74 103 161 202 254 321 389 464
#     4  10  23  44  69 107 149 202 258 320 378 459
#     4  10  23  47  68 111 150 206 263 315 386 466
#
# _framework density 28.906877000000001
#
# number of rings (size 3 to 8) (size 9 to 14) (size 15 to 20)
#    0.000    1.143    2.857    1.714    2.000    5.143 
#    7.714    0.000    0.000    0.000    0.000    0.000 
#    0.000    0.000    0.000    0.000    0.000    0.000 
#
# Total GULP energy -78542.671451 kJ/mol
# GULP energy per Si atom -5610.190818 kJ/mol
# Density = 2.884108 g / cm^3
# Si number density = 28.906877 Si / 1000 Ang^3
#
#
#
# Elastic Constant Matrix: (Units=GPa)
#
#
# Indices 1 2 3 4 5 6 
#
# 1 191.0740 44.0356 53.0637 14.7530 5.0059 -29.8887
# 2 44.0356 136.9820 40.9922 21.3969 19.0878 -40.5020
# 3 53.0637 40.9922 157.7907 13.3366 39.8295 -18.6042
# 4 14.7530 21.3969 13.3366 52.9115 5.1030 8.8503
# 5 5.0059 19.0878 39.8295 5.1030 46.9395 -0.5712
# 6 -29.8887 -40.5020 -18.6042 8.8503 -0.5712 65.1908
#
#
#
# Elastic Compliance Matrix: (Units=1/GPa)
#
#
# Indices 1 2 3 4 5 6 
#
# 1 0.006356 -0.000844 -0.001931 -0.001429 0.001484 0.002046
# 2 -0.000844 0.011013 -0.000495 -0.004934 -0.003347 0.006954
# 3 -0.001931 -0.000495 0.009231 -0.001142 -0.007283 0.001533
# 4 -0.001429 -0.004934 -0.001142 0.022718 0.000571 -0.007126
# 5 0.001484 -0.003347 -0.007283 0.000571 0.028584 -0.003305
# 6 0.002046 0.006954 0.001533 -0.007126 -0.003305 0.021974
#
#
# Mechanical properties :
#
#
# Convention : Reuss Voigt Hill
#
# Bulk Modulus (GPa) = 49.85144 84.66996 67.26070
# Shear Modulus (GPa) = 44.20765 56.19204 50.19984
#
# Velocity S-wave (km/s) = 3.91488 4.41375 4.17178
# Velocity P-wave (km/s) = 6.14150 7.43835 6.82082
#
# Compressibility (1/GPa) = 0.02005960
#
# Stress axis : x y z
#
# Youngs Moduli (GPa) = 157.33752 90.80066 108.33076
#
# Poissons Ratio (x) = 0.07664 0.20915
# Poissons Ratio (y) = 0.13280 0.05367
# Poissons Ratio (z) = 0.30377 0.04498
#
# Static dielectric constant tensor:
#      x y z
#    x 2.269170 0.115220 -0.055070 
#    y 0.115220 2.320240 -0.055130 
#    z -0.055070 -0.055130 2.327820 
# 
# From -- ./inp_files/339750.got.cif
#   From: 2010.05.17/outbox.cif.g08.bks.cpg/sg2_170_cif.got.tgz:339750.got - 2010.06.03 11:33:40.
