data_PCOD9035863
_publ_section_title
;
Structure prediction by ZEFSAII (Michael W. Deem and Ramdas Pophale) SiO2 
 PCOD9035863
Probable space group: P -1
;
_chemical_formula_sum "Si O2"
_cell_formula_units_Z 14
_cell_length_a 16.922291
_cell_length_b 8.806960
_cell_length_c 7.808681
_cell_angle_alpha 78.644170
_cell_angle_beta 124.296651
_cell_angle_gamma 57.987501
_cell_volume 576.127794
_symmetry_space_group_name_H-M "P -1"
_symmetry_group_IT_number 2
_symmetry_cell_setting 'triclinic'
loop_
_space_group_symop_operation_xyz
x,y,z
-x,-y,-z
loop_
_atom_site_type_symbol
_atom_site_label
_atom_site_fract_x
_atom_site_fract_y
_atom_site_fract_z
Si Si1 0.280103 0.959539 0.024144
Si Si2 0.371965 0.794464 0.784369
Si Si3 0.861194 0.194144 0.143586
Si Si4 0.649221 0.838700 0.333852
Si Si5 0.007203 0.538742 0.270649
Si Si6 0.573998 0.744929 0.585611
Si Si7 0.047332 0.181951 0.182842
O O1 0.427894 0.818502 0.351302
O O2 0.344249 0.877812 0.928161
O O3 0.211131 0.876911 0.978893
O O4 0.126319 0.264839 0.793699
O O5 0.379878 0.952160 0.668139
O O6 0.219643 0.908660 0.499413
O O7 0.500000 0.500000 0.000000
O O8 0.940229 0.172574 0.081395
O O9 0.708093 0.498242 0.924297
O O10 0.000000 0.000000 0.500000
O O11 0.810709 0.641819 0.467463
O O12 0.654348 0.700073 0.515195
O O13 0.500000 0.000000 0.000000
O O14 0.001784 0.370255 0.229658
O O15 0.948832 0.727427 0.005589
O O16 0.500000 0.000000 0.500000
#
# Coordination Sequence:
#
# PCOD9035863 Si02
#       7
#     2   2   2   2   2   2   2
#     4  12  27  47  74 116 151 196 254 319 379 450
#     4  11  26  45  72 110 154 194 246 312 384 455
#     4  12  26  48  72 111 155 202 252 317 384 447
#     4  11  24  48  76 107 146 200 251 310 379 453
#     4  10  24  46  75 105 146 193 261 310 371 457
#     4  12  28  49  78 112 153 202 258 314 380 458
#     4  10  22  46  74 103 144 201 247 307 384 445
#
# _framework density 24.300163999999999
#
# number of rings (size 3 to 8) (size 9 to 14) (size 15 to 20)
#    0.000    0.857    4.286    1.286    6.000    6.286 
#    0.000    0.000    0.000    0.000    0.000    0.000 
#    0.000    0.000    0.000    0.000    0.000    0.000 
#
# Total GULP energy -78261.783868 kJ/mol
# GULP energy per Si atom -5590.127419 kJ/mol
# Density = 2.424486 g / cm^3
# Si number density = 24.300164 Si / 1000 Ang^3
#
#
#
# Elastic Constant Matrix: (Units=GPa)
#
#
# Indices 1 2 3 4 5 6 
#
# 1 120.2027 45.2594 45.9378 1.5065 23.7453 20.4640
# 2 45.2594 81.6864 69.3140 -33.4961 11.4757 -3.6332
# 3 45.9378 69.3140 204.8386 -35.3500 13.6148 6.9467
# 4 1.5065 -33.4961 -35.3500 49.0803 7.7317 7.9047
# 5 23.7453 11.4757 13.6148 7.7317 33.0438 3.5087
# 6 20.4640 -3.6332 6.9467 7.9047 3.5087 42.9639
#
#
#
# Elastic Compliance Matrix: (Units=1/GPa)
#
#
# Indices 1 2 3 4 5 6 
#
# 1 0.013944 -0.009088 -0.000427 -0.005212 -0.004832 -0.005987
# 2 -0.009088 0.029402 -0.004700 0.017155 -0.006281 0.004932
# 3 -0.000427 -0.004700 0.007138 0.002437 -0.001394 -0.001683
# 4 -0.005212 0.017155 0.002437 0.036152 -0.011444 -0.002177
# 5 -0.004832 -0.006281 -0.001394 -0.011444 0.039072 0.000910
# 6 -0.005987 0.004932 -0.001683 -0.002177 0.000910 0.027142
#
#
# Mechanical properties :
#
#
# Convention : Reuss Voigt Hill
#
# Bulk Modulus (GPa) = 45.34489 80.86113 63.10301
# Shear Modulus (GPa) = 26.50664 41.43203 33.96933
#
# Velocity S-wave (km/s) = 3.30631 4.13366 3.74291
# Velocity P-wave (km/s) = 5.76857 7.49206 6.68608
#
# Compressibility (1/GPa) = 0.02205320
#
# Stress axis : x y z
#
# Youngs Moduli (GPa) = 71.71740 34.01140 140.08568
#
# Poissons Ratio (x) = 0.30910 0.05983
# Poissons Ratio (y) = 0.65177 0.65844
# Poissons Ratio (z) = 0.03063 0.15986
#
# Static dielectric constant tensor:
#      x y z
#    x 2.061890 -0.054230 -0.038390 
#    y -0.054230 1.970350 -0.006140 
#    z -0.038390 -0.006140 1.962790 
# 
# From -- ./inp_files/328931.got.cif
#   From: 2010.05.17/outbox.cif.g08.bks.cpg/sg2_165_cif.got.tgz:328931.got - 2010.06.03 11:33:40.
