data_PCOD9035254
_publ_section_title
;
Structure prediction by ZEFSAII (Michael W. Deem and Ramdas Pophale) SiO2 
 PCOD9035254
Probable space group: P -1
;
_chemical_formula_sum "Si O2"
_cell_formula_units_Z 14
_cell_length_a 11.845336
_cell_length_b 14.564570
_cell_length_c 11.164954
_cell_angle_alpha 29.534439
_cell_angle_beta 74.118925
_cell_angle_gamma 54.672358
_cell_volume 636.193530
_symmetry_space_group_name_H-M "P -1"
_symmetry_group_IT_number 2
_symmetry_cell_setting 'triclinic'
loop_
_space_group_symop_operation_xyz
x,y,z
-x,-y,-z
loop_
_atom_site_type_symbol
_atom_site_label
_atom_site_fract_x
_atom_site_fract_y
_atom_site_fract_z
Si Si1 0.614746 0.128079 0.113241
Si Si2 0.079627 0.345075 0.779115
Si Si3 0.983294 0.188156 0.389299
Si Si4 0.799217 0.591917 0.777867
Si Si5 0.169539 0.912758 0.094470
Si Si6 0.730403 0.534542 0.292565
Si Si7 0.344714 0.648233 0.963682
O O1 0.583001 0.361086 0.921987
O O2 0.669188 0.908216 0.441634
O O3 0.758188 0.026677 0.092931
O O4 0.449128 0.239144 0.973084
O O5 0.207225 0.352850 0.784433
O O6 0.000000 0.500000 0.500000
O O7 0.942611 0.476485 0.772152
O O8 0.146728 0.064340 0.046792
O O9 0.868232 0.315329 0.399118
O O10 0.890593 0.451750 0.037208
O O11 0.000000 0.000000 0.500000
O O12 0.177698 0.965054 0.628248
O O13 0.713974 0.496844 0.867298
O O14 0.287970 0.608537 0.442488
O O15 0.000000 0.000000 0.000000
O O16 0.500000 0.500000 0.000000
#
# Coordination Sequence:
#
# PCOD9035254 Si02
#       7
#     2   2   2   2   2   2   2
#     4  12  26  42  67 107 140 185 232 293 359 404
#     4  12  24  44  71 102 133 189 239 284 357 419
#     4  10  22  45  72  99 134 186 232 279 356 414
#     4  11  24  45  72 100 142 180 237 290 342 430
#     4  12  23  45  71  95 140 186 238 289 347 424
#     4  12  27  44  69 104 143 184 239 292 352 425
#     4  11  25  44  71 104 141 179 231 292 355 419
#
# _framework density 22.005883000000001
#
# number of rings (size 3 to 8) (size 9 to 14) (size 15 to 20)
#    0.000    0.571    2.857    6.429    0.000    7.429 
#    0.000    0.000    0.000    0.000    0.000    0.000 
#    0.000    0.000    0.000    0.000    0.000    0.000 
#
# Total GULP energy -78134.340960 kJ/mol
# GULP energy per Si atom -5581.024354 kJ/mol
# Density = 2.195580 g / cm^3
# Si number density = 22.005883 Si / 1000 Ang^3
#
#
#
# Elastic Constant Matrix: (Units=GPa)
#
#
# Indices 1 2 3 4 5 6 
#
# 1 192.3334 22.9122 58.0011 -1.6315 -3.9871 24.6145
# 2 22.9122 60.0402 0.8654 6.0079 0.0861 2.8306
# 3 58.0011 0.8654 96.8111 14.3531 -15.5961 -8.1615
# 4 -1.6315 6.0079 14.3531 30.5015 0.2701 -3.5523
# 5 -3.9871 0.0861 -15.5961 0.2701 22.9218 -4.1626
# 6 24.6145 2.8306 -8.1615 -3.5523 -4.1626 43.2565
#
#
#
# Elastic Compliance Matrix: (Units=1/GPa)
#
#
# Indices 1 2 3 4 5 6 
#
# 1 0.008254 -0.003125 -0.006600 0.003518 -0.004147 -0.005848
# 2 -0.003125 0.018265 0.002755 -0.004977 0.001472 0.000836
# 3 -0.006600 0.002755 0.018233 -0.008712 0.012717 0.007524
# 4 0.003518 -0.004977 -0.008712 0.038016 -0.005884 -0.000764
# 5 -0.004147 0.001472 0.012717 -0.005884 0.053312 0.009310
# 6 -0.005848 0.000836 0.007524 -0.000764 0.009310 0.028643
#
#
# Mechanical properties :
#
#
# Convention : Reuss Voigt Hill
#
# Bulk Modulus (GPa) = 32.45540 56.97135 44.71337
# Shear Modulus (GPa) = 26.46396 37.16303 31.81350
#
# Velocity S-wave (km/s) = 3.47159 4.11393 3.80634
# Velocity P-wave (km/s) = 5.55426 6.96500 6.29925
#
# Compressibility (1/GPa) = 0.03081152
#
# Stress axis : x y z
#
# Youngs Moduli (GPa) = 121.15076 54.74985 54.84420
#
# Poissons Ratio (x) = 0.17110 0.36197
# Poissons Ratio (y) = 0.37862 -0.15107
# Poissons Ratio (z) = 0.79958 -0.15081
#
# Static dielectric constant tensor:
#      x y z
#    x 1.866330 -0.007740 0.027590 
#    y -0.007740 1.814880 -0.004980 
#    z 0.027590 -0.004980 1.892460 
# 
# From -- ./inp_files/433654.got.cif
#   From: 2010.05.17/outbox.cif.g08.bks.cpg/sg2_217_cif.got.tgz:433654.got - 2010.06.03 11:33:40.
