data_PCOD9035594
_publ_section_title
;
Structure prediction by ZEFSAII (Michael W. Deem and Ramdas Pophale) SiO2 
 PCOD9035594
Probable space group: P -1
;
_chemical_formula_sum "Si O2"
_cell_formula_units_Z 14
_cell_length_a 17.665618
_cell_length_b 12.204409
_cell_length_c 12.528898
_cell_angle_alpha 142.774276
_cell_angle_beta 23.731683
_cell_angle_gamma 149.418159
_cell_volume 552.650428
_symmetry_space_group_name_H-M "P -1"
_symmetry_group_IT_number 2
_symmetry_cell_setting 'triclinic'
loop_
_space_group_symop_operation_xyz
x,y,z
-x,-y,-z
loop_
_atom_site_type_symbol
_atom_site_label
_atom_site_fract_x
_atom_site_fract_y
_atom_site_fract_z
Si Si1 0.785747 0.793404 0.566698
Si Si2 0.388145 0.494209 0.250226
Si Si3 0.896804 0.422073 0.791760
Si Si4 0.502775 0.903868 0.534158
Si Si5 0.261152 0.001787 0.425172
Si Si6 0.290711 0.631588 0.770721
Si Si7 0.026462 0.813951 0.777591
O O1 0.632048 0.688805 0.788133
O O2 0.742518 0.888872 0.593371
O O3 0.789786 0.591396 0.356912
O O4 0.000000 0.000000 0.500000
O O5 0.527543 0.709926 0.309762
O O6 0.144241 0.459420 0.515257
O O7 0.500000 0.500000 0.000000
O O8 0.904753 0.599886 0.840415
O O9 0.714057 0.190797 0.797115
O O10 0.824534 0.416504 0.003215
O O11 0.291223 0.786680 0.797057
O O12 0.500000 0.000000 0.500000
O O13 0.712606 0.101651 0.475579
O O14 0.445470 0.209541 0.416400
O O15 0.031356 0.853513 0.674970
O O16 0.000000 0.000000 0.000000
#
# Coordination Sequence:
#
# PCOD9035594 Si02
#       7
#     2   2   2   2   2   2   2
#     4  11  23  46  72 106 144 191 247 295 364 433
#     4  11  26  44  68 105 145 188 240 305 361 427
#     4  12  24  46  71 108 143 192 249 297 361 435
#     4  10  22  46  69 100 140 192 241 294 369 424
#     4  11  24  47  67 105 144 194 239 298 363 435
#     4  10  25  44  71 103 147 191 241 299 364 432
#     4  11  25  44  72 104 145 193 242 302 366 435
#
# _framework density 25.332469
#
# number of rings (size 3 to 8) (size 9 to 14) (size 15 to 20)
#    0.000    1.143    2.857    2.143    2.000    6.857 
#    5.143    0.000    0.000    0.000    0.000    0.000 
#    0.000    0.000    0.000    0.000    0.000    0.000 
#
# Total GULP energy -78056.489350 kJ/mol
# GULP energy per Si atom -5575.463525 kJ/mol
# Density = 2.527481 g / cm^3
# Si number density = 25.332469 Si / 1000 Ang^3
#
#
#
# Elastic Constant Matrix: (Units=GPa)
#
#
# Indices 1 2 3 4 5 6 
#
# 1 106.6924 62.1973 40.6944 -15.3232 36.2591 -31.5649
# 2 62.1973 181.4991 36.3745 -7.1466 24.7647 -28.0841
# 3 40.6944 36.3745 108.7265 -21.0296 52.9903 -20.9167
# 4 -15.3232 -7.1466 -21.0296 30.6917 -8.7874 21.5407
# 5 36.2591 24.7647 52.9903 -8.7874 54.5358 -12.2084
# 6 -31.5649 -28.0841 -20.9167 21.5407 -12.2084 88.2559
#
#
#
# Elastic Compliance Matrix: (Units=1/GPa)
#
#
# Indices 1 2 3 4 5 6 
#
# 1 0.015210 -0.003722 0.000405 0.002995 -0.007764 0.002547
# 2 -0.003722 0.007087 -0.001380 -0.001770 0.000560 0.001106
# 3 0.000405 -0.001380 0.019544 0.008391 -0.017304 -0.000104
# 4 0.002995 -0.001770 0.008391 0.044495 -0.004172 -0.008941
# 5 -0.007764 0.000560 -0.017304 -0.004172 0.039331 -0.000240
# 6 0.002547 0.001106 -0.000104 -0.008941 -0.000240 0.014718
#
#
# Mechanical properties :
#
#
# Convention : Reuss Voigt Hill
#
# Bulk Modulus (GPa) = 30.82021 75.05005 52.93513
# Shear Modulus (GPa) = 31.13432 51.87346 41.50389
#
# Velocity S-wave (km/s) = 3.50955 4.53007 4.05207
# Velocity P-wave (km/s) = 5.34933 7.55330 6.54476
#
# Compressibility (1/GPa) = 0.03244625
#
# Stress axis : x y z
#
# Youngs Moduli (GPa) = 65.74630 141.10563 51.16693
#
# Poissons Ratio (x) = 0.52523 -0.02074
# Poissons Ratio (y) = 0.24472 0.07063
# Poissons Ratio (z) = -0.02665 0.19478
#
# Static dielectric constant tensor:
#      x y z
#    x 2.310960 0.179000 0.224550 
#    y 0.179000 2.332080 0.275210 
#    z 0.224550 0.275210 2.495670 
# 
# From -- ./inp_files/465129.got.cif
#   From: 2010.05.17/outbox.cif.g08.bks.cpg/sg2_233_cif.got.tgz:465129.got - 2010.06.03 11:33:40.
