data_PCOD9035102
_publ_section_title
;
Structure prediction by ZEFSAII (Michael W. Deem and Ramdas Pophale) SiO2 
 PCOD9035102
Probable space group: P -1
;
_chemical_formula_sum "Si O2"
_cell_formula_units_Z 16
_cell_length_a 22.033703
_cell_length_b 6.573792
_cell_length_c 8.060277
_cell_angle_alpha 84.743082
_cell_angle_beta 131.267884
_cell_angle_gamma 121.385507
_cell_volume 688.995743
_symmetry_space_group_name_H-M "P -1"
_symmetry_group_IT_number 2
_symmetry_cell_setting 'triclinic'
loop_
_space_group_symop_operation_xyz
x,y,z
-x,-y,-z
loop_
_atom_site_type_symbol
_atom_site_label
_atom_site_fract_x
_atom_site_fract_y
_atom_site_fract_z
Si Si1 0.474144 0.248592 0.565915
Si Si2 0.390217 0.257967 0.757433
Si Si3 0.070399 0.737619 0.860622
Si Si4 0.050986 0.807609 0.442884
Si Si5 0.228995 0.252109 0.273745
Si Si6 0.100570 0.285217 0.289421
Si Si7 0.338292 0.708343 0.172444
Si Si8 0.232745 0.770217 0.703527
O O1 0.500000 0.500000 0.500000
O O2 0.413863 0.187571 0.630992
O O3 0.581820 0.303009 0.787414
O O4 0.404592 0.995769 0.345589
O O5 0.305262 0.294784 0.552294
O O6 0.337917 0.036281 0.817258
O O7 0.500000 0.500000 0.000000
O O8 0.045299 0.807029 0.632645
O O9 0.045273 0.464223 0.790334
O O10 0.991555 0.696957 0.860570
O O11 0.179907 0.982638 0.106631
O O12 0.147265 0.808732 0.577391
O O13 0.072061 0.054812 0.377439
O O14 0.136510 0.237233 0.188631
O O15 0.292233 0.491757 0.246004
O O16 0.195516 0.562623 0.507969
O O17 0.249591 0.663316 0.904531
#
# Coordination Sequence:
#
# PCOD9035102 Si02
#       8
#     2   2   2   2   2   2   2   2
#     4  11  24  46  68  97 137 174 234 289 337 394
#     4  12  27  45  71  99 141 186 225 282 351 401
#     4  10  24  42  69 104 137 182 226 283 341 408
#     4  10  22  45  71 102 141 179 225 281 346 410
#     4  12  25  45  69 104 139 181 228 284 342 406
#     4  11  23  45  68 102 139 180 229 277 344 409
#     4  11  26  43  72 101 131 184 233 280 341 404
#     4  11  25  44  71 101 138 185 226 281 341 412
#
# _framework density 23.222204999999999
#
# number of rings (size 3 to 8) (size 9 to 14) (size 15 to 20)
#    0.000    1.000    2.500    3.000    5.250    5.000 
#    2.250    0.000    0.000    0.000    0.000    0.000 
#    0.000    0.000    0.000    0.000    0.000    0.000 
#
# Total GULP energy -89588.729850 kJ/mol
# GULP energy per Si atom -5599.295616 kJ/mol
# Density = 2.316935 g / cm^3
# Si number density = 23.222205 Si / 1000 Ang^3
#
#
#
# Elastic Constant Matrix: (Units=GPa)
#
#
# Indices 1 2 3 4 5 6 
#
# 1 107.7532 7.4586 -1.3332 -0.5474 -1.1463 -3.5045
# 2 7.4586 75.7225 25.5877 9.7484 23.9278 4.6163
# 3 -1.3332 25.5877 101.4525 21.4569 12.4878 -10.2106
# 4 -0.5474 9.7484 21.4569 44.1533 5.2567 4.5564
# 5 -1.1463 23.9278 12.4878 5.2567 14.9827 1.9640
# 6 -3.5045 4.6163 -10.2106 4.5564 1.9640 34.9627
#
#
#
# Elastic Compliance Matrix: (Units=1/GPa)
#
#
# Indices 1 2 3 4 5 6 
#
# 1 0.009538 -0.002459 0.000372 -0.000145 0.004245 0.001170
# 2 -0.002459 0.027653 -0.002022 0.000117 -0.042429 -0.002120
# 3 0.000372 -0.002022 0.012823 -0.005577 -0.006144 0.005121
# 4 -0.000145 0.000117 -0.005577 0.026326 -0.004149 -0.004857
# 5 0.004245 -0.042429 -0.006144 -0.004149 0.141824 -0.003193
# 6 0.001170 -0.002120 0.005121 -0.004857 -0.003193 0.031307
#
#
# Mechanical properties :
#
#
# Convention : Reuss Voigt Hill
#
# Bulk Modulus (GPa) = 23.92668 38.70603 31.31635
# Shear Modulus (GPa) = 18.40795 35.70075 27.05435
#
# Velocity S-wave (km/s) = 2.81853 3.92516 3.41694
# Velocity P-wave (km/s) = 4.57360 6.10298 5.39278
#
# Compressibility (1/GPa) = 0.04179436
#
# Stress axis : x y z
#
# Youngs Moduli (GPa) = 104.84683 36.16240 77.98433
#
# Poissons Ratio (x) = 0.08892 -0.02897
# Poissons Ratio (y) = 0.25780 0.15771
# Poissons Ratio (z) = -0.03895 0.07313
#
# Static dielectric constant tensor:
#      x y z
#    x 1.877740 -0.033030 0.016660 
#    y -0.033030 1.841960 -0.008200 
#    z 0.016660 -0.008200 1.891700 
# 
# From -- ./inp_files/323853.got.cif
#   From: 2010.05.17/outbox.cif.g08.bks.cpg/sg2_162_cif.got.tgz:323853.got - 2010.06.03 11:33:40.
