data_PCOD9035962
_publ_section_title
;
Structure prediction by ZEFSAII (Michael W. Deem and Ramdas Pophale) SiO2 
 PCOD9035962
Probable space group: P -1
;
_chemical_formula_sum "Si O2"
_cell_formula_units_Z 13
_cell_length_a 5.405599
_cell_length_b 14.103058
_cell_length_c 8.453607
_cell_angle_alpha 103.740178
_cell_angle_beta 58.385525
_cell_angle_gamma 90.447819
_cell_volume 527.785932
_symmetry_space_group_name_H-M "P -1"
_symmetry_group_IT_number 2
_symmetry_cell_setting 'triclinic'
loop_
_space_group_symop_operation_xyz
x,y,z
-x,-y,-z
loop_
_atom_site_type_symbol
_atom_site_label
_atom_site_fract_x
_atom_site_fract_y
_atom_site_fract_z
Si Si1 0.327540 0.728239 0.975500
Si Si2 0.738681 0.943227 0.014931
Si Si3 0.382555 0.704681 0.327564
Si Si4 0.170894 0.190147 0.325835
Si Si5 0.727713 0.869232 0.299091
Si Si6 0.657253 0.494183 0.116913
Si Si7 0.000000 0.000000 0.500000
O O1 0.511164 0.783294 0.811551
O O2 0.356916 0.615902 0.861799
O O3 0.424174 0.718716 0.128073
O O4 0.009685 0.792298 0.123148
O O5 0.896309 0.844512 0.841547
O O6 0.556333 0.917863 0.220491
O O7 0.500000 0.000000 0.000000
O O8 0.000000 0.000000 0.000000
O O9 0.517640 0.794076 0.405337
O O10 0.518636 0.595233 0.287237
O O11 0.041790 0.720628 0.492243
O O12 0.112254 0.097800 0.414539
O O13 0.851622 0.961132 0.372531
O O14 0.500000 0.500000 0.000000
O O15 0.000000 0.500000 0.000000
#
# Coordination Sequence:
#
# PCOD9035962 Si02
#       7
#     2   2   2   2   2   2   1
#     4  11  24  49  77 110 156 207 265 323 410 470
#     4  12  27  48  74 105 153 216 264 321 388 459
#     4  11  25  47  75 113 157 199 268 333 398 473
#     4  12  27  46  74 112 153 212 265 324 389 472
#     4  12  25  48  78 107 162 209 265 326 396 476
#     4  10  22  46  81 114 152 203 258 330 408 473
#     4  12  28  46  70 114 160 210 268 322 390 460
#
# _framework density 24.631198000000001
#
# number of rings (size 3 to 8) (size 9 to 14) (size 15 to 20)
#    0.000    0.615    6.154    0.923    2.154    3.692 
#    0.000    0.000    0.000    5.538    0.000    0.000 
#    0.000    0.000    0.000    0.000    0.000    0.000 
#
# Total GULP energy -72388.661112 kJ/mol
# GULP energy per Si atom -5568.358547 kJ/mol
# Density = 2.457514 g / cm^3
# Si number density = 24.631198 Si / 1000 Ang^3
#
#
#
# Elastic Constant Matrix: (Units=GPa)
#
#
# Indices 1 2 3 4 5 6 
#
# 1 102.5714 28.9965 3.0772 -0.2484 -5.8736 2.3236
# 2 28.9965 126.4244 17.5821 16.7205 -0.6861 0.4665
# 3 3.0772 17.5821 83.7334 -2.1231 -19.5136 -11.3882
# 4 -0.2484 16.7205 -2.1231 36.4429 -4.2929 -11.2200
# 5 -5.8736 -0.6861 -19.5136 -4.2929 39.9482 5.4473
# 6 2.3236 0.4665 -11.3882 -11.2200 5.4473 37.3868
#
#
#
# Elastic Compliance Matrix: (Units=1/GPa)
#
#
# Indices 1 2 3 4 5 6 
#
# 1 0.010624 -0.002716 0.000656 0.001514 0.002035 -0.000269
# 2 -0.002716 0.009649 -0.002805 -0.005504 -0.001898 -0.002181
# 3 0.000656 -0.002805 0.014954 0.004502 0.007175 0.004855
# 4 0.001514 -0.005504 0.004502 0.034135 0.004505 0.010934
# 5 0.002035 -0.001898 0.007175 0.004505 0.029404 -0.000850
# 6 -0.000269 -0.002181 0.004855 0.010934 -0.000850 0.031675
#
#
# Mechanical properties :
#
#
# Convention : Reuss Voigt Hill
#
# Bulk Modulus (GPa) = 39.22041 45.78232 42.50137
# Shear Modulus (GPa) = 33.63189 40.29378 36.96284
#
# Velocity S-wave (km/s) = 3.69917 4.04899 3.87803
# Velocity P-wave (km/s) = 5.84831 6.36291 6.11103
#
# Compressibility (1/GPa) = 0.02549693
#
# Stress axis : x y z
#
# Youngs Moduli (GPa) = 94.12885 103.64285 66.87194
#
# Poissons Ratio (x) = 0.28150 -0.04387
# Poissons Ratio (y) = 0.25566 0.18755
# Poissons Ratio (z) = -0.06175 0.29067
#
# Static dielectric constant tensor:
#      x y z
#    x 1.499640 -0.028770 0.755310 
#    y -0.028770 1.887210 0.083440 
#    z 0.755310 0.083440 1.058970 
# 
# From -- ./inp_files/133295.got.cif
#   From: 2010.05.17/outbox.cif.g08.bks.cpg/sg2_67_cif.got.tgz:133295.got - 2010.06.03 11:33:40.
