data_PCOD9035456
_publ_section_title
;
Structure prediction by ZEFSAII (Michael W. Deem and Ramdas Pophale) SiO2 
 PCOD9035456
Probable space group: P -1
;
_chemical_formula_sum "Si O2"
_cell_formula_units_Z 9
_cell_length_a 4.988834
_cell_length_b 11.708046
_cell_length_c 10.198364
_cell_angle_alpha 47.185681
_cell_angle_beta 62.265383
_cell_angle_gamma 52.153329
_cell_volume 343.847957
_symmetry_space_group_name_H-M "P -1"
_symmetry_group_IT_number 2
_symmetry_cell_setting 'triclinic'
loop_
_space_group_symop_operation_xyz
x,y,z
-x,-y,-z
loop_
_atom_site_type_symbol
_atom_site_label
_atom_site_fract_x
_atom_site_fract_y
_atom_site_fract_z
Si Si1 0.449976 0.567248 0.160463
Si Si2 0.499156 0.755498 0.766589
Si Si3 0.784558 0.891486 0.124449
Si Si4 0.500000 0.500000 0.500000
Si Si5 0.082158 0.130516 0.602764
O O1 0.511949 0.391543 0.208964
O O2 0.580623 0.526669 0.308741
O O3 0.044156 0.695989 0.169740
O O4 0.590810 0.671068 0.955647
O O5 0.761909 0.813631 0.598355
O O6 0.146017 0.933834 0.717002
O O7 0.701985 0.878402 0.306663
O O8 0.500000 0.000000 0.000000
O O9 0.000000 0.000000 0.000000
O O10 0.714512 0.284336 0.599921
#
# Coordination Sequence:
#
# PCOD9035456 Si02
#       5
#     2   2   2   1   2
#     4  10  23  44  70 102 147 190 250 299 377 435
#     4  10  22  46  64 104 146 194 242 312 368 442
#     4  11  24  46  74 108 146 201 245 305 367 455
#     4  10  24  40  70  98 138 190 240 304 354 454
#     4  10  23  44  70 102 147 190 250 299 377 435
#
# _framework density 26.174361999999999
#
# number of rings (size 3 to 8) (size 9 to 14) (size 15 to 20)
#    0.000    1.778    2.222    0.000    0.000   12.444 
#   16.000    0.000    0.000    0.000    0.000    0.000 
#    0.000    0.000    0.000    0.000    0.000    0.000 
#
# Total GULP energy -50164.827348 kJ/mol
# GULP energy per Si atom -5573.869705 kJ/mol
# Density = 2.611479 g / cm^3
# Si number density = 26.174362 Si / 1000 Ang^3
#
#
#
# Elastic Constant Matrix: (Units=GPa)
#
#
# Indices 1 2 3 4 5 6 
#
# 1 73.8045 23.1719 22.5294 -5.6800 18.9338 6.8989
# 2 23.1719 260.7466 55.5487 -32.1108 4.7784 7.5404
# 3 22.5294 55.5487 232.0417 30.1081 11.2857 24.5379
# 4 -5.6800 -32.1108 30.1081 69.8883 4.5692 4.8021
# 5 18.9338 4.7784 11.2857 4.5692 13.2175 -2.5243
# 6 6.8989 7.5404 24.5379 4.8021 -2.5243 26.3404
#
#
#
# Elastic Compliance Matrix: (Units=1/GPa)
#
#
# Indices 1 2 3 4 5 6 
#
# 1 0.025552 -0.000598 0.000181 0.005165 -0.040526 -0.011515
# 2 -0.000598 0.004516 -0.001282 0.002658 -0.000695 -0.000493
# 3 0.000181 -0.001282 0.005664 -0.002360 -0.004767 -0.004983
# 4 0.005165 0.002658 -0.002360 0.018158 -0.013484 -0.004518
# 5 -0.040526 -0.000695 -0.004767 -0.013484 0.148799 0.031973
# 6 -0.011515 -0.000493 -0.004983 -0.004518 0.031973 0.049652
#
#
# Mechanical properties :
#
#
# Convention : Reuss Voigt Hill
#
# Bulk Modulus (GPa) = 30.92682 85.45475 58.19079
# Shear Modulus (GPa) = 18.76058 52.91208 35.83633
#
# Velocity S-wave (km/s) = 2.68013 4.50101 3.70420
# Velocity P-wave (km/s) = 4.62805 7.72860 6.36986
#
# Compressibility (1/GPa) = 0.03233440
#
# Stress axis : x y z
#
# Youngs Moduli (GPa) = 39.13561 221.45318 176.55365
#
# Poissons Ratio (x) = 0.13232 -0.03190
# Poissons Ratio (y) = 0.02338 0.22632
# Poissons Ratio (z) = -0.00707 0.28388
#
# Static dielectric constant tensor:
#      x y z
#    x 2.124050 -0.052620 -0.030170 
#    y -0.052620 2.032320 -0.003000 
#    z -0.030170 -0.003000 2.040360 
# 
# From -- ./inp_files/16670.got.cif
#   From: 2010.05.17/outbox.cif.g08.bks.cpg/sg2_9_cif.got.tgz:16670.got - 2010.06.03 11:33:40.
