data_PCOD9035870
_publ_section_title
;
Structure prediction by ZEFSAII (Michael W. Deem and Ramdas Pophale) SiO2 
 PCOD9035870
Probable space group: P -1
;
_chemical_formula_sum "Si O2"
_cell_formula_units_Z 13
_cell_length_a 17.990441
_cell_length_b 8.637379
_cell_length_c 11.469026
_cell_angle_alpha 36.712854
_cell_angle_beta 26.561861
_cell_angle_gamma 42.696958
_cell_volume 475.333469
_symmetry_space_group_name_H-M "P -1"
_symmetry_group_IT_number 2
_symmetry_cell_setting 'triclinic'
loop_
_space_group_symop_operation_xyz
x,y,z
-x,-y,-z
loop_
_atom_site_type_symbol
_atom_site_label
_atom_site_fract_x
_atom_site_fract_y
_atom_site_fract_z
Si Si1 0.067423 0.836759 0.892403
Si Si2 0.648650 0.460626 0.909057
Si Si3 0.774969 0.577201 0.362302
Si Si4 0.537733 0.099438 0.012895
Si Si5 0.993105 0.726853 0.472275
Si Si6 0.500000 0.000000 0.500000
Si Si7 0.755611 0.642221 0.074177
O O1 0.242601 0.669031 0.764719
O O2 0.045915 0.013212 0.702425
O O3 0.946873 0.603807 0.171913
O O4 0.000000 0.000000 0.000000
O O5 0.819736 0.320533 0.710993
O O6 0.500000 0.500000 0.000000
O O7 0.638733 0.752824 0.790914
O O8 0.597812 0.270275 0.197125
O O9 0.677476 0.315134 0.672706
O O10 0.792088 0.640048 0.163026
O O11 0.666056 0.827429 0.411761
O O12 0.500000 0.000000 0.000000
O O13 0.603007 0.864012 0.146267
O O14 0.000000 0.500000 0.500000
O O15 0.863675 0.726355 0.759982
#
# Coordination Sequence:
#
# PCOD9035870 Si02
#       7
#     2   2   2   2   2   1   2
#     4  12  27  48  77 114 154 204 259 324 397 464
#     4  11  25  46  77 109 148 206 257 322 392 469
#     4  11  26  48  77 117 154 207 262 322 398 469
#     4  11  27  49  75 112 156 204 262 321 394 471
#     4  12  26  47  79 117 155 202 269 324 394 471
#     4  10  22  46  74 104 156 194 260 312 384 476
#     4  12  27  49  78 113 163 206 259 332 389 474
#
# _framework density 27.349222000000001
#
# number of rings (size 3 to 8) (size 9 to 14) (size 15 to 20)
#    0.000    0.615    3.077    3.231    4.308    1.846 
#    0.000    1.538    0.000    0.000    0.000    0.000 
#    0.000    0.000    0.000    0.000    0.000    0.000 
#
# Total GULP energy -72398.939855 kJ/mol
# GULP energy per Si atom -5569.149220 kJ/mol
# Density = 2.728697 g / cm^3
# Si number density = 27.349222 Si / 1000 Ang^3
#
#
#
# Elastic Constant Matrix: (Units=GPa)
#
#
# Indices 1 2 3 4 5 6 
#
# 1 131.1004 27.0910 51.1985 -21.9372 14.8079 0.6461
# 2 27.0910 196.0239 48.0771 -33.0806 15.4500 -43.1832
# 3 51.1985 48.0771 99.6587 -6.2206 15.3841 -18.5650
# 4 -21.9372 -33.0806 -6.2206 40.4227 -3.6289 5.0752
# 5 14.8079 15.4500 15.3841 -3.6289 54.1409 -4.0596
# 6 0.6461 -43.1832 -18.5650 5.0752 -4.0596 46.8525
#
#
#
# Elastic Compliance Matrix: (Units=1/GPa)
#
#
# Indices 1 2 3 4 5 6 
#
# 1 0.010883 0.000305 -0.005726 0.005517 -0.001280 -0.002846
# 2 0.000305 0.007887 -0.002440 0.005461 -0.000853 0.005633
# 3 -0.005726 -0.002440 0.014974 -0.003472 -0.001927 0.003973
# 4 0.005517 0.005461 -0.003472 0.031653 0.000053 0.000158
# 5 -0.001280 -0.000853 -0.001927 0.000053 0.019627 0.000163
# 6 -0.002846 0.005633 0.003973 0.000158 0.000163 0.028146
#
#
# Mechanical properties :
#
#
# Convention : Reuss Voigt Hill
#
# Bulk Modulus (GPa) = 55.48747 75.50177 65.49462
# Shear Modulus (GPa) = 37.06454 48.31097 42.68776
#
# Velocity S-wave (km/s) = 3.68534 4.20747 3.95503
# Velocity P-wave (km/s) = 6.20012 7.16032 6.69745
#
# Compressibility (1/GPa) = 0.01802209
#
# Stress axis : x y z
#
# Youngs Moduli (GPa) = 91.88815 126.78334 66.78206
#
# Poissons Ratio (x) = -0.03872 0.38243
# Poissons Ratio (y) = -0.02806 0.16295
# Poissons Ratio (z) = 0.52619 0.30936
#
# Static dielectric constant tensor:
#      x y z
#    x 2.339550 0.103260 -0.248740 
#    y 0.103260 2.351820 0.267800 
#    z -0.248740 0.267800 2.498790 
# 
# From -- ./inp_files/459685.got.cif
#   From: 2010.05.17/outbox.cif.g08.bks.cpg/sg2_230_cif.got.tgz:459685.got - 2010.06.03 11:33:40.
