data_PCOD9035936
_publ_section_title
;
Structure prediction by ZEFSAII (Michael W. Deem and Ramdas Pophale) SiO2 
 PCOD9035936
Probable space group: P -1
;
_chemical_formula_sum "Si O2"
_cell_formula_units_Z 14
_cell_length_a 8.530586
_cell_length_b 16.511341
_cell_length_c 4.968753
_cell_angle_alpha 71.181743
_cell_angle_beta 81.617881
_cell_angle_gamma 51.534269
_cell_volume 517.258447
_symmetry_space_group_name_H-M "P -1"
_symmetry_group_IT_number 2
_symmetry_cell_setting 'triclinic'
loop_
_space_group_symop_operation_xyz
x,y,z
-x,-y,-z
loop_
_atom_site_type_symbol
_atom_site_label
_atom_site_fract_x
_atom_site_fract_y
_atom_site_fract_z
Si Si1 0.687739 0.389672 0.318414
Si Si2 0.766466 0.986950 0.090215
Si Si3 0.000000 0.500000 0.500000
Si Si4 0.640269 0.174801 0.302261
Si Si5 0.429071 0.384477 0.767888
Si Si6 0.349191 0.159510 0.724468
Si Si7 0.000000 0.000000 0.500000
Si Si8 0.937243 0.344185 0.830811
O O1 0.536855 0.366794 0.474152
O O2 0.574670 0.519680 0.197082
O O3 0.844974 0.350835 0.561702
O O4 0.824627 0.328828 0.096107
O O5 0.540141 0.078215 0.948256
O O6 0.786753 0.046888 0.272612
O O7 0.907644 0.959378 0.832206
O O8 0.748374 0.896035 0.299244
O O9 0.797822 0.566250 0.285707
O O10 0.900780 0.456762 0.754228
O O11 0.443828 0.194377 0.452111
O O12 0.558209 0.271139 0.014445
O O13 0.823470 0.131500 0.504502
O O14 0.173410 0.256053 0.842816
#
# Coordination Sequence:
#
# PCOD9035936 Si02
#       8
#     2   2   1   2   2   2   1   2
#     4  10  26  50  72 114 161 204 262 325 396 497
#     4   9  22  47  68 113 154 208 263 337 395 487
#     4  10  24  42  80 112 152 196 270 328 378 490
#     4  10  22  46  76 114 151 207 267 339 398 479
#     4  10  23  48  78 113 155 211 258 333 403 471
#     4  11  23  42  80 110 161 210 266 334 411 475
#     4   8  22  44  72 110 162 196 270 336 394 492
#     4  11  26  47  76 116 156 208 262 324 410 479
#
# _framework density 27.065771999999999
#
# number of rings (size 3 to 8) (size 9 to 14) (size 15 to 20)
#    0.857    1.143    0.000    1.286    6.000    6.857 
#   10.286    1.429    0.000    0.857    0.000    0.000 
#    0.000    0.000    0.000    0.000    0.000    0.000 
#
# Total GULP energy -77944.824320 kJ/mol
# GULP energy per Si atom -5567.487451 kJ/mol
# Density = 2.700417 g / cm^3
# Si number density = 27.065772 Si / 1000 Ang^3
#
#
#
# Elastic Constant Matrix: (Units=GPa)
#
#
# Indices 1 2 3 4 5 6 
#
# 1 159.7907 42.5956 59.3009 -6.1326 -14.2695 -30.1395
# 2 42.5956 104.8521 67.6918 -1.7556 -7.1844 -24.7600
# 3 59.3009 67.6918 155.0062 -19.6079 -33.2545 -15.6943
# 4 -6.1326 -1.7556 -19.6079 38.3120 -7.0675 -4.9530
# 5 -14.2695 -7.1844 -33.2545 -7.0675 39.6060 3.9794
# 6 -30.1395 -24.7600 -15.6943 -4.9530 3.9794 47.7726
#
#
#
# Elastic Compliance Matrix: (Units=1/GPa)
#
#
# Indices 1 2 3 4 5 6 
#
# 1 0.008118 -0.001024 -0.001954 0.000926 0.000865 0.003973
# 2 -0.001024 0.015486 -0.007339 -0.003456 -0.004843 0.005014
# 3 -0.001954 -0.007339 0.013787 0.008381 0.011093 -0.000563
# 4 0.000926 -0.003456 0.008381 0.033155 0.012261 0.003962
# 5 0.000865 -0.004843 0.011093 0.012261 0.036190 -0.000064
# 6 0.003973 0.005014 -0.000563 0.003962 -0.000064 0.026269
#
#
# Mechanical properties :
#
#
# Convention : Reuss Voigt Hill
#
# Bulk Modulus (GPa) = 59.67578 84.31394 71.99486
# Shear Modulus (GPa) = 31.40215 41.80885 36.60550
#
# Velocity S-wave (km/s) = 3.40989 3.93455 3.68158
# Velocity P-wave (km/s) = 6.13184 7.20139 6.68803
#
# Compressibility (1/GPa) = 0.01675722
#
# Stress axis : x y z
#
# Youngs Moduli (GPa) = 123.17726 64.57544 72.53212
#
# Poissons Ratio (x) = 0.06610 0.14172
# Poissons Ratio (y) = 0.12608 0.53235
# Poissons Ratio (z) = 0.24068 0.47395
#
# Static dielectric constant tensor:
#      x y z
#    x 2.229730 0.200160 0.052720 
#    y 0.200160 2.339940 -0.007940 
#    z 0.052720 -0.007940 2.174930 
# 
# From -- ./inp_files/46584.got.cif
#   From: 2010.05.17/outbox.cif.g08.bks.cpg/sg2_24_cif.got.tgz:46584.got - 2010.06.03 11:33:40.
