data_PCOD9035643
_publ_section_title
;
Structure prediction by ZEFSAII (Michael W. Deem and Ramdas Pophale) SiO2 
 PCOD9035643
Probable space group: P -1
;
_chemical_formula_sum "Si O2"
_cell_formula_units_Z 13
_cell_length_a 14.398835
_cell_length_b 13.957536
_cell_length_c 6.580129
_cell_angle_alpha 107.793116
_cell_angle_beta 119.991064
_cell_angle_gamma 28.514575
_cell_volume 517.419703
_symmetry_space_group_name_H-M "P -1"
_symmetry_group_IT_number 2
_symmetry_cell_setting 'triclinic'
loop_
_space_group_symop_operation_xyz
x,y,z
-x,-y,-z
loop_
_atom_site_type_symbol
_atom_site_label
_atom_site_fract_x
_atom_site_fract_y
_atom_site_fract_z
Si Si1 0.320628 0.267869 0.043586
Si Si2 0.171551 0.570126 0.373759
Si Si3 0.000000 0.500000 0.500000
Si Si4 0.818338 0.896604 0.519762
Si Si5 0.258826 0.179615 0.257217
Si Si6 0.017527 0.910185 0.271789
Si Si7 0.690175 0.205898 0.743123
O O1 0.201597 0.459166 0.162869
O O2 0.269350 0.202228 0.051169
O O3 0.584935 0.068636 0.258169
O O4 0.255471 0.314295 0.767352
O O5 0.038930 0.777510 0.280162
O O6 0.427230 0.395194 0.587509
O O7 0.026488 0.668911 0.486639
O O8 0.104655 0.391886 0.326212
O O9 0.813970 0.858355 0.721383
O O10 0.823218 0.011057 0.631389
O O11 0.500000 0.000000 0.500000
O O12 0.236873 0.753785 0.269141
O O13 0.000000 0.000000 0.500000
O O14 0.801185 0.110019 0.023406
#
# Coordination Sequence:
#
# PCOD9035643 Si02
#       7
#     2   2   1   2   2   2   2
#     4  10  25  45  66 104 140 184 243 287 344 420
#     4  11  23  46  74 102 143 186 231 292 353 410
#     4  12  24  42  68  98 134 184 238 286 354 410
#     4  10  22  46  70 101 137 190 236 290 345 412
#     4  10  23  43  67  92 137 182 233 288 338 407
#     4  11  23  46  74 104 143 180 228 291 350 423
#     4  10  24  46  69 107 140 181 237 280 349 428
#
# _framework density 25.124673999999999
#
# number of rings (size 3 to 8) (size 9 to 14) (size 15 to 20)
#    0.000    1.538    1.538    1.846    2.154    4.308 
#   11.077    0.000    0.000    0.000    0.000    0.000 
#    0.000    0.000    0.000    0.000    0.000    0.000 
#
# Total GULP energy -72434.780833 kJ/mol
# GULP energy per Si atom -5571.906218 kJ/mol
# Density = 2.506749 g / cm^3
# Si number density = 25.124674 Si / 1000 Ang^3
#
#
#
# Elastic Constant Matrix: (Units=GPa)
#
#
# Indices 1 2 3 4 5 6 
#
# 1 66.7284 1.4141 27.8132 -2.5256 -7.4234 5.0200
# 2 1.4141 93.4889 24.0466 9.0495 3.8121 -5.0358
# 3 27.8132 24.0466 200.0396 -10.3884 0.0116 -8.3682
# 4 -2.5256 9.0495 -10.3884 45.9007 -0.2511 4.7000
# 5 -7.4234 3.8121 0.0116 -0.2511 18.5669 -13.9089
# 6 5.0200 -5.0358 -8.3682 4.7000 -13.9089 40.3572
#
#
#
# Elastic Compliance Matrix: (Units=1/GPa)
#
#
# Indices 1 2 3 4 5 6 
#
# 1 0.016710 0.000016 -0.002319 0.000469 0.006375 -0.000415
# 2 0.000016 0.011454 -0.001484 -0.002687 -0.001763 0.000825
# 3 -0.002319 -0.001484 0.005619 0.001313 0.000307 0.001221
# 4 0.000469 -0.002687 0.001313 0.022967 -0.001410 -0.003282
# 5 0.006375 -0.001763 0.000307 -0.001410 0.075709 0.025308
# 6 -0.000415 0.000825 0.001221 -0.003282 0.025308 0.034291
#
#
# Mechanical properties :
#
#
# Convention : Reuss Voigt Hill
#
# Bulk Modulus (GPa) = 38.15302 51.86718 45.01010
# Shear Modulus (GPa) = 27.31317 41.43050 34.37183
#
# Velocity S-wave (km/s) = 3.30071 4.06519 3.70273
# Velocity P-wave (km/s) = 5.45387 6.53629 6.01946
#
# Compressibility (1/GPa) = 0.02621025
#
# Stress axis : x y z
#
# Youngs Moduli (GPa) = 59.84301 87.30272 177.96548
#
# Poissons Ratio (x) = -0.00139 0.41265
# Poissons Ratio (y) = -0.00096 0.26412
# Poissons Ratio (z) = 0.13876 0.12956
#
# Static dielectric constant tensor:
#      x y z
#    x 2.510630 -0.095370 0.033140 
#    y -0.095370 1.969120 0.070620 
#    z 0.033140 0.070620 1.849560 
# 
# From -- ./inp_files/97300.got.cif
#   From: 2010.05.17/outbox.cif.g08.bks.cpg/sg2_49_cif.got.tgz:97300.got - 2010.06.03 11:33:40.
