data_PCOD9035236
_publ_section_title
;
Structure prediction by ZEFSAII (Michael W. Deem and Ramdas Pophale) SiO2 
 PCOD9035236
Probable space group: P -1
;
_chemical_formula_sum "Si O2"
_cell_formula_units_Z 14
_cell_length_a 5.001760
_cell_length_b 14.417078
_cell_length_c 8.154392
_cell_angle_alpha 64.098977
_cell_angle_beta 95.448305
_cell_angle_gamma 109.661253
_cell_volume 497.173791
_symmetry_space_group_name_H-M "P -1"
_symmetry_group_IT_number 2
_symmetry_cell_setting 'triclinic'
loop_
_space_group_symop_operation_xyz
x,y,z
-x,-y,-z
loop_
_atom_site_type_symbol
_atom_site_label
_atom_site_fract_x
_atom_site_fract_y
_atom_site_fract_z
Si Si1 0.808305 0.106859 0.700536
Si Si2 0.702895 0.669985 0.132176
Si Si3 0.027975 0.077300 0.285932
Si Si4 0.330530 0.822426 0.027076
Si Si5 0.666171 0.665186 0.490872
Si Si6 0.581861 0.226260 0.356890
Si Si7 0.117979 0.402802 0.120293
O O1 0.638059 0.115819 0.845907
O O2 0.637093 0.121829 0.518711
O O3 0.090872 0.214880 0.615731
O O4 0.878159 0.995153 0.788305
O O5 0.043355 0.720164 0.119117
O O6 0.724631 0.815462 0.714649
O O7 0.669712 0.605300 0.008452
O O8 0.573557 0.769185 0.052250
O O9 0.000000 0.000000 0.500000
O O10 0.764610 0.106647 0.171424
O O11 0.605961 0.614882 0.345604
O O12 0.420570 0.697595 0.545086
O O13 0.757510 0.597210 0.690145
O O14 0.832421 0.296196 0.201062
O O15 0.000000 0.500000 0.000000
#
# Coordination Sequence:
#
# PCOD9035236 Si02
#       7
#     2   2   2   2   2   2   2
#     4  10  22  45  72 109 157 210 263 311 379 466
#     4  11  26  50  81 109 159 209 259 327 400 466
#     4  12  25  41  75 117 156 210 263 323 382 461
#     4  11  26  47  74 111 157 213 260 316 390 470
#     4  10  22  47  77 112 157 205 255 329 389 469
#     4  11  23  47  79 111 160 205 261 326 397 458
#     4  11  28  50  83 120 152 202 265 329 406 483
#
# _framework density 28.159168999999999
#
# number of rings (size 3 to 8) (size 9 to 14) (size 15 to 20)
#    0.000    1.143    2.857    1.714    6.000    2.286 
#    0.000    3.571    0.000    0.000    0.000    0.000 
#    0.000    0.000    0.000    0.000    0.000    0.000 
#
# Total GULP energy -78472.880280 kJ/mol
# GULP energy per Si atom -5605.205734 kJ/mol
# Density = 2.809508 g / cm^3
# Si number density = 28.159169 Si / 1000 Ang^3
#
#
#
# Elastic Constant Matrix: (Units=GPa)
#
#
# Indices 1 2 3 4 5 6 
#
# 1 107.2515 54.2710 54.8993 3.2386 5.3444 -25.7565
# 2 54.2710 156.7831 105.7502 20.3934 -4.7913 -34.3706
# 3 54.8993 105.7502 263.0876 16.6899 8.8407 -37.7815
# 4 3.2386 20.3934 16.6899 63.5120 -17.6738 -7.2123
# 5 5.3444 -4.7913 8.8407 -17.6738 53.9002 2.7317
# 6 -25.7565 -34.3706 -37.7815 -7.2123 2.7317 63.3694
#
#
#
# Elastic Compliance Matrix: (Units=1/GPa)
#
#
# Indices 1 2 3 4 5 6 
#
# 1 0.012052 -0.003082 -0.000862 0.000566 -0.001286 0.002833
# 2 -0.003082 0.010284 -0.003090 -0.001794 0.001025 0.002234
# 3 -0.000862 -0.003090 0.005486 -0.000645 -0.001363 0.001230
# 4 0.000566 -0.001794 -0.000645 0.018156 0.005809 0.000688
# 5 -0.001286 0.001025 -0.001363 0.005809 0.020951 -0.001021
# 6 0.002833 0.002234 0.001230 0.000688 -0.001021 0.018999
#
#
# Mechanical properties :
#
#
# Convention : Reuss Voigt Hill
#
# Bulk Modulus (GPa) = 72.70938 106.32924 89.51931
# Shear Modulus (GPa) = 47.80871 56.96976 52.38923
#
# Velocity S-wave (km/s) = 4.12491 4.50281 4.31799
# Velocity P-wave (km/s) = 6.96875 8.05455 7.53124
#
# Compressibility (1/GPa) = 0.01375338
#
# Stress axis : x y z
#
# Youngs Moduli (GPa) = 82.97346 97.23692 182.26860
#
# Poissons Ratio (x) = 0.29973 0.15708
# Poissons Ratio (y) = 0.25576 0.56328
# Poissons Ratio (z) = 0.07151 0.30050
#
# Static dielectric constant tensor:
#      x y z
#    x 2.213710 0.036240 -0.026470 
#    y 0.036240 2.285270 0.061010 
#    z -0.026470 0.061010 2.217540 
# 
# From -- ./inp_files/138551.got.cif
#   From: 2010.05.17/outbox.cif.g08.bks.cpg/sg2_70_cif.got.tgz:138551.got - 2010.06.03 11:33:40.
