data_PCOD9035836
_publ_section_title
;
Structure prediction by ZEFSAII (Michael W. Deem and Ramdas Pophale) SiO2 
 PCOD9035836
Probable space group: P -1
;
_chemical_formula_sum "Si O2"
_cell_formula_units_Z 16
_cell_length_a 5.209190
_cell_length_b 9.214269
_cell_length_c 19.274998
_cell_angle_alpha 105.453221
_cell_angle_beta 133.738722
_cell_angle_gamma 81.828604
_cell_volume 643.098643
_symmetry_space_group_name_H-M "P -1"
_symmetry_group_IT_number 2
_symmetry_cell_setting 'triclinic'
loop_
_space_group_symop_operation_xyz
x,y,z
-x,-y,-z
loop_
_atom_site_type_symbol
_atom_site_label
_atom_site_fract_x
_atom_site_fract_y
_atom_site_fract_z
Si Si1 0.581161 0.509477 0.936149
Si Si2 0.759227 0.738477 0.708925
Si Si3 0.602578 0.541867 0.443844
Si Si4 0.525110 0.883057 0.825558
Si Si5 0.656712 0.838900 0.991255
Si Si6 0.270381 0.873324 0.522560
Si Si7 0.207449 0.200338 0.829910
Si Si8 0.671250 0.164115 0.611755
O O1 0.395822 0.354464 0.855274
O O2 0.500000 0.500000 0.000000
O O3 0.449466 0.675037 0.916868
O O4 0.000000 0.500000 0.000000
O O5 0.681237 0.557851 0.669050
O O6 0.702219 0.821139 0.781940
O O7 0.434251 0.787385 0.605193
O O8 0.137972 0.795629 0.754419
O O9 0.500000 0.500000 0.500000
O O10 0.620542 0.716377 0.443897
O O11 0.000000 0.500000 0.500000
O O12 0.431629 0.058402 0.830499
O O13 0.782161 0.860238 0.937303
O O14 0.835784 0.806724 0.095288
O O15 0.500000 0.000000 0.000000
O O16 0.114047 0.793073 0.413806
O O17 0.616706 0.982554 0.578770
O O18 0.000000 0.000000 0.500000
O O19 0.835191 0.191765 0.720550
#
# Coordination Sequence:
#
# PCOD9035836 Si02
#       8
#     2   2   2   2   2   2   2   2
#     4  10  23  45  71 101 140 185 231 300 359 419
#     4  12  25  45  70  99 147 179 246 285 362 429
#     4  12  26  47  69 102 144 191 236 299 360 427
#     4  11  25  45  70 106 135 194 233 299 352 431
#     4   9  22  46  74 103 146 186 240 295 359 425
#     4  11  23  42  71 101 142 183 236 297 360 429
#     4  10  22  46  73 105 145 184 249 293 365 428
#     4  11  24  43  71 105 140 189 238 294 363 426
#
# _framework density 24.879543999999999
#
# number of rings (size 3 to 8) (size 9 to 14) (size 15 to 20)
#    0.000    1.250    2.500    2.250    3.500    5.000 
#    6.750    6.250    0.000    0.000    0.000    0.000 
#    0.000    0.000    0.000    0.000    0.000    0.000 
#
# Total GULP energy -89075.478671 kJ/mol
# GULP energy per Si atom -5567.217417 kJ/mol
# Density = 2.482292 g / cm^3
# Si number density = 24.879544 Si / 1000 Ang^3
#
#
#
# Elastic Constant Matrix: (Units=GPa)
#
#
# Indices 1 2 3 4 5 6 
#
# 1 94.9993 -6.1288 14.1883 -1.9546 -9.9292 -3.4726
# 2 -6.1288 142.3435 18.4124 5.8034 -3.6625 0.3715
# 3 14.1883 18.4124 109.8212 -14.9342 -22.0632 6.5189
# 4 -1.9546 5.8034 -14.9342 58.2925 7.4365 2.2191
# 5 -9.9292 -3.6625 -22.0632 7.4365 35.7626 6.5414
# 6 -3.4726 0.3715 6.5189 2.2191 6.5414 35.4821
#
#
#
# Elastic Compliance Matrix: (Units=1/GPa)
#
#
# Indices 1 2 3 4 5 6 
#
# 1 0.011014 0.000696 -0.001172 -0.000329 0.002314 0.000880
# 2 0.000696 0.007291 -0.001433 -0.001110 0.000236 0.000281
# 3 -0.001172 -0.001433 0.011371 0.002295 0.006719 -0.003571
# 4 -0.000329 -0.001110 0.002295 0.018187 -0.002361 -0.001144
# 5 0.002314 0.000236 0.006719 -0.002361 0.034589 -0.007240
# 6 0.000880 0.000281 -0.003571 -0.001144 -0.007240 0.030329
#
#
# Mechanical properties :
#
#
# Convention : Reuss Voigt Hill
#
# Bulk Modulus (GPa) = 38.66998 44.45641 41.56319
# Shear Modulus (GPa) = 39.93052 47.28690 43.60871
#
# Velocity S-wave (km/s) = 4.01053 4.36436 4.19118
# Velocity P-wave (km/s) = 6.08461 6.58060 6.33746
#
# Compressibility (1/GPa) = 0.02585985
#
# Stress axis : x y z
#
# Youngs Moduli (GPa) = 90.79722 137.15218 87.94054
#
# Poissons Ratio (x) = -0.09552 0.10305
# Poissons Ratio (y) = -0.06323 0.12600
# Poissons Ratio (z) = 0.10639 0.19650
#
# Static dielectric constant tensor:
#      x y z
#    x 3.046370 0.325370 0.061500 
#    y 0.325370 2.354120 0.159610 
#    z 0.061500 0.159610 2.171380 
# 
# From -- ./inp_files/548199.got.cif
#   From: 2010.05.17/outbox.cif.g08.bks.cpg/sg2_275_cif.got.tgz:548199.got - 2010.06.03 11:33:40.
