data_PCOD9035998
_publ_section_title
;
Structure prediction by ZEFSAII (Michael W. Deem and Ramdas Pophale) SiO2 
 PCOD9035998
Probable space group: P -1
;
_chemical_formula_sum "Si O2"
_cell_formula_units_Z 14
_cell_length_a 20.934409
_cell_length_b 8.918460
_cell_length_c 5.309397
_cell_angle_alpha 115.791788
_cell_angle_beta 86.743734
_cell_angle_gamma 139.250003
_cell_volume 516.037352
_symmetry_space_group_name_H-M "P -1"
_symmetry_group_IT_number 2
_symmetry_cell_setting 'triclinic'
loop_
_space_group_symop_operation_xyz
x,y,z
-x,-y,-z
loop_
_atom_site_type_symbol
_atom_site_label
_atom_site_fract_x
_atom_site_fract_y
_atom_site_fract_z
Si Si1 0.903531 0.649053 0.839709
Si Si2 0.008334 0.328751 0.679977
Si Si3 0.307675 0.896799 0.698304
Si Si4 0.619690 0.196077 0.024450
Si Si5 0.219210 0.990561 0.157790
Si Si6 0.411352 0.239024 0.518202
Si Si7 0.796153 0.768476 0.070636
O O1 0.940633 0.657738 0.567031
O O2 0.785203 0.308382 0.647167
O O3 0.976735 0.750387 0.132848
O O4 0.872952 0.776671 0.968488
O O5 0.088391 0.659859 0.947019
O O6 0.878513 0.058323 0.438133
O O7 0.314837 0.728176 0.687435
O O8 0.266130 0.938680 0.939526
O O9 0.419834 0.206173 0.786217
O O10 0.695026 0.476479 0.041064
O O11 0.500000 0.000000 0.000000
O O12 0.601756 0.980712 0.736482
O O13 0.233797 0.187008 0.133713
O O14 0.311625 0.165913 0.482093
O O15 0.500000 0.500000 0.500000
#
# Coordination Sequence:
#
# PCOD9035998 Si02
#       7
#     2   2   2   2   2   2   2
#     4  11  22  46  73 103 144 188 235 296 357 425
#     4  11  24  47  73 104 146 194 234 293 363 433
#     4  10  22  47  68  93 142 186 230 290 356 432
#     4  11  27  45  68 101 141 182 240 299 349 422
#     4  10  24  44  67 103 141 181 236 291 358 424
#     4  11  24  44  69  95 135 188 237 284 362 421
#     4  12  24  44  69 108 138 183 241 296 357 418
#
# _framework density 27.129822000000001
#
# number of rings (size 3 to 8) (size 9 to 14) (size 15 to 20)
#    0.000    1.143    2.857    3.000    4.000    4.000 
#    5.143    2.143    0.000    0.000    0.000    0.000 
#    0.000    0.000    0.000    0.000    0.000    0.000 
#
# Total GULP energy -78230.412711 kJ/mol
# GULP energy per Si atom -5587.886622 kJ/mol
# Density = 2.706807 g / cm^3
# Si number density = 27.129822 Si / 1000 Ang^3
#
#
#
# Elastic Constant Matrix: (Units=GPa)
#
#
# Indices 1 2 3 4 5 6 
#
# 1 131.2790 51.4439 -18.3737 -6.5310 10.7103 -2.2690
# 2 51.4439 226.3762 -0.8400 5.6190 0.6347 -8.3665
# 3 -18.3737 -0.8400 20.4547 -9.2233 -10.3710 0.7088
# 4 -6.5310 5.6190 -9.2233 49.7181 -13.7449 3.8015
# 5 10.7103 0.6347 -10.3710 -13.7449 28.6434 -6.0634
# 6 -2.2690 -8.3665 0.7088 3.8015 -6.0634 53.4576
#
#
#
# Elastic Compliance Matrix: (Units=1/GPa)
#
#
# Indices 1 2 3 4 5 6 
#
# 1 0.010402 -0.002452 0.013201 0.005022 0.003334 -0.000096
# 2 -0.002452 0.005040 -0.003540 -0.001952 -0.001259 0.000728
# 3 0.013201 -0.003540 0.100152 0.033856 0.048014 0.001717
# 4 0.005022 -0.001952 0.033856 0.034767 0.027121 0.000062
# 5 0.003334 -0.001259 0.048014 0.027121 0.065100 0.004763
# 6 -0.000096 0.000728 0.001717 0.000062 0.004763 0.019329
#
#
# Mechanical properties :
#
#
# Convention : Reuss Voigt Hill
#
# Bulk Modulus (GPa) = 7.69157 49.17448 28.43302
# Shear Modulus (GPa) = 18.96011 49.42249 34.19130
#
# Velocity S-wave (km/s) = 2.64648 4.27277 3.55390
# Velocity P-wave (km/s) = 3.48994 6.51974 5.22909
#
# Compressibility (1/GPa) = 0.13001255
#
# Stress axis : x y z
#
# Youngs Moduli (GPa) = 96.13352 198.39321 9.98480
#
# Poissons Ratio (x) = 0.48655 -0.13181
# Poissons Ratio (y) = 0.23576 0.03534
# Poissons Ratio (z) = -1.26907 0.70229
#
# Static dielectric constant tensor:
#      x y z
#    x 2.097790 0.080810 0.053360 
#    y 0.080810 2.265810 0.080780 
#    z 0.053360 0.080780 2.633140 
# 
# From -- ./inp_files/122600.got.cif
#   From: 2010.05.17/outbox.cif.g08.bks.cpg/sg2_62_cif.got.tgz:122600.got - 2010.06.03 11:33:40.
