data_PCOD9035241
_publ_section_title
;
Structure prediction by ZEFSAII (Michael W. Deem and Ramdas Pophale) SiO2 
 PCOD9035241
Probable space group: P -1
;
_chemical_formula_sum "Si O2"
_cell_formula_units_Z 16
_cell_length_a 11.121352
_cell_length_b 13.291256
_cell_length_c 15.691462
_cell_angle_alpha 39.524164
_cell_angle_beta 60.379369
_cell_angle_gamma 33.007464
_cell_volume 722.015137
_symmetry_space_group_name_H-M "P -1"
_symmetry_group_IT_number 2
_symmetry_cell_setting 'triclinic'
loop_
_space_group_symop_operation_xyz
x,y,z
-x,-y,-z
loop_
_atom_site_type_symbol
_atom_site_label
_atom_site_fract_x
_atom_site_fract_y
_atom_site_fract_z
Si Si1 0.067739 0.300063 0.539738
Si Si2 0.895959 0.055386 0.637426
Si Si3 0.065703 0.207452 0.942089
Si Si4 0.365556 0.130887 0.765889
Si Si5 0.696628 0.130194 0.474678
Si Si6 0.814836 0.239512 0.727427
Si Si7 0.594397 0.858303 0.680095
Si Si8 0.852205 0.780569 0.907735
O O1 0.000000 0.500000 0.500000
O O2 0.858278 0.534966 0.390332
O O3 0.020912 0.177302 0.681191
O O4 0.351481 0.058971 0.577269
O O5 0.770207 0.119484 0.551355
O O6 0.746985 0.256555 0.641420
O O7 0.992597 0.801701 0.809908
O O8 0.108725 0.975648 0.588579
O O9 0.251462 0.090147 0.881578
O O10 0.797099 0.533129 0.803526
O O11 0.144322 0.224031 0.989616
O O12 0.092823 0.998307 0.095681
O O13 0.489902 0.950386 0.753600
O O14 0.574424 0.028525 0.810284
O O15 0.421379 0.456142 0.345965
O O16 0.696581 0.941183 0.590046
O O17 0.000000 0.500000 0.000000
#
# Coordination Sequence:
#
# PCOD9035241 Si02
#       8
#     2   2   2   2   2   2   2   2
#     4  10  22  45  72  87 129 178 221 271 315 378
#     4  10  23  37  61  97 128 169 217 269 320 378
#     4  11  26  38  66 101 132 166 217 267 333 384
#     4  11  22  42  67  94 127 177 219 258 320 389
#     4  11  21  40  65  91 132 173 215 263 323 386
#     4  11  23  42  62  99 128 165 217 274 321 378
#     4  11  23  45  67  93 133 173 220 265 321 386
#     4  11  20  41  62  92 140 174 203 265 333 394
#
# _framework density 22.160198000000001
#
# number of rings (size 3 to 8) (size 9 to 14) (size 15 to 20)
#    0.000    1.250    5.000    0.750    3.500    2.000 
#    4.500    2.500    0.000    0.000    0.000    0.000 
#    0.000    0.000    0.000    0.000    0.000    0.000 
#
# Total GULP energy -89379.310997 kJ/mol
# GULP energy per Si atom -5586.206937 kJ/mol
# Density = 2.210976 g / cm^3
# Si number density = 22.160198 Si / 1000 Ang^3
#
#
#
# Elastic Constant Matrix: (Units=GPa)
#
#
# Indices 1 2 3 4 5 6 
#
# 1 62.6579 16.8169 36.3481 4.2917 -2.8138 -19.1428
# 2 16.8169 111.1899 61.0181 20.9035 -8.5942 -10.8099
# 3 36.3481 61.0181 120.7472 8.1305 -21.8151 -20.2915
# 4 4.2917 20.9035 8.1305 35.4555 -16.7473 -2.7794
# 5 -2.8138 -8.5942 -21.8151 -16.7473 38.9858 -4.2532
# 6 -19.1428 -10.8099 -20.2915 -2.7794 -4.2532 37.3288
#
#
#
# Elastic Compliance Matrix: (Units=1/GPa)
#
#
# Indices 1 2 3 4 5 6 
#
# 1 0.021517 0.000902 -0.005736 -0.001864 -0.001399 0.007879
# 2 0.000902 0.014615 -0.008196 -0.009538 -0.005517 -0.001099
# 3 -0.005736 -0.008196 0.016510 0.007225 0.010712 0.005418
# 4 -0.001864 -0.009538 0.007225 0.042651 0.020755 0.005750
# 5 -0.001399 -0.005517 0.010712 0.020755 0.040295 0.009645
# 6 0.007879 -0.001099 0.005418 0.005750 0.009645 0.034983
#
#
# Mechanical properties :
#
#
# Convention : Reuss Voigt Hill
#
# Bulk Modulus (GPa) = 37.62102 58.10680 47.86391
# Shear Modulus (GPa) = 24.33181 34.38147 29.35664
#
# Velocity S-wave (km/s) = 3.31720 3.94318 3.64366
# Velocity P-wave (km/s) = 5.62898 6.85636 6.27276
#
# Compressibility (1/GPa) = 0.02658089
#
# Stress axis : x y z
#
# Youngs Moduli (GPa) = 46.47436 68.42338 60.57088
#
# Poissons Ratio (x) = -0.06170 0.34744
# Poissons Ratio (y) = -0.04191 0.49644
# Poissons Ratio (z) = 0.26658 0.56080
#
# Static dielectric constant tensor:
#      x y z
#    x 1.837450 0.007030 0.031460 
#    y 0.007030 1.819070 0.001750 
#    z 0.031460 0.001750 1.825330 
# 
# From -- ./inp_files/569935.got.cif
#   From: 2010.05.17/outbox.cif.g08.bks.cpg/sg2_285_cif.got.tgz:569935.got - 2010.06.03 11:33:40.
