data_PCOD9035109
_publ_section_title
;
Structure prediction by ZEFSAII (Michael W. Deem and Ramdas Pophale) SiO2 
 PCOD9035109
Probable space group: P -1
;
_chemical_formula_sum "Si O2"
_cell_formula_units_Z 16
_cell_length_a 16.426891
_cell_length_b 16.728344
_cell_length_c 7.442243
_cell_angle_alpha 84.442440
_cell_angle_beta 85.067964
_cell_angle_gamma 157.757284
_cell_volume 681.667617
_symmetry_space_group_name_H-M "P -1"
_symmetry_group_IT_number 2
_symmetry_cell_setting 'triclinic'
loop_
_space_group_symop_operation_xyz
x,y,z
-x,-y,-z
loop_
_atom_site_type_symbol
_atom_site_label
_atom_site_fract_x
_atom_site_fract_y
_atom_site_fract_z
Si Si1 0.605059 0.683892 0.884633
Si Si2 0.398623 0.305398 0.721731
Si Si3 0.696635 0.956227 0.245122
Si Si4 0.175010 0.383072 0.848796
Si Si5 0.114697 0.189189 0.618759
Si Si6 0.491141 0.114318 0.999511
Si Si7 0.920631 0.401370 0.836995
Si Si8 0.389213 0.750905 0.634038
O O1 0.681247 0.786732 0.042245
O O2 0.500000 0.500000 0.000000
O O3 0.400956 0.547111 0.860299
O O4 0.849518 0.914476 0.670940
O O5 0.366345 0.192227 0.647916
O O6 0.239206 0.230907 0.693928
O O7 0.679046 0.592268 0.606612
O O8 0.554581 0.847722 0.112242
O O9 0.607851 0.938908 0.412286
O O10 0.976183 0.214834 0.077647
O O11 0.089162 0.243854 0.738552
O O12 0.250252 0.537486 0.719072
O O13 0.735990 0.300141 0.834625
O O14 0.519812 0.149197 0.201270
O O15 0.257948 0.841154 0.070239
O O16 0.178900 0.620038 0.648428
O O17 0.000000 0.500000 0.000000
#
# Coordination Sequence:
#
# PCOD9035109 Si02
#       8
#     2   2   2   2   2   2   2   2
#     4  12  24  40  65  90 123 178 230 284 341 394
#     4  11  23  43  65  95 128 181 228 280 344 398
#     4  12  24  43  70 100 139 181 229 278 343 406
#     4  12  24  43  63  95 137 175 227 285 334 396
#     4  11  24  44  65  88 138 175 227 290 333 391
#     4  10  22  45  71 103 138 175 219 280 333 408
#     4   9  20  45  76  97 140 177 214 277 340 399
#     4  11  24  43  68 104 137 176 221 278 341 403
#
# _framework density 23.471848999999999
#
# number of rings (size 3 to 8) (size 9 to 14) (size 15 to 20)
#    0.000    1.000    5.000    1.875    0.000    2.000 
#    4.500    5.625    0.000    0.000    0.000    0.000 
#    0.000    0.000    0.000    0.000    0.000    0.000 
#
# Total GULP energy -89454.743744 kJ/mol
# GULP energy per Si atom -5590.921484 kJ/mol
# Density = 2.341843 g / cm^3
# Si number density = 23.471849 Si / 1000 Ang^3
#
#
#
# Elastic Constant Matrix: (Units=GPa)
#
#
# Indices 1 2 3 4 5 6 
#
# 1 76.2429 18.3423 15.8036 -12.2349 -24.1797 15.3516
# 2 18.3423 74.3633 31.8531 -14.5768 -17.1943 1.8081
# 3 15.8036 31.8531 112.4942 -12.6764 -34.0424 12.5360
# 4 -12.2349 -14.5768 -12.6764 41.6182 4.4095 -12.9112
# 5 -24.1797 -17.1943 -34.0424 4.4095 39.2879 -1.5797
# 6 15.3516 1.8081 12.5360 -12.9112 -1.5797 35.6561
#
#
#
# Elastic Compliance Matrix: (Units=1/GPa)
#
#
# Indices 1 2 3 4 5 6 
#
# 1 0.018981 -0.002470 0.002934 0.001835 0.012622 -0.007855
# 2 -0.002470 0.017028 -0.003555 0.004935 0.002432 0.003344
# 3 0.002934 -0.003555 0.013739 0.000987 0.011842 -0.005032
# 4 0.001835 0.004935 0.000987 0.029350 0.001223 0.009295
# 5 0.012622 0.002432 0.011842 0.001223 0.044115 -0.007324
# 6 -0.007855 0.003344 -0.005032 0.009295 -0.007324 0.036068
#
#
# Mechanical properties :
#
#
# Convention : Reuss Voigt Hill
#
# Bulk Modulus (GPa) = 22.95305 43.89982 33.42643
# Shear Modulus (GPa) = 27.78019 36.45253 32.11636
#
# Velocity S-wave (km/s) = 3.44401 3.94513 3.70306
# Velocity P-wave (km/s) = 5.06114 6.28457 5.70574
#
# Compressibility (1/GPa) = 0.04356719
#
# Stress axis : x y z
#
# Youngs Moduli (GPa) = 52.68494 58.72701 72.78467
#
# Poissons Ratio (x) = 0.14504 -0.21358
# Poissons Ratio (y) = 0.13011 0.25875
# Poissons Ratio (z) = -0.15460 0.20878
#
# Static dielectric constant tensor:
#      x y z
#    x 1.889190 -0.030130 -0.048180 
#    y -0.030130 1.896180 0.016640 
#    z -0.048180 0.016640 1.900990 
# 
# From -- ./inp_files/336527.got.cif
#   From: 2010.05.17/outbox.cif.g08.bks.cpg/sg2_169_cif.got.tgz:336527.got - 2010.06.03 11:33:40.
