data_PCOD9035972
_publ_section_title
;
Structure prediction by ZEFSAII (Michael W. Deem and Ramdas Pophale) SiO2 
 PCOD9035972
Probable space group: P -1
;
_chemical_formula_sum "Si O2"
_cell_formula_units_Z 14
_cell_length_a 6.472741
_cell_length_b 8.902054
_cell_length_c 15.066861
_cell_angle_alpha 79.406372
_cell_angle_beta 135.359442
_cell_angle_gamma 93.470351
_cell_volume 596.511300
_symmetry_space_group_name_H-M "P -1"
_symmetry_group_IT_number 2
_symmetry_cell_setting 'triclinic'
loop_
_space_group_symop_operation_xyz
x,y,z
-x,-y,-z
loop_
_atom_site_type_symbol
_atom_site_label
_atom_site_fract_x
_atom_site_fract_y
_atom_site_fract_z
Si Si1 0.689215 0.368831 0.856349
Si Si2 0.706903 0.765252 0.583882
Si Si3 0.345525 0.150872 0.258592
Si Si4 0.619532 0.655673 0.923980
Si Si5 0.780096 0.649386 0.432070
Si Si6 0.693616 0.140723 0.040234
Si Si7 0.863781 0.073447 0.548562
O O1 0.545817 0.506570 0.861734
O O2 0.513436 0.361211 0.712803
O O3 0.677277 0.218204 0.929873
O O4 0.034574 0.384042 0.941530
O O5 0.716446 0.720327 0.695254
O O6 0.753348 0.653241 0.529574
O O7 0.372400 0.845528 0.462606
O O8 0.922458 0.900473 0.620779
O O9 0.392956 0.216114 0.170205
O O10 0.645603 0.061772 0.397344
O O11 0.036490 0.079237 0.168470
O O12 0.426126 0.727199 0.939090
O O13 0.000000 0.500000 0.500000
O O14 0.917714 0.801666 0.421544
O O15 0.500000 0.000000 0.000000
#
# Coordination Sequence:
#
# PCOD9035972 Si02
#       7
#     2   2   2   2   2   2   2
#     4  10  25  42  63  94 122 169 210 248 314 367
#     4   9  22  41  62  92 127 167 205 247 313 373
#     4   9  21  38  67  94 120 165 208 245 319 365
#     4  10  22  47  64  85 129 167 205 259 307 367
#     4  12  25  39  63  99 127 160 208 257 309 369
#     4  11  25  40  68  97 120 162 209 265 307 359
#     4   9  21  40  61  91 125 167 202 250 312 360
#
# _framework density 23.469798000000001
#
# number of rings (size 3 to 8) (size 9 to 14) (size 15 to 20)
#    0.857    1.143    0.000    1.714    6.000    6.286 
#    0.000    0.000    0.000    0.000    0.000    0.000 
#    0.000    0.000    0.000    0.000    0.000    0.000 
#
# Total GULP energy -78105.933518 kJ/mol
# GULP energy per Si atom -5578.995251 kJ/mol
# Density = 2.341638 g / cm^3
# Si number density = 23.469798 Si / 1000 Ang^3
#
#
#
# Elastic Constant Matrix: (Units=GPa)
#
#
# Indices 1 2 3 4 5 6 
#
# 1 58.3066 4.0318 1.7636 8.8071 -11.6194 -9.7910
# 2 4.0318 52.8785 -4.7297 13.1589 14.4565 -11.6220
# 3 1.7636 -4.7297 92.7210 4.1707 11.5131 5.7051
# 4 8.8071 13.1589 4.1707 20.2548 5.4559 -0.4633
# 5 -11.6194 14.4565 11.5131 5.4559 31.6621 9.6670
# 6 -9.7910 -11.6220 5.7051 -0.4633 9.6670 40.4504
#
#
#
# Elastic Compliance Matrix: (Units=1/GPa)
#
#
# Indices 1 2 3 4 5 6 
#
# 1 0.021322 -0.001245 -0.001377 -0.010815 0.009999 0.002484
# 2 -0.001245 0.030126 0.003567 -0.015066 -0.016459 0.011612
# 3 -0.001377 0.003567 0.011841 -0.002489 -0.006152 0.000463
# 4 -0.010815 -0.015066 -0.002489 0.065950 -0.006220 -0.004354
# 5 0.009999 -0.016459 -0.006152 -0.006220 0.050201 -0.013509
# 6 0.002484 0.011612 0.000463 -0.004354 -0.013509 0.031772
#
#
# Mechanical properties :
#
#
# Convention : Reuss Voigt Hill
#
# Bulk Modulus (GPa) = 15.34249 22.89305 19.11777
# Shear Modulus (GPa) = 21.64044 31.99615 26.81829
#
# Velocity S-wave (km/s) = 3.03983 3.69628 3.38401
# Velocity P-wave (km/s) = 4.34420 5.29076 4.84067
#
# Compressibility (1/GPa) = 0.06517848
#
# Stress axis : x y z
#
# Youngs Moduli (GPa) = 46.90021 33.19360 84.45542
#
# Poissons Ratio (x) = 0.04134 0.11630
# Poissons Ratio (y) = 0.05841 -0.30128
# Poissons Ratio (z) = 0.06458 -0.11841
#
# Static dielectric constant tensor:
#      x y z
#    x 1.925720 -0.021040 0.015970 
#    y -0.021040 1.917590 -0.012800 
#    z 0.015970 -0.012800 1.886920 
# 
# From -- ./inp_files/480607.got.cif
#   From: 2010.05.17/outbox.cif.g08.bks.cpg/sg2_241_cif.got.tgz:480607.got - 2010.06.03 11:33:40.
