data_PCOD9035380
_publ_section_title
;
Structure prediction by ZEFSAII (Michael W. Deem and Ramdas Pophale) SiO2 
 PCOD9035380
Probable space group: P -1
;
_chemical_formula_sum "Si O2"
_cell_formula_units_Z 14
_cell_length_a 11.892032
_cell_length_b 7.379364
_cell_length_c 7.870773
_cell_angle_alpha 83.032519
_cell_angle_beta 53.554110
_cell_angle_gamma 67.208777
_cell_volume 506.690013
_symmetry_space_group_name_H-M "P -1"
_symmetry_group_IT_number 2
_symmetry_cell_setting 'triclinic'
loop_
_space_group_symop_operation_xyz
x,y,z
-x,-y,-z
loop_
_atom_site_type_symbol
_atom_site_label
_atom_site_fract_x
_atom_site_fract_y
_atom_site_fract_z
Si Si1 0.247201 0.503667 0.530397
Si Si2 0.564940 0.304289 0.168019
Si Si3 0.967789 0.877920 0.286878
Si Si4 0.850726 0.518423 0.021142
Si Si5 0.933581 0.784125 0.715428
Si Si6 0.411071 0.746532 0.210900
Si Si7 0.365647 0.950639 0.550768
O O1 0.261013 0.464302 0.722911
O O2 0.280113 0.695849 0.426833
O O3 0.386406 0.336088 0.331020
O O4 0.078626 0.568507 0.606882
O O5 0.899345 0.317949 0.888334
O O6 0.550773 0.530245 0.120138
O O7 0.631206 0.219837 0.298861
O O8 0.633308 0.188468 0.948183
O O9 0.574295 0.102775 0.688624
O O10 0.813464 0.912440 0.316864
O O11 0.024484 0.060569 0.223031
O O12 0.922457 0.853734 0.524542
O O13 0.810436 0.715108 0.920457
O O14 0.000000 0.500000 0.000000
O O15 0.500000 0.000000 0.500000
#
# Coordination Sequence:
#
# PCOD9035380 Si02
#       7
#     2   2   2   2   2   2   2
#     4   9  19  43  70 105 136 179 246 297 362 429
#     4   9  21  45  76 102 137 192 242 303 357 427
#     4  11  24  47  69 108 150 191 245 298 373 438
#     4  10  23  42  71 109 143 191 243 300 368 433
#     4  10  22  45  75 103 148 195 239 305 361 437
#     4   9  20  46  72 105 138 191 245 291 369 428
#     4  12  26  44  71 106 150 187 239 304 365 441
#
# _framework density 27.630303999999999
#
# number of rings (size 3 to 8) (size 9 to 14) (size 15 to 20)
#    0.857    1.143    1.429    0.857    4.000    2.857 
#   10.286    0.000    0.000    0.000    0.000    0.000 
#    0.000    0.000    0.000    0.000    0.000    0.000 
#
# Total GULP energy -78269.537178 kJ/mol
# GULP energy per Si atom -5590.681227 kJ/mol
# Density = 2.756742 g / cm^3
# Si number density = 27.630304 Si / 1000 Ang^3
#
#
#
# Elastic Constant Matrix: (Units=GPa)
#
#
# Indices 1 2 3 4 5 6 
#
# 1 95.7425 38.1289 38.5270 7.3252 6.6003 7.0717
# 2 38.1289 121.5838 43.8272 -5.8517 4.7291 3.1390
# 3 38.5270 43.8272 169.9781 -12.7665 17.4356 12.5858
# 4 7.3252 -5.8517 -12.7665 37.8559 3.6410 7.9924
# 5 6.6003 4.7291 17.4356 3.6410 40.0733 1.2702
# 6 7.0717 3.1390 12.5858 7.9924 1.2702 52.6266
#
#
#
# Elastic Compliance Matrix: (Units=1/GPa)
#
#
# Indices 1 2 3 4 5 6 
#
# 1 0.013071 -0.003427 -0.002283 -0.003698 -0.000405 -0.000435
# 2 -0.003427 0.009982 -0.001671 0.001643 -0.000036 0.000016
# 3 -0.002283 -0.001671 0.007525 0.003393 -0.002951 -0.001837
# 4 -0.003698 0.001643 0.003393 0.029906 -0.003624 -0.004867
# 5 -0.000405 -0.000036 -0.002951 -0.003624 0.026617 0.000670
# 6 -0.000435 0.000016 -0.001837 -0.004867 0.000670 0.020222
#
#
# Mechanical properties :
#
#
# Convention : Reuss Voigt Hill
#
# Bulk Modulus (GPa) = 63.22872 69.80785 66.51828
# Shear Modulus (GPa) = 39.25964 43.89926 41.57945
#
# Velocity S-wave (km/s) = 3.77356 3.99031 3.88345
# Velocity P-wave (km/s) = 6.47455 6.82275 6.65093
#
# Compressibility (1/GPa) = 0.01581560
#
# Stress axis : x y z
#
# Youngs Moduli (GPa) = 76.50384 100.18063 132.89034
#
# Poissons Ratio (x) = 0.34334 0.30340
# Poissons Ratio (y) = 0.26219 0.22207
# Poissons Ratio (z) = 0.17466 0.16741
#
# Static dielectric constant tensor:
#      x y z
#    x 2.243970 0.054190 -0.126440 
#    y 0.054190 2.282650 -0.041030 
#    z -0.126440 -0.041030 2.242900 
# 
# From -- ./inp_files/184914.got.cif
#   From: 2010.05.17/outbox.cif.g08.bks.cpg/sg2_93_cif.got.tgz:184914.got - 2010.06.03 11:33:40.
