data_PCOD9035294
_publ_section_title
;
Structure prediction by ZEFSAII (Michael W. Deem and Ramdas Pophale) SiO2 
 PCOD9035294
Probable space group: P -1
;
_chemical_formula_sum "Si O2"
_cell_formula_units_Z 14
_cell_length_a 8.654656
_cell_length_b 8.589606
_cell_length_c 8.963248
_cell_angle_alpha 113.607527
_cell_angle_beta 66.142529
_cell_angle_gamma 94.907675
_cell_volume 556.066795
_symmetry_space_group_name_H-M "P -1"
_symmetry_group_IT_number 2
_symmetry_cell_setting 'triclinic'
loop_
_space_group_symop_operation_xyz
x,y,z
-x,-y,-z
loop_
_atom_site_type_symbol
_atom_site_label
_atom_site_fract_x
_atom_site_fract_y
_atom_site_fract_z
Si Si1 0.530223 0.917870 0.119984
Si Si2 0.565101 0.489233 0.224506
Si Si3 0.848903 0.923285 0.177591
Si Si4 0.349475 0.194103 0.505086
Si Si5 0.704596 0.387188 0.841246
Si Si6 0.050399 0.405942 0.595312
Si Si7 0.841136 0.265453 0.162428
O O1 0.728559 0.875624 0.067042
O O2 0.414548 0.762134 0.130934
O O3 0.468465 0.048341 0.325938
O O4 0.500000 0.000000 0.000000
O O5 0.561348 0.650574 0.396070
O O6 0.385962 0.502022 0.215405
O O7 0.647232 0.320045 0.209457
O O8 0.697317 0.498296 0.037964
O O9 0.760850 0.876352 0.345690
O O10 0.855144 0.126581 0.235146
O O11 0.034619 0.825111 0.045357
O O12 0.215334 0.275660 0.468761
O O13 0.890241 0.322428 0.692631
O O14 0.000000 0.500000 0.500000
O O15 0.094513 0.555496 0.747952
#
# Coordination Sequence:
#
# PCOD9035294 Si02
#       7
#     2   2   2   2   2   2   2
#     4  12  28  45  72 108 146 186 239 304 361 419
#     4  10  22  45  73 107 135 197 229 297 347 434
#     4  11  23  45  74 103 141 192 238 293 350 433
#     4  11  25  47  75 100 143 194 242 287 359 427
#     4  11  24  44  73 107 149 178 241 293 367 409
#     4  11  27  44  70 107 145 186 234 297 351 429
#     4  10  24  44  73 104 145 187 244 279 359 426
#
# _framework density 25.176829000000001
#
# number of rings (size 3 to 8) (size 9 to 14) (size 15 to 20)
#    0.000    1.143    1.429    3.000    6.000    5.143 
#    0.000    5.000    0.000    0.000    0.000    0.000 
#    0.000    0.000    0.000    0.000    0.000    0.000 
#
# Total GULP energy -78433.208492 kJ/mol
# GULP energy per Si atom -5602.372035 kJ/mol
# Density = 2.511953 g / cm^3
# Si number density = 25.176829 Si / 1000 Ang^3
#
#
#
# Elastic Constant Matrix: (Units=GPa)
#
#
# Indices 1 2 3 4 5 6 
#
# 1 71.2435 24.8030 14.6156 1.8249 8.6405 -5.1772
# 2 24.8030 110.8091 22.6115 -4.0771 -4.8681 -5.2995
# 3 14.6156 22.6115 91.4154 4.0814 6.7272 -2.1864
# 4 1.8249 -4.0771 4.0814 47.7874 -7.0715 -0.0622
# 5 8.6405 -4.8681 6.7272 -7.0715 21.6978 -9.3263
# 6 -5.1772 -5.2995 -2.1864 -0.0622 -9.3263 44.6422
#
#
#
# Elastic Compliance Matrix: (Units=1/GPa)
#
#
# Indices 1 2 3 4 5 6 
#
# 1 0.016621 -0.003954 -0.001006 -0.002067 -0.007980 -0.000261
# 2 -0.003954 0.010903 -0.002591 0.002259 0.006445 0.002058
# 3 -0.001006 -0.002591 0.012173 -0.001958 -0.004966 -0.000868
# 4 -0.002067 0.002259 -0.001958 0.022893 0.010309 0.002118
# 5 -0.007980 0.006445 -0.004966 0.010309 0.060913 0.012336
# 6 -0.000261 0.002058 -0.000868 0.002118 0.012336 0.025152
#
#
# Mechanical properties :
#
#
# Convention : Reuss Voigt Hill
#
# Bulk Modulus (GPa) = 40.65812 44.16982 42.41397
# Shear Modulus (GPa) = 29.07729 36.92135 32.99932
#
# Velocity S-wave (km/s) = 3.40210 3.83362 3.62429
# Velocity P-wave (km/s) = 5.62285 6.09733 5.86489
#
# Compressibility (1/GPa) = 0.02459533
#
# Stress axis : x y z
#
# Youngs Moduli (GPa) = 60.16395 91.71825 82.15040
#
# Poissons Ratio (x) = 0.36268 0.08265
# Poissons Ratio (y) = 0.23791 0.21281
# Poissons Ratio (z) = 0.06053 0.23760
#
# Static dielectric constant tensor:
#      x y z
#    x 2.011190 0.013580 0.042450 
#    y 0.013580 2.014920 -0.010880 
#    z 0.042450 -0.010880 1.937930 
# 
# From -- ./inp_files/159522.got.cif
#   From: 2010.05.17/outbox.cif.g08.bks.cpg/sg2_80_cif.got.tgz:159522.got - 2010.06.03 11:33:40.
