data_PCOD9035853
_publ_section_title
;
Structure prediction by ZEFSAII (Michael W. Deem and Ramdas Pophale) SiO2 
 PCOD9035853
Probable space group: P -1
;
_chemical_formula_sum "Si O2"
_cell_formula_units_Z 14
_cell_length_a 11.342574
_cell_length_b 8.351005
_cell_length_c 9.956629
_cell_angle_alpha 61.789031
_cell_angle_beta 59.917885
_cell_angle_gamma 41.514368
_cell_volume 533.048690
_symmetry_space_group_name_H-M "P -1"
_symmetry_group_IT_number 2
_symmetry_cell_setting 'triclinic'
loop_
_space_group_symop_operation_xyz
x,y,z
-x,-y,-z
loop_
_atom_site_type_symbol
_atom_site_label
_atom_site_fract_x
_atom_site_fract_y
_atom_site_fract_z
Si Si1 0.291833 0.996432 0.388827
Si Si2 0.156087 0.476880 0.342232
Si Si3 0.309590 0.294142 0.601785
Si Si4 0.508837 0.356114 0.821559
Si Si5 0.119746 0.568323 0.867208
Si Si6 0.743276 0.083188 0.278778
Si Si7 0.836061 0.119686 0.917943
O O1 0.222513 0.260525 0.288846
O O2 0.489760 0.853701 0.398418
O O3 0.336977 0.836206 0.299330
O O4 0.185252 0.998706 0.573764
O O5 0.288232 0.388454 0.427801
O O6 0.134528 0.691641 0.203104
O O7 0.000000 0.500000 0.500000
O O8 0.172039 0.504765 0.705044
O O9 0.282897 0.101961 0.677960
O O10 0.321189 0.402139 0.892878
O O11 0.423253 0.626575 0.727795
O O12 0.629341 0.252138 0.929462
O O13 0.986635 0.856471 0.863429
O O14 0.000000 0.500000 0.000000
O O15 0.832674 0.083106 0.092136
#
# Coordination Sequence:
#
# PCOD9035853 Si02
#       7
#     2   2   2   2   2   2   2
#     4  10  23  47  73 102 149 198 248 298 375 445
#     4  11  26  45  72 111 149 193 246 310 372 446
#     4  10  22  46  73  99 152 200 241 303 374 444
#     4  11  26  45  78 108 148 198 250 305 370 437
#     4  11  26  49  71 111 155 194 244 311 379 436
#     4  11  22  45  76 106 144 198 249 305 370 440
#     4  12  27  48  76 113 149 191 255 311 366 448
#
# _framework density 26.264019000000001
#
# number of rings (size 3 to 8) (size 9 to 14) (size 15 to 20)
#    0.000    1.143    1.429    4.286    6.000    4.000 
#    0.000    0.000    0.000    0.000    0.000    0.000 
#    0.000    0.000    0.000    0.000    0.000    0.000 
#
# Total GULP energy -78272.435904 kJ/mol
# GULP energy per Si atom -5590.888279 kJ/mol
# Density = 2.620424 g / cm^3
# Si number density = 26.264019 Si / 1000 Ang^3
#
#
#
# Elastic Constant Matrix: (Units=GPa)
#
#
# Indices 1 2 3 4 5 6 
#
# 1 113.3626 37.5019 49.9157 -9.6305 -8.1951 -5.4731
# 2 37.5019 192.8500 82.4295 -4.3305 11.9711 48.0429
# 3 49.9157 82.4295 168.6896 -18.0127 -18.9968 29.0663
# 4 -9.6305 -4.3305 -18.0127 46.1856 -0.4473 7.3139
# 5 -8.1951 11.9711 -18.9968 -0.4473 42.2599 5.1703
# 6 -5.4731 48.0429 29.0663 7.3139 5.1703 53.6149
#
#
#
# Elastic Compliance Matrix: (Units=1/GPa)
#
#
# Indices 1 2 3 4 5 6 
#
# 1 0.011087 -0.002069 -0.002902 0.000293 0.000892 0.004433
# 2 -0.002069 0.008525 -0.002887 0.000156 -0.003381 -0.005980
# 3 -0.002902 -0.002887 0.009881 0.003673 0.005234 -0.004072
# 4 0.000293 0.000156 0.003673 0.024078 0.002608 -0.005638
# 5 0.000892 -0.003381 0.005234 0.002608 0.027507 -0.002726
# 6 0.004433 -0.005980 -0.004072 -0.005638 -0.002726 0.027702
#
#
# Mechanical properties :
#
#
# Convention : Reuss Voigt Hill
#
# Bulk Modulus (GPa) = 72.58420 90.51071 81.54745
# Shear Modulus (GPa) = 38.73358 48.74909 43.74134
#
# Velocity S-wave (km/s) = 3.84445 4.31294 4.08542
# Velocity P-wave (km/s) = 6.88497 7.70316 7.30552
#
# Compressibility (1/GPa) = 0.01377710
#
# Stress axis : x y z
#
# Youngs Moduli (GPa) = 90.19832 117.30454 101.20849
#
# Poissons Ratio (x) = 0.24267 0.29368
# Poissons Ratio (y) = 0.18660 0.29219
# Poissons Ratio (z) = 0.26173 0.33866
#
# Static dielectric constant tensor:
#      x y z
#    x 2.237560 -0.123550 -0.024500 
#    y -0.123550 2.152260 0.096370 
#    z -0.024500 0.096370 2.097870 
# 
# From -- ./inp_files/267602.got.cif
#   From: 2010.05.17/outbox.cif.g08.bks.cpg/sg2_134_cif.got.tgz:267602.got - 2010.06.03 11:33:40.
