data_PCOD9035831
_publ_section_title
;
Structure prediction by ZEFSAII (Michael W. Deem and Ramdas Pophale) SiO2 
 PCOD9035831
Probable space group: P -1
;
_chemical_formula_sum "Si O2"
_cell_formula_units_Z 12
_cell_length_a 22.873146
_cell_length_b 6.972048
_cell_length_c 5.230109
_cell_angle_alpha 67.890925
_cell_angle_beta 56.417380
_cell_angle_gamma 38.831659
_cell_volume 433.312741
_symmetry_space_group_name_H-M "P -1"
_symmetry_group_IT_number 2
_symmetry_cell_setting 'triclinic'
loop_
_space_group_symop_operation_xyz
x,y,z
-x,-y,-z
loop_
_atom_site_type_symbol
_atom_site_label
_atom_site_fract_x
_atom_site_fract_y
_atom_site_fract_z
Si Si1 0.249104 0.866696 0.956013
Si Si2 0.071029 0.529879 0.917039
Si Si3 0.743059 0.490856 0.248873
Si Si4 0.570302 0.031662 0.714996
Si Si5 0.924422 0.024602 0.399911
Si Si6 0.377166 0.883032 0.955365
O O1 0.189661 0.192086 0.811567
O O2 0.152990 0.942643 0.261413
O O3 0.329195 0.776259 0.018073
O O4 0.299966 0.612062 0.747135
O O5 0.062299 0.763861 0.664384
O O6 0.026842 0.681509 0.230583
O O7 0.000000 0.500000 0.000000
O O8 0.680230 0.680799 0.562699
O O9 0.858826 0.190194 0.207779
O O10 0.720078 0.740824 0.006508
O O11 0.549930 0.178386 0.413968
O O12 0.576684 0.190392 0.839621
O O13 0.500000 0.000000 0.000000
#
# Coordination Sequence:
#
# PCOD9035831 Si02
#       6
#     2   2   2   2   2   2
#     4  12  24  42  69 102 137 189 238 292 349 419
#     4  11  23  43  63  96 138 188 238 289 349 412
#     4  10  23  41  68 100 138 182 231 289 349 417
#     4  10  22  46  73 104 144 183 228 293 358 423
#     4  11  24  41  64  96 142 181 241 288 349 413
#     4  10  24  43  73 101 141 189 230 288 358 422
#
# _framework density 27.693622999999999
#
# number of rings (size 3 to 8) (size 9 to 14) (size 15 to 20)
#    1.000    0.333    3.333    2.000    2.333    3.333 
#    0.000    1.667    0.000    0.000    0.000    0.000 
#    0.000    0.000    0.000    0.000    0.000    0.000 
#
# Total GULP energy -67223.551732 kJ/mol
# GULP energy per Si atom -5601.962644 kJ/mol
# Density = 2.763059 g / cm^3
# Si number density = 27.693623 Si / 1000 Ang^3
#
#
#
# Elastic Constant Matrix: (Units=GPa)
#
#
# Indices 1 2 3 4 5 6 
#
# 1 157.6825 44.5885 54.4071 9.8059 1.1360 53.0546
# 2 44.5885 113.4965 29.6969 -8.0796 4.0847 35.9788
# 3 54.4071 29.6969 140.1673 -0.1469 -2.6003 27.8436
# 4 9.8059 -8.0796 -0.1469 43.7683 9.6661 8.2209
# 5 1.1360 4.0847 -2.6003 9.6661 52.9152 -3.2948
# 6 53.0546 35.9788 27.8436 8.2209 -3.2948 61.0159
#
#
#
# Elastic Compliance Matrix: (Units=1/GPa)
#
#
# Indices 1 2 3 4 5 6 
#
# 1 0.009751 -0.001207 -0.002221 -0.001071 -0.000443 -0.006633
# 2 -0.001207 0.011837 -0.000840 0.004073 -0.002060 -0.006206
# 3 -0.002221 -0.000840 0.008480 0.000581 0.000330 -0.001503
# 4 -0.001071 0.004073 0.000581 0.026067 -0.005369 -0.005537
# 5 -0.000443 -0.002060 0.000330 -0.005369 0.020267 0.003267
# 6 -0.006633 -0.006206 -0.001503 -0.005537 0.003267 0.027425
#
#
# Mechanical properties :
#
#
# Convention : Reuss Voigt Hill
#
# Bulk Modulus (GPa) = 46.44590 74.30348 60.37469
# Shear Modulus (GPa) = 41.82678 50.38347 46.10512
#
# Velocity S-wave (km/s) = 3.89053 4.26997 4.08466
# Velocity P-wave (km/s) = 6.08188 7.15535 6.64034
#
# Compressibility (1/GPa) = 0.02153043
#
# Stress axis : x y z
#
# Youngs Moduli (GPa) = 102.55192 84.48400 117.92755
#
# Poissons Ratio (x) = 0.10201 0.26191
# Poissons Ratio (y) = 0.12382 0.09908
# Poissons Ratio (z) = 0.22776 0.07098
#
# Static dielectric constant tensor:
#      x y z
#    x 2.180310 -0.045390 0.024750 
#    y -0.045390 2.221850 -0.030840 
#    z 0.024750 -0.030840 2.133380 
# 
# From -- ./inp_files/5936.got.cif
#   From: 2010.05.17/outbox.cif.g08.bks.cpg/sg2_3_cif.got.tgz:5936.got - 2010.06.03 11:33:40.
