data_PCOD9035292
_publ_section_title
;
Structure prediction by ZEFSAII (Michael W. Deem and Ramdas Pophale) SiO2 
 PCOD9035292
Probable space group: P -1
;
_chemical_formula_sum "Si O2"
_cell_formula_units_Z 16
_cell_length_a 16.282229
_cell_length_b 8.027742
_cell_length_c 6.795262
_cell_angle_alpha 117.993014
_cell_angle_beta 104.843147
_cell_angle_gamma 59.686707
_cell_volume 676.844041
_symmetry_space_group_name_H-M "P -1"
_symmetry_group_IT_number 2
_symmetry_cell_setting 'triclinic'
loop_
_space_group_symop_operation_xyz
x,y,z
-x,-y,-z
loop_
_atom_site_type_symbol
_atom_site_label
_atom_site_fract_x
_atom_site_fract_y
_atom_site_fract_z
Si Si1 0.343696 0.397550 0.966884
Si Si2 0.595003 0.379411 0.608960
Si Si3 0.141804 0.752600 0.957143
Si Si4 0.927925 0.951637 0.567071
Si Si5 0.287032 0.128576 0.040750
Si Si6 0.386661 0.066599 0.483594
Si Si7 0.753714 0.218631 0.345715
Si Si8 0.083772 0.411804 0.847481
O O1 0.414075 0.492420 0.124229
O O2 0.242920 0.603916 0.037338
O O3 0.353010 0.212070 0.016303
O O4 0.348331 0.285619 0.701952
O O5 0.500000 0.500000 0.500000
O O6 0.673043 0.400796 0.524230
O O7 0.618755 0.135890 0.529910
O O8 0.083526 0.960158 0.169182
O O9 0.174790 0.771205 0.768852
O O10 0.090260 0.605237 0.853619
O O11 0.824310 0.080359 0.480910
O O12 0.942437 0.718305 0.402734
O O13 0.000000 0.000000 0.500000
O O14 0.317880 0.117585 0.279551
O O15 0.180857 0.277372 0.963798
O O16 0.299830 0.898785 0.861444
O O17 0.500000 0.000000 0.500000
O O18 0.000000 0.500000 0.000000
#
# Coordination Sequence:
#
# PCOD9035292 Si02
#       8
#     2   2   2   2   2   2   2   2
#     4  11  25  46  72 100 142 184 239 295 357 427
#     4  12  27  47  73 104 145 187 241 302 359 429
#     4  11  24  42  72 101 138 187 234 283 363 418
#     4  11  23  46  70  99 146 181 233 300 348 424
#     4  10  24  45  73  98 142 188 231 295 361 414
#     4  12  28  47  71 106 141 187 245 297 361 430
#     4  11  25  46  70 101 142 185 238 290 359 426
#     4  10  22  45  73 106 141 184 237 295 355 426
#
# _framework density 23.639122
#
# number of rings (size 3 to 8) (size 9 to 14) (size 15 to 20)
#    0.000    1.000    3.750    1.500    5.250    2.000 
#    0.000    0.625    0.000    0.000    0.000    0.000 
#    0.000    0.000    0.000    0.000    0.000    0.000 
#
# Total GULP energy -89283.167054 kJ/mol
# GULP energy per Si atom -5580.197941 kJ/mol
# Density = 2.358532 g / cm^3
# Si number density = 23.639122 Si / 1000 Ang^3
#
#
#
# Elastic Constant Matrix: (Units=GPa)
#
#
# Indices 1 2 3 4 5 6 
#
# 1 82.0042 18.2611 41.5251 5.2718 0.3846 12.3328
# 2 18.2611 61.0067 54.3002 0.7386 4.5513 10.6017
# 3 41.5251 54.3002 186.2952 15.0902 17.6988 6.0883
# 4 5.2718 0.7386 15.0902 30.4894 4.5732 2.0628
# 5 0.3846 4.5513 17.6988 4.5732 44.7362 -3.3633
# 6 12.3328 10.6017 6.0883 2.0628 -3.3633 34.0003
#
#
#
# Elastic Compliance Matrix: (Units=1/GPa)
#
#
# Indices 1 2 3 4 5 6 
#
# 1 0.014560 -0.001218 -0.002755 -0.000966 0.000867 -0.004264
# 2 -0.001218 0.023749 -0.006678 0.003434 -0.000568 -0.006032
# 3 -0.002755 -0.006678 0.008346 -0.003277 -0.002146 0.001574
# 4 -0.000966 0.003434 -0.003277 0.035100 -0.002824 -0.002542
# 5 0.000867 -0.000568 -0.002146 -0.002824 0.023749 0.002768
# 6 -0.004264 -0.006032 0.001574 -0.002542 0.002768 0.032985
#
#
# Mechanical properties :
#
#
# Convention : Reuss Voigt Hill
#
# Bulk Modulus (GPa) = 39.44222 61.94210 50.69216
# Shear Modulus (GPa) = 29.71901 36.19317 32.95609
#
# Velocity S-wave (km/s) = 3.54954 3.91713 3.73786
# Velocity P-wave (km/s) = 5.78968 6.83511 6.33400
#
# Compressibility (1/GPa) = 0.02535354
#
# Stress axis : x y z
#
# Youngs Moduli (GPa) = 68.68049 42.10707 119.81464
#
# Poissons Ratio (x) = 0.05128 0.33012
# Poissons Ratio (y) = 0.08365 0.80009
# Poissons Ratio (z) = 0.18923 0.28118
#
# Static dielectric constant tensor:
#      x y z
#    x 1.888210 0.006450 -0.033530 
#    y 0.006450 1.933720 -0.001550 
#    z -0.033530 -0.001550 1.931490 
# 
# From -- ./inp_files/107671.got.cif
#   From: 2010.05.17/outbox.cif.g08.bks.cpg/sg2_54_cif.got.tgz:107671.got - 2010.06.03 11:33:40.
