data_PCOD9035205
_publ_section_title
;
Structure prediction by ZEFSAII (Michael W. Deem and Ramdas Pophale) SiO2 
 PCOD9035205
Probable space group: P -1
;
_chemical_formula_sum "Si O2"
_cell_formula_units_Z 12
_cell_length_a 5.255816
_cell_length_b 12.959604
_cell_length_c 9.654545
_cell_angle_alpha 114.142937
_cell_angle_beta 131.081213
_cell_angle_gamma 70.873011
_cell_volume 450.667656
_symmetry_space_group_name_H-M "P -1"
_symmetry_group_IT_number 2
_symmetry_cell_setting 'triclinic'
loop_
_space_group_symop_operation_xyz
x,y,z
-x,-y,-z
loop_
_atom_site_type_symbol
_atom_site_label
_atom_site_fract_x
_atom_site_fract_y
_atom_site_fract_z
Si Si1 0.358013 0.595897 0.160707
Si Si2 0.773209 0.357820 0.154240
Si Si3 0.246273 0.865368 0.609544
Si Si4 0.588028 0.798323 0.222499
Si Si5 0.507147 0.371716 0.483000
Si Si6 0.863365 0.989157 0.789933
O O1 0.521017 0.467899 0.155733
O O2 0.630007 0.682997 0.262609
O O3 0.260725 0.633343 0.299248
O O4 0.113393 0.616075 0.952238
O O5 0.112008 0.353301 0.360764
O O6 0.567065 0.247070 0.000679
O O7 0.366055 0.735529 0.622864
O O8 0.552311 0.911794 0.659438
O O9 0.923828 0.860870 0.390796
O O10 0.123391 0.937422 0.739944
O O11 0.296674 0.884474 0.232497
O O12 0.500000 0.500000 0.500000
O O13 0.000000 0.000000 0.000000
#
# Coordination Sequence:
#
# PCOD9035205 Si02
#       6
#     2   2   2   2   2   2
#     4   9  21  43  72 104 151 188 253 294 373 427
#     4   9  21  44  70 103 148 189 252 295 371 431
#     4  12  27  48  71 111 144 193 249 304 365 447
#     4  10  22  45  72 101 143 194 240 307 365 432
#     4  12  25  41  70 109 151 197 243 307 371 435
#     4  12  27  49  75 106 146 194 250 304 370 438
#
# _framework density 26.627161000000001
#
# number of rings (size 3 to 8) (size 9 to 14) (size 15 to 20)
#    1.000    0.333    0.000    5.000    0.000    4.667 
#    3.000    0.000    0.000    0.000    0.000    0.000 
#    0.000    0.000    0.000    0.000    0.000    0.000 
#
# Total GULP energy -67107.726025 kJ/mol
# GULP energy per Si atom -5592.310502 kJ/mol
# Density = 2.656656 g / cm^3
# Si number density = 26.627161 Si / 1000 Ang^3
#
#
#
# Elastic Constant Matrix: (Units=GPa)
#
#
# Indices 1 2 3 4 5 6 
#
# 1 65.7019 7.7796 15.0328 4.4175 -20.7224 3.3709
# 2 7.7796 85.2995 25.4453 26.7122 -15.8335 -22.2729
# 3 15.0328 25.4453 116.1584 5.8195 -11.4418 9.8039
# 4 4.4175 26.7122 5.8195 42.8626 -3.9954 -6.4298
# 5 -20.7224 -15.8335 -11.4418 -3.9954 46.9244 11.7937
# 6 3.3709 -22.2729 9.8039 -6.4298 11.7937 24.6431
#
#
#
# Elastic Compliance Matrix: (Units=1/GPa)
#
#
# Indices 1 2 3 4 5 6 
#
# 1 0.019230 -0.001871 -0.000236 -0.001252 0.010050 -0.009364
# 2 -0.001871 0.021739 -0.005808 -0.009628 -0.000772 0.020072
# 3 -0.000236 -0.005808 0.011159 0.000786 0.003523 -0.011138
# 4 -0.001252 -0.009628 0.000786 0.029147 -0.000928 -0.000794
# 5 0.010050 -0.000772 0.003523 -0.000928 0.030922 -0.018515
# 6 -0.009364 0.020072 -0.011138 -0.000794 -0.018515 0.073086
#
#
# Mechanical properties :
#
#
# Convention : Reuss Voigt Hill
#
# Bulk Modulus (GPa) = 27.54843 40.40836 33.97840
# Shear Modulus (GPa) = 23.45058 37.47950 30.46504
#
# Velocity S-wave (km/s) = 2.97088 3.75583 3.38617
# Velocity P-wave (km/s) = 4.70496 5.83240 5.29875
#
# Compressibility (1/GPa) = 0.03629970
#
# Stress axis : x y z
#
# Youngs Moduli (GPa) = 52.00130 45.99930 89.61071
#
# Poissons Ratio (x) = 0.08607 0.02113
# Poissons Ratio (y) = 0.09730 0.52044
# Poissons Ratio (z) = 0.01226 0.26715
#
# Static dielectric constant tensor:
#      x y z
#    x 2.065870 0.035620 -0.011420 
#    y 0.035620 2.088620 -0.009870 
#    z -0.011420 -0.009870 2.091930 
# 
# From -- ./inp_files/365880.got.cif
#   From: 2010.05.17/outbox.cif.g08.bks.cpg/sg2_183_cif.got.tgz:365880.got - 2010.06.03 11:33:40.
