data_PCOD9035843
_publ_section_title
;
Structure prediction by ZEFSAII (Michael W. Deem and Ramdas Pophale) SiO2 
 PCOD9035843
Probable space group: P -1
;
_chemical_formula_sum "Si O2"
_cell_formula_units_Z 12
_cell_length_a 8.464601
_cell_length_b 5.170509
_cell_length_c 18.672788
_cell_angle_alpha 116.582577
_cell_angle_beta 141.332783
_cell_angle_gamma 79.368778
_cell_volume 436.291176
_symmetry_space_group_name_H-M "P -1"
_symmetry_group_IT_number 2
_symmetry_cell_setting 'triclinic'
loop_
_space_group_symop_operation_xyz
x,y,z
-x,-y,-z
loop_
_atom_site_type_symbol
_atom_site_label
_atom_site_fract_x
_atom_site_fract_y
_atom_site_fract_z
Si Si1 0.560741 0.366648 0.079066
Si Si2 0.621304 0.184483 0.289821
Si Si3 0.743223 0.895882 0.720385
Si Si4 0.830845 0.295350 0.658137
Si Si5 0.203512 0.068669 0.016023
Si Si6 0.172889 0.162613 0.514834
O O1 0.349876 0.384629 0.067727
O O2 0.858738 0.536944 0.228409
O O3 0.500000 0.500000 0.000000
O O4 0.500000 0.000000 0.000000
O O5 0.471739 0.040535 0.292652
O O6 0.460237 0.032327 0.144488
O O7 0.930605 0.226113 0.391976
O O8 0.624264 0.530729 0.347492
O O9 0.675905 0.545713 0.630967
O O10 0.821969 0.129198 0.711272
O O11 0.002037 0.910795 0.862592
O O12 0.726148 0.053730 0.527906
O O13 0.000000 0.000000 0.000000
O O14 0.000000 0.000000 0.500000
#
# Coordination Sequence:
#
# PCOD9035843 Si02
#       6
#     2   2   2   2   2   2
#     4  12  23  42  69 104 148 189 236 297 364 439
#     4  10  26  49  72 103 150 197 245 299 366 437
#     4  11  26  48  73 116 145 187 241 309 373 435
#     4  12  26  45  76 106 149 189 247 301 369 433
#     4  10  22  46  73 108 149 190 238 304 371 440
#     4  11  27  48  74 101 143 200 252 295 360 440
#
# _framework density 27.504564999999999
#
# number of rings (size 3 to 8) (size 9 to 14) (size 15 to 20)
#    0.000    1.000    3.333    1.000   11.667    1.333 
#    3.000    3.333    0.000    0.000    0.000    0.000 
#    0.000    0.000    0.000    0.000    0.000    0.000 
#
# Total GULP energy -67075.277289 kJ/mol
# GULP energy per Si atom -5589.606441 kJ/mol
# Density = 2.744196 g / cm^3
# Si number density = 27.504565 Si / 1000 Ang^3
#
#
#
# Elastic Constant Matrix: (Units=GPa)
#
#
# Indices 1 2 3 4 5 6 
#
# 1 140.2343 39.0273 32.9005 10.7525 -8.9824 28.8815
# 2 39.0273 151.8659 31.2949 16.7173 -21.6850 19.1394
# 3 32.9005 31.2949 141.7301 4.2835 -15.3785 -0.4419
# 4 10.7525 16.7173 4.2835 29.1262 13.2452 0.7761
# 5 -8.9824 -21.6850 -15.3785 13.2452 43.2911 -6.1514
# 6 28.8815 19.1394 -0.4419 0.7761 -6.1514 63.2236
#
#
#
# Elastic Compliance Matrix: (Units=1/GPa)
#
#
# Indices 1 2 3 4 5 6 
#
# 1 0.008823 -0.001007 -0.001631 -0.002847 0.001108 -0.003595
# 2 -0.001007 0.008860 -0.000867 -0.007232 0.005911 -0.001564
# 3 -0.001631 -0.000867 0.007956 -0.001308 0.002644 0.001336
# 4 -0.002847 -0.007232 -0.001308 0.048514 -0.019379 0.001000
# 5 0.001108 0.005911 0.002644 -0.019379 0.033330 0.001204
# 6 -0.003595 -0.001564 0.001336 0.001000 0.001204 0.018047
#
#
# Mechanical properties :
#
#
# Convention : Reuss Voigt Hill
#
# Bulk Modulus (GPa) = 53.67961 71.14175 62.41068
# Shear Modulus (GPa) = 36.03617 49.16867 42.60242
#
# Velocity S-wave (km/s) = 3.62358 4.23265 3.93990
# Velocity P-wave (km/s) = 6.08819 7.05753 6.59071
#
# Compressibility (1/GPa) = 0.01862905
#
# Stress axis : x y z
#
# Youngs Moduli (GPa) = 113.33627 112.87206 125.68629
#
# Poissons Ratio (x) = 0.11364 0.20498
# Poissons Ratio (y) = 0.11411 0.10902
# Poissons Ratio (z) = 0.18484 0.09791
#
# Static dielectric constant tensor:
#      x y z
#    x 2.197110 -0.143870 -0.001710 
#    y -0.143870 2.292640 -0.066080 
#    z -0.001710 -0.066080 2.185070 
# 
# From -- ./inp_files/548770.got.cif
#   From: 2010.05.17/outbox.cif.g08.bks.cpg/sg2_275_cif.got.tgz:548770.got - 2010.06.03 11:33:40.
