data_PCOD9035572
_publ_section_title
;
Structure prediction by ZEFSAII (Michael W. Deem and Ramdas Pophale) SiO2 
 PCOD9035572
Probable space group: P -1
;
_chemical_formula_sum "Si O2"
_cell_formula_units_Z 15
_cell_length_a 21.222924
_cell_length_b 13.750162
_cell_length_c 4.910062
_cell_angle_alpha 94.992646
_cell_angle_beta 76.235682
_cell_angle_gamma 29.768640
_cell_volume 548.201229
_symmetry_space_group_name_H-M "P -1"
_symmetry_group_IT_number 2
_symmetry_cell_setting 'triclinic'
loop_
_space_group_symop_operation_xyz
x,y,z
-x,-y,-z
loop_
_atom_site_type_symbol
_atom_site_label
_atom_site_fract_x
_atom_site_fract_y
_atom_site_fract_z
Si Si1 0.071140 0.627848 0.142414
Si Si2 0.368219 0.605700 0.566589
Si Si3 0.040597 0.049801 0.276103
Si Si4 0.736054 0.382651 0.711213
Si Si5 0.513760 0.203276 0.563153
Si Si6 0.500000 0.000000 0.500000
Si Si7 0.752497 0.689163 0.638333
Si Si8 0.853830 0.749271 0.381095
O O1 0.239628 0.367991 0.079856
O O2 0.012823 0.807576 0.383737
O O3 0.931227 0.743102 0.398720
O O4 0.115852 0.548711 0.759606
O O5 0.500000 0.500000 0.500000
O O6 0.343387 0.611893 0.279551
O O7 0.434239 0.406080 0.538435
O O8 0.186180 0.893839 0.907643
O O9 0.872811 0.246337 0.351479
O O10 0.143836 0.814600 0.217763
O O11 0.596451 0.646262 0.014051
O O12 0.494879 0.124662 0.429410
O O13 0.696881 0.979082 0.406165
O O14 0.402283 0.099247 0.345634
O O15 0.804644 0.730483 0.632274
O O16 0.000000 0.500000 0.000000
#
# Coordination Sequence:
#
# PCOD9035572 Si02
#       8
#     2   2   2   2   2   1   2   2
#     4  11  23  39  68  95 135 177 239 284 364 423
#     4  11  26  41  68 102 142 185 228 300 362 434
#     4  10  24  41  69  95 135 185 233 293 350 440
#     4  10  23  45  65  98 136 180 240 289 363 426
#     4  10  23  44  68  99 139 182 237 298 357 433
#     4  10  22  46  68  96 138 182 242 292 368 420
#     4  10  23  41  63  99 133 182 231 299 352 431
#     4   9  21  42  62  94 136 181 231 295 357 430
#
# _framework density 27.362217999999999
#
# number of rings (size 3 to 8) (size 9 to 14) (size 15 to 20)
#    0.000    1.867    0.000    1.600    7.467    2.667 
#   14.400    0.000    0.000    0.000    0.000    0.000 
#    0.000    0.000    0.000    0.000    0.000    0.000 
#
# Total GULP energy -83645.203735 kJ/mol
# GULP energy per Si atom -5576.346916 kJ/mol
# Density = 2.729994 g / cm^3
# Si number density = 27.362218 Si / 1000 Ang^3
#
#
#
# Elastic Constant Matrix: (Units=GPa)
#
#
# Indices 1 2 3 4 5 6 
#
# 1 219.9484 26.3033 20.6119 10.1241 22.5037 -26.2950
# 2 26.3033 84.5791 24.4795 7.9944 6.6449 -13.8031
# 3 20.6119 24.4795 93.5527 10.8533 22.6580 -10.4471
# 4 10.1241 7.9944 10.8533 55.8371 0.0095 -6.3099
# 5 22.5037 6.6449 22.6580 0.0095 43.9238 13.0801
# 6 -26.2950 -13.8031 -10.4471 -6.3099 13.0801 53.3419
#
#
#
# Elastic Compliance Matrix: (Units=1/GPa)
#
#
# Indices 1 2 3 4 5 6 
#
# 1 0.005448 -0.000900 0.000425 -0.000554 -0.003894 0.003425
# 2 -0.000900 0.013479 -0.002686 -0.000945 -0.000980 0.002647
# 3 0.000425 -0.002686 0.013965 -0.001950 -0.008216 0.004034
# 4 -0.000554 -0.000945 -0.001950 0.018640 0.001122 0.001030
# 5 -0.003894 -0.000980 -0.008216 0.001122 0.032617 -0.011648
# 6 0.003425 0.002647 0.004034 0.001030 -0.011648 0.024888
#
#
# Mechanical properties :
#
#
# Convention : Reuss Voigt Hill
#
# Bulk Modulus (GPa) = 37.63688 60.09663 48.86676
# Shear Modulus (GPa) = 40.25286 52.39960 46.32623
#
# Velocity S-wave (km/s) = 3.83967 4.38086 4.11916
# Velocity P-wave (km/s) = 5.78293 6.89930 6.36563
#
# Compressibility (1/GPa) = 0.02656968
#
# Stress axis : x y z
#
# Youngs Moduli (GPa) = 183.56365 74.19029 71.60856
#
# Poissons Ratio (x) = 0.06677 -0.03044
# Poissons Ratio (y) = 0.16520 0.19234
# Poissons Ratio (z) = -0.07803 0.19927
#
# Static dielectric constant tensor:
#      x y z
#    x 2.390310 0.006260 -0.184710 
#    y 0.006260 2.327030 -0.272560 
#    z -0.184710 -0.272560 2.115690 
# 
# From -- ./inp_files/119335.got.cif
#   From: 2010.05.17/outbox.cif.g08.bks.cpg/sg2_60_cif.got.tgz:119335.got - 2010.06.03 11:33:40.
