data_PCOD9035365
_publ_section_title
;
Structure prediction by ZEFSAII (Michael W. Deem and Ramdas Pophale) SiO2 
 PCOD9035365
Probable space group: P -1
;
_chemical_formula_sum "Si O2"
_cell_formula_units_Z 12
_cell_length_a 14.931400
_cell_length_b 6.715383
_cell_length_c 14.670383
_cell_angle_alpha 135.556659
_cell_angle_beta 150.482968
_cell_angle_gamma 57.634327
_cell_volume 491.456716
_symmetry_space_group_name_H-M "P -1"
_symmetry_group_IT_number 2
_symmetry_cell_setting 'triclinic'
loop_
_space_group_symop_operation_xyz
x,y,z
-x,-y,-z
loop_
_atom_site_type_symbol
_atom_site_label
_atom_site_fract_x
_atom_site_fract_y
_atom_site_fract_z
Si Si1 0.644528 0.844807 0.747060
Si Si2 0.635683 0.846090 0.473518
Si Si3 0.544504 0.826482 0.864695
Si Si4 0.138547 0.631538 0.248641
Si Si5 0.968600 0.678596 0.767309
Si Si6 0.175850 0.875379 0.642993
O O1 0.578007 0.833851 0.789643
O O2 0.699912 0.544709 0.674957
O O3 0.511802 0.954327 0.592699
O O4 0.837150 0.097008 0.000018
O O5 0.514187 0.508834 0.257275
O O6 0.803230 0.844246 0.691951
O O7 0.769372 0.022765 0.567804
O O8 0.362424 0.949646 0.767560
O O9 0.729909 0.008339 0.139723
O O10 0.035888 0.536439 0.221553
O O11 0.000000 0.500000 0.000000
O O12 0.903044 0.473327 0.554643
O O13 0.000000 0.000000 0.500000
#
# Coordination Sequence:
#
# PCOD9035365 Si02
#       6
#     2   2   2   2   2   2
#     4  12  26  43  73 103 142 184 224 287 342 411
#     4  11  24  44  70  98 139 179 228 283 337 410
#     4  10  25  45  68 110 135 176 237 277 349 407
#     4  12  27  46  70 102 141 185 231 284 343 411
#     4  11  26  47  68 104 138 184 234 279 347 407
#     4  10  22  45  74  96 141 182 225 290 337 412
#
# _framework density 24.417207000000001
#
# number of rings (size 3 to 8) (size 9 to 14) (size 15 to 20)
#    0.000    1.000    1.667    4.000    4.667    3.333 
#    0.000   20.833    0.000    0.000    0.000    0.000 
#    0.000    0.000    0.000    0.000    0.000    0.000 
#
# Total GULP energy -67045.939354 kJ/mol
# GULP energy per Si atom -5587.161613 kJ/mol
# Density = 2.436163 g / cm^3
# Si number density = 24.417207 Si / 1000 Ang^3
#
#
#
# Elastic Constant Matrix: (Units=GPa)
#
#
# Indices 1 2 3 4 5 6 
#
# 1 107.9331 61.9256 54.7505 1.9229 -5.8496 13.2188
# 2 61.9256 152.9014 67.4832 -12.9539 10.3969 10.4459
# 3 54.7505 67.4832 179.1518 -7.9395 -4.3710 21.3340
# 4 1.9229 -12.9539 -7.9395 48.5037 -3.5451 15.0096
# 5 -5.8496 10.3969 -4.3710 -3.5451 28.8925 -13.4014
# 6 13.2188 10.4459 21.3340 15.0096 -13.4014 37.3545
#
#
#
# Elastic Compliance Matrix: (Units=1/GPa)
#
#
# Indices 1 2 3 4 5 6 
#
# 1 0.013460 -0.004889 -0.002275 -0.001956 0.003949 0.000106
# 2 -0.004889 0.010347 -0.001981 0.003290 -0.006283 -0.003608
# 3 -0.002275 -0.001981 0.007559 0.001962 -0.000121 -0.003790
# 4 -0.001956 0.003290 0.001962 0.025664 -0.004250 -0.013186
# 5 0.003949 -0.006283 -0.000121 -0.004250 0.045733 0.018543
# 6 0.000106 -0.003608 -0.003790 -0.013186 0.018543 0.041857
#
#
# Mechanical properties :
#
#
# Convention : Reuss Voigt Hill
#
# Bulk Modulus (GPa) = 76.47811 89.81167 83.14489
# Shear Modulus (GPa) = 29.89219 40.00526 34.94873
#
# Velocity S-wave (km/s) = 3.50269 4.05211 3.78738
# Velocity P-wave (km/s) = 6.90998 7.66517 7.29735
#
# Compressibility (1/GPa) = 0.01307564
#
# Stress axis : x y z
#
# Youngs Moduli (GPa) = 74.29593 96.64655 132.29765
#
# Poissons Ratio (x) = 0.47247 0.30096
# Poissons Ratio (y) = 0.36321 0.26213
# Poissons Ratio (z) = 0.16901 0.19149
#
# Static dielectric constant tensor:
#      x y z
#    x 2.026650 -0.040750 0.029230 
#    y -0.040750 1.965320 -0.017340 
#    z 0.029230 -0.017340 1.994250 
# 
# From -- ./inp_files/86108.got.cif
#   From: 2010.05.17/outbox.cif.g08.bks.cpg/sg2_44_cif.got.tgz:86108.got - 2010.06.03 11:33:40.
