data_PCOD9035554
_publ_section_title
;
Structure prediction by ZEFSAII (Michael W. Deem and Ramdas Pophale) SiO2 
 PCOD9035554
Probable space group: P -1
;
_chemical_formula_sum "Si O2"
_cell_formula_units_Z 13
_cell_length_a 14.393785
_cell_length_b 5.062073
_cell_length_c 8.183883
_cell_angle_alpha 116.043190
_cell_angle_beta 111.768125
_cell_angle_gamma 62.091615
_cell_volume 463.061117
_symmetry_space_group_name_H-M "P -1"
_symmetry_group_IT_number 2
_symmetry_cell_setting 'triclinic'
loop_
_space_group_symop_operation_xyz
x,y,z
-x,-y,-z
loop_
_atom_site_type_symbol
_atom_site_label
_atom_site_fract_x
_atom_site_fract_y
_atom_site_fract_z
Si Si1 0.604701 0.273367 0.690997
Si Si2 0.500000 0.000000 0.000000
Si Si3 0.938845 0.598159 0.156178
Si Si4 0.976761 0.855804 0.640246
Si Si5 0.243200 0.641565 0.435472
Si Si6 0.605818 0.679731 0.318402
Si Si7 0.274653 0.116120 0.075224
O O1 0.646374 0.399592 0.597396
O O2 0.487845 0.465410 0.744212
O O3 0.600329 0.952174 0.520941
O O4 0.689557 0.198000 0.873913
O O5 0.390324 0.087103 0.070764
O O6 0.576951 0.828501 0.163717
O O7 0.969109 0.268514 0.182534
O O8 0.812646 0.776532 0.092897
O O9 0.977724 0.879477 0.320315
O O10 0.000000 0.500000 0.000000
O O11 0.000000 0.500000 0.500000
O O12 0.848428 0.034102 0.585981
O O13 0.277256 0.573583 0.627660
O O14 0.216721 0.372439 0.249879
#
# Coordination Sequence:
#
# PCOD9035554 Si02
#       7
#     2   1   2   2   2   2   2
#     4   9  19  39  68 101 143 191 259 308 391 462
#     4  10  22  46  68 110 162 194 254 318 402 466
#     4  12  25  51  82 118 150 213 272 331 393 468
#     4  12  29  50  77 117 162 204 268 331 405 466
#     4  11  22  42  75 104 146 203 263 319 392 466
#     4   9  20  39  66 104 145 198 249 318 383 475
#     4  10  23  42  75 110 149 202 256 327 382 475
#
# _framework density 28.074045999999999
#
# number of rings (size 3 to 8) (size 9 to 14) (size 15 to 20)
#    0.000    1.538    1.538    3.231    4.308    1.231 
#    2.769    6.923    3.385    0.000    0.000    0.000 
#    0.000    0.000    0.000    0.000    0.000    0.000 
#
# Total GULP energy -72407.553284 kJ/mol
# GULP energy per Si atom -5569.811791 kJ/mol
# Density = 2.801015 g / cm^3
# Si number density = 28.074046 Si / 1000 Ang^3
#
#
#
# Elastic Constant Matrix: (Units=GPa)
#
#
# Indices 1 2 3 4 5 6 
#
# 1 65.0658 34.7010 28.9769 -7.5705 2.4714 -1.8180
# 2 34.7010 208.0408 82.8380 -28.3703 1.1658 -18.8631
# 3 28.9769 82.8380 96.4646 -33.9129 14.8290 -32.6777
# 4 -7.5705 -28.3703 -33.9129 66.5041 -5.3657 -7.2547
# 5 2.4714 1.1658 14.8290 -5.3657 35.7872 -3.3666
# 6 -1.8180 -18.8631 -32.6777 -7.2547 -3.3666 53.6722
#
#
#
# Elastic Compliance Matrix: (Units=1/GPa)
#
#
# Indices 1 2 3 4 5 6 
#
# 1 0.018676 -0.000948 -0.007274 -0.002387 0.000984 -0.004390
# 2 -0.000948 0.007733 -0.007668 -0.000709 0.002705 -0.001909
# 3 -0.007274 -0.007668 0.030602 0.012666 -0.008442 0.016873
# 4 -0.002387 -0.000709 0.012666 0.021981 -0.000795 0.010303
# 5 0.000984 0.002705 -0.008442 -0.000795 0.030947 -0.002322
# 6 -0.004390 -0.001909 0.016873 0.010303 -0.002322 0.029332
#
#
# Mechanical properties :
#
#
# Convention : Reuss Voigt Hill
#
# Bulk Modulus (GPa) = 39.63057 73.62254 56.62656
# Shear Modulus (GPa) = 27.86125 46.06307 36.96216
#
# Velocity S-wave (km/s) = 3.15369 4.05504 3.63243
# Velocity P-wave (km/s) = 5.23527 6.94304 6.14873
#
# Compressibility (1/GPa) = 0.02523305
#
# Stress axis : x y z
#
# Youngs Moduli (GPa) = 53.54420 129.31511 32.67745
#
# Poissons Ratio (x) = 0.12259 0.23768
# Poissons Ratio (y) = 0.05076 0.25056
# Poissons Ratio (z) = 0.38946 0.99153
#
# Static dielectric constant tensor:
#      x y z
#    x 2.273500 0.153370 0.203720 
#    y 0.153370 2.422860 0.044890 
#    z 0.203720 0.044890 2.797370 
# 
# From -- ./inp_files/287384.got.cif
#   From: 2010.05.17/outbox.cif.g08.bks.cpg/sg2_144_cif.got.tgz:287384.got - 2010.06.03 11:33:40.
