data_PCOD9035072
_publ_section_title
;
Structure prediction by ZEFSAII (Michael W. Deem and Ramdas Pophale) SiO2 
 PCOD9035072
Probable space group: P -1
;
_chemical_formula_sum "Si O2"
_cell_formula_units_Z 13
_cell_length_a 11.954111
_cell_length_b 8.520872
_cell_length_c 10.662626
_cell_angle_alpha 96.676353
_cell_angle_beta 46.907903
_cell_angle_gamma 67.236901
_cell_volume 603.328207
_symmetry_space_group_name_H-M "P -1"
_symmetry_group_IT_number 2
_symmetry_cell_setting 'triclinic'
loop_
_space_group_symop_operation_xyz
x,y,z
-x,-y,-z
loop_
_atom_site_type_symbol
_atom_site_label
_atom_site_fract_x
_atom_site_fract_y
_atom_site_fract_z
Si Si1 0.278804 0.711332 0.678348
Si Si2 0.759322 0.964745 0.684650
Si Si3 0.029776 0.953288 0.665229
Si Si4 0.300896 0.074736 0.731005
Si Si5 0.000000 0.500000 0.500000
Si Si6 0.098968 0.661699 0.046478
Si Si7 0.702835 0.740720 0.993898
O O1 0.500000 0.500000 0.500000
O O2 0.169202 0.763318 0.634641
O O3 0.281771 0.897634 0.718343
O O4 0.161363 0.690227 0.868513
O O5 0.857832 0.962456 0.737039
O O6 0.875513 0.725312 0.544184
O O7 0.521816 0.106573 0.874773
O O8 0.825203 0.059925 0.547600
O O9 0.928034 0.166925 0.831733
O O10 0.287890 0.131575 0.892373
O O11 0.117243 0.270351 0.810098
O O12 0.500000 0.000000 0.500000
O O13 0.142424 0.373641 0.251107
O O14 0.254773 0.442312 0.970554
#
# Coordination Sequence:
#
# PCOD9035072 Si02
#       7
#     2   2   2   2   1   2   2
#     4  11  24  43  71 108 137 184 234 292 362 423
#     4  11  25  47  69  99 138 192 231 298 342 421
#     4  10  22  45  70  97 140 176 241 285 350 423
#     4  11  24  43  75 106 144 185 229 300 360 417
#     4  12  28  46  66 104 142 194 238 288 348 422
#     4  11  23  46  69 103 138 185 234 296 355 422
#     4  12  26  47  72 103 147 185 241 288 362 419
#
# _framework density 21.547143999999999
#
# number of rings (size 3 to 8) (size 9 to 14) (size 15 to 20)
#    0.000    0.923    1.538    6.462    4.308    1.846 
#    2.769    0.000    0.000    0.000    0.000    0.000 
#    0.000    0.000    0.000    0.000    0.000    0.000 
#
# Total GULP energy -72390.352477 kJ/mol
# GULP energy per Si atom -5568.488652 kJ/mol
# Density = 2.149810 g / cm^3
# Si number density = 21.547144 Si / 1000 Ang^3
#
#
#
# Elastic Constant Matrix: (Units=GPa)
#
#
# Indices 1 2 3 4 5 6 
#
# 1 133.7564 62.9900 70.1837 23.6472 -3.6515 -39.5406
# 2 62.9900 121.8105 42.6797 6.1277 -5.9200 -24.5999
# 3 70.1837 42.6797 121.3272 13.4835 4.2224 -15.5531
# 4 23.6472 6.1277 13.4835 46.4041 -8.6475 -2.8214
# 5 -3.6515 -5.9200 4.2224 -8.6475 25.5959 -2.8636
# 6 -39.5406 -24.5999 -15.5531 -2.8214 -2.8636 23.4093
#
#
#
# Elastic Compliance Matrix: (Units=1/GPa)
#
#
# Indices 1 2 3 4 5 6 
#
# 1 0.023557 -0.002271 -0.008237 -0.006327 0.005621 0.031856
# 2 -0.002271 0.011858 -0.002156 0.001471 0.004152 0.007878
# 3 -0.008237 -0.002156 0.012958 -0.000713 -0.004977 -0.008263
# 4 -0.006327 0.001471 -0.000713 0.025880 0.007677 -0.005557
# 5 0.005621 0.004152 -0.004977 0.007677 0.046161 0.017123
# 6 0.031856 0.007878 -0.008263 -0.005557 0.017123 0.100740
#
#
# Mechanical properties :
#
#
# Convention : Reuss Voigt Hill
#
# Bulk Modulus (GPa) = 43.39072 80.95567 62.17320
# Shear Modulus (GPa) = 19.67247 32.48456 26.07852
#
# Velocity S-wave (km/s) = 3.02486 3.88700 3.48271
# Velocity P-wave (km/s) = 5.69043 7.60250 6.71487
#
# Compressibility (1/GPa) = 0.02304640
#
# Stress axis : x y z
#
# Youngs Moduli (GPa) = 42.45076 84.33174 77.17013
#
# Poissons Ratio (x) = 0.19150 0.63564
# Poissons Ratio (y) = 0.09639 0.16636
# Poissons Ratio (z) = 0.34966 0.18180
#
# Static dielectric constant tensor:
#      x y z
#    x 1.951680 -0.130120 -0.353640 
#    y -0.130120 1.891860 0.272520 
#    z -0.353640 0.272520 2.640450 
# 
# From -- ./inp_files/238829.got.cif
#   From: 2010.05.17/outbox.cif.g08.bks.cpg/sg2_120_cif.got.tgz:238829.got - 2010.06.03 11:33:40.
