data_PCOD9035122
_publ_section_title
;
Structure prediction by ZEFSAII (Michael W. Deem and Ramdas Pophale) SiO2 
 PCOD9035122
Probable space group: P -1
;
_chemical_formula_sum "Si O2"
_cell_formula_units_Z 15
_cell_length_a 11.331102
_cell_length_b 21.753489
_cell_length_c 7.484526
_cell_angle_alpha 146.217152
_cell_angle_beta 127.843938
_cell_angle_gamma 35.738911
_cell_volume 588.475484
_symmetry_space_group_name_H-M "P -1"
_symmetry_group_IT_number 2
_symmetry_cell_setting 'triclinic'
loop_
_space_group_symop_operation_xyz
x,y,z
-x,-y,-z
loop_
_atom_site_type_symbol
_atom_site_label
_atom_site_fract_x
_atom_site_fract_y
_atom_site_fract_z
Si Si1 0.835718 0.503756 0.448282
Si Si2 0.513105 0.064835 0.412919
Si Si3 0.299692 0.647052 0.568744
Si Si4 0.158346 0.942939 0.347995
Si Si5 0.031541 0.355015 0.629395
Si Si6 0.765385 0.212719 0.515019
Si Si7 0.488958 0.851640 0.995013
Si Si8 0.500000 0.500000 0.000000
O O1 0.000000 0.500000 0.500000
O O2 0.951253 0.381861 0.418448
O O3 0.667773 0.675207 0.782199
O O4 0.701253 0.489215 0.172273
O O5 0.650212 0.080980 0.470485
O O6 0.270193 0.203821 0.501783
O O7 0.572352 0.065803 0.674172
O O8 0.560668 0.911115 0.071625
O O9 0.500000 0.500000 0.500000
O O10 0.351037 0.650648 0.415629
O O11 0.116259 0.651706 0.413387
O O12 0.225946 0.800309 0.957172
O O13 0.000000 0.000000 0.500000
O O14 0.006933 0.095080 0.451527
O O15 0.000000 0.500000 0.000000
O O16 0.643767 0.332692 0.849127
O O17 0.696427 0.124453 0.200130
#
# Coordination Sequence:
#
# PCOD9035122 Si02
#       8
#     2   2   2   2   2   2   2   1
#     4  11  26  47  73 107 152 193 252 308 388 445
#     4  11  24  43  74 105 148 189 247 306 379 446
#     4  12  26  47  77 106 150 195 255 315 375 463
#     4  12  29  46  73 111 152 197 257 318 383 456
#     4  12  26  45  73 112 147 193 254 314 374 455
#     4  11  25  47  74 103 147 198 256 303 391 444
#     4  10  22  45  71 105 138 193 245 302 371 464
#     4  10  26  44  76 108 144 202 250 312 372 466
#
# _framework density 25.489594
#
# number of rings (size 3 to 8) (size 9 to 14) (size 15 to 20)
#    0.000    0.800    2.667    3.600   11.200    2.133 
#    0.000    2.000    0.000    0.000    0.000    0.000 
#    0.000    0.000    0.000    0.000    0.000    0.000 
#
# Total GULP energy -83837.702210 kJ/mol
# GULP energy per Si atom -5589.180147 kJ/mol
# Density = 2.543158 g / cm^3
# Si number density = 25.489594 Si / 1000 Ang^3
#
#
#
# Elastic Constant Matrix: (Units=GPa)
#
#
# Indices 1 2 3 4 5 6 
#
# 1 151.6100 39.8993 36.6390 -22.6871 24.8152 -25.5071
# 2 39.8993 144.5499 51.9532 6.4879 10.6094 -34.3754
# 3 36.6390 51.9532 138.9970 -4.7804 19.5868 -13.9692
# 4 -22.6871 6.4879 -4.7804 38.1395 -8.6262 10.9454
# 5 24.8152 10.6094 19.5868 -8.6262 46.1905 -11.0980
# 6 -25.5071 -34.3754 -13.9692 10.9454 -11.0980 46.2876
#
#
#
# Elastic Compliance Matrix: (Units=1/GPa)
#
#
# Indices 1 2 3 4 5 6 
#
# 1 0.008596 -0.001637 -0.000974 0.004211 -0.002660 0.001593
# 2 -0.001637 0.010332 -0.002957 -0.005045 0.000549 0.007203
# 3 -0.000974 -0.002957 0.008866 0.000683 -0.002634 -0.000850
# 4 0.004211 -0.005045 0.000683 0.032662 0.002714 -0.008293
# 5 -0.002660 0.000549 -0.002634 0.002714 0.025442 0.003606
# 6 0.001593 0.007203 -0.000850 -0.008293 0.003606 0.030400
#
#
# Mechanical properties :
#
#
# Convention : Reuss Voigt Hill
#
# Bulk Modulus (GPa) = 60.03844 76.90443 68.47143
# Shear Modulus (GPa) = 37.59784 46.56789 42.08287
#
# Velocity S-wave (km/s) = 3.84477 4.27891 4.06764
# Velocity P-wave (km/s) = 6.58141 7.39246 6.99869
#
# Compressibility (1/GPa) = 0.01665600
#
# Stress axis : x y z
#
# Youngs Moduli (GPa) = 116.33767 96.78784 112.79549
#
# Poissons Ratio (x) = 0.15848 0.10987
# Poissons Ratio (y) = 0.19049 0.33355
# Poissons Ratio (z) = 0.11332 0.28621
#
# Static dielectric constant tensor:
#      x y z
#    x 2.172630 0.085720 -0.070110 
#    y 0.085720 2.125540 0.075190 
#    z -0.070110 0.075190 2.199720 
# 
# From -- ./inp_files/270133.got.cif
#   From: 2010.05.17/outbox.cif.g08.bks.cpg/sg2_136_cif.got.tgz:270133.got - 2010.06.03 11:33:40.
