data_PCOD9035409
_publ_section_title
;
Structure prediction by ZEFSAII (Michael W. Deem and Ramdas Pophale) SiO2 
 PCOD9035409
Probable space group: P -1
;
_chemical_formula_sum "Si O2"
_cell_formula_units_Z 12
_cell_length_a 9.640463
_cell_length_b 11.749207
_cell_length_c 9.171348
_cell_angle_alpha 57.191918
_cell_angle_beta 103.170255
_cell_angle_gamma 142.318970
_cell_volume 491.178304
_symmetry_space_group_name_H-M "P -1"
_symmetry_group_IT_number 2
_symmetry_cell_setting 'triclinic'
loop_
_space_group_symop_operation_xyz
x,y,z
-x,-y,-z
loop_
_atom_site_type_symbol
_atom_site_label
_atom_site_fract_x
_atom_site_fract_y
_atom_site_fract_z
Si Si1 0.130360 0.507726 0.643694
Si Si2 0.561715 0.490805 0.253920
Si Si3 0.173684 0.725900 0.776396
Si Si4 0.077288 0.198512 0.463751
Si Si5 0.730913 0.847337 0.866333
Si Si6 0.398220 0.991933 0.123992
O O1 0.334208 0.560447 0.606512
O O2 0.214810 0.665517 0.686901
O O3 0.000000 0.500000 0.500000
O O4 0.891593 0.236793 0.819403
O O5 0.370224 0.423916 0.354107
O O6 0.424266 0.325000 0.191390
O O7 0.762485 0.746166 0.052762
O O8 0.039791 0.759969 0.669535
O O9 0.440709 0.962166 0.746934
O O10 0.000000 0.500000 0.000000
O O11 0.000000 0.000000 0.500000
O O12 0.967746 0.097903 0.670194
O O13 0.573116 0.833919 0.929181
O O14 0.500000 0.000000 0.000000
#
# Coordination Sequence:
#
# PCOD9035409 Si02
#       6
#     2   2   2   2   2   2
#     4  12  28  46  73 115 150 202 256 312 390 459
#     4  10  23  46  76 109 153 201 250 318 393 454
#     4  12  25  49  77 107 162 201 253 325 379 456
#     4  10  24  42  78 113 140 206 257 306 393 451
#     4  10  22  45  76 110 149 201 253 319 387 446
#     4  12  26  44  75 113 146 202 260 304 382 464
#
# _framework density 24.431045999999998
#
# number of rings (size 3 to 8) (size 9 to 14) (size 15 to 20)
#    0.000    1.000    3.333    2.000    9.333    2.000 
#    0.000    5.000    0.000    0.000    0.000    0.000 
#    0.000    0.000    0.000    0.000    0.000    0.000 
#
# Total GULP energy -67003.061788 kJ/mol
# GULP energy per Si atom -5583.588482 kJ/mol
# Density = 2.437544 g / cm^3
# Si number density = 24.431046 Si / 1000 Ang^3
#
#
#
# Elastic Constant Matrix: (Units=GPa)
#
#
# Indices 1 2 3 4 5 6 
#
# 1 204.6394 29.4203 77.5801 10.5357 13.6698 16.8233
# 2 29.4203 92.7414 19.6859 21.1757 -7.6024 -5.7545
# 3 77.5801 19.6859 134.9014 2.8692 10.4032 -3.7014
# 4 10.5357 21.1757 2.8692 32.2449 -1.0719 -2.4383
# 5 13.6698 -7.6024 10.4032 -1.0719 43.0499 12.3964
# 6 16.8233 -5.7545 -3.7014 -2.4383 12.3964 36.4670
#
#
#
# Elastic Compliance Matrix: (Units=1/GPa)
#
#
# Indices 1 2 3 4 5 6 
#
# 1 0.006941 -0.001354 -0.003832 -0.001336 -0.000476 -0.003732
# 2 -0.001354 0.013632 -0.001200 -0.008224 0.002568 0.001231
# 3 -0.003832 -0.001200 0.010044 0.001331 -0.002398 0.003502
# 4 -0.001336 -0.008224 0.001331 0.036869 -0.001091 0.002290
# 5 -0.000476 0.002568 -0.002398 -0.001091 0.026933 -0.008847
# 6 -0.003732 0.001231 0.003502 0.002290 -0.008847 0.032854
#
#
# Mechanical properties :
#
#
# Convention : Reuss Voigt Hill
#
# Bulk Modulus (GPa) = 56.03508 76.18386 66.10947
# Shear Modulus (GPa) = 34.24824 42.72541 38.48683
#
# Velocity S-wave (km/s) = 3.74817 4.18642 3.97334
# Velocity P-wave (km/s) = 6.45891 7.39047 6.94034
#
# Compressibility (1/GPa) = 0.01784596
#
# Stress axis : x y z
#
# Youngs Moduli (GPa) = 144.06526 73.35809 99.56168
#
# Poissons Ratio (x) = 0.09935 0.38147
# Poissons Ratio (y) = 0.19511 0.11945
# Poissons Ratio (z) = 0.55199 0.08801
#
# Static dielectric constant tensor:
#      x y z
#    x 2.229250 -0.051870 -0.081740 
#    y -0.051870 1.936910 -0.025870 
#    z -0.081740 -0.025870 2.199850 
# 
# From -- ./inp_files/185185.got.cif
#   From: 2010.05.17/outbox.cif.g08.bks.cpg/sg2_93_cif.got.tgz:185185.got - 2010.06.03 11:33:40.
