data_PCOD9035302
_publ_section_title
;
Structure prediction by ZEFSAII (Michael W. Deem and Ramdas Pophale) SiO2 
 PCOD9035302
Probable space group: P -1
;
_chemical_formula_sum "Si O2"
_cell_formula_units_Z 14
_cell_length_a 6.948186
_cell_length_b 20.260537
_cell_length_c 18.267500
_cell_angle_alpha 161.119631
_cell_angle_beta 43.597499
_cell_angle_gamma 142.264415
_cell_volume 505.508084
_symmetry_space_group_name_H-M "P -1"
_symmetry_group_IT_number 2
_symmetry_cell_setting 'triclinic'
loop_
_space_group_symop_operation_xyz
x,y,z
-x,-y,-z
loop_
_atom_site_type_symbol
_atom_site_label
_atom_site_fract_x
_atom_site_fract_y
_atom_site_fract_z
Si Si1 0.451357 0.745992 0.697935
Si Si2 0.798788 0.456699 0.138828
Si Si3 0.742443 0.223344 0.060664
Si Si4 0.509511 0.742900 0.240139
Si Si5 0.666833 0.350394 0.588396
Si Si6 0.066449 0.260572 0.259569
Si Si7 0.642982 0.082383 0.672411
O O1 0.108977 0.723889 0.749218
O O2 0.397706 0.497875 0.425989
O O3 0.702486 0.966522 0.815434
O O4 0.482280 0.778260 0.810358
O O5 0.680103 0.276008 0.050394
O O6 0.836639 0.310005 0.906834
O O7 0.143294 0.667272 0.281910
O O8 0.573313 0.564699 0.289394
O O9 0.079058 0.432547 0.207635
O O10 0.549742 0.832810 0.240380
O O11 0.749937 0.948677 0.442439
O O12 0.500000 0.500000 0.000000
O O13 0.855571 0.281439 0.404517
O O14 0.521028 0.126244 0.444638
O O15 0.000000 0.000000 0.000000
#
# Coordination Sequence:
#
# PCOD9035302 Si02
#       7
#     2   2   2   2   2   2   2
#     4   9  21  42  70 101 148 205 259 322 385 456
#     4  12  26  48  77 111 159 207 254 332 389 462
#     4  10  22  46  71 108 149 204 262 322 386 458
#     4  11  26  50  78 117 158 201 260 319 399 476
#     4  11  25  48  74 113 156 204 270 321 390 469
#     4  10  22  45  73 108 153 205 265 326 388 458
#     4  11  25  46  79 115 150 205 257 321 391 473
#
# _framework density 27.694907000000001
#
# number of rings (size 3 to 8) (size 9 to 14) (size 15 to 20)
#    0.000    1.429    1.429    2.143    0.000   10.286 
#    2.571   19.286    0.000    0.000    0.000    0.000 
#    0.000    0.000    0.000    0.000    0.000    0.000 
#
# Total GULP energy -78281.853432 kJ/mol
# GULP energy per Si atom -5591.560959 kJ/mol
# Density = 2.763187 g / cm^3
# Si number density = 27.694907 Si / 1000 Ang^3
#
#
#
# Elastic Constant Matrix: (Units=GPa)
#
#
# Indices 1 2 3 4 5 6 
#
# 1 103.2798 64.3749 75.5906 9.7353 -15.6323 -33.1311
# 2 64.3749 151.5449 63.0632 42.6127 -10.2162 -45.2402
# 3 75.5906 63.0632 226.9899 22.7668 -6.1928 -24.3801
# 4 9.7353 42.6127 22.7668 58.7770 -12.1176 -6.8363
# 5 -15.6323 -10.2162 -6.1928 -12.1176 60.7935 9.1624
# 6 -33.1311 -45.2402 -24.3801 -6.8363 9.1624 61.3755
#
#
#
# Elastic Compliance Matrix: (Units=1/GPa)
#
#
# Indices 1 2 3 4 5 6 
#
# 1 0.017463 -0.005399 -0.004205 0.003771 0.003349 0.003696
# 2 -0.005399 0.012937 -0.000415 -0.008004 -0.001730 0.005823
# 3 -0.004205 -0.000415 0.006028 -0.001531 -0.000807 -0.000232
# 4 0.003771 -0.008004 -0.001531 0.023421 0.004520 -0.002538
# 5 0.003349 -0.001730 -0.000807 0.004520 0.018139 -0.001992
# 6 0.003696 0.005823 -0.000232 -0.002538 -0.001992 0.022504
#
#
# Mechanical properties :
#
#
# Convention : Reuss Voigt Hill
#
# Bulk Modulus (GPa) = 61.01769 98.65245 79.83507
# Shear Modulus (GPa) = 39.68454 54.77493 47.22974
#
# Velocity S-wave (km/s) = 3.78950 4.45207 4.13408
# Velocity P-wave (km/s) = 6.42082 7.88203 7.18865
#
# Compressibility (1/GPa) = 0.01638869
#
# Stress axis : x y z
#
# Youngs Moduli (GPa) = 57.26447 77.29470 165.89691
#
# Poissons Ratio (x) = 0.41734 0.69762
# Poissons Ratio (y) = 0.30919 0.06889
# Poissons Ratio (z) = 0.24081 0.03210
#
# Static dielectric constant tensor:
#      x y z
#    x 2.239280 0.012510 -0.036880 
#    y 0.012510 2.233610 -0.062810 
#    z -0.036880 -0.062810 2.135550 
# 
# From -- ./inp_files/562757.got.cif
#   From: 2010.05.17/outbox.cif.g08.bks.cpg/sg2_282_cif.got.tgz:562757.got - 2010.06.03 11:33:40.
