data_PCOD9035753
_publ_section_title
;
Structure prediction by ZEFSAII (Michael W. Deem and Ramdas Pophale) SiO2 
 PCOD9035753
Probable space group: P -1
;
_chemical_formula_sum "Si O2"
_cell_formula_units_Z 16
_cell_length_a 8.312182
_cell_length_b 18.496165
_cell_length_c 17.675504
_cell_angle_alpha 24.143117
_cell_angle_beta 133.466048
_cell_angle_gamma 121.831355
_cell_volume 759.239177
_symmetry_space_group_name_H-M "P -1"
_symmetry_group_IT_number 2
_symmetry_cell_setting 'triclinic'
loop_
_space_group_symop_operation_xyz
x,y,z
-x,-y,-z
loop_
_atom_site_type_symbol
_atom_site_label
_atom_site_fract_x
_atom_site_fract_y
_atom_site_fract_z
Si Si1 0.198106 0.207048 0.998119
Si Si2 0.590647 0.881444 0.259714
Si Si3 0.798104 0.502006 0.872331
Si Si4 0.257221 0.469154 0.460142
Si Si5 0.182247 0.249498 0.771628
Si Si6 0.930315 0.816177 0.552814
Si Si7 0.696100 0.175515 0.226383
Si Si8 0.311385 0.788194 0.399816
O O1 0.208319 0.239514 0.879867
O O2 0.952522 0.351349 0.807361
O O3 0.416824 0.245201 0.070464
O O4 0.232070 0.988451 0.225185
O O5 0.716737 0.717934 0.398961
O O6 0.801719 0.919266 0.337909
O O7 0.434144 0.814667 0.334964
O O8 0.397637 0.067110 0.987805
O O9 0.889990 0.614552 0.730010
O O10 0.520965 0.633543 0.660780
O O11 0.782977 0.294538 0.077322
O O12 0.000000 0.500000 0.000000
O O13 0.500000 0.500000 0.500000
O O14 0.219603 0.427715 0.574912
O O15 0.928798 0.248306 0.662859
O O16 0.189313 0.797522 0.682512
O O17 0.781650 0.957197 0.436563
#
# Coordination Sequence:
#
# PCOD9035753 Si02
#       8
#     2   2   2   2   2   2   2   2
#     4  11  21  37  59  87 115 149 198 244 283 345
#     4  10  20  39  56  83 121 152 187 241 301 338
#     4   9  17  29  52  86 114 141 186 240 288 330
#     4  12  25  37  54  85 119 156 194 236 295 354
#     4  11  21  37  59  80 112 156 197 238 288 346
#     4   9  18  34  55  86 119 144 192 245 286 341
#     4  10  17  32  59  87 111 150 193 242 288 334
#     4  10  19  37  59  83 114 148 194 247 284 338
#
# _framework density 21.073729
#
# number of rings (size 3 to 8) (size 9 to 14) (size 15 to 20)
#    0.000    1.750    3.750    4.500    0.000    2.000 
#    0.000    0.625    0.000    0.000    0.000    6.125 
#    0.000    0.000    0.000    0.000    0.000    0.000 
#
# Total GULP energy -89092.569961 kJ/mol
# GULP energy per Si atom -5568.285623 kJ/mol
# Density = 2.102576 g / cm^3
# Si number density = 21.073729 Si / 1000 Ang^3
#
#
#
# Elastic Constant Matrix: (Units=GPa)
#
#
# Indices 1 2 3 4 5 6 
#
# 1 23.4718 29.6326 23.4632 7.9865 8.2477 12.3995
# 2 29.6326 126.9116 45.9544 36.5441 15.2542 23.8284
# 3 23.4632 45.9544 129.5614 25.3123 17.9670 5.0736
# 4 7.9865 36.5441 25.3123 45.6103 10.1310 12.6300
# 5 8.2477 15.2542 17.9670 10.1310 32.3809 -3.0814
# 6 12.3995 23.8284 5.0736 12.6300 -3.0814 29.1245
#
#
#
# Elastic Compliance Matrix: (Units=1/GPa)
#
#
# Indices 1 2 3 4 5 6 
#
# 1 0.087789 -0.012142 -0.010373 0.013412 -0.018258 -0.033383
# 2 -0.012142 0.013866 -0.001043 -0.007435 -0.000806 -0.002855
# 3 -0.010373 -0.001043 0.010784 -0.004595 -0.000909 0.005287
# 4 0.013412 -0.007435 -0.004595 0.034255 -0.009479 -0.014684
# 5 -0.018258 -0.000806 -0.000909 -0.009479 0.041004 0.017040
# 6 -0.033383 -0.002855 0.005287 -0.014684 0.017040 0.058133
#
#
# Mechanical properties :
#
#
# Convention : Reuss Voigt Hill
#
# Bulk Modulus (GPa) = 15.30842 53.11615 34.21229
# Shear Modulus (GPa) = 15.88705 33.48276 24.68491
#
# Velocity S-wave (km/s) = 2.74867 3.99035 3.42623
# Velocity P-wave (km/s) = 4.16576 6.81837 5.64994
#
# Compressibility (1/GPa) = 0.06532351
#
# Stress axis : x y z
#
# Youngs Moduli (GPa) = 11.39090 72.11876 92.73393
#
# Poissons Ratio (x) = 0.87564 0.96193
# Poissons Ratio (y) = 0.13830 0.09674
# Poissons Ratio (z) = 0.11816 0.07523
#
# Static dielectric constant tensor:
#      x y z
#    x 1.772720 -0.003230 -0.019860 
#    y -0.003230 1.849890 -0.029470 
#    z -0.019860 -0.029470 1.860110 
# 
# From -- ./inp_files/201823.got.cif
#   From: 2010.05.17/outbox.cif.g08.bks.cpg/sg2_101_cif.got.tgz:201823.got - 2010.06.03 11:33:40.
