data_PCOD9035819
_publ_section_title
;
Structure prediction by ZEFSAII (Michael W. Deem and Ramdas Pophale) SiO2 
 PCOD9035819
Probable space group: P -1
;
_chemical_formula_sum "Si O2"
_cell_formula_units_Z 16
_cell_length_a 6.113148
_cell_length_b 19.598895
_cell_length_c 5.832697
_cell_angle_alpha 82.830650
_cell_angle_beta 81.337256
_cell_angle_gamma 100.892301
_cell_volume 669.894605
_symmetry_space_group_name_H-M "P -1"
_symmetry_group_IT_number 2
_symmetry_cell_setting 'triclinic'
loop_
_space_group_symop_operation_xyz
x,y,z
-x,-y,-z
loop_
_atom_site_type_symbol
_atom_site_label
_atom_site_fract_x
_atom_site_fract_y
_atom_site_fract_z
Si Si1 0.714452 0.400994 0.617474
Si Si2 0.341816 0.171957 0.873619
Si Si3 0.349621 0.342171 0.324095
Si Si4 0.981589 0.785187 0.734121
Si Si5 0.126190 0.467023 0.194491
Si Si6 0.291276 0.019611 0.165599
Si Si7 0.300268 0.718637 0.011685
Si Si8 0.108023 0.089596 0.563488
O O1 0.485867 0.367597 0.526981
O O2 0.698203 0.468067 0.745988
O O3 0.811580 0.344845 0.779347
O O4 0.913601 0.432913 0.399819
O O5 0.585452 0.218556 0.863956
O O6 0.287536 0.150770 0.631914
O O7 0.172598 0.211366 0.016680
O O8 0.301223 0.096523 0.032532
O O9 0.148141 0.273059 0.399052
O O10 0.256097 0.403441 0.183734
O O11 0.524748 0.317125 0.138176
O O12 0.027226 0.864334 0.592582
O O13 0.182506 0.754506 0.818431
O O14 0.000000 0.500000 0.000000
O O15 0.249738 0.038496 0.434635
O O16 0.071156 0.955734 0.211748
O O17 0.500000 0.000000 0.000000
#
# Coordination Sequence:
#
# PCOD9035819 Si02
#       8
#     2   2   2   2   2   2   2   2
#     4  11  24  41  68  98 130 183 226 276 347 408
#     4  10  23  43  68 101 138 177 232 287 347 419
#     4  11  23  43  66  98 136 173 229 281 340 408
#     4  10  23  43  67  98 138 181 228 291 344 417
#     4  11  25  44  66  98 138 177 225 282 343 409
#     4  10  23  44  69 109 137 187 237 293 353 429
#     4  11  25  44  69  99 135 178 227 283 344 409
#     4  10  22  46  72  98 145 187 232 298 358 411
#
# _framework density 23.884353999999998
#
# number of rings (size 3 to 8) (size 9 to 14) (size 15 to 20)
#    0.000    1.500    0.000    3.750    1.750    8.500 
#    6.750    0.000    0.000    0.000    0.000    0.000 
#    0.000    0.000    0.000    0.000    0.000    0.000 
#
# Total GULP energy -89244.938797 kJ/mol
# GULP energy per Si atom -5577.808675 kJ/mol
# Density = 2.382999 g / cm^3
# Si number density = 23.884354 Si / 1000 Ang^3
#
#
#
# Elastic Constant Matrix: (Units=GPa)
#
#
# Indices 1 2 3 4 5 6 
#
# 1 72.4874 57.6700 22.2092 8.2076 -6.4165 -21.0274
# 2 57.6700 157.7527 35.5549 1.5098 6.5210 -6.3646
# 3 22.2092 35.5549 54.3319 -18.6014 -5.0934 -10.4970
# 4 8.2076 1.5098 -18.6014 51.6512 4.7814 2.6380
# 5 -6.4165 6.5210 -5.0934 4.7814 24.1358 2.1719
# 6 -21.0274 -6.3646 -10.4970 2.6380 2.1719 41.7582
#
#
#
# Elastic Compliance Matrix: (Units=1/GPa)
#
#
# Indices 1 2 3 4 5 6 
#
# 1 0.026919 -0.008597 -0.004871 -0.007165 0.008880 0.011011
# 2 -0.008597 0.010623 -0.004639 0.000108 -0.005834 -0.003580
# 3 -0.004871 -0.004639 0.027936 0.010492 0.003504 0.003018
# 4 -0.007165 0.000108 0.010492 0.024801 -0.004427 -0.002291
# 5 0.008880 -0.005834 0.003504 -0.004427 0.046778 0.002310
# 6 0.011011 -0.003580 0.003018 -0.002291 0.002310 0.029730
#
#
# Mechanical properties :
#
#
# Convention : Reuss Voigt Hill
#
# Bulk Modulus (GPa) = 34.17199 57.27111 45.72155
# Shear Modulus (GPa) = 23.50110 34.78492 29.14301
#
# Velocity S-wave (km/s) = 3.14021 3.82041 3.49689
# Velocity P-wave (km/s) = 5.24273 6.59479 5.95724
#
# Compressibility (1/GPa) = 0.02926373
#
# Stress axis : x y z
#
# Youngs Moduli (GPa) = 37.14816 94.13277 35.79639
#
# Poissons Ratio (x) = 0.80929 0.17436
# Poissons Ratio (y) = 0.31938 0.16607
# Poissons Ratio (z) = 0.18094 0.43670
#
# Static dielectric constant tensor:
#      x y z
#    x 1.944910 0.031300 0.001290 
#    y 0.031300 1.910260 0.048330 
#    z 0.001290 0.048330 2.026350 
# 
# From -- ./inp_files/10761.got.cif
#   From: 2010.05.17/outbox.cif.g08.bks.cpg/sg2_6_cif.got.tgz:10761.got - 2010.06.03 11:33:40.
