data_PCOD9035450
_publ_section_title
;
Structure prediction by ZEFSAII (Michael W. Deem and Ramdas Pophale) SiO2 
 PCOD9035450
Probable space group: P -1
;
_chemical_formula_sum "Si O2"
_cell_formula_units_Z 16
_cell_length_a 18.571030
_cell_length_b 6.402497
_cell_length_c 5.609080
_cell_angle_alpha 78.274629
_cell_angle_beta 91.137682
_cell_angle_gamma 83.821496
_cell_volume 648.618469
_symmetry_space_group_name_H-M "P -1"
_symmetry_group_IT_number 2
_symmetry_cell_setting 'triclinic'
loop_
_space_group_symop_operation_xyz
x,y,z
-x,-y,-z
loop_
_atom_site_type_symbol
_atom_site_label
_atom_site_fract_x
_atom_site_fract_y
_atom_site_fract_z
Si Si1 0.888162 0.922668 0.308819
Si Si2 0.770726 0.612166 0.213614
Si Si3 0.405480 0.494481 0.241868
Si Si4 0.169736 0.675769 0.078664
Si Si5 0.341630 0.128302 0.570715
Si Si6 0.783120 0.136559 0.560538
Si Si7 0.983336 0.383978 0.770962
Si Si8 0.573058 0.295079 0.297862
O O1 0.834825 0.751060 0.262045
O O2 0.965718 0.837065 0.225807
O O3 0.859654 0.982646 0.561307
O O4 0.869214 0.161728 0.152432
O O5 0.694188 0.741585 0.237142
O O6 0.776416 0.381073 0.402165
O O7 0.788575 0.540530 0.963910
O O8 0.358500 0.301782 0.338108
O O9 0.489050 0.387728 0.262410
O O10 0.399760 0.637131 0.453081
O O11 0.390995 0.612714 0.959454
O O12 0.224437 0.819372 0.172232
O O13 0.102103 0.626547 0.241198
O O14 0.279676 0.984920 0.520121
O O15 0.411717 0.961812 0.663149
O O16 0.000000 0.500000 0.500000
O O17 0.000000 0.500000 0.000000
#
# Coordination Sequence:
#
# PCOD9035450 Si02
#       8
#     2   2   2   2   2   2   2   2
#     4  10  23  43  68 100 132 183 235 295 370 422
#     4  10  22  46  63  96 144 184 235 297 353 428
#     4  10  23  47  77 107 155 185 243 307 359 421
#     4  11  24  44  72  97 142 182 244 293 365 426
#     4  11  23  46  70 109 146 195 248 287 373 430
#     4  10  24  44  65  99 141 191 237 298 354 440
#     4  12  26  44  77 102 134 182 239 302 368 429
#     4  10  23  47  76 113 144 194 242 304 359 428
#
# _framework density 24.667815000000001
#
# number of rings (size 3 to 8) (size 9 to 14) (size 15 to 20)
#    0.000    1.500    1.250    2.250    3.500    3.500 
#   29.250    3.750    0.000    0.000    0.000    0.000 
#    0.000    0.000    0.000    0.000    0.000    0.000 
#
# Total GULP energy -89327.086772 kJ/mol
# GULP energy per Si atom -5582.942923 kJ/mol
# Density = 2.461167 g / cm^3
# Si number density = 24.667815 Si / 1000 Ang^3
#
#
#
# Elastic Constant Matrix: (Units=GPa)
#
#
# Indices 1 2 3 4 5 6 
#
# 1 52.4314 39.7691 32.6271 14.4060 -15.1194 -11.1157
# 2 39.7691 134.0541 54.2851 27.9498 -19.6649 -26.0142
# 3 32.6271 54.2851 108.3671 12.3983 -19.4237 -8.1758
# 4 14.4060 27.9498 12.3983 48.4376 4.9393 -10.8507
# 5 -15.1194 -19.6649 -19.4237 4.9393 33.1373 1.7350
# 6 -11.1157 -26.0142 -8.1758 -10.8507 1.7350 52.0967
#
#
#
# Elastic Compliance Matrix: (Units=1/GPa)
#
#
# Indices 1 2 3 4 5 6 
#
# 1 0.029582 -0.004003 -0.004409 -0.005839 0.009298 0.002095
# 2 -0.004003 0.012287 -0.003441 -0.004603 0.003943 0.003652
# 3 -0.004409 -0.003441 0.012936 -0.000583 0.003662 -0.000872
# 4 -0.005839 -0.004603 -0.000583 0.026694 -0.009834 0.002252
# 5 0.009298 0.003943 0.003662 -0.009834 0.040313 0.001137
# 6 0.002095 0.003652 -0.000872 0.002252 0.001137 0.021760
#
#
# Mechanical properties :
#
#
# Convention : Reuss Voigt Hill
#
# Bulk Modulus (GPa) = 32.15378 60.91277 46.53328
# Shear Modulus (GPa) = 28.14622 37.94575 33.04598
#
# Velocity S-wave (km/s) = 3.38155 3.92633 3.66408
# Velocity P-wave (km/s) = 5.32067 6.73065 6.06676
#
# Compressibility (1/GPa) = 0.03110054
#
# Stress axis : x y z
#
# Youngs Moduli (GPa) = 33.80466 81.38427 77.30187
#
# Poissons Ratio (x) = 0.32575 0.34080
# Poissons Ratio (y) = 0.13531 0.26601
# Poissons Ratio (z) = 0.14903 0.28006
#
# Static dielectric constant tensor:
#      x y z
#    x -0.874880 0.587470 1.530200 
#    y 0.587470 1.861740 -0.342940 
#    z 1.530200 -0.342940 1.345840 
# 
# From -- ./inp_files/11424.got.cif
#   From: 2010.05.17/outbox.cif.g08.bks.cpg/sg2_6_cif.got.tgz:11424.got - 2010.06.03 11:33:40.
