data_PCOD9035878
_publ_section_title
;
Structure prediction by ZEFSAII (Michael W. Deem and Ramdas Pophale) SiO2 
 PCOD9035878
Probable space group: P -1
;
_chemical_formula_sum "Si O2"
_cell_formula_units_Z 15
_cell_length_a 6.622179
_cell_length_b 14.347951
_cell_length_c 10.588483
_cell_angle_alpha 132.375425
_cell_angle_beta 55.051831
_cell_angle_gamma 100.836429
_cell_volume 575.682322
_symmetry_space_group_name_H-M "P -1"
_symmetry_group_IT_number 2
_symmetry_cell_setting 'triclinic'
loop_
_space_group_symop_operation_xyz
x,y,z
-x,-y,-z
loop_
_atom_site_type_symbol
_atom_site_label
_atom_site_fract_x
_atom_site_fract_y
_atom_site_fract_z
Si Si1 0.595019 0.136435 0.323848
Si Si2 0.346537 0.698433 0.310346
Si Si3 0.840515 0.629937 0.430523
Si Si4 0.127463 0.846661 0.268161
Si Si5 0.547153 0.899114 0.008547
Si Si6 0.500000 0.500000 0.500000
Si Si7 0.909176 0.650052 0.019535
Si Si8 0.959675 0.253962 0.199368
O O1 0.670950 0.190895 0.475894
O O2 0.320141 0.236865 0.463386
O O3 0.819622 0.141717 0.150148
O O4 0.573938 0.991357 0.201920
O O5 0.279121 0.767753 0.262306
O O6 0.653172 0.616059 0.120146
O O7 0.133628 0.625594 0.345125
O O8 0.642795 0.609152 0.585620
O O9 0.859286 0.491249 0.217843
O O10 0.312788 0.849914 0.087174
O O11 0.961409 0.755011 0.192988
O O12 0.000000 0.000000 0.500000
O O13 0.828468 0.787149 0.803143
O O14 0.500000 0.000000 0.000000
O O15 0.710156 0.387171 0.415688
O O16 0.893147 0.721553 0.955231
#
# Coordination Sequence:
#
# PCOD9035878 Si02
#       8
#     2   2   2   2   2   1   2   2
#     4  11  26  45  71 107 146 194 245 311 365 447
#     4  12  25  44  72 105 146 194 244 301 385 438
#     4  10  23  46  72 104 146 192 244 307 374 437
#     4  12  28  45  70 108 153 196 244 307 375 446
#     4  12  26  46  77 109 149 198 256 306 371 444
#     4   8  20  46  74 106 150 184 246 310 370 442
#     4  11  24  47  72 105 146 191 252 308 364 451
#     4  10  22  46  74 107 145 195 243 312 372 431
#
# _framework density 26.056038999999998
#
# number of rings (size 3 to 8) (size 9 to 14) (size 15 to 20)
#    0.000    1.067    1.333    4.000    5.600    4.267 
#    0.000    3.333    0.000    0.000    0.000    0.000 
#    0.000    0.000    0.000    0.000    0.000    0.000 
#
# Total GULP energy -83630.631417 kJ/mol
# GULP energy per Si atom -5575.375428 kJ/mol
# Density = 2.599673 g / cm^3
# Si number density = 26.056039 Si / 1000 Ang^3
#
#
#
# Elastic Constant Matrix: (Units=GPa)
#
#
# Indices 1 2 3 4 5 6 
#
# 1 124.2835 30.2800 18.0460 12.8477 -2.8318 15.1132
# 2 30.2800 77.9125 6.2656 1.4980 -8.2655 6.1162
# 3 18.0460 6.2656 88.2858 19.6089 5.6254 3.2014
# 4 12.8477 1.4980 19.6089 46.9271 -2.3609 -9.1544
# 5 -2.8318 -8.2655 5.6254 -2.3609 42.5960 4.6894
# 6 15.1132 6.1162 3.2014 -9.1544 4.6894 59.0695
#
#
#
# Elastic Compliance Matrix: (Units=1/GPa)
#
#
# Indices 1 2 3 4 5 6 
#
# 1 0.009592 -0.003371 -0.001086 -0.002531 0.000257 -0.002459
# 2 -0.003371 0.014538 -0.000659 0.000736 0.002803 -0.000716
# 3 -0.001086 -0.000659 0.012967 -0.005406 -0.002099 -0.001028
# 4 -0.002531 0.000736 -0.005406 0.025224 0.001575 0.004649
# 5 0.000257 0.002803 -0.002099 0.001575 0.024617 -0.001953
# 6 -0.002459 -0.000716 -0.001028 0.004649 -0.001953 0.018564
#
#
# Mechanical properties :
#
#
# Convention : Reuss Voigt Hill
#
# Bulk Modulus (GPa) = 37.22471 44.40724 40.81597
# Shear Modulus (GPa) = 40.09979 45.44455 42.77217
#
# Velocity S-wave (km/s) = 3.92724 4.18078 4.05599
# Velocity P-wave (km/s) = 5.90608 6.35494 6.13461
#
# Compressibility (1/GPa) = 0.02686388
#
# Stress axis : x y z
#
# Youngs Moduli (GPa) = 104.25589 68.78731 77.11633
#
# Poissons Ratio (x) = 0.23191 0.08378
# Poissons Ratio (y) = 0.35149 0.05079
# Poissons Ratio (z) = 0.11326 0.04531
#
# Static dielectric constant tensor:
#      x y z
#    x 2.067460 -0.044960 0.122210 
#    y -0.044960 1.987590 -0.000460 
#    z 0.122210 -0.000460 2.027640 
# 
# From -- ./inp_files/367124.got.cif
#   From: 2010.05.17/outbox.cif.g08.bks.cpg/sg2_184_cif.got.tgz:367124.got - 2010.06.03 11:33:40.
