data_PCOD9035331
_publ_section_title
;
Structure prediction by ZEFSAII (Michael W. Deem and Ramdas Pophale) SiO2 
 PCOD9035331
Probable space group: P -1
;
_chemical_formula_sum "Si O2"
_cell_formula_units_Z 16
_cell_length_a 19.638608
_cell_length_b 5.446916
_cell_length_c 8.720217
_cell_angle_alpha 78.142974
_cell_angle_beta 70.341296
_cell_angle_gamma 113.852985
_cell_volume 737.542268
_symmetry_space_group_name_H-M "P -1"
_symmetry_group_IT_number 2
_symmetry_cell_setting 'triclinic'
loop_
_space_group_symop_operation_xyz
x,y,z
-x,-y,-z
loop_
_atom_site_type_symbol
_atom_site_label
_atom_site_fract_x
_atom_site_fract_y
_atom_site_fract_z
Si Si1 0.803554 0.602971 0.282523
Si Si2 0.778566 0.123971 0.111329
Si Si3 0.507792 0.162983 0.318209
Si Si4 0.932805 0.574115 0.732545
Si Si5 0.340481 0.683685 0.318926
Si Si6 0.034497 0.243416 0.665985
Si Si7 0.525359 0.427448 0.829205
Si Si8 0.637890 0.135900 0.047918
O O1 0.788518 0.341684 0.214125
O O2 0.734421 0.466073 0.487007
O O3 0.894469 0.722017 0.275267
O O4 0.794352 0.862788 0.179216
O O5 0.686950 0.019761 0.123657
O O6 0.846509 0.335883 0.906884
O O7 0.495020 0.432974 0.315200
O O8 0.603708 0.299918 0.161176
O O9 0.500000 0.000000 0.500000
O O10 0.422304 0.950801 0.308547
O O11 0.927722 0.631736 0.548295
O O12 0.992879 0.434959 0.721482
O O13 0.969612 0.894455 0.740249
O O14 0.379303 0.486052 0.263135
O O15 0.315016 0.747763 0.164551
O O16 0.455603 0.093254 0.908687
O O17 0.500000 0.500000 0.000000
#
# Coordination Sequence:
#
# PCOD9035331 Si02
#       8
#     2   2   2   2   2   2   2   2
#     4  12  28  44  66 102 139 175 220 276 337 391
#     4  12  28  44  66 102 139 175 220 276 337 391
#     4  11  23  39  63  91 127 164 217 281 338 392
#     4  10  22  45  74 102 134 177 223 266 326 402
#     4  11  24  41  63  91 128 174 225 275 328 399
#     4  10  22  45  74 102 134 177 223 266 326 402
#     4  11  21  41  67  92 120 177 229 275 333 399
#     4  11  24  41  63  91 128 174 225 275 328 399
#
# _framework density 21.693670999999998
#
# number of rings (size 3 to 8) (size 9 to 14) (size 15 to 20)
#    0.000    1.000    2.500    3.750    7.000    4.000 
#    0.000    3.750    0.000    0.000    0.000    0.000 
#    0.000    0.000    0.000    0.000    0.000    0.000 
#
# Total GULP energy -89171.745681 kJ/mol
# GULP energy per Si atom -5573.234105 kJ/mol
# Density = 2.164430 g / cm^3
# Si number density = 21.693671 Si / 1000 Ang^3
#
#
#
# Elastic Constant Matrix: (Units=GPa)
#
#
# Indices 1 2 3 4 5 6 
#
# 1 125.3338 23.2363 7.7011 1.8706 27.8572 -6.7724
# 2 23.2363 59.8159 4.5536 -1.0328 8.3882 -13.6949
# 3 7.7011 4.5536 69.4266 -9.9034 4.9094 -1.7716
# 4 1.8706 -1.0328 -9.9034 24.7615 -4.2721 1.6316
# 5 27.8572 8.3882 4.9094 -4.2721 39.6207 -3.1108
# 6 -6.7724 -13.6949 -1.7716 1.6316 -3.1108 28.5066
#
#
#
# Elastic Compliance Matrix: (Units=1/GPa)
#
#
# Indices 1 2 3 4 5 6 
#
# 1 0.010087 -0.002886 -0.000790 -0.002363 -0.006608 0.000375
# 2 -0.002886 0.020103 -0.000678 -0.000044 -0.001459 0.008773
# 3 -0.000790 -0.000678 0.015448 0.006112 -0.000553 0.000037
# 4 -0.002363 -0.000044 0.006112 0.044096 0.005501 -0.002126
# 5 -0.006608 -0.001459 -0.000553 0.005501 0.030915 0.000754
# 6 0.000375 0.008773 0.000037 -0.002126 0.000754 0.039590
#
#
# Mechanical properties :
#
#
# Convention : Reuss Voigt Hill
#
# Bulk Modulus (GPa) = 27.07842 36.17315 31.62579
# Shear Modulus (GPa) = 27.58530 33.18345 30.38437
#
# Velocity S-wave (km/s) = 3.56979 3.91530 3.74653
# Velocity P-wave (km/s) = 5.43144 6.09509 5.77281
#
# Compressibility (1/GPa) = 0.03692977
#
# Stress axis : x y z
#
# Youngs Moduli (GPa) = 99.14068 49.74312 64.73479
#
# Poissons Ratio (x) = 0.14358 0.05113
# Poissons Ratio (y) = 0.28617 0.04387
# Poissons Ratio (z) = 0.07830 0.03371
#
# Static dielectric constant tensor:
#      x y z
#    x 1.790730 -0.065510 0.024040 
#    y -0.065510 1.976540 -0.025980 
#    z 0.024040 -0.025980 1.719380 
# 
# From -- ./inp_files/52528.got.cif
#   From: 2010.05.17/outbox.cif.g08.bks.cpg/sg2_27_cif.got.tgz:52528.got - 2010.06.03 11:33:40.
