data_PCOD9035833
_publ_section_title
;
Structure prediction by ZEFSAII (Michael W. Deem and Ramdas Pophale) SiO2 
 PCOD9035833
Probable space group: P -1
;
_chemical_formula_sum "Si O2"
_cell_formula_units_Z 12
_cell_length_a 6.882841
_cell_length_b 9.093220
_cell_length_c 13.045992
_cell_angle_alpha 48.136010
_cell_angle_beta 110.296203
_cell_angle_gamma 129.623360
_cell_volume 463.944611
_symmetry_space_group_name_H-M "P -1"
_symmetry_group_IT_number 2
_symmetry_cell_setting 'triclinic'
loop_
_space_group_symop_operation_xyz
x,y,z
-x,-y,-z
loop_
_atom_site_type_symbol
_atom_site_label
_atom_site_fract_x
_atom_site_fract_y
_atom_site_fract_z
Si Si1 0.953962 0.516860 0.865352
Si Si2 0.191285 0.464942 0.455216
Si Si3 0.941774 0.836275 0.964898
Si Si4 0.439671 0.266330 0.785942
Si Si5 0.678344 0.360690 0.378926
Si Si6 0.844104 0.905188 0.701740
O O1 0.666911 0.312635 0.874290
O O2 0.947290 0.754298 0.742116
O O3 0.122516 0.425158 0.897070
O O4 0.000000 0.500000 0.000000
O O5 0.951038 0.423912 0.368366
O O6 0.577936 0.403719 0.642293
O O7 0.287465 0.641689 0.489230
O O8 0.065525 0.190283 0.596985
O O9 0.770198 0.830463 0.843481
O O10 0.207086 0.990410 0.877218
O O11 0.000000 0.000000 0.000000
O O12 0.335109 0.412403 0.743489
O O13 0.405981 0.151125 0.378390
#
# Coordination Sequence:
#
# PCOD9035833 Si02
#       6
#     2   2   2   2   2   2
#     4   9  22  44  65 102 138 182 241 284 346 423
#     4  11  23  43  72 106 146 181 233 298 366 420
#     4  11  24  44  74 101 142 194 240 291 352 423
#     4  11  23  43  70 103 142 185 234 295 359 418
#     4  10  23  41  69 109 141 185 232 288 363 429
#     4  10  22  46  73 105 143 183 238 292 359 427
#
# _framework density 25.865158000000001
#
# number of rings (size 3 to 8) (size 9 to 14) (size 15 to 20)
#    0.000    1.667    1.667    1.500    2.333    2.667 
#    6.000    2.500    0.000    0.000    0.000    0.000 
#    0.000    0.000    0.000    0.000    0.000    0.000 
#
# Total GULP energy -66907.391800 kJ/mol
# GULP energy per Si atom -5575.615983 kJ/mol
# Density = 2.580629 g / cm^3
# Si number density = 25.865158 Si / 1000 Ang^3
#
#
#
# Elastic Constant Matrix: (Units=GPa)
#
#
# Indices 1 2 3 4 5 6 
#
# 1 118.5877 52.0817 41.6941 -2.5085 7.8812 7.6022
# 2 52.0817 144.9623 36.8754 24.5947 2.5796 6.6049
# 3 41.6941 36.8754 156.9010 17.6967 12.8160 -1.1041
# 4 -2.5085 24.5947 17.6967 45.7016 2.4935 14.6908
# 5 7.8812 2.5796 12.8160 2.4935 39.1372 6.4952
# 6 7.6022 6.6049 -1.1041 14.6908 6.4952 55.8957
#
#
#
# Elastic Compliance Matrix: (Units=1/GPa)
#
#
# Indices 1 2 3 4 5 6 
#
# 1 0.011443 -0.004131 -0.002510 0.004590 -0.001139 -0.002192
# 2 -0.004131 0.009383 -0.000548 -0.005347 0.000605 0.000777
# 3 -0.002510 -0.000548 0.007715 -0.003249 -0.002052 0.001651
# 4 0.004590 -0.005347 -0.003249 0.028714 -0.000077 -0.007594
# 5 -0.001139 0.000605 -0.002052 -0.000077 0.026926 -0.003066
# 6 -0.002192 0.000777 0.001651 -0.007594 -0.003066 0.020482
#
#
# Mechanical properties :
#
#
# Convention : Reuss Voigt Hill
#
# Bulk Modulus (GPa) = 70.61216 75.75037 73.18127
# Shear Modulus (GPa) = 40.40020 47.46686 43.93353
#
# Velocity S-wave (km/s) = 3.95644 4.28853 4.12583
# Velocity P-wave (km/s) = 6.94483 7.33977 7.14503
#
# Compressibility (1/GPa) = 0.01416187
#
# Stress axis : x y z
#
# Youngs Moduli (GPa) = 87.39219 106.57490 129.61924
#
# Poissons Ratio (x) = 0.44029 0.32533
# Poissons Ratio (y) = 0.36104 0.07107
# Poissons Ratio (z) = 0.21934 0.05843
#
# Static dielectric constant tensor:
#      x y z
#    x 2.181330 -0.062720 0.046390 
#    y -0.062720 2.141920 0.095360 
#    z 0.046390 0.095360 2.125720 
# 
# From -- ./inp_files/103150.got.cif
#   From: 2010.05.17/outbox.cif.g08.bks.cpg/sg2_52_cif.got.tgz:103150.got - 2010.06.03 11:33:40.
