data_PCOD9035423
_publ_section_title
;
Structure prediction by ZEFSAII (Michael W. Deem and Ramdas Pophale) SiO2 
 PCOD9035423
Probable space group: P -1
;
_chemical_formula_sum "Si O2"
_cell_formula_units_Z 16
_cell_length_a 11.750324
_cell_length_b 20.998160
_cell_length_c 16.452055
_cell_angle_alpha 159.901333
_cell_angle_beta 146.111844
_cell_angle_gamma 28.368270
_cell_volume 662.602992
_symmetry_space_group_name_H-M "P -1"
_symmetry_group_IT_number 2
_symmetry_cell_setting 'triclinic'
loop_
_space_group_symop_operation_xyz
x,y,z
-x,-y,-z
loop_
_atom_site_type_symbol
_atom_site_label
_atom_site_fract_x
_atom_site_fract_y
_atom_site_fract_z
Si Si1 0.421281 0.755907 0.588070
Si Si2 0.437952 0.404566 0.928588
Si Si3 0.705961 0.002225 0.883758
Si Si4 0.028751 0.863945 0.272905
Si Si5 0.571158 0.684344 0.764622
Si Si6 0.614624 0.034218 0.481256
Si Si7 0.049518 0.599251 0.226895
Si Si8 0.251027 0.668379 0.819054
O O1 0.573695 0.730991 0.727817
O O2 0.232932 0.677599 0.402938
O O3 0.599770 0.584370 0.421908
O O4 0.246756 0.009412 0.766992
O O5 0.201586 0.604534 0.069280
O O6 0.645869 0.317976 0.016211
O O7 0.500000 0.500000 0.000000
O O8 0.436518 0.204954 0.645758
O O9 0.523906 0.959764 0.675019
O O10 0.620720 0.109848 0.050265
O O11 0.708674 0.186985 0.050347
O O12 0.964775 0.785147 0.786507
O O13 0.184793 0.913009 0.362442
O O14 0.000000 0.000000 0.500000
O O15 0.500000 0.500000 0.500000
O O16 0.809429 0.572575 0.825206
O O17 0.786329 0.792937 0.327415
O O18 0.000000 0.500000 0.000000
#
# Coordination Sequence:
#
# PCOD9035423 Si02
#       8
#     2   2   2   2   2   2   2   2
#     4  10  20  35  60  88 110 157 202 248 293 358
#     4  10  23  40  63  89 115 166 211 247 303 359
#     4  11  23  38  59  93 128 160 191 244 316 366
#     4  10  20  40  69  85 114 157 216 257 295 352
#     4  10  19  33  57  87 120 158 198 229 304 374
#     4  10  22  39  60  94 120 156 200 253 306 355
#     4  10  17  32  58  87 119 148 191 241 296 358
#     4  11  22  38  62  87 128 160 198 244 303 375
#
# _framework density 24.147189000000001
#
# number of rings (size 3 to 8) (size 9 to 14) (size 15 to 20)
#    0.000    1.750    5.000    0.000    7.000    0.500 
#    0.000    5.000    0.000    1.500    0.000    0.000 
#    0.000    0.000    0.000    0.000    0.000    0.000 
#
# Total GULP energy -89435.907131 kJ/mol
# GULP energy per Si atom -5589.744196 kJ/mol
# Density = 2.409223 g / cm^3
# Si number density = 24.147189 Si / 1000 Ang^3
#
#
#
# Elastic Constant Matrix: (Units=GPa)
#
#
# Indices 1 2 3 4 5 6 
#
# 1 55.4481 8.0578 15.2669 0.1700 -10.2331 1.3568
# 2 8.0578 165.9626 62.9169 18.5502 -6.7223 4.4054
# 3 15.2669 62.9169 146.9937 21.6794 -38.2970 -2.0881
# 4 0.1700 18.5502 21.6794 55.8006 1.8779 -10.5935
# 5 -10.2331 -6.7223 -38.2970 1.8779 37.9107 -1.4939
# 6 1.3568 4.4054 -2.0881 -10.5935 -1.4939 37.5069
#
#
#
# Elastic Compliance Matrix: (Units=1/GPa)
#
#
# Indices 1 2 3 4 5 6 
#
# 1 0.019108 -0.000506 -0.000651 0.000128 0.004386 -0.000457
# 2 -0.000506 0.007515 -0.003642 -0.001289 -0.002479 -0.001530
# 3 -0.000651 -0.003642 0.011979 -0.003729 0.011485 0.000522
# 4 0.000128 -0.001289 -0.003729 0.021039 -0.004778 0.005691
# 5 0.004386 -0.002479 0.011485 -0.004778 0.038999 0.000976
# 6 -0.000457 -0.001530 0.000522 0.005691 0.000976 0.028533
#
#
# Mechanical properties :
#
#
# Convention : Reuss Voigt Hill
#
# Bulk Modulus (GPa) = 34.47605 60.09864 47.28734
# Shear Modulus (GPa) = 34.14439 45.05449 39.59944
#
# Velocity S-wave (km/s) = 3.76441 4.32421 4.05398
# Velocity P-wave (km/s) = 5.76219 7.06217 6.44504
#
# Compressibility (1/GPa) = 0.02900564
#
# Stress axis : x y z
#
# Youngs Moduli (GPa) = 52.33463 133.07137 83.48094
#
# Poissons Ratio (x) = 0.06727 0.05433
# Poissons Ratio (y) = 0.02646 0.30400
# Poissons Ratio (z) = 0.03406 0.48458
#
# Static dielectric constant tensor:
#      x y z
#    x 2.203410 0.035640 0.129250 
#    y 0.035640 1.920450 0.046730 
#    z 0.129250 0.046730 1.987160 
# 
# From -- ./inp_files/268360.got.cif
#   From: 2010.05.17/outbox.cif.g08.bks.cpg/sg2_135_cif.got.tgz:268360.got - 2010.06.03 11:33:40.
