data_PCOD9035168
_publ_section_title
;
Structure prediction by ZEFSAII (Michael W. Deem and Ramdas Pophale) SiO2 
 PCOD9035168
Probable space group: P -1
;
_chemical_formula_sum "Si O2"
_cell_formula_units_Z 16
_cell_length_a 8.303510
_cell_length_b 13.676197
_cell_length_c 7.758405
_cell_angle_alpha 111.568719
_cell_angle_beta 53.519102
_cell_angle_gamma 106.946521
_cell_volume 655.666953
_symmetry_space_group_name_H-M "P -1"
_symmetry_group_IT_number 2
_symmetry_cell_setting 'triclinic'
loop_
_space_group_symop_operation_xyz
x,y,z
-x,-y,-z
loop_
_atom_site_type_symbol
_atom_site_label
_atom_site_fract_x
_atom_site_fract_y
_atom_site_fract_z
Si Si1 0.497580 0.704013 0.136079
Si Si2 0.155358 0.503567 0.643012
Si Si3 0.894347 0.336591 0.491229
Si Si4 0.167736 0.175479 0.209594
Si Si5 0.700807 0.048628 0.999861
Si Si6 0.933968 0.825234 0.324791
Si Si7 0.218329 0.404104 0.877798
Si Si8 0.536661 0.894056 0.501864
O O1 0.259261 0.676580 0.257820
O O2 0.614281 0.614969 0.098325
O O3 0.502531 0.797786 0.332595
O O4 0.625779 0.754695 0.928162
O O5 0.220652 0.602776 0.543357
O O6 0.281548 0.466394 0.700666
O O7 0.085968 0.409777 0.492449
O O8 0.952060 0.537526 0.881893
O O9 0.985637 0.234950 0.285244
O O10 0.109939 0.181108 0.449489
O O11 0.192331 0.054036 0.069565
O O12 0.849938 0.119898 0.828638
O O13 0.613987 0.116451 0.249478
O O14 0.500000 0.000000 0.000000
O O15 0.880105 0.710926 0.198584
O O16 0.767874 0.899242 0.412784
O O17 0.500000 0.000000 0.500000
#
# Coordination Sequence:
#
# PCOD9035168 Si02
#       8
#     2   2   2   2   2   2   2   2
#     4  11  26  43  70 102 138 178 232 281 341 407
#     4  10  22  45  71  97 138 176 230 277 353 406
#     4  11  25  43  71 102 133 184 223 287 343 408
#     4  12  24  44  68  99 141 173 230 279 338 405
#     4  12  27  43  70 102 135 186 232 269 343 418
#     4  11  26  44  70  97 142 183 223 290 335 403
#     4  10  22  46  67 101 136 178 226 288 342 406
#     4  11  25  44  64 101 138 180 234 274 339 412
#
# _framework density 24.402635
#
# number of rings (size 3 to 8) (size 9 to 14) (size 15 to 20)
#    0.000    1.000    5.000    0.375    5.250    1.500 
#    0.000    1.250    0.000    0.000    0.000    0.000 
#    0.000    0.000    0.000    0.000    0.000    0.000 
#
# Total GULP energy -89507.606130 kJ/mol
# GULP energy per Si atom -5594.225383 kJ/mol
# Density = 2.434709 g / cm^3
# Si number density = 24.402635 Si / 1000 Ang^3
#
#
#
# Elastic Constant Matrix: (Units=GPa)
#
#
# Indices 1 2 3 4 5 6 
#
# 1 38.1468 25.1421 15.9040 -3.7876 -1.3881 -7.5443
# 2 25.1421 71.2729 41.4767 -8.4456 -13.3429 -19.0853
# 3 15.9040 41.4767 159.7378 -19.6701 -3.6706 6.3365
# 4 -3.7876 -8.4456 -19.6701 50.7938 -3.1125 -1.4048
# 5 -1.3881 -13.3429 -3.6706 -3.1125 33.5304 -1.2351
# 6 -7.5443 -19.0853 6.3365 -1.4048 -1.2351 34.4509
#
#
#
# Elastic Compliance Matrix: (Units=1/GPa)
#
#
# Indices 1 2 3 4 5 6 
#
# 1 0.034590 -0.012538 -0.000269 0.000188 -0.003549 0.000559
# 2 -0.012538 0.028189 -0.006095 0.002453 0.010792 0.014478
# 3 -0.000269 -0.006095 0.008269 0.001938 -0.001533 -0.004932
# 4 0.000188 0.002453 0.001938 0.021114 0.003231 0.002021
# 5 -0.003549 0.010792 -0.001533 0.003231 0.034355 0.006847
# 6 0.000559 0.014478 -0.004932 0.002021 0.006847 0.038405
#
#
# Mechanical properties :
#
#
# Convention : Reuss Voigt Hill
#
# Bulk Modulus (GPa) = 30.08090 48.24479 39.16284
# Shear Modulus (GPa) = 23.38557 36.19736 29.79146
#
# Velocity S-wave (km/s) = 3.09904 3.85559 3.49783
# Velocity P-wave (km/s) = 5.01588 6.29556 5.69179
#
# Compressibility (1/GPa) = 0.03324368
#
# Stress axis : x y z
#
# Youngs Moduli (GPa) = 28.90991 35.47543 120.93673
#
# Poissons Ratio (x) = 0.44478 0.03252
# Poissons Ratio (y) = 0.36247 0.73714
# Poissons Ratio (z) = 0.00777 0.21623
#
# Static dielectric constant tensor:
#      x y z
#    x 1.917750 -0.094030 0.006910 
#    y -0.094030 1.969760 -0.011460 
#    z 0.006910 -0.011460 1.917120 
# 
# From -- ./inp_files/208113.got.cif
#   From: 2010.05.17/outbox.cif.g08.bks.cpg/sg2_105_cif.got.tgz:208113.got - 2010.06.03 11:33:40.
