data_PCOD9035097
_publ_section_title
;
Structure prediction by ZEFSAII (Michael W. Deem and Ramdas Pophale) SiO2 
 PCOD9035097
Probable space group: P -1
;
_chemical_formula_sum "Si O2"
_cell_formula_units_Z 14
_cell_length_a 6.790736
_cell_length_b 25.309988
_cell_length_c 5.936572
_cell_angle_alpha 65.245080
_cell_angle_beta 73.617632
_cell_angle_gamma 40.558288
_cell_volume 601.354021
_symmetry_space_group_name_H-M "P -1"
_symmetry_group_IT_number 2
_symmetry_cell_setting 'triclinic'
loop_
_space_group_symop_operation_xyz
x,y,z
-x,-y,-z
loop_
_atom_site_type_symbol
_atom_site_label
_atom_site_fract_x
_atom_site_fract_y
_atom_site_fract_z
Si Si1 0.231862 0.327376 0.718233
Si Si2 0.719982 0.866531 0.166694
Si Si3 0.658410 0.271626 0.046430
Si Si4 0.721842 0.978403 0.275753
Si Si5 0.302861 0.621867 0.911924
Si Si6 0.606785 0.171353 0.541889
Si Si7 0.243193 0.549438 0.682522
O O1 0.472773 0.233281 0.693289
O O2 0.067575 0.395847 0.445888
O O3 0.393139 0.334416 0.836732
O O4 0.966112 0.347064 0.896571
O O5 0.765290 0.916430 0.197893
O O6 0.614631 0.836396 0.414334
O O7 0.025562 0.788887 0.076687
O O8 0.450777 0.934069 0.953274
O O9 0.667395 0.316605 0.161837
O O10 0.618428 0.215957 0.260849
O O11 0.052681 0.922721 0.363585
O O12 0.500000 0.000000 0.500000
O O13 0.223996 0.614570 0.704318
O O14 0.623599 0.525176 0.052983
O O15 0.500000 0.500000 0.500000
#
# Coordination Sequence:
#
# PCOD9035097 Si02
#       7
#     2   2   2   2   2   2   2
#     4  11  23  43  67 105 141 182 236 290 352 418
#     4  11  25  46  67 100 142 182 233 294 345 419
#     4  12  25  42  72 107 137 185 239 287 354 419
#     4  11  24  46  70  99 140 186 236 284 354 418
#     4  10  22  45  71 101 143 185 235 295 344 420
#     4  12  25  42  70 103 139 185 233 290 352 415
#     4   9  21  43  71 101 143 187 231 289 355 414
#
# _framework density 23.280795000000001
#
# number of rings (size 3 to 8) (size 9 to 14) (size 15 to 20)
#    0.000    1.143    4.286    1.286    0.000    6.857 
#    0.000   10.000    0.000    0.000    0.000    0.000 
#    0.000    0.000    0.000    0.000    0.000    0.000 
#
# Total GULP energy -78376.382838 kJ/mol
# GULP energy per Si atom -5598.313060 kJ/mol
# Density = 2.322781 g / cm^3
# Si number density = 23.280795 Si / 1000 Ang^3
#
#
#
# Elastic Constant Matrix: (Units=GPa)
#
#
# Indices 1 2 3 4 5 6 
#
# 1 88.7744 46.1192 44.5052 -7.4503 -8.6610 -17.9445
# 2 46.1192 69.1901 15.2562 -3.8131 3.8767 -25.2770
# 3 44.5052 15.2562 68.4014 -4.8347 8.1746 -14.7243
# 4 -7.4503 -3.8131 -4.8347 29.8394 -0.2190 -0.8258
# 5 -8.6610 3.8767 8.1746 -0.2190 39.0384 2.7013
# 6 -17.9445 -25.2770 -14.7243 -0.8258 2.7013 31.4282
#
#
#
# Elastic Compliance Matrix: (Units=1/GPa)
#
#
# Indices 1 2 3 4 5 6 
#
# 1 0.031123 -0.020349 -0.019048 0.001945 0.013523 -0.008631
# 2 -0.020349 0.034478 0.012030 0.001818 -0.012027 0.022829
# 3 -0.019048 0.012030 0.028818 0.001731 -0.012373 0.013410
# 4 0.001945 0.001818 0.001731 0.034629 -0.000216 0.004312
# 5 0.013523 -0.012027 -0.012373 -0.000216 0.033134 -0.010603
# 6 -0.008631 0.022829 0.013410 0.004312 -0.010603 0.052559
#
#
# Mechanical properties :
#
#
# Convention : Reuss Voigt Hill
#
# Bulk Modulus (GPa) = 25.19834 48.68076 36.93955
# Shear Modulus (GPa) = 17.68635 28.09356 22.88995
#
# Velocity S-wave (km/s) = 2.75925 3.47757 3.13902
# Velocity P-wave (km/s) = 4.58241 6.08936 5.38882
#
# Compressibility (1/GPa) = 0.03968515
#
# Stress axis : x y z
#
# Youngs Moduli (GPa) = 32.13014 29.00361 34.70069
#
# Poissons Ratio (x) = 0.59020 0.66099
# Poissons Ratio (y) = 0.65382 -0.41746
# Poissons Ratio (z) = 0.61203 -0.34892
#
# Static dielectric constant tensor:
#      x y z
#    x 1.851600 0.002640 0.014450 
#    y 0.002640 1.865940 -0.035080 
#    z 0.014450 -0.035080 1.906440 
# 
# From -- ./inp_files/8177.got.cif
#   From: 2010.05.17/outbox.cif.g08.bks.cpg/sg2_5_cif.got.tgz:8177.got - 2010.06.03 11:33:40.
