data_PCOD9035106
_publ_section_title
;
Structure prediction by ZEFSAII (Michael W. Deem and Ramdas Pophale) SiO2 
 PCOD9035106
Probable space group: P -1
;
_chemical_formula_sum "Si O2"
_cell_formula_units_Z 12
_cell_length_a 7.516472
_cell_length_b 5.078637
_cell_length_c 17.425699
_cell_angle_alpha 119.115647
_cell_angle_beta 51.184500
_cell_angle_gamma 104.477700
_cell_volume 451.329084
_symmetry_space_group_name_H-M "P -1"
_symmetry_group_IT_number 2
_symmetry_cell_setting 'triclinic'
loop_
_space_group_symop_operation_xyz
x,y,z
-x,-y,-z
loop_
_atom_site_type_symbol
_atom_site_label
_atom_site_fract_x
_atom_site_fract_y
_atom_site_fract_z
Si Si1 0.451240 0.998848 0.363219
Si Si2 0.521122 0.551007 0.798755
Si Si3 0.146184 0.731613 0.800428
Si Si4 0.155002 0.728166 0.032697
Si Si5 0.074553 0.096254 0.250192
Si Si6 0.214922 0.641585 0.504652
O O1 0.687446 0.058066 0.263658
O O2 0.346633 0.335059 0.455663
O O3 0.348559 0.775282 0.296456
O O4 0.389492 0.810568 0.428553
O O5 0.312653 0.571856 0.795286
O O6 0.686484 0.805376 0.770195
O O7 0.408751 0.626336 0.921860
O O8 0.008440 0.628270 0.748900
O O9 0.943502 0.942889 0.925296
O O10 0.121274 0.795794 0.142270
O O11 0.000000 0.500000 0.000000
O O12 0.887245 0.125812 0.370948
O O13 0.000000 0.500000 0.500000
#
# Coordination Sequence:
#
# PCOD9035106 Si02
#       6
#     2   2   2   2   2   2
#     4  12  24  44  78 101 152 196 236 307 369 423
#     4  12  21  47  73 103 148 191 245 301 369 431
#     4  10  24  45  68 109 141 194 237 304 362 435
#     4  10  22  45  71 102 150 190 242 308 363 434
#     4  10  25  44  71 108 142 195 248 293 373 434
#     4  12  25  47  73 111 149 193 246 305 360 442
#
# _framework density 26.588137
#
# number of rings (size 3 to 8) (size 9 to 14) (size 15 to 20)
#    1.000    0.000    5.000    1.500    0.000    1.333 
#    6.000    0.833    0.000    0.000    0.000    0.000 
#    0.000    0.000    0.000    0.000    0.000    0.000 
#
# Total GULP energy -66855.901676 kJ/mol
# GULP energy per Si atom -5571.325140 kJ/mol
# Density = 2.652762 g / cm^3
# Si number density = 26.588137 Si / 1000 Ang^3
#
#
#
# Elastic Constant Matrix: (Units=GPa)
#
#
# Indices 1 2 3 4 5 6 
#
# 1 56.0743 12.0529 -3.6467 6.2994 15.0161 5.2297
# 2 12.0529 94.6560 36.4427 7.7001 12.8795 -1.1043
# 3 -3.6467 36.4427 229.7177 1.5298 20.8206 14.3602
# 4 6.2994 7.7001 1.5298 40.6683 2.0849 0.3543
# 5 15.0161 12.8795 20.8206 2.0849 27.0604 -4.7098
# 6 5.2297 -1.1043 14.3602 0.3543 -4.7098 25.4313
#
#
#
# Elastic Compliance Matrix: (Units=1/GPa)
#
#
# Indices 1 2 3 4 5 6 
#
# 1 0.023817 -0.001818 0.002711 -0.002551 -0.015879 -0.009413
# 2 -0.001818 0.012036 -0.001738 -0.001789 -0.003011 0.001345
# 3 0.002711 -0.001738 0.005492 0.000039 -0.005741 -0.004798
# 4 -0.002551 -0.001789 0.000039 0.025305 0.000310 0.000130
# 5 -0.015879 -0.003011 -0.005741 0.000310 0.054456 0.016457
# 6 -0.009413 0.001345 -0.004798 0.000130 0.016457 0.047071
#
#
# Mechanical properties :
#
#
# Convention : Reuss Voigt Hill
#
# Bulk Modulus (GPa) = 25.21712 52.23843 38.72777
# Shear Modulus (GPa) = 27.30981 41.00528 34.15755
#
# Velocity S-wave (km/s) = 3.20838 3.93140 3.58815
# Velocity P-wave (km/s) = 4.81974 6.34805 5.63594
#
# Compressibility (1/GPa) = 0.03965560
#
# Stress axis : x y z
#
# Youngs Moduli (GPa) = 41.98649 83.08434 182.08799
#
# Poissons Ratio (x) = 0.15107 -0.49366
# Poissons Ratio (y) = 0.07634 0.31639
# Poissons Ratio (z) = -0.11383 0.14436
#
# Static dielectric constant tensor:
#      x y z
#    x 2.255770 -0.061370 0.005750 
#    y -0.061370 2.079970 -0.035700 
#    z 0.005750 -0.035700 2.092690 
# 
# From -- ./inp_files/553791.got.cif
#   From: 2010.05.17/outbox.cif.g08.bks.cpg/sg2_277_cif.got.tgz:553791.got - 2010.06.03 11:33:40.
