data_PCOD9035606
_publ_section_title
;
Structure prediction by ZEFSAII (Michael W. Deem and Ramdas Pophale) SiO2 
 PCOD9035606
Probable space group: P -1
;
_chemical_formula_sum "Si O2"
_cell_formula_units_Z 12
_cell_length_a 5.848338
_cell_length_b 5.862684
_cell_length_c 14.128606
_cell_angle_alpha 98.199606
_cell_angle_beta 95.341137
_cell_angle_gamma 77.711034
_cell_volume 467.501745
_symmetry_space_group_name_H-M "P -1"
_symmetry_group_IT_number 2
_symmetry_cell_setting 'triclinic'
loop_
_space_group_symop_operation_xyz
x,y,z
-x,-y,-z
loop_
_atom_site_type_symbol
_atom_site_label
_atom_site_fract_x
_atom_site_fract_y
_atom_site_fract_z
Si Si1 0.664968 0.684578 0.049252
Si Si2 0.837688 0.114301 0.703867
Si Si3 0.960566 0.484371 0.222651
Si Si4 0.677975 0.786812 0.543409
Si Si5 0.606963 0.503975 0.354772
Si Si6 0.281242 0.096187 0.131023
O O1 0.850533 0.543031 0.119457
O O2 0.518679 0.907899 0.113992
O O3 0.500000 0.500000 0.000000
O O4 0.768865 0.804833 0.971284
O O5 0.579452 0.275903 0.684064
O O6 0.018490 0.281875 0.706910
O O7 0.858982 0.904045 0.617121
O O8 0.859909 0.044947 0.812060
O O9 0.775377 0.379927 0.270992
O O10 0.221465 0.336177 0.203674
O O11 0.749248 0.601522 0.450976
O O12 0.535961 0.663837 0.606375
O O13 0.500000 0.000000 0.500000
#
# Coordination Sequence:
#
# PCOD9035606 Si02
#       6
#     2   2   2   2   2   2
#     4  11  26  47  70 102 145 187 235 297 351 416
#     4  11  23  43  68 107 141 186 239 288 347 426
#     4  12  26  43  74 106 141 187 239 289 355 420
#     4   9  21  42  73 100 145 188 231 292 355 415
#     4  10  22  46  69 104 147 184 233 299 346 417
#     4  11  25  44  71 103 140 188 234 288 354 421
#
# _framework density 25.668355999999999
#
# number of rings (size 3 to 8) (size 9 to 14) (size 15 to 20)
#    0.000    1.333    1.667    2.500    2.333    7.333 
#    0.000   11.667    0.000    0.000    0.000    0.000 
#    0.000    0.000    0.000    0.000    0.000    0.000 
#
# Total GULP energy -66980.985893 kJ/mol
# GULP energy per Si atom -5581.748824 kJ/mol
# Density = 2.560993 g / cm^3
# Si number density = 25.668356 Si / 1000 Ang^3
#
#
#
# Elastic Constant Matrix: (Units=GPa)
#
#
# Indices 1 2 3 4 5 6 
#
# 1 57.5852 35.0931 48.4317 5.8582 4.9838 -4.0101
# 2 35.0931 103.0941 56.1742 -1.0083 -6.6543 -4.0481
# 3 48.4317 56.1742 121.2201 -24.3601 -17.2162 6.0662
# 4 5.8582 -1.0083 -24.3601 53.3351 10.5407 -1.3714
# 5 4.9838 -6.6543 -17.2162 10.5407 48.1323 0.8736
# 6 -4.0101 -4.0481 6.0662 -1.3714 0.8736 39.8480
#
#
#
# Elastic Compliance Matrix: (Units=1/GPa)
#
#
# Indices 1 2 3 4 5 6 
#
# 1 0.034380 -0.003830 -0.015136 -0.009125 -0.007600 0.005227
# 2 -0.003830 0.013995 -0.005300 -0.001850 0.000809 0.001762
# 3 -0.015136 -0.005300 0.019702 0.009261 0.005942 -0.004872
# 4 -0.009125 -0.001850 0.009261 0.024153 -0.001257 -0.001657
# 5 -0.007600 0.000809 0.005942 -0.001257 0.024115 -0.002159
# 6 0.005227 0.001762 -0.004872 -0.001657 -0.002159 0.026532
#
#
# Mechanical properties :
#
#
# Convention : Reuss Voigt Hill
#
# Bulk Modulus (GPa) = 51.16601 62.36639 56.76620
# Shear Modulus (GPa) = 25.26246 37.74309 31.50277
#
# Velocity S-wave (km/s) = 3.14058 3.83876 3.50708
# Velocity P-wave (km/s) = 5.75567 6.63308 6.20989
#
# Compressibility (1/GPa) = 0.01954423
#
# Stress axis : x y z
#
# Youngs Moduli (GPa) = 29.08708 71.45473 50.75725
#
# Poissons Ratio (x) = 0.27368 0.76824
# Poissons Ratio (y) = 0.11141 0.26902
# Poissons Ratio (z) = 0.44025 0.37872
#
# Static dielectric constant tensor:
#      x y z
#    x 1.933560 -0.001720 0.042620 
#    y -0.001720 2.111840 0.012420 
#    z 0.042620 0.012420 1.968000 
# 
# From -- ./inp_files/5645.got.cif
#   From: 2010.05.17/outbox.cif.g08.bks.cpg/sg2_3_cif.got.tgz:5645.got - 2010.06.03 11:33:40.
