data_PCOD9035274
_publ_section_title
;
Structure prediction by ZEFSAII (Michael W. Deem and Ramdas Pophale) SiO2 
 PCOD9035274
Probable space group: P -1
;
_chemical_formula_sum "Si O2"
_cell_formula_units_Z 16
_cell_length_a 8.864286
_cell_length_b 12.499093
_cell_length_c 8.830690
_cell_angle_alpha 97.590757
_cell_angle_beta 130.626985
_cell_angle_gamma 82.338824
_cell_volume 734.608189
_symmetry_space_group_name_H-M "P -1"
_symmetry_group_IT_number 2
_symmetry_cell_setting 'triclinic'
loop_
_space_group_symop_operation_xyz
x,y,z
-x,-y,-z
loop_
_atom_site_type_symbol
_atom_site_label
_atom_site_fract_x
_atom_site_fract_y
_atom_site_fract_z
Si Si1 0.755885 0.759042 0.203483
Si Si2 0.994633 0.359664 0.180082
Si Si3 0.290160 0.485256 0.782828
Si Si4 0.107343 0.740651 0.215073
Si Si5 0.787778 0.033463 0.785702
Si Si6 0.712481 0.469430 0.565118
Si Si7 0.926092 0.856125 0.627605
Si Si8 0.382124 0.911554 0.997827
O O1 0.772091 0.634776 0.242917
O O2 0.859868 0.832230 0.409867
O O3 0.881710 0.765074 0.132281
O O4 0.525842 0.802776 0.054817
O O5 0.144805 0.448337 0.246415
O O6 0.086030 0.254242 0.305725
O O7 0.854897 0.424247 0.219069
O O8 0.887907 0.317115 0.955120
O O9 0.290837 0.503336 0.608553
O O10 0.500000 0.500000 0.000000
O O11 0.203273 0.853344 0.273955
O O12 0.215609 0.654777 0.382761
O O13 0.778782 0.942503 0.635047
O O14 0.640507 0.050289 0.834780
O O15 0.000000 0.000000 0.000000
O O16 0.500000 0.500000 0.500000
O O17 0.155810 0.891920 0.791634
O O18 0.500000 0.000000 0.000000
#
# Coordination Sequence:
#
# PCOD9035274 Si02
#       8
#     2   2   2   2   2   2   2   2
#     4  12  26  45  73 105 144 190 247 299 369 439
#     4  12  23  47  72  99 148 186 239 299 367 430
#     4  12  26  46  71 103 145 196 243 300 366 436
#     4  12  25  44  73 104 143 191 239 298 369 433
#     4  10  22  45  73 102 144 188 240 300 366 435
#     4  12  27  44  70 110 144 189 249 299 367 445
#     4  11  24  48  75 101 146 196 237 305 368 434
#     4  11  25  45  74 107 143 188 249 303 367 441
#
# _framework density 21.780318000000001
#
# number of rings (size 3 to 8) (size 9 to 14) (size 15 to 20)
#    0.000    0.500    5.000    4.500    3.500    2.500 
#    0.000    0.000    0.000    0.000    0.000    0.000 
#    0.000    0.000    0.000    0.000    0.000    0.000 
#
# Total GULP energy -89530.626136 kJ/mol
# GULP energy per Si atom -5595.664133 kJ/mol
# Density = 2.173074 g / cm^3
# Si number density = 21.780318 Si / 1000 Ang^3
#
#
#
# Elastic Constant Matrix: (Units=GPa)
#
#
# Indices 1 2 3 4 5 6 
#
# 1 130.6082 51.9768 -6.8591 3.9531 -10.4555 -13.6998
# 2 51.9768 158.1456 9.5529 5.2909 -10.4243 0.3398
# 3 -6.8591 9.5529 41.5507 13.5419 3.2869 -1.4754
# 4 3.9531 5.2909 13.5419 32.5499 -3.9178 -9.6879
# 5 -10.4555 -10.4243 3.2869 -3.9178 29.2055 0.5791
# 6 -13.6998 0.3398 -1.4754 -9.6879 0.5791 37.0389
#
#
#
# Elastic Compliance Matrix: (Units=1/GPa)
#
#
# Indices 1 2 3 4 5 6 
#
# 1 0.009576 -0.003162 0.002401 -0.000364 0.001910 0.003542
# 2 -0.003162 0.007640 -0.002475 -0.000007 0.001900 -0.001370
# 3 0.002401 -0.002475 0.029710 -0.013250 -0.005119 -0.001291
# 4 -0.000364 -0.000007 -0.013250 0.039948 0.006525 0.009684
# 5 0.001910 0.001900 -0.005119 0.006525 0.037022 0.001613
# 6 0.003542 -0.001370 -0.001291 0.009684 0.001613 0.030778
#
#
# Mechanical properties :
#
#
# Convention : Reuss Voigt Hill
#
# Bulk Modulus (GPa) = 24.71911 48.84954 36.78433
# Shear Modulus (GPa) = 28.63186 38.13446 33.38316
#
# Velocity S-wave (km/s) = 3.62964 4.18888 3.91925
# Velocity P-wave (km/s) = 5.37956 6.77293 6.11605
#
# Compressibility (1/GPa) = 0.04045453
#
# Stress axis : x y z
#
# Youngs Moduli (GPa) = 104.42393 130.88263 33.65881
#
# Poissons Ratio (x) = 0.41384 -0.08082
# Poissons Ratio (y) = 0.33018 0.08331
# Poissons Ratio (z) = -0.25072 0.32396
#
# Static dielectric constant tensor:
#      x y z
#    x 1.780940 -0.017210 0.009840 
#    y -0.017210 1.798830 -0.012400 
#    z 0.009840 -0.012400 1.801920 
# 
# From -- ./inp_files/188865.got.cif
#   From: 2010.05.17/outbox.cif.g08.bks.cpg/sg2_95_cif.got.tgz:188865.got - 2010.06.03 11:33:40.
