data_PCOD9035169
_publ_section_title
;
Structure prediction by ZEFSAII (Michael W. Deem and Ramdas Pophale) SiO2 
 PCOD9035169
Probable space group: P -1
;
_chemical_formula_sum "Si O2"
_cell_formula_units_Z 12
_cell_length_a 10.501040
_cell_length_b 11.707613
_cell_length_c 14.393338
_cell_angle_alpha 28.591817
_cell_angle_beta 34.205623
_cell_angle_gamma 41.786346
_cell_volume 474.819246
_symmetry_space_group_name_H-M "P -1"
_symmetry_group_IT_number 2
_symmetry_cell_setting 'triclinic'
loop_
_space_group_symop_operation_xyz
x,y,z
-x,-y,-z
loop_
_atom_site_type_symbol
_atom_site_label
_atom_site_fract_x
_atom_site_fract_y
_atom_site_fract_z
Si Si1 0.130747 0.873561 0.335987
Si Si2 0.109525 0.347772 0.761313
Si Si3 0.672494 0.494793 0.659062
Si Si4 0.330991 0.678793 0.028795
Si Si5 0.545348 0.090226 0.722207
Si Si6 0.191178 0.685544 0.762571
O O1 0.049785 0.631576 0.606424
O O2 0.265143 0.759450 0.247946
O O3 0.303835 0.976264 0.231717
O O4 0.929919 0.071060 0.296223
O O5 0.228551 0.327225 0.602142
O O6 0.312861 0.249332 0.774842
O O7 0.875278 0.226402 0.980574
O O8 0.771461 0.476848 0.714725
O O9 0.405260 0.569004 0.773423
O O10 0.500000 0.500000 0.000000
O O11 0.462683 0.875455 0.863061
O O12 0.701633 0.240876 0.452994
O O13 0.000000 0.500000 0.000000
#
# Coordination Sequence:
#
# PCOD9035169 Si02
#       6
#     2   2   2   2   2   2
#     4  10  22  45  71  97 140 169 224 282 335 393
#     4   9  22  44  69  98 133 183 218 273 341 399
#     4   9  24  45  67 100 136 175 227 270 341 396
#     4  12  24  44  68  99 139 179 228 276 334 403
#     4  11  23  43  68 104 136 173 232 275 337 402
#     4  11  23  40  65 103 136 177 217 277 340 397
#
# _framework density 25.272773000000001
#
# number of rings (size 3 to 8) (size 9 to 14) (size 15 to 20)
#    1.000    0.667    0.000    4.000    0.000    4.000 
#    6.000    2.500    0.000    0.000    0.000    0.000 
#    0.000    0.000    0.000    0.000    0.000    0.000 
#
# Total GULP energy -67112.881473 kJ/mol
# GULP energy per Si atom -5592.740123 kJ/mol
# Density = 2.521525 g / cm^3
# Si number density = 25.272773 Si / 1000 Ang^3
#
#
#
# Elastic Constant Matrix: (Units=GPa)
#
#
# Indices 1 2 3 4 5 6 
#
# 1 88.5426 47.8840 5.3818 15.8416 -16.6605 -16.1870
# 2 47.8840 181.1373 31.4339 -11.9788 -20.9327 -29.7414
# 3 5.3818 31.4339 77.0735 -3.8916 -21.4725 -0.1779
# 4 15.8416 -11.9788 -3.8916 41.2576 -3.6688 -5.1197
# 5 -16.6605 -20.9327 -21.4725 -3.6688 42.2479 4.5736
# 6 -16.1870 -29.7414 -0.1779 -5.1197 4.5736 46.0059
#
#
#
# Elastic Compliance Matrix: (Units=1/GPa)
#
#
# Indices 1 2 3 4 5 6 
#
# 1 0.015649 -0.004036 0.001379 -0.006464 0.004119 0.001773
# 2 -0.004036 0.008118 -0.002503 0.004286 0.001077 0.004188
# 3 0.001379 -0.002503 0.016086 0.000731 0.007733 -0.001758
# 4 -0.006464 0.004286 0.000731 0.028648 0.002057 0.003483
# 5 0.004119 0.001077 0.007733 0.002057 0.029999 -0.000578
# 6 0.001773 0.004188 -0.001758 0.003483 -0.000578 0.025506
#
#
# Mechanical properties :
#
#
# Convention : Reuss Voigt Hill
#
# Bulk Modulus (GPa) = 33.86183 57.35032 45.60608
# Shear Modulus (GPa) = 34.68102 43.37252 39.02677
#
# Velocity S-wave (km/s) = 3.70843 4.14717 3.93392
# Velocity P-wave (km/s) = 5.63598 6.75824 6.22246
#
# Compressibility (1/GPa) = 0.02953177
#
# Stress axis : x y z
#
# Youngs Moduli (GPa) = 63.90278 123.19020 62.16431
#
# Poissons Ratio (x) = 0.49725 -0.08570
# Poissons Ratio (y) = 0.25794 0.15558
# Poissons Ratio (z) = -0.08810 0.30830
#
# Static dielectric constant tensor:
#      x y z
#    x 1.971980 -0.018540 0.037530 
#    y -0.018540 1.954350 -0.002020 
#    z 0.037530 -0.002020 2.089460 
# 
# From -- ./inp_files/567721.got.cif
#   From: 2010.05.17/outbox.cif.g08.bks.cpg/sg2_284_cif.got.tgz:567721.got - 2010.06.03 11:33:40.
