data_PCOD9035633
_publ_section_title
;
Structure prediction by ZEFSAII (Michael W. Deem and Ramdas Pophale) SiO2 
 PCOD9035633
Probable space group: P -1
;
_chemical_formula_sum "Si O2"
_cell_formula_units_Z 12
_cell_length_a 9.224416
_cell_length_b 15.823721
_cell_length_c 10.492687
_cell_angle_alpha 24.138176
_cell_angle_beta 71.898285
_cell_angle_gamma 60.963639
_cell_volume 508.774536
_symmetry_space_group_name_H-M "P -1"
_symmetry_group_IT_number 2
_symmetry_cell_setting 'triclinic'
loop_
_space_group_symop_operation_xyz
x,y,z
-x,-y,-z
loop_
_atom_site_type_symbol
_atom_site_label
_atom_site_fract_x
_atom_site_fract_y
_atom_site_fract_z
Si Si1 0.542867 0.801815 0.371437
Si Si2 0.071612 0.598282 0.234989
Si Si3 0.673687 0.453342 0.245680
Si Si4 0.198636 0.276540 0.291600
Si Si5 0.951258 0.984223 0.180289
Si Si6 0.286747 0.162872 0.155389
O O1 0.469031 0.625268 0.603008
O O2 0.753679 0.621196 0.572661
O O3 0.434017 0.959414 0.306218
O O4 0.500000 0.000000 0.000000
O O5 0.000000 0.500000 0.500000
O O6 0.907682 0.734056 0.995150
O O7 0.120718 0.772697 0.055511
O O8 0.861396 0.204172 0.546318
O O9 0.725481 0.903315 0.604166
O O10 0.673162 0.620672 0.131120
O O11 0.174244 0.125781 0.614848
O O12 0.315239 0.404495 0.077022
O O13 0.000000 0.500000 0.000000
O O14 0.000000 0.000000 0.000000
#
# Coordination Sequence:
#
# PCOD9035633 Si02
#       6
#     2   2   2   2   2   2
#     4  12  24  43  69 106 147 186 238 295 349 422
#     4  12  24  43  66 111 140 180 245 294 352 421
#     4   9  21  45  68  99 144 187 232 285 364 409
#     4   8  20  42  71 100 138 193 229 286 362 420
#     4  11  21  41  72 106 138 185 241 292 349 426
#     4  10  22  46  69  99 146 184 235 286 362 413
#
# _framework density 23.586086000000002
#
# number of rings (size 3 to 8) (size 9 to 14) (size 15 to 20)
#    1.000    0.667    3.333    1.000    0.000    1.333 
#    6.000    1.667    0.000    0.000    0.000    0.000 
#    0.000    0.000    0.000    0.000    0.000    0.000 
#
# Total GULP energy -67043.816859 kJ/mol
# GULP energy per Si atom -5586.984738 kJ/mol
# Density = 2.353240 g / cm^3
# Si number density = 23.586086 Si / 1000 Ang^3
#
#
#
# Elastic Constant Matrix: (Units=GPa)
#
#
# Indices 1 2 3 4 5 6 
#
# 1 119.2179 61.1542 62.8341 -13.9367 -36.6548 -19.3187
# 2 61.1542 172.3059 73.3142 -18.1263 -9.1400 -13.1027
# 3 62.8341 73.3142 119.3224 4.0586 -24.0070 -10.7477
# 4 -13.9367 -18.1263 4.0586 64.5485 -14.5496 -7.0340
# 5 -36.6548 -9.1400 -24.0070 -14.5496 50.1222 -13.0151
# 6 -19.3187 -13.1027 -10.7477 -7.0340 -13.0151 36.0257
#
#
#
# Elastic Compliance Matrix: (Units=1/GPa)
#
#
# Indices 1 2 3 4 5 6 
#
# 1 0.025640 -0.002289 -0.005263 0.013584 0.025812 0.023324
# 2 -0.002289 0.008662 -0.004463 0.001907 -0.001576 0.000395
# 3 -0.005263 -0.004463 0.014193 -0.003069 0.001140 -0.000399
# 4 0.013584 0.001907 -0.003069 0.026201 0.021607 0.019984
# 5 0.025812 -0.001576 0.001140 0.021607 0.055162 0.037756
# 6 0.023324 0.000395 -0.000399 0.019984 0.037756 0.057832
#
#
# Mechanical properties :
#
#
# Convention : Reuss Voigt Hill
#
# Bulk Modulus (GPa) = 40.87743 89.49459 65.18601
# Shear Modulus (GPa) = 22.74019 44.37554 33.55786
#
# Velocity S-wave (km/s) = 3.10842 4.34225 3.77607
# Velocity P-wave (km/s) = 5.50017 7.94773 6.83441
#
# Compressibility (1/GPa) = 0.02446338
#
# Stress axis : x y z
#
# Youngs Moduli (GPa) = 39.00218 115.44717 70.45914
#
# Poissons Ratio (x) = 0.26421 0.37086
# Poissons Ratio (y) = 0.08926 0.31448
# Poissons Ratio (z) = 0.20529 0.51528
#
# Static dielectric constant tensor:
#      x y z
#    x 2.171370 0.223930 0.003740 
#    y 0.223930 2.095100 0.004330 
#    z 0.003740 0.004330 1.903290 
# 
# From -- ./inp_files/402576.got.cif
#   From: 2010.05.17/outbox.cif.g08.bks.cpg/sg2_202_cif.got.tgz:402576.got - 2010.06.03 11:33:40.
