data_PCOD9035727
_publ_section_title
;
Structure prediction by ZEFSAII (Michael W. Deem and Ramdas Pophale) SiO2 
 PCOD9035727
Probable space group: P -1
;
_chemical_formula_sum "Si O2"
_cell_formula_units_Z 10
_cell_length_a 13.352039
_cell_length_b 5.687875
_cell_length_c 18.313863
_cell_angle_alpha 118.870781
_cell_angle_beta 159.087940
_cell_angle_gamma 67.332263
_cell_volume 425.041993
_symmetry_space_group_name_H-M "P -1"
_symmetry_group_IT_number 2
_symmetry_cell_setting 'triclinic'
loop_
_space_group_symop_operation_xyz
x,y,z
-x,-y,-z
loop_
_atom_site_type_symbol
_atom_site_label
_atom_site_fract_x
_atom_site_fract_y
_atom_site_fract_z
Si Si1 0.208972 0.185225 0.398984
Si Si2 0.784437 0.359891 0.019791
Si Si3 0.662530 0.770742 0.107079
Si Si4 0.876138 0.764623 0.480975
Si Si5 0.286003 0.591737 0.310927
O O1 0.125921 0.234866 0.432022
O O2 0.523389 0.382375 0.627957
O O3 0.960156 0.231078 0.180971
O O4 0.255357 0.888212 0.362827
O O5 0.781729 0.653138 0.098266
O O6 0.975578 0.394820 0.081611
O O7 0.450069 0.233840 0.763202
O O8 0.500000 0.500000 0.000000
O O9 0.913713 0.948205 0.353310
O O10 0.500000 0.000000 0.000000
O O11 0.000000 0.500000 0.500000
O O12 0.500000 0.500000 0.500000
#
# Coordination Sequence:
#
# PCOD9035727 Si02
#       5
#     2   2   2   2   2
#     4  10  22  46  71 104 151 190 246 310 374 443
#     4  11  24  44  74 106 148 192 253 304 378 442
#     4  12  26  49  71 105 159 203 251 315 373 456
#     4  12  26  46  75 114 147 199 254 301 383 455
#     4   9  20  44  75 100 143 197 238 315 374 437
#
# _framework density 23.527087999999999
#
# number of rings (size 3 to 8) (size 9 to 14) (size 15 to 20)
#    0.000    1.200    4.000    1.200    0.000    1.600 
#    7.200    9.000    0.000    0.000    0.000    0.000 
#    0.000    0.000    0.000    0.000    0.000    0.000 
#
# Total GULP energy -55833.403067 kJ/mol
# GULP energy per Si atom -5583.340307 kJ/mol
# Density = 2.347354 g / cm^3
# Si number density = 23.527088 Si / 1000 Ang^3
#
#
#
# Elastic Constant Matrix: (Units=GPa)
#
#
# Indices 1 2 3 4 5 6 
#
# 1 121.1362 25.0752 59.9918 -1.2706 29.1245 7.3551
# 2 25.0752 162.2173 64.7984 -26.3387 11.5206 -0.6317
# 3 59.9918 64.7984 210.5783 -12.3917 27.5663 7.7553
# 4 -1.2706 -26.3387 -12.3917 42.9395 2.8268 2.2350
# 5 29.1245 11.5206 27.5663 2.8268 43.2115 -3.3963
# 6 7.3551 -0.6317 7.7553 2.2350 -3.3963 21.6420
#
#
#
# Elastic Compliance Matrix: (Units=1/GPa)
#
#
# Indices 1 2 3 4 5 6 
#
# 1 0.011153 -0.000452 -0.002041 0.000099 -0.006423 -0.004090
# 2 -0.000452 0.007742 -0.001925 0.004204 -0.000766 0.000515
# 3 -0.002041 -0.001925 0.006364 0.000863 -0.002393 -0.002108
# 4 0.000099 0.004204 0.000863 0.026551 -0.003754 -0.003551
# 5 -0.006423 -0.000766 -0.002393 -0.003754 0.030086 0.008127
# 6 -0.004090 0.000515 -0.002108 -0.003551 0.008127 0.050009
#
#
# Mechanical properties :
#
#
# Convention : Reuss Voigt Hill
#
# Bulk Modulus (GPa) = 60.88937 88.18472 74.53704
# Shear Modulus (GPa) = 34.19566 44.49634 39.34600
#
# Velocity S-wave (km/s) = 3.81656 4.35360 4.09390
# Velocity P-wave (km/s) = 6.73485 7.92688 7.35505
#
# Compressibility (1/GPa) = 0.01642323
#
# Stress axis : x y z
#
# Youngs Moduli (GPa) = 89.66057 129.15939 157.12609
#
# Poissons Ratio (x) = 0.05844 0.32069
# Poissons Ratio (y) = 0.04057 0.30245
# Poissons Ratio (z) = 0.18299 0.24862
#
# Static dielectric constant tensor:
#      x y z
#    x 1.979640 0.076360 0.062920 
#    y 0.076360 1.850540 0.050190 
#    z 0.062920 0.050190 1.992990 
# 
# From -- ./inp_files/2664.got.cif
#   From: 2010.05.17/outbox.cif.g08.bks.cpg/sg2_2_cif.got.tgz:2664.got - 2010.06.03 11:33:40.
