data_PCOD9035301
_publ_section_title
;
Structure prediction by ZEFSAII (Michael W. Deem and Ramdas Pophale) SiO2 
 PCOD9035301
Probable space group: P -1
;
_chemical_formula_sum "Si O2"
_cell_formula_units_Z 16
_cell_length_a 12.396058
_cell_length_b 13.375701
_cell_length_c 9.453006
_cell_angle_alpha 62.857967
_cell_angle_beta 130.970641
_cell_angle_gamma 130.652677
_cell_volume 896.682560
_symmetry_space_group_name_H-M "P -1"
_symmetry_group_IT_number 2
_symmetry_cell_setting 'triclinic'
loop_
_space_group_symop_operation_xyz
x,y,z
-x,-y,-z
loop_
_atom_site_type_symbol
_atom_site_label
_atom_site_fract_x
_atom_site_fract_y
_atom_site_fract_z
Si Si1 0.735137 0.822652 0.655195
Si Si2 0.351258 0.071611 0.060954
Si Si3 0.814530 0.974199 0.355023
Si Si4 0.276126 0.846085 0.672177
Si Si5 0.841205 0.446175 0.296419
Si Si6 0.487444 0.327762 0.198450
Si Si7 0.862313 0.087057 0.754438
Si Si8 0.181089 0.333269 0.992840
O O1 0.714788 0.854370 0.458229
O O2 0.562628 0.750391 0.643722
O O3 0.852672 0.963246 0.745251
O O4 0.814476 0.732640 0.811877
O O5 0.523906 0.074538 0.185871
O O6 0.409592 0.213495 0.087428
O O7 0.232623 0.965354 0.144607
O O8 0.259104 0.053228 0.846626
O O9 0.805931 0.095740 0.333959
O O10 0.000000 0.000000 0.500000
O O11 0.202974 0.691050 0.723614
O O12 0.235233 0.869090 0.462369
O O13 0.682093 0.414656 0.277973
O O14 0.862363 0.554893 0.131107
O O15 0.000000 0.500000 0.500000
O O16 0.370542 0.389465 0.063962
O O17 0.047797 0.210187 0.861924
#
# Coordination Sequence:
#
# PCOD9035301 Si02
#       8
#     2   2   2   2   2   2   2   2
#     4   8  19  33  54  83 114 135 184 229 275 315
#     4  10  20  34  58  84 114 145 174 228 289 324
#     4  11  22  35  58  83 110 147 187 224 279 330
#     4  10  22  37  51  84 116 143 181 229 275 336
#     4  11  20  35  55  87 111 146 185 226 278 320
#     4   8  20  34  57  85 110 142 181 233 268 324
#     4  10  17  32  58  85 112 138 180 232 278 324
#     4  10  18  32  57  81 117 138 182 226 273 321
#
# _framework density 17.843548999999999
#
# number of rings (size 3 to 8) (size 9 to 14) (size 15 to 20)
#    0.750    1.500    1.250    2.250    3.500    1.000 
#    0.000    0.000    0.000    6.000    3.250    0.000 
#    0.000    0.000    0.000    0.000    0.000    0.000 
#
# Total GULP energy -89100.323861 kJ/mol
# GULP energy per Si atom -5568.770241 kJ/mol
# Density = 1.780294 g / cm^3
# Si number density = 17.843549 Si / 1000 Ang^3
#
#
#
# Elastic Constant Matrix: (Units=GPa)
#
#
# Indices 1 2 3 4 5 6 
#
# 1 67.4919 17.9081 38.8256 1.9571 8.4754 -2.2544
# 2 17.9081 63.1010 38.9497 -18.3136 7.0339 5.6782
# 3 38.8256 38.9497 111.7565 -6.6542 3.5958 1.1247
# 4 1.9571 -18.3136 -6.6542 34.0340 2.0186 15.5668
# 5 8.4754 7.0339 3.5958 2.0186 33.7693 -3.3006
# 6 -2.2544 5.6782 1.1247 15.5668 -3.3006 17.8636
#
#
#
# Elastic Compliance Matrix: (Units=1/GPa)
#
#
# Indices 1 2 3 4 5 6 
#
# 1 0.021714 -0.009909 -0.005360 -0.017501 0.000336 0.021540
# 2 -0.009909 0.049937 -0.009141 0.059422 -0.017488 -0.071561
# 3 -0.005360 -0.009141 0.013551 -0.004954 0.002708 0.006193
# 4 -0.017501 0.059422 -0.004954 0.124600 -0.028056 -0.134549
# 5 0.000336 -0.017488 0.002708 -0.028056 0.038169 0.036932
# 6 0.021540 -0.071561 0.006193 -0.134549 0.036932 0.205128
#
#
# Mechanical properties :
#
#
# Convention : Reuss Voigt Hill
#
# Bulk Modulus (GPa) = 27.48535 48.19068 37.83802
# Shear Modulus (GPa) = 9.72675 26.91112 18.31893
#
# Velocity S-wave (km/s) = 2.33730 3.88773 3.20760
# Velocity P-wave (km/s) = 4.76665 6.87158 5.91352
#
# Compressibility (1/GPa) = 0.03638301
#
# Stress axis : x y z
#
# Youngs Moduli (GPa) = 46.05358 20.02531 73.79342
#
# Poissons Ratio (x) = 0.19843 0.39551
# Poissons Ratio (y) = 0.45635 0.67452
# Poissons Ratio (z) = 0.24684 0.18304
#
# Static dielectric constant tensor:
#      x y z
#    x 1.629700 0.015980 0.019600 
#    y 0.015980 1.626880 -0.035100 
#    z 0.019600 -0.035100 1.615920 
# 
# From -- ./inp_files/267208.got.cif
#   From: 2010.05.17/outbox.cif.g08.bks.cpg/sg2_134_cif.got.tgz:267208.got - 2010.06.03 11:33:40.
