data_PCOD9035637
_publ_section_title
;
Structure prediction by ZEFSAII (Michael W. Deem and Ramdas Pophale) SiO2 
 PCOD9035637
Probable space group: P -1
;
_chemical_formula_sum "Si O2"
_cell_formula_units_Z 16
_cell_length_a 8.728295
_cell_length_b 10.786510
_cell_length_c 9.828271
_cell_angle_alpha 105.850820
_cell_angle_beta 55.844975
_cell_angle_gamma 104.257975
_cell_volume 731.561333
_symmetry_space_group_name_H-M "P -1"
_symmetry_group_IT_number 2
_symmetry_cell_setting 'triclinic'
loop_
_space_group_symop_operation_xyz
x,y,z
-x,-y,-z
loop_
_atom_site_type_symbol
_atom_site_label
_atom_site_fract_x
_atom_site_fract_y
_atom_site_fract_z
Si Si1 0.996746 0.610536 0.146760
Si Si2 0.049173 0.937386 0.602025
Si Si3 0.199852 0.887088 0.090520
Si Si4 0.831218 0.460799 0.676637
Si Si5 0.714493 0.725133 0.748840
Si Si6 0.398976 0.796429 0.405833
Si Si7 0.403448 0.351331 0.516021
Si Si8 0.545002 0.906849 0.107740
O O1 0.123233 0.738657 0.070089
O O2 0.088308 0.564350 0.224535
O O3 0.791832 0.642324 0.304663
O O4 0.000000 0.500000 0.000000
O O5 0.257133 0.905268 0.515713
O O6 0.975268 0.033693 0.777085
O O7 0.000000 0.000000 0.500000
O O8 0.919048 0.800802 0.642405
O O9 0.331086 0.909982 0.167268
O O10 0.333593 0.954882 0.928508
O O11 0.717889 0.584219 0.769682
O O12 0.710368 0.331759 0.646961
O O13 0.000000 0.500000 0.500000
O O14 0.627034 0.703498 0.637129
O O15 0.618379 0.813939 0.928678
O O16 0.478600 0.743955 0.488050
O O17 0.553921 0.850699 0.235862
O O18 0.500000 0.500000 0.500000
#
# Coordination Sequence:
#
# PCOD9035637 Si02
#       8
#     2   2   2   2   2   2   2   2
#     4  12  27  46  74 102 143 184 229 297 359 413
#     4  11  20  41  74  94 131 193 238 277 338 429
#     4  10  22  46  70 100 138 181 238 282 350 421
#     4  12  21  43  69 102 135 187 239 278 344 433
#     4  11  24  41  71  97 141 184 231 291 353 407
#     4  12  23  41  73 107 137 184 244 284 348 410
#     4  12  26  44  63 109 149 179 229 298 352 406
#     4  10  23  42  76 103 132 182 241 290 335 419
#
# _framework density 21.871030999999999
#
# number of rings (size 3 to 8) (size 9 to 14) (size 15 to 20)
#    0.000    0.750    6.250    0.750    3.500    0.500 
#    0.000    3.125    2.750    0.000    0.000    0.000 
#    0.000    0.000    0.000    0.000    0.000    0.000 
#
# Total GULP energy -89523.607743 kJ/mol
# GULP energy per Si atom -5595.225484 kJ/mol
# Density = 2.182125 g / cm^3
# Si number density = 21.871031 Si / 1000 Ang^3
#
#
#
# Elastic Constant Matrix: (Units=GPa)
#
#
# Indices 1 2 3 4 5 6 
#
# 1 109.5106 39.4419 43.6102 7.2178 -1.4550 -22.6328
# 2 39.4419 157.0311 58.0794 -16.4736 5.2786 -6.2940
# 3 43.6102 58.0794 74.7629 1.9372 -11.0978 2.1307
# 4 7.2178 -16.4736 1.9372 30.6247 -0.7473 -3.9107
# 5 -1.4550 5.2786 -11.0978 -0.7473 25.7468 3.7096
# 6 -22.6328 -6.2940 2.1307 -3.9107 3.7096 35.3759
#
#
#
# Elastic Compliance Matrix: (Units=1/GPa)
#
#
# Indices 1 2 3 4 5 6 
#
# 1 0.015399 0.000437 -0.010385 -0.001469 -0.005316 0.010950
# 2 0.000437 0.011244 -0.010363 0.006991 -0.007183 0.004430
# 3 -0.010385 -0.010363 0.030429 -0.006279 0.016305 -0.012724
# 4 -0.001469 0.006991 -0.006279 0.037735 -0.003886 0.005261
# 5 -0.005316 -0.007183 0.016305 -0.003886 0.048538 -0.011180
# 6 0.010950 0.004430 -0.012724 0.005261 -0.011180 0.038582
#
#
# Mechanical properties :
#
#
# Convention : Reuss Voigt Hill
#
# Bulk Modulus (GPa) = 60.79084 69.28529 65.03806
# Shear Modulus (GPa) = 21.92669 31.69435 26.81052
#
# Velocity S-wave (km/s) = 3.16973 3.81090 3.50501
# Velocity P-wave (km/s) = 6.42275 7.14925 6.79571
#
# Compressibility (1/GPa) = 0.01644985
#
# Stress axis : x y z
#
# Youngs Moduli (GPa) = 64.93890 88.93785 32.86310
#
# Poissons Ratio (x) = -0.03883 0.34127
# Poissons Ratio (y) = -0.02835 0.34056
# Poissons Ratio (z) = 0.67437 0.92166
#
# Static dielectric constant tensor:
#      x y z
#    x 1.860110 -0.018880 -0.032780 
#    y -0.018880 1.789210 -0.005620 
#    z -0.032780 -0.005620 1.819870 
# 
# From -- ./inp_files/189062.got.cif
#   From: 2010.05.17/outbox.cif.g08.bks.cpg/sg2_95_cif.got.tgz:189062.got - 2010.06.03 11:33:40.
