data_PCOD9035009
_publ_section_title
;
Structure prediction by ZEFSAII (Michael W. Deem and Ramdas Pophale) SiO2 
 PCOD9035009
Probable space group: P -1
;
_chemical_formula_sum "Si O2"
_cell_formula_units_Z 14
_cell_length_a 13.848533
_cell_length_b 10.241048
_cell_length_c 5.037587
_cell_angle_alpha 63.273598
_cell_angle_beta 54.423650
_cell_angle_gamma 65.040094
_cell_volume 506.209398
_symmetry_space_group_name_H-M "P -1"
_symmetry_group_IT_number 2
_symmetry_cell_setting 'triclinic'
loop_
_space_group_symop_operation_xyz
x,y,z
-x,-y,-z
loop_
_atom_site_type_symbol
_atom_site_label
_atom_site_fract_x
_atom_site_fract_y
_atom_site_fract_z
Si Si1 0.817031 0.683452 0.567058
Si Si2 0.614811 0.379257 0.690681
Si Si3 0.412798 0.317438 0.382168
Si Si4 0.406161 0.906724 0.366597
Si Si5 0.085959 0.197915 0.192707
Si Si6 0.136346 0.942155 0.707837
Si Si7 0.160477 0.663414 0.239971
O O1 0.691928 0.733089 0.562703
O O2 0.828155 0.733017 0.805385
O O3 0.846941 0.503928 0.667520
O O4 0.905199 0.749317 0.168248
O O5 0.627634 0.550878 0.451913
O O6 0.616546 0.233686 0.642918
O O7 0.717136 0.335450 0.794137
O O8 0.475970 0.401022 0.986144
O O9 0.513406 0.176376 0.445327
O O10 0.262729 0.983102 0.580306
O O11 0.500000 0.000000 0.000000
O O12 0.953171 0.266586 0.457275
O O13 0.123642 0.021200 0.366574
O O14 0.157537 0.766424 0.893107
O O15 0.000000 0.000000 0.000000
#
# Coordination Sequence:
#
# PCOD9035009 Si02
#       7
#     2   2   2   2   2   2   2
#     4  11  25  43  73 106 142 185 244 313 370 436
#     4  10  23  43  69  99 134 181 245 297 361 440
#     4  10  23  43  67  99 136 184 234 302 366 433
#     4  12  25  41  70 106 141 190 242 307 372 440
#     4  11  25  46  69 105 146 188 243 305 374 438
#     4  10  24  45  68 101 146 194 243 294 370 446
#     4  10  22  45  70 102 134 195 241 299 365 449
#
# _framework density 27.656541000000001
#
# number of rings (size 3 to 8) (size 9 to 14) (size 15 to 20)
#    0.000    1.429    1.429    2.143    4.000    7.429 
#    0.000    5.000    0.000    0.000    0.000    0.000 
#    0.000    0.000    0.000    0.000    0.000    0.000 
#
# Total GULP energy -78247.285601 kJ/mol
# GULP energy per Si atom -5589.091829 kJ/mol
# Density = 2.759359 g / cm^3
# Si number density = 27.656541 Si / 1000 Ang^3
#
#
#
# Elastic Constant Matrix: (Units=GPa)
#
#
# Indices 1 2 3 4 5 6 
#
# 1 198.7622 60.8472 51.5298 -17.6172 -35.1968 -0.4541
# 2 60.8472 111.1553 33.7192 -14.2128 -6.3768 1.4037
# 3 51.5298 33.7192 115.1933 -9.6537 -26.5250 4.1688
# 4 -17.6172 -14.2128 -9.6537 34.1264 -6.7224 2.7395
# 5 -35.1968 -6.3768 -26.5250 -6.7224 51.9148 2.3961
# 6 -0.4541 1.4037 4.1688 2.7395 2.3961 51.2178
#
#
#
# Elastic Compliance Matrix: (Units=1/GPa)
#
#
# Indices 1 2 3 4 5 6 
#
# 1 0.007293 -0.003009 -0.001101 0.003081 0.004417 -0.000135
# 2 -0.003009 0.011520 -0.002140 0.002382 -0.001400 -0.000230
# 3 -0.001101 -0.002140 0.011278 0.002852 0.005180 -0.001264
# 4 0.003081 0.002382 0.002852 0.034554 0.008429 -0.002513
# 5 0.004417 -0.001400 0.005180 0.008429 0.025916 -0.002007
# 6 -0.000135 -0.000230 -0.001264 -0.002513 -0.002007 0.019861
#
#
# Mechanical properties :
#
#
# Convention : Reuss Voigt Hill
#
# Bulk Modulus (GPa) = 56.85306 79.70034 68.27670
# Shear Modulus (GPa) = 38.82403 46.05279 42.43841
#
# Velocity S-wave (km/s) = 3.75079 4.08507 3.92149
# Velocity P-wave (km/s) = 6.27370 7.15059 6.72645
#
# Compressibility (1/GPa) = 0.01758920
#
# Stress axis : x y z
#
# Youngs Moduli (GPa) = 137.12237 86.80540 88.66905
#
# Poissons Ratio (x) = 0.26119 0.09765
# Poissons Ratio (y) = 0.41260 0.18979
# Poissons Ratio (z) = 0.15102 0.18580
#
# Static dielectric constant tensor:
#      x y z
#    x 2.151250 0.034430 -0.012720 
#    y 0.034430 2.344870 0.079290 
#    z -0.012720 0.079290 2.195120 
# 
# From -- ./inp_files/94260.got.cif
#   From: 2010.05.17/outbox.cif.g08.bks.cpg/sg2_48_cif.got.tgz:94260.got - 2010.06.03 11:33:40.
