data_PCOD9035307
_publ_section_title
;
Structure prediction by ZEFSAII (Michael W. Deem and Ramdas Pophale) SiO2 
 PCOD9035307
Probable space group: P -1
;
_chemical_formula_sum "Si O2"
_cell_formula_units_Z 14
_cell_length_a 5.462073
_cell_length_b 5.137171
_cell_length_c 21.701763
_cell_angle_alpha 119.183658
_cell_angle_beta 86.859070
_cell_angle_gamma 96.968807
_cell_volume 527.710065
_symmetry_space_group_name_H-M "P -1"
_symmetry_group_IT_number 2
_symmetry_cell_setting 'triclinic'
loop_
_space_group_symop_operation_xyz
x,y,z
-x,-y,-z
loop_
_atom_site_type_symbol
_atom_site_label
_atom_site_fract_x
_atom_site_fract_y
_atom_site_fract_z
Si Si1 0.163820 0.122900 0.714798
Si Si2 0.821962 0.444401 0.420599
Si Si3 0.325627 0.250317 0.047673
Si Si4 0.798688 0.246042 0.824232
Si Si5 0.655933 0.323490 0.546547
Si Si6 0.604265 0.241377 0.221513
Si Si7 0.884239 0.878053 0.084773
O O1 0.362895 0.403765 0.733565
O O2 0.927910 0.276148 0.760181
O O3 0.121712 0.893049 0.633097
O O4 0.250410 0.913089 0.744032
O O5 0.747732 0.466869 0.496006
O O6 0.557701 0.499405 0.400245
O O7 0.072434 0.655771 0.423075
O O8 0.396748 0.536602 0.123483
O O9 0.243301 0.339177 0.990433
O O10 0.103689 0.074678 0.069199
O O11 0.500000 0.000000 0.000000
O O12 0.006782 0.287556 0.878644
O O13 0.673691 0.907920 0.788959
O O14 0.500000 0.000000 0.500000
O O15 0.712783 0.113116 0.142581
#
# Coordination Sequence:
#
# PCOD9035307 Si02
#       7
#     2   2   2   2   2   2   2
#     4  11  27  46  69 106 141 189 238 294 356 438
#     4  10  24  43  71 110 147 191 246 296 360 432
#     4  11  23  39  69  95 130 177 232 301 368 430
#     4  11  25  44  68  94 138 181 234 299 364 435
#     4  10  22  45  73 110 148 193 240 302 354 430
#     4  11  26  45  72  98 140 185 240 293 361 433
#     4  10  23  42  62  95 132 172 234 293 361 427
#
# _framework density 26.529719
#
# number of rings (size 3 to 8) (size 9 to 14) (size 15 to 20)
#    0.000    1.429    1.429    1.714    8.000    3.429 
#    0.000    0.000    0.000    0.000    0.000    0.000 
#    0.000    0.000    0.000    0.000    0.000    0.000 
#
# Total GULP energy -78313.305949 kJ/mol
# GULP energy per Si atom -5593.807568 kJ/mol
# Density = 2.646934 g / cm^3
# Si number density = 26.529719 Si / 1000 Ang^3
#
#
#
# Elastic Constant Matrix: (Units=GPa)
#
#
# Indices 1 2 3 4 5 6 
#
# 1 137.1725 41.7962 31.6773 3.8241 -15.5038 24.2392
# 2 41.7962 93.3853 24.0326 26.6928 -3.3203 22.2124
# 3 31.6773 24.0326 114.1787 20.7716 -14.5646 5.5267
# 4 3.8241 26.6928 20.7716 44.9516 2.2677 8.5326
# 5 -15.5038 -3.3203 -14.5646 2.2677 18.4902 6.8654
# 6 24.2392 22.2124 5.5267 8.5326 6.8654 51.0947
#
#
#
# Elastic Compliance Matrix: (Units=1/GPa)
#
#
# Indices 1 2 3 4 5 6 
#
# 1 0.010414 -0.003542 -0.001219 0.002257 0.008644 -0.004807
# 2 -0.003542 0.015779 -0.000381 -0.008230 0.002074 -0.004043
# 3 -0.001219 -0.000381 0.011265 -0.005166 0.008706 -0.000782
# 4 0.002257 -0.008230 -0.005166 0.029866 -0.006951 -0.000988
# 5 0.008644 0.002074 0.008706 -0.006951 0.074928 -0.014851
# 6 -0.004807 -0.004043 -0.000782 -0.000988 -0.014851 0.025855
#
#
# Mechanical properties :
#
#
# Convention : Reuss Voigt Hill
#
# Bulk Modulus (GPa) = 36.79942 59.97210 48.38576
# Shear Modulus (GPa) = 26.67389 39.38933 33.03161
#
# Velocity S-wave (km/s) = 3.17430 3.85739 3.53240
# Velocity P-wave (km/s) = 5.22839 6.51874 5.90889
#
# Compressibility (1/GPa) = 0.02717434
#
# Stress axis : x y z
#
# Youngs Moduli (GPa) = 96.02134 63.37448 88.77124
#
# Poissons Ratio (x) = 0.22445 0.10822
# Poissons Ratio (y) = 0.34008 0.03385
# Poissons Ratio (z) = 0.11706 0.02416
#
# Static dielectric constant tensor:
#      x y z
#    x 2.263320 -0.076080 0.025300 
#    y -0.076080 2.073980 0.005910 
#    z 0.025300 0.005910 2.069430 
# 
# From -- ./inp_files/7968.got.cif
#   From: 2010.05.17/outbox.cif.g08.bks.cpg/sg2_4_cif.got.tgz:7968.got - 2010.06.03 11:33:40.
