data_PCOD9035196
_publ_section_title
;
Structure prediction by ZEFSAII (Michael W. Deem and Ramdas Pophale) SiO2 
 PCOD9035196
Probable space group: P -1
;
_chemical_formula_sum "Si O2"
_cell_formula_units_Z 16
_cell_length_a 11.816655
_cell_length_b 10.856912
_cell_length_c 11.679980
_cell_angle_alpha 36.762178
_cell_angle_beta 102.943271
_cell_angle_gamma 76.959758
_cell_volume 628.883183
_symmetry_space_group_name_H-M "P -1"
_symmetry_group_IT_number 2
_symmetry_cell_setting 'triclinic'
loop_
_space_group_symop_operation_xyz
x,y,z
-x,-y,-z
loop_
_atom_site_type_symbol
_atom_site_label
_atom_site_fract_x
_atom_site_fract_y
_atom_site_fract_z
Si Si1 0.144073 0.604883 0.374932
Si Si2 0.854722 0.661159 0.757158
Si Si3 0.753969 0.397642 0.244686
Si Si4 0.639714 0.121557 0.529747
Si Si5 0.133678 0.957994 0.686980
Si Si6 0.281934 0.564684 0.204633
Si Si7 0.649295 0.867706 0.047976
Si Si8 0.832248 0.962090 0.907918
O O1 0.268382 0.528129 0.362187
O O2 0.207304 0.379595 0.652898
O O3 0.121124 0.858096 0.236111
O O4 0.989590 0.699799 0.207578
O O5 0.840771 0.452936 0.860415
O O6 0.688028 0.904465 0.605132
O O7 0.859639 0.832337 0.534408
O O8 0.000000 0.500000 0.000000
O O9 0.655205 0.328547 0.324686
O O10 0.774791 0.320833 0.169737
O O11 0.671555 0.698005 0.063953
O O12 0.942496 0.151211 0.507020
O O13 0.465688 0.308341 0.403217
O O14 0.780745 0.936342 0.794320
O O15 0.218096 0.845959 0.913886
O O16 0.681209 0.065747 0.873292
O O17 0.500000 0.000000 0.000000
#
# Coordination Sequence:
#
# PCOD9035196 Si02
#       8
#     2   2   2   2   2   2   2   2
#     4  11  26  48  69 104 138 185 246 286 351 425
#     4  11  24  44  72 104 141 183 242 285 352 427
#     4  10  22  45  72 100 141 180 239 285 351 423
#     4  11  24  45  69 102 144 184 227 298 363 412
#     4  10  24  45  72 105 134 191 234 291 353 415
#     4  12  26  43  71 104 146 179 235 297 353 427
#     4  12  27  44  72 107 141 185 236 294 360 418
#     4  11  25  46  75  96 136 191 237 293 348 421
#
# _framework density 25.441925999999999
#
# number of rings (size 3 to 8) (size 9 to 14) (size 15 to 20)
#    0.000    1.000    1.250    5.250    8.750    4.000 
#    4.500    0.000    0.000    0.000    0.000    0.000 
#    0.000    0.000    0.000    0.000    0.000    0.000 
#
# Total GULP energy -89395.509055 kJ/mol
# GULP energy per Si atom -5587.219316 kJ/mol
# Density = 2.538402 g / cm^3
# Si number density = 25.441926 Si / 1000 Ang^3
#
#
#
# Elastic Constant Matrix: (Units=GPa)
#
#
# Indices 1 2 3 4 5 6 
#
# 1 109.8256 42.8599 32.6930 -5.5964 2.6262 -28.2821
# 2 42.8599 93.9382 -0.7942 -8.0699 -0.3852 -19.0318
# 3 32.6930 -0.7942 45.4567 1.9568 -16.2120 3.6100
# 4 -5.5964 -8.0699 1.9568 30.9409 -15.1260 3.4542
# 5 2.6262 -0.3852 -16.2120 -15.1260 38.5262 -0.5228
# 6 -28.2821 -19.0318 3.6100 3.4542 -0.5228 35.7108
#
#
#
# Elastic Compliance Matrix: (Units=1/GPa)
#
#
# Indices 1 2 3 4 5 6 
#
# 1 0.023270 -0.007846 -0.022534 -0.004484 -0.012680 0.016773
# 2 -0.007846 0.014830 0.007725 0.004736 0.005800 0.000535
# 3 -0.022534 0.007725 0.048553 0.009478 0.025506 -0.019181
# 4 -0.004484 0.004736 0.009478 0.043166 0.021210 -0.005850
# 5 -0.012680 0.005800 0.025506 0.021210 0.045791 -0.010911
# 6 0.016773 0.000535 -0.019181 -0.005850 -0.010911 0.043917
#
#
# Mechanical properties :
#
#
# Convention : Reuss Voigt Hill
#
# Bulk Modulus (GPa) = 24.18972 44.30422 34.24697
# Shear Modulus (GPa) = 17.94570 32.66636 25.30603
#
# Velocity S-wave (km/s) = 2.65874 3.58712 3.15724
# Velocity P-wave (km/s) = 4.35358 5.88288 5.17503
#
# Compressibility (1/GPa) = 0.04133988
#
# Stress axis : x y z
#
# Youngs Moduli (GPa) = 42.97453 67.43266 20.59623
#
# Poissons Ratio (x) = 0.52910 0.46412
# Poissons Ratio (y) = 0.33719 -0.15910
# Poissons Ratio (z) = 0.96840 -0.52089
#
# Static dielectric constant tensor:
#      x y z
#    x 1.948380 -0.023520 -0.024350 
#    y -0.023520 2.154030 -0.028410 
#    z -0.024350 -0.028410 1.991270 
# 
# From -- ./inp_files/427423.got.cif
#   From: 2010.05.17/outbox.cif.g08.bks.cpg/sg2_214_cif.got.tgz:427423.got - 2010.06.03 11:33:40.
