data_PCOD9035799
_publ_section_title
;
Structure prediction by ZEFSAII (Michael W. Deem and Ramdas Pophale) SiO2 
 PCOD9035799
Probable space group: P -1
;
_chemical_formula_sum "Si O2"
_cell_formula_units_Z 13
_cell_length_a 5.359237
_cell_length_b 9.443229
_cell_length_c 11.469332
_cell_angle_alpha 98.777872
_cell_angle_beta 76.835761
_cell_angle_gamma 67.845376
_cell_volume 504.828495
_symmetry_space_group_name_H-M "P -1"
_symmetry_group_IT_number 2
_symmetry_cell_setting 'triclinic'
loop_
_space_group_symop_operation_xyz
x,y,z
-x,-y,-z
loop_
_atom_site_type_symbol
_atom_site_label
_atom_site_fract_x
_atom_site_fract_y
_atom_site_fract_z
Si Si1 0.182141 0.601419 0.003253
Si Si2 0.052474 0.302815 0.196898
Si Si3 0.847301 0.483982 0.629709
Si Si4 0.500000 0.000000 0.000000
Si Si5 0.329727 0.788456 0.640508
Si Si6 0.239303 0.832308 0.407685
Si Si7 0.914910 0.094698 0.817388
O O1 0.161958 0.667227 0.883183
O O2 0.500000 0.500000 0.000000
O O3 0.049565 0.755107 0.118395
O O4 0.000000 0.500000 0.000000
O O5 0.034483 0.471114 0.261154
O O6 0.350366 0.179835 0.097770
O O7 0.961713 0.233827 0.312800
O O8 0.548807 0.634991 0.661784
O O9 0.839346 0.316003 0.612500
O O10 0.000000 0.500000 0.500000
O O11 0.239271 0.966086 0.078752
O O12 0.435573 0.787109 0.496619
O O13 0.225602 0.960084 0.732053
O O14 0.283181 0.862028 0.272156
O O15 0.000000 0.000000 0.500000
#
# Coordination Sequence:
#
# PCOD9035799 Si02
#       7
#     2   2   2   1   2   2   2
#     4  12  28  48  73 117 164 213 270 338 408 484
#     4  11  26  44  76 109 153 209 262 326 404 489
#     4  12  25  44  77 112 150 207 268 326 412 489
#     4  10  24  48  78 116 160 212 270 320 416 488
#     4  10  24  45  76 110 153 202 262 334 407 479
#     4  10  22  46  72 109 154 195 261 334 401 474
#     4  10  24  46  78 113 163 211 270 336 406 491
#
# _framework density 25.751322999999999
#
# number of rings (size 3 to 8) (size 9 to 14) (size 15 to 20)
#    0.000    1.231    1.538    2.308    8.615    1.231 
#    0.000    4.615    0.000    0.000    0.000    0.000 
#    0.000    0.000    0.000    0.000    0.000    0.000 
#
# Total GULP energy -72433.517085 kJ/mol
# GULP energy per Si atom -5571.809007 kJ/mol
# Density = 2.569271 g / cm^3
# Si number density = 25.751323 Si / 1000 Ang^3
#
#
#
# Elastic Constant Matrix: (Units=GPa)
#
#
# Indices 1 2 3 4 5 6 
#
# 1 70.5855 42.1433 53.6518 9.6870 6.7101 1.4700
# 2 42.1433 158.5646 57.2193 35.3759 15.9724 18.7847
# 3 53.6518 57.2193 149.7222 27.7129 11.6634 -7.0754
# 4 9.6870 35.3759 27.7129 64.4515 4.0949 15.8650
# 5 6.7101 15.9724 11.6634 4.0949 37.2648 -1.3408
# 6 1.4700 18.7847 -7.0754 15.8650 -1.3408 25.6435
#
#
#
# Elastic Compliance Matrix: (Units=1/GPa)
#
#
# Indices 1 2 3 4 5 6 
#
# 1 0.021073 -0.003365 -0.006693 0.002058 -0.000552 -0.001892
# 2 -0.003365 0.009425 -0.002085 -0.002083 -0.002773 -0.006143
# 3 -0.006693 -0.002085 0.011118 -0.004494 -0.000609 0.007727
# 4 0.002058 -0.002083 -0.004494 0.021600 -0.000922 -0.013244
# 5 -0.000552 -0.002773 -0.000609 -0.000922 0.028558 0.003958
# 6 -0.001892 -0.006143 0.007727 -0.013244 0.003958 0.054137
#
#
# Mechanical properties :
#
#
# Convention : Reuss Voigt Hill
#
# Bulk Modulus (GPa) = 57.69985 76.10011 66.89998
# Shear Modulus (GPa) = 28.41340 40.52918 34.47129
#
# Velocity S-wave (km/s) = 3.32531 3.97150 3.66269
# Velocity P-wave (km/s) = 6.09908 7.11664 6.62742
#
# Compressibility (1/GPa) = 0.01733107
#
# Stress axis : x y z
#
# Youngs Moduli (GPa) = 47.45460 106.10017 89.94068
#
# Poissons Ratio (x) = 0.35704 0.60194
# Poissons Ratio (y) = 0.15969 0.18751
# Poissons Ratio (z) = 0.31759 0.22120
#
# Static dielectric constant tensor:
#      x y z
#    x 2.564830 -0.132520 -0.410500 
#    y -0.132520 2.118270 0.037070 
#    z -0.410500 0.037070 2.508200 
# 
# From -- ./inp_files/360317.got.cif
#   From: 2010.05.17/outbox.cif.g08.bks.cpg/sg2_181_cif.got.tgz:360317.got - 2010.06.03 11:33:40.
