data_PCOD9035357
_publ_section_title
;
Structure prediction by ZEFSAII (Michael W. Deem and Ramdas Pophale) SiO2 
 PCOD9035357
Probable space group: P -1
;
_chemical_formula_sum "Si O2"
_cell_formula_units_Z 14
_cell_length_a 14.488426
_cell_length_b 11.962241
_cell_length_c 11.439020
_cell_angle_alpha 43.154562
_cell_angle_beta 75.974692
_cell_angle_gamma 43.289897
_cell_volume 732.816478
_symmetry_space_group_name_H-M "P -1"
_symmetry_group_IT_number 2
_symmetry_cell_setting 'triclinic'
loop_
_space_group_symop_operation_xyz
x,y,z
-x,-y,-z
loop_
_atom_site_type_symbol
_atom_site_label
_atom_site_fract_x
_atom_site_fract_y
_atom_site_fract_z
Si Si1 0.350392 0.392883 0.569653
Si Si2 0.415308 0.627088 0.055186
Si Si3 0.338045 0.225798 0.287744
Si Si4 0.825592 0.214804 0.462413
Si Si5 0.820376 0.321173 0.846597
Si Si6 0.351397 0.862554 0.442791
Si Si7 0.515018 0.816333 0.951313
O O1 0.201279 0.671232 0.486971
O O2 0.282894 0.482840 0.388477
O O3 0.516704 0.275545 0.596542
O O4 0.419448 0.115579 0.795807
O O5 0.265183 0.711814 0.039246
O O6 0.542422 0.376155 0.305347
O O7 0.500000 0.500000 0.000000
O O8 0.384128 0.857698 0.927697
O O9 0.185211 0.520325 0.183994
O O10 0.392147 0.263483 0.135763
O O11 0.500000 0.000000 0.500000
O O12 0.296457 0.111167 0.330055
O O13 0.790346 0.070052 0.595479
O O14 0.664133 0.531335 0.204701
O O15 0.000000 0.000000 0.500000
O O16 0.000000 0.000000 0.000000
#
# Coordination Sequence:
#
# PCOD9035357 Si02
#       7
#     2   2   2   2   2   2   2
#     4  10  21  41  60  80 115 157 197 223 279 357
#     4  10  17  32  58  86 112 148 191 222 282 347
#     4  11  17  38  63  86 112 148 198 226 282 355
#     4  11  24  39  58  86 119 146 193 248 290 318
#     4  11  23  35  58  90 121 148 181 245 292 334
#     4   9  20  36  62  82 107 161 192 227 275 355
#     4  10  20  36  63  83 108 156 196 231 273 347
#
# _framework density 19.104374
#
# number of rings (size 3 to 8) (size 9 to 14) (size 15 to 20)
#    0.000    1.714    5.714    0.857    2.000    0.000 
#    2.571    3.571    0.000    0.000    0.000    0.000 
#    0.000    0.000    0.000    0.000    0.000    0.000 
#
# Total GULP energy -77997.577918 kJ/mol
# GULP energy per Si atom -5571.255566 kJ/mol
# Density = 1.906089 g / cm^3
# Si number density = 19.104374 Si / 1000 Ang^3
#
#
#
# Elastic Constant Matrix: (Units=GPa)
#
#
# Indices 1 2 3 4 5 6 
#
# 1 81.1607 41.5275 20.8939 -15.9262 -34.8872 1.9212
# 2 41.5275 128.8679 12.4976 -21.7603 -19.3446 4.9924
# 3 20.8939 12.4976 48.1339 -5.5091 -23.8086 1.0861
# 4 -15.9262 -21.7603 -5.5091 36.8024 1.5213 -1.8951
# 5 -34.8872 -19.3446 -23.8086 1.5213 27.3759 -2.8161
# 6 1.9212 4.9924 1.0861 -1.8951 -2.8161 24.9030
#
#
#
# Elastic Compliance Matrix: (Units=1/GPa)
#
#
# Indices 1 2 3 4 5 6 
#
# 1 0.038346 -0.002432 0.015387 0.015220 0.060180 0.004822
# 2 -0.002432 0.009980 0.001423 0.004812 0.004823 -0.000963
# 3 0.015387 0.001423 0.044002 0.011876 0.058649 0.004145
# 4 0.015220 0.004812 0.011876 0.037274 0.031437 0.003735
# 5 0.060180 0.004823 0.058649 0.031437 0.167239 0.013137
# 6 0.004822 -0.000963 0.004145 0.003735 0.013137 0.041566
#
#
# Mechanical properties :
#
#
# Convention : Reuss Voigt Hill
#
# Bulk Modulus (GPa) = 8.25884 45.33339 26.79611
# Shear Modulus (GPa) = 14.28520 30.03250 22.15885
#
# Velocity S-wave (km/s) = 2.73746 3.96917 3.40940
# Velocity P-wave (km/s) = 3.78470 6.69228 5.43648
#
# Compressibility (1/GPa) = 0.12108240
#
# Stress axis : x y z
#
# Youngs Moduli (GPa) = 26.07864 100.20465 22.72614
#
# Poissons Ratio (x) = 0.24371 -0.34968
# Poissons Ratio (y) = 0.06343 -0.03234
# Poissons Ratio (z) = -0.40126 -0.14259
#
# Static dielectric constant tensor:
#      x y z
#    x 1.733660 0.027230 0.004440 
#    y 0.027230 1.657280 -0.002090 
#    z 0.004440 -0.002090 1.691490 
# 
# From -- ./inp_files/168447.got.cif
#   From: 2010.05.17/outbox.cif.g08.bks.cpg/sg2_85_cif.got.tgz:168447.got - 2010.06.03 11:33:40.
