data_PCOD9035573
_publ_section_title
;
Structure prediction by ZEFSAII (Michael W. Deem and Ramdas Pophale) SiO2 
 PCOD9035573
Probable space group: P -1
;
_chemical_formula_sum "Si O2"
_cell_formula_units_Z 15
_cell_length_a 8.408066
_cell_length_b 20.524413
_cell_length_c 9.466250
_cell_angle_alpha 127.953279
_cell_angle_beta 97.777968
_cell_angle_gamma 41.299522
_cell_volume 661.741309
_symmetry_space_group_name_H-M "P -1"
_symmetry_group_IT_number 2
_symmetry_cell_setting 'triclinic'
loop_
_space_group_symop_operation_xyz
x,y,z
-x,-y,-z
loop_
_atom_site_type_symbol
_atom_site_label
_atom_site_fract_x
_atom_site_fract_y
_atom_site_fract_z
Si Si1 0.657506 0.628613 0.483208
Si Si2 0.275116 0.799758 0.951586
Si Si3 0.494563 0.413737 0.068349
Si Si4 0.000000 0.500000 0.000000
Si Si5 0.748385 0.714419 0.012801
Si Si6 0.226904 0.703652 0.356252
Si Si7 0.564912 0.098794 0.210984
Si Si8 0.541346 0.017192 0.797721
O O1 0.472548 0.699264 0.699505
O O2 0.458780 0.672571 0.395924
O O3 0.662124 0.723245 0.571614
O O4 0.991952 0.439671 0.265185
O O5 0.322554 0.699885 0.925073
O O6 0.426654 0.811206 0.063979
O O7 0.919851 0.971512 0.098999
O O8 0.328714 0.575048 0.277339
O O9 0.244961 0.452729 0.052521
O O10 0.716655 0.327696 0.845200
O O11 0.865012 0.639716 0.081426
O O12 0.702590 0.830528 0.129842
O O13 0.879757 0.876605 0.585783
O O14 0.512487 0.054088 0.265158
O O15 0.526657 0.072608 0.019232
#
# Coordination Sequence:
#
# PCOD9035573 Si02
#       8
#     2   2   2   1   2   2   2   2
#     4  12  23  43  73  97 138 182 223 282 343 400
#     4  11  23  42  70  98 138 175 229 278 339 404
#     4  10  25  44  68 102 137 180 232 279 340 408
#     4  10  22  46  68  96 140 176 228 284 330 400
#     4  11  24  43  69 103 133 183 228 279 337 417
#     4  11  24  45  70  97 141 181 227 283 339 406
#     4  11  25  43  66 106 140 176 225 288 334 409
#     4  11  25  43  68 101 143 176 228 280 346 396
#
# _framework density 22.667466999999998
#
# number of rings (size 3 to 8) (size 9 to 14) (size 15 to 20)
#    0.000    1.067    4.000    1.600    5.600    1.600 
#    2.400    3.333    0.000    0.000    0.000    0.000 
#    0.000    0.000    0.000    0.000    0.000    0.000 
#
# Total GULP energy -83733.312853 kJ/mol
# GULP energy per Si atom -5582.220857 kJ/mol
# Density = 2.261587 g / cm^3
# Si number density = 22.667467 Si / 1000 Ang^3
#
#
#
# Elastic Constant Matrix: (Units=GPa)
#
#
# Indices 1 2 3 4 5 6 
#
# 1 62.2522 17.5689 29.3051 17.1421 8.9333 17.2936
# 2 17.5689 103.8644 13.4223 5.9356 2.8238 37.0279
# 3 29.3051 13.4223 58.2077 31.5398 7.6271 17.1564
# 4 17.1421 5.9356 31.5398 29.7403 2.0987 8.2171
# 5 8.9333 2.8238 7.6271 2.0987 24.9508 9.7953
# 6 17.2936 37.0279 17.1564 8.2171 9.7953 57.0442
#
#
#
# Elastic Compliance Matrix: (Units=1/GPa)
#
#
# Indices 1 2 3 4 5 6 
#
# 1 0.022372 -0.001717 -0.007911 -0.003285 -0.004306 -0.002076
# 2 -0.001717 0.012783 -0.000660 0.001223 0.002478 -0.008180
# 3 -0.007911 -0.000660 0.046829 -0.043446 -0.006209 -0.003933
# 4 -0.003285 0.001223 -0.043446 0.080725 0.007382 0.000373
# 5 -0.004306 0.002478 -0.006209 0.007382 0.045487 -0.007310
# 6 -0.002076 -0.008180 -0.003933 0.000373 -0.007310 0.025854
#
#
# Mechanical properties :
#
#
# Convention : Reuss Voigt Hill
#
# Bulk Modulus (GPa) = 16.28476 38.32411 27.30443
# Shear Modulus (GPa) = 18.17562 33.28227 25.72895
#
# Velocity S-wave (km/s) = 2.83475 3.83598 3.37272
# Velocity P-wave (km/s) = 4.23251 6.04677 5.21908
#
# Compressibility (1/GPa) = 0.06140711
#
# Stress axis : x y z
#
# Youngs Moduli (GPa) = 44.69965 78.23158 21.35418
#
# Poissons Ratio (x) = 0.13433 0.16894
# Poissons Ratio (y) = 0.07675 0.01409
# Poissons Ratio (z) = 0.35364 0.05161
#
# Static dielectric constant tensor:
#      x y z
#    x 1.883520 0.028120 -0.009670 
#    y 0.028120 1.810840 -0.024220 
#    z -0.009670 -0.024220 1.821340 
# 
# From -- ./inp_files/224082.got.cif
#   From: 2010.05.17/outbox.cif.g08.bks.cpg/sg2_113_cif.got.tgz:224082.got - 2010.06.03 11:33:40.
