data_PCOD9035838
_publ_section_title
;
Structure prediction by ZEFSAII (Michael W. Deem and Ramdas Pophale) SiO2 
 PCOD9035838
Probable space group: P -1
;
_chemical_formula_sum "Si O2"
_cell_formula_units_Z 12
_cell_length_a 9.599365
_cell_length_b 9.573565
_cell_length_c 9.449251
_cell_angle_alpha 46.592054
_cell_angle_beta 105.341288
_cell_angle_gamma 73.098048
_cell_volume 449.161608
_symmetry_space_group_name_H-M "P -1"
_symmetry_group_IT_number 2
_symmetry_cell_setting 'triclinic'
loop_
_space_group_symop_operation_xyz
x,y,z
-x,-y,-z
loop_
_atom_site_type_symbol
_atom_site_label
_atom_site_fract_x
_atom_site_fract_y
_atom_site_fract_z
Si Si1 0.771624 0.232658 0.750753
Si Si2 0.224787 0.327403 0.633702
Si Si3 0.643263 0.342524 0.952043
Si Si4 0.669319 0.684736 0.027054
Si Si5 0.629353 0.091180 0.554930
Si Si6 0.115211 0.142724 0.492942
O O1 0.740371 0.485993 0.536143
O O2 0.670045 0.268288 0.845964
O O3 0.708619 0.160325 0.652367
O O4 0.000000 0.000000 0.000000
O O5 0.334740 0.206146 0.896450
O O6 0.000000 0.500000 0.500000
O O7 0.236430 0.173754 0.611661
O O8 0.468220 0.377185 0.950554
O O9 0.573820 0.624141 0.741758
O O10 0.840615 0.104626 0.251817
O O11 0.891878 0.412423 0.250095
O O12 0.611839 0.898125 0.751624
O O13 0.783823 0.945382 0.570532
#
# Coordination Sequence:
#
# PCOD9035838 Si02
#       6
#     2   2   2   2   2   2
#     4  12  25  48  78 110 145 199 257 301 368 453
#     4  10  22  46  73 106 141 197 246 299 362 442
#     4  12  28  49  77 113 149 198 253 307 367 451
#     4  11  25  50  78 107 153 200 251 303 369 445
#     4  12  27  50  76 115 150 197 248 314 372 437
#     4  11  26  51  75 110 158 195 243 311 380 434
#
# _framework density 26.716443999999999
#
# number of rings (size 3 to 8) (size 9 to 14) (size 15 to 20)
#    0.000    0.667    1.667    6.500    2.333    2.667 
#    6.000    0.000    0.000    0.000    0.000    0.000 
#    0.000    0.000    0.000    0.000    0.000    0.000 
#
# Total GULP energy -67419.550964 kJ/mol
# GULP energy per Si atom -5618.295914 kJ/mol
# Density = 2.665564 g / cm^3
# Si number density = 26.716444 Si / 1000 Ang^3
#
#
#
# Elastic Constant Matrix: (Units=GPa)
#
#
# Indices 1 2 3 4 5 6 
#
# 1 111.2025 61.1255 68.9747 -2.9218 -8.8698 -15.8973
# 2 61.1255 215.5073 67.4184 2.5290 -20.1257 -18.1623
# 3 68.9747 67.4184 212.8988 -23.7609 -29.1431 -21.2970
# 4 -2.9218 2.5290 -23.7609 48.8124 -16.0648 -6.0139
# 5 -8.8698 -20.1257 -29.1431 -16.0648 49.1931 -4.9058
# 6 -15.8973 -18.1623 -21.2970 -6.0139 -4.9058 64.5188
#
#
#
# Elastic Compliance Matrix: (Units=1/GPa)
#
#
# Indices 1 2 3 4 5 6 
#
# 1 0.012517 -0.002473 -0.003404 -0.000965 -0.000977 0.001100
# 2 -0.002473 0.005796 -0.000772 -0.000232 0.001478 0.000858
# 3 -0.003404 -0.000772 0.007735 0.005816 0.005800 0.002481
# 4 -0.000965 -0.000232 0.005816 0.028159 0.012893 0.005222
# 5 -0.000977 0.001478 0.005800 0.012893 0.028951 0.005493
# 6 0.001100 0.000858 0.002481 0.005222 0.005493 0.017735
#
#
# Mechanical properties :
#
#
# Convention : Reuss Voigt Hill
#
# Bulk Modulus (GPa) = 78.41962 103.84953 91.13457
# Shear Modulus (GPa) = 42.21535 55.31085 48.76310
#
# Velocity S-wave (km/s) = 3.97939 4.55498 4.27688
# Velocity P-wave (km/s) = 7.10847 8.16206 7.65342
#
# Compressibility (1/GPa) = 0.01275191
#
# Stress axis : x y z
#
# Youngs Moduli (GPa) = 79.89206 172.52820 129.27540
#
# Poissons Ratio (x) = 0.42660 0.43999
# Poissons Ratio (y) = 0.19754 0.09982
# Poissons Ratio (z) = 0.27192 0.13321
#
# Static dielectric constant tensor:
#      x y z
#    x 2.015170 0.020120 0.037710 
#    y 0.020120 2.106550 0.010370 
#    z 0.037710 0.010370 2.118130 
# 
# From -- ./inp_files/230235.got.cif
#   From: 2010.05.17/outbox.cif.g08.bks.cpg/sg2_116_cif.got.tgz:230235.got - 2010.06.03 11:33:40.
