data_PCOD9035640
_publ_section_title
;
Structure prediction by ZEFSAII (Michael W. Deem and Ramdas Pophale) SiO2 
 PCOD9035640
Probable space group: P -1
;
_chemical_formula_sum "Si O2"
_cell_formula_units_Z 15
_cell_length_a 15.408172
_cell_length_b 9.005011
_cell_length_c 8.928706
_cell_angle_alpha 46.471785
_cell_angle_beta 100.648865
_cell_angle_gamma 72.233114
_cell_volume 701.624051
_symmetry_space_group_name_H-M "P -1"
_symmetry_group_IT_number 2
_symmetry_cell_setting 'triclinic'
loop_
_space_group_symop_operation_xyz
x,y,z
-x,-y,-z
loop_
_atom_site_type_symbol
_atom_site_label
_atom_site_fract_x
_atom_site_fract_y
_atom_site_fract_z
Si Si1 0.710093 0.773298 0.012448
Si Si2 0.973848 0.758010 0.880264
Si Si3 0.829647 0.225228 0.055064
Si Si4 0.251047 0.756121 0.668927
Si Si5 0.500000 0.000000 0.000000
Si Si6 0.417066 0.850293 0.564485
Si Si7 0.082135 0.251079 0.799670
Si Si8 0.610790 0.734659 0.523188
O O1 0.740534 0.494797 0.189072
O O2 0.608605 0.922002 0.992159
O O3 0.813901 0.755786 0.114643
O O4 0.666857 0.926569 0.735407
O O5 0.068320 0.784583 0.843311
O O6 0.852683 0.001375 0.620442
O O7 0.976176 0.739349 0.073274
O O8 0.000000 0.500000 0.000000
O O9 0.773880 0.186428 0.203231
O O10 0.874801 0.001984 0.104547
O O11 0.737323 0.501846 0.760067
O O12 0.364968 0.708627 0.692923
O O13 0.581489 0.780756 0.308406
O O14 0.534080 0.686312 0.629169
O O15 0.422118 0.996141 0.606286
O O16 0.000000 0.500000 0.500000
#
# Coordination Sequence:
#
# PCOD9035640 Si02
#       8
#     2   2   2   2   1   2   2   2
#     4  11  24  47  67 105 137 186 231 282 345 412
#     4  12  25  46  73 100 139 185 231 288 344 416
#     4  12  26  42  71 106 135 184 236 281 348 418
#     4  12  24  44  75 101 136 185 233 283 341 417
#     4  10  26  40  74  96 148 178 218 294 350 400
#     4  10  22  46  70 100 141 181 234 282 339 410
#     4  12  27  45  67 102 147 180 227 295 348 407
#     4  10  23  45  69 105 141 181 230 286 346 415
#
# _framework density 21.378971
#
# number of rings (size 3 to 8) (size 9 to 14) (size 15 to 20)
#    0.000    0.800    2.667    4.000    5.600    1.600 
#    0.000    2.667    0.000    0.000    0.000    0.000 
#    0.000    0.000    0.000    0.000    0.000    0.000 
#
# Total GULP energy -83733.751584 kJ/mol
# GULP energy per Si atom -5582.250106 kJ/mol
# Density = 2.133031 g / cm^3
# Si number density = 21.378971 Si / 1000 Ang^3
#
#
#
# Elastic Constant Matrix: (Units=GPa)
#
#
# Indices 1 2 3 4 5 6 
#
# 1 101.7920 20.7327 -10.9450 -2.0432 -3.9725 5.5713
# 2 20.7327 52.9282 0.0121 -1.0133 -13.4226 12.1203
# 3 -10.9450 0.0121 52.1144 12.0637 4.8596 -10.6897
# 4 -2.0432 -1.0133 12.0637 23.4553 -5.5153 -9.2585
# 5 -3.9725 -13.4226 4.8596 -5.5153 36.7807 2.3746
# 6 5.5713 12.1203 -10.6897 -9.2585 2.3746 26.5518
#
#
#
# Elastic Compliance Matrix: (Units=1/GPa)
#
#
# Indices 1 2 3 4 5 6 
#
# 1 0.010990 -0.004784 0.002714 -0.000549 -0.001056 0.000873
# 2 -0.004784 0.026752 -0.004980 0.000295 0.010857 -0.014081
# 3 0.002714 -0.004980 0.024683 -0.010985 -0.006977 0.008435
# 4 -0.000549 0.000295 -0.010985 0.055997 0.008975 0.014281
# 5 -0.001056 0.010857 -0.006977 0.008975 0.033784 -0.007436
# 6 0.000873 -0.014081 0.008435 0.014281 -0.007436 0.052947
#
#
# Mechanical properties :
#
#
# Convention : Reuss Voigt Hill
#
# Bulk Modulus (GPa) = 20.69300 25.15937 22.92619
# Shear Modulus (GPa) = 21.24386 30.49321 25.86854
#
# Velocity S-wave (km/s) = 3.15569 3.78076 3.48228
# Velocity P-wave (km/s) = 4.79354 5.55452 5.18800
#
# Compressibility (1/GPa) = 0.04832551
#
# Stress axis : x y z
#
# Youngs Moduli (GPa) = 90.99091 37.38014 40.51317
#
# Poissons Ratio (x) = 0.17882 -0.10995
# Poissons Ratio (y) = 0.43530 0.20176
# Poissons Ratio (z) = -0.24694 0.18615
#
# Static dielectric constant tensor:
#      x y z
#    x 1.795920 -0.011960 0.010340 
#    y -0.011960 1.760330 0.007070 
#    z 0.010340 0.007070 1.750420 
# 
# From -- ./inp_files/38436.got.cif
#   From: 2010.05.17/outbox.cif.g08.bks.cpg/sg2_20_cif.got.tgz:38436.got - 2010.06.03 11:33:40.
