data_PCOD9035367
_publ_section_title
;
Structure prediction by ZEFSAII (Michael W. Deem and Ramdas Pophale) SiO2 
 PCOD9035367
Probable space group: P -1
;
_chemical_formula_sum "Si O2"
_cell_formula_units_Z 12
_cell_length_a 6.970973
_cell_length_b 10.068930
_cell_length_c 8.435644
_cell_angle_alpha 67.173536
_cell_angle_beta 81.350283
_cell_angle_gamma 74.488540
_cell_volume 525.126115
_symmetry_space_group_name_H-M "P -1"
_symmetry_group_IT_number 2
_symmetry_cell_setting 'triclinic'
loop_
_space_group_symop_operation_xyz
x,y,z
-x,-y,-z
loop_
_atom_site_type_symbol
_atom_site_label
_atom_site_fract_x
_atom_site_fract_y
_atom_site_fract_z
Si Si1 0.577648 0.931269 0.328704
Si Si2 0.401584 0.242098 0.286228
Si Si3 0.855412 0.132458 0.555485
Si Si4 0.390395 0.552513 0.658003
Si Si5 0.945094 0.856362 0.140342
Si Si6 0.854330 0.636584 0.034429
O O1 0.581186 0.101219 0.285508
O O2 0.671034 0.824463 0.512847
O O3 0.350332 0.917576 0.355297
O O4 0.261858 0.267736 0.139668
O O5 0.780311 0.294918 0.411280
O O6 0.461231 0.391695 0.263963
O O7 0.954464 0.164079 0.692269
O O8 0.000000 0.000000 0.500000
O O9 0.500000 0.500000 0.500000
O O10 0.292837 0.116455 0.818645
O O11 0.296297 0.426279 0.804170
O O12 0.991127 0.721698 0.077720
O O13 0.000000 0.000000 0.000000
O O14 0.000000 0.500000 0.000000
#
# Coordination Sequence:
#
# PCOD9035367 Si02
#       6
#     2   2   2   2   2   2
#     4  10  23  46  77 105 139 190 250 307 363 428
#     4  10  22  45  74  98 141 186 239 299 371 431
#     4  11  25  46  79 106 144 193 254 306 367 446
#     4  11  26  46  73 104 145 198 243 304 380 437
#     4  12  28  45  73 109 145 194 250 302 368 445
#     4  12  29  43  69 110 150 188 238 304 371 438
#
# _framework density 22.851652000000001
#
# number of rings (size 3 to 8) (size 9 to 14) (size 15 to 20)
#    0.000    1.000    0.000    6.500   11.667    4.667 
#    0.000    0.000    0.000    0.000    0.000    0.000 
#    0.000    0.000    0.000    0.000    0.000    0.000 
#
# Total GULP energy -67080.286762 kJ/mol
# GULP energy per Si atom -5590.023897 kJ/mol
# Density = 2.279964 g / cm^3
# Si number density = 22.851652 Si / 1000 Ang^3
#
#
#
# Elastic Constant Matrix: (Units=GPa)
#
#
# Indices 1 2 3 4 5 6 
#
# 1 91.9695 41.6724 55.9128 6.9237 -0.5375 10.6599
# 2 41.6724 169.4917 49.6437 8.2209 0.4653 26.5845
# 3 55.9128 49.6437 96.0981 -4.9476 7.6164 -0.2343
# 4 6.9237 8.2209 -4.9476 37.5953 5.9406 4.5414
# 5 -0.5375 0.4653 7.6164 5.9406 38.5104 6.1678
# 6 10.6599 26.5845 -0.2343 4.5414 6.1678 44.8211
#
#
#
# Elastic Compliance Matrix: (Units=1/GPa)
#
#
# Indices 1 2 3 4 5 6 
#
# 1 0.018854 -0.000400 -0.011346 -0.004981 0.003977 -0.004349
# 2 -0.000400 0.008059 -0.004184 -0.001947 0.001787 -0.004755
# 3 -0.011346 -0.004184 0.019948 0.005889 -0.005841 0.005491
# 4 -0.004981 -0.001947 0.005889 0.029614 -0.005806 0.000169
# 5 0.003977 0.001787 -0.005841 -0.005806 0.028921 -0.005427
# 6 -0.004349 -0.004755 0.005491 0.000169 -0.005427 0.026924
#
#
# Mechanical properties :
#
#
# Convention : Reuss Voigt Hill
#
# Bulk Modulus (GPa) = 66.65530 72.44635 69.55083
# Shear Modulus (GPa) = 29.55408 38.20739 33.88073
#
# Velocity S-wave (km/s) = 3.60015 4.09341 3.85468
# Velocity P-wave (km/s) = 6.82008 7.35616 7.09319
#
# Compressibility (1/GPa) = 0.01500256
#
# Stress axis : x y z
#
# Youngs Moduli (GPa) = 53.03876 124.08092 50.12945
#
# Poissons Ratio (x) = 0.04960 0.56875
# Poissons Ratio (y) = 0.02120 0.20975
# Poissons Ratio (z) = 0.60176 0.51918
#
# Static dielectric constant tensor:
#      x y z
#    x 1.874720 0.000150 0.029470 
#    y 0.000150 1.878950 0.018860 
#    z 0.029470 0.018860 1.916900 
# 
# From -- ./inp_files/156733.got.cif
#   From: 2010.05.17/outbox.cif.g08.bks.cpg/sg2_79_cif.got.tgz:156733.got - 2010.06.03 11:33:40.
