data_PCOD9035330
_publ_section_title
;
Structure prediction by ZEFSAII (Michael W. Deem and Ramdas Pophale) SiO2 
 PCOD9035330
Probable space group: P -1
;
_chemical_formula_sum "Si O2"
_cell_formula_units_Z 14
_cell_length_a 19.954678
_cell_length_b 7.805120
_cell_length_c 20.889418
_cell_angle_alpha 139.788794
_cell_angle_beta 20.806116
_cell_angle_gamma 126.637723
_cell_volume 641.470563
_symmetry_space_group_name_H-M "P -1"
_symmetry_group_IT_number 2
_symmetry_cell_setting 'triclinic'
loop_
_space_group_symop_operation_xyz
x,y,z
-x,-y,-z
loop_
_atom_site_type_symbol
_atom_site_label
_atom_site_fract_x
_atom_site_fract_y
_atom_site_fract_z
Si Si1 0.597634 0.080759 0.495952
Si Si2 0.334585 0.103933 0.862231
Si Si3 0.004025 0.204648 0.611999
Si Si4 0.234993 0.036746 0.176245
Si Si5 0.009264 0.931686 0.142243
Si Si6 0.595434 0.256500 0.187149
Si Si7 0.723120 0.596377 0.647080
O O1 0.458849 0.098101 0.686745
O O2 0.849785 0.853726 0.224731
O O3 0.570617 0.414283 0.600078
O O4 0.500000 0.000000 0.500000
O O5 0.480671 0.866207 0.720003
O O6 0.198499 0.446821 0.109740
O O7 0.146579 0.016310 0.994065
O O8 0.956659 0.045436 0.668653
O O9 0.212835 0.238754 0.419734
O O10 0.000000 0.000000 0.500000
O O11 0.196395 0.327690 0.336170
O O12 0.301068 0.005535 0.034460
O O13 0.460475 0.760514 0.928944
O O14 0.850802 0.237344 0.413345
O O15 0.203413 0.712103 0.954263
#
# Coordination Sequence:
#
# PCOD9035330 Si02
#       7
#     2   2   2   2   2   2   2
#     4  12  24  44  67  83 118 162 195 260 317 340
#     4   9  21  41  58  92 125 147 206 252 276 380
#     4   9  16  31  57  83 118 158 188 236 287 338
#     4  10  17  32  58  85 120 159 197 227 291 351
#     4   9  21  41  58  92 122 149 206 241 299 364
#     4  10  22  40  61  90 121 156 199 247 301 362
#     4   9  17  31  59  83 119 162 190 240 281 350
#
# _framework density 21.824850999999999
#
# number of rings (size 3 to 8) (size 9 to 14) (size 15 to 20)
#    0.857    1.429    2.857    0.000    0.000    2.286 
#    5.143    0.000    0.000    3.429    0.000    0.000 
#    0.000    0.000    0.000    0.000    0.000    0.000 
#
# Total GULP energy -77950.979700 kJ/mol
# GULP energy per Si atom -5567.927121 kJ/mol
# Density = 2.177518 g / cm^3
# Si number density = 21.824851 Si / 1000 Ang^3
#
#
#
# Elastic Constant Matrix: (Units=GPa)
#
#
# Indices 1 2 3 4 5 6 
#
# 1 95.3003 32.3903 15.0564 -2.6823 5.9367 -4.0185
# 2 32.3903 43.7093 38.3053 -3.6060 18.0609 3.2321
# 3 15.0564 38.3053 41.8172 -17.6054 -9.4589 -17.1572
# 4 -2.6823 -3.6060 -17.6054 25.0725 -9.0672 -5.3976
# 5 5.9367 18.0609 -9.4589 -9.0672 30.1165 -14.4051
# 6 -4.0185 3.2321 -17.1572 -5.3976 -14.4051 29.2571
#
#
#
# Elastic Compliance Matrix: (Units=1/GPa)
#
#
# Indices 1 2 3 4 5 6 
#
# 1 0.012648 -0.004454 -0.004074 -0.004021 -0.003589 -0.002669
# 2 -0.004454 0.007575 0.014213 0.020188 0.015634 0.018309
# 3 -0.004074 0.014213 -0.003238 -0.011156 -0.019630 -0.015752
# 4 -0.004021 0.020188 -0.011156 0.028699 -0.010602 -0.009250
# 5 -0.003589 0.015634 -0.019630 -0.010602 0.010039 -0.010745
# 6 -0.002669 0.018309 -0.015752 -0.009250 -0.010745 0.015556
#
#
# Mechanical properties :
#
#
# Convention : Reuss Voigt Hill
#
# Bulk Modulus (GPa) = 35.26782 39.14787 37.20785
# Shear Modulus (GPa) = 72.08539 23.22755 47.65647
#
# Velocity S-wave (km/s) = 5.75332 3.26586 4.67796
# Velocity P-wave (km/s) = 7.76717 5.67427 6.80170
#
# Compressibility (1/GPa) = 0.02835446
#
# Stress axis : x y z
#
# Youngs Moduli (GPa) = 79.06138 132.01839 -308.82318
#
# Poissons Ratio (x) = 0.58796 -1.25824
# Poissons Ratio (y) = 0.35211 4.38920
# Poissons Ratio (z) = 0.32212 -1.87633
#
# Static dielectric constant tensor:
#      x y z
#    x 1.806210 0.023650 0.003090 
#    y 0.023650 1.850430 -0.011400 
#    z 0.003090 -0.011400 1.802850 
# 
# From -- ./inp_files/293388.got.cif
#   From: 2010.05.17/outbox.cif.g08.bks.cpg/sg2_147_cif.got.tgz:293388.got - 2010.06.03 11:33:40.
