data_PCOD9035767
_publ_section_title
;
Structure prediction by ZEFSAII (Michael W. Deem and Ramdas Pophale) SiO2 
 PCOD9035767
Probable space group: P -1
;
_chemical_formula_sum "Si O2"
_cell_formula_units_Z 12
_cell_length_a 15.908221
_cell_length_b 8.618400
_cell_length_c 11.785114
_cell_angle_alpha 37.935975
_cell_angle_beta 26.529549
_cell_angle_gamma 43.562385
_cell_volume 442.628537
_symmetry_space_group_name_H-M "P -1"
_symmetry_group_IT_number 2
_symmetry_cell_setting 'triclinic'
loop_
_space_group_symop_operation_xyz
x,y,z
-x,-y,-z
loop_
_atom_site_type_symbol
_atom_site_label
_atom_site_fract_x
_atom_site_fract_y
_atom_site_fract_z
Si Si1 0.688233 0.432626 0.881860
Si Si2 0.840281 0.682183 0.372053
Si Si3 0.779381 0.943551 0.603253
Si Si4 0.279931 0.777245 0.799323
Si Si5 0.130519 0.253945 0.953714
Si Si6 0.616299 0.751821 0.133160
O O1 0.826017 0.430396 0.608434
O O2 0.748507 0.674797 0.738941
O O3 0.500000 0.500000 0.000000
O O4 0.671997 0.233546 0.117235
O O5 0.717178 0.936625 0.414458
O O6 0.788651 0.675816 0.306495
O O7 0.058399 0.733095 0.085188
O O8 0.598032 0.133486 0.682560
O O9 0.976091 0.043053 0.265888
O O10 0.747846 0.895689 0.802736
O O11 0.374701 0.540498 0.751890
O O12 0.290258 0.209856 0.880185
O O13 0.000000 0.500000 0.000000
#
# Coordination Sequence:
#
# PCOD9035767 Si02
#       6
#     2   2   2   2   2   2
#     4  11  26  46  70 104 140 187 235 288 357 414
#     4  11  24  45  70 102 142 178 239 288 346 421
#     4  10  24  47  71 102 145 181 240 292 342 423
#     4  10  22  46  72 101 138 185 233 289 349 414
#     4  12  25  44  71 107 138 188 231 286 363 415
#     4  10  23  46  74 103 142 187 232 290 352 417
#
# _framework density 27.110771
#
# number of rings (size 3 to 8) (size 9 to 14) (size 15 to 20)
#    0.000    1.333    1.667    3.000    2.333    6.667 
#    3.000    0.000    0.000    0.000    0.000    0.000 
#    0.000    0.000    0.000    0.000    0.000    0.000 
#
# Total GULP energy -67226.908136 kJ/mol
# GULP energy per Si atom -5602.242345 kJ/mol
# Density = 2.704907 g / cm^3
# Si number density = 27.110771 Si / 1000 Ang^3
#
#
#
# Elastic Constant Matrix: (Units=GPa)
#
#
# Indices 1 2 3 4 5 6 
#
# 1 202.6666 9.2885 23.0270 9.0942 13.2353 -14.2586
# 2 9.2885 116.6879 2.8225 -3.2585 7.4081 -10.8568
# 3 23.0270 2.8225 93.9814 3.7874 -0.8407 -6.3708
# 4 9.0942 -3.2585 3.7874 29.9862 -0.8620 10.1455
# 5 13.2353 7.4081 -0.8407 -0.8620 50.8082 0.8645
# 6 -14.2586 -10.8568 -6.3708 10.1455 0.8645 39.5462
#
#
#
# Elastic Compliance Matrix: (Units=1/GPa)
#
#
# Indices 1 2 3 4 5 6 
#
# 1 0.005436 -0.000156 -0.001083 -0.002379 -0.001492 0.002386
# 2 -0.000156 0.008891 -0.000089 0.000193 -0.001294 0.002349
# 3 -0.001083 -0.000089 0.011102 -0.001679 0.000420 0.001795
# 4 -0.002379 0.000193 -0.001679 0.038017 0.001394 -0.010859
# 5 -0.001492 -0.001294 0.000420 0.001394 0.020318 -0.001627
# 6 0.002386 0.002349 0.001795 -0.010859 -0.001627 0.029902
#
#
# Mechanical properties :
#
#
# Convention : Reuss Voigt Hill
#
# Bulk Modulus (GPa) = 43.91329 53.73465 48.82397
# Shear Modulus (GPa) = 40.35095 49.28132 44.81614
#
# Velocity S-wave (km/s) = 3.86213 4.26816 4.07021
# Velocity P-wave (km/s) = 6.01007 6.64478 6.33538
#
# Compressibility (1/GPa) = 0.02277215
#
# Stress axis : x y z
#
# Youngs Moduli (GPa) = 183.94218 112.47935 90.07772
#
# Poissons Ratio (x) = 0.01758 0.09756
# Poissons Ratio (y) = 0.02875 0.00800
# Poissons Ratio (z) = 0.19923 0.00999
#
# Static dielectric constant tensor:
#      x y z
#    x 2.159260 0.043980 -0.056040 
#    y 0.043980 2.137240 -0.013130 
#    z -0.056040 -0.013130 2.816950 
# 
# From -- ./inp_files/306124.got.cif
#   From: 2010.05.17/outbox.cif.g08.bks.cpg/sg2_154_cif.got.tgz:306124.got - 2010.06.03 11:33:40.
