data_PCOD9035652
_publ_section_title
;
Structure prediction by ZEFSAII (Michael W. Deem and Ramdas Pophale) SiO2 
 PCOD9035652
Probable space group: P -1
;
_chemical_formula_sum "Si O2"
_cell_formula_units_Z 12
_cell_length_a 8.510650
_cell_length_b 5.126012
_cell_length_c 16.467553
_cell_angle_alpha 76.462304
_cell_angle_beta 138.742132
_cell_angle_gamma 97.121940
_cell_volume 459.074050
_symmetry_space_group_name_H-M "P -1"
_symmetry_group_IT_number 2
_symmetry_cell_setting 'triclinic'
loop_
_space_group_symop_operation_xyz
x,y,z
-x,-y,-z
loop_
_atom_site_type_symbol
_atom_site_label
_atom_site_fract_x
_atom_site_fract_y
_atom_site_fract_z
Si Si1 0.330066 0.245332 0.946583
Si Si2 0.546613 0.229295 0.767470
Si Si3 0.468696 0.672337 0.559651
Si Si4 0.801032 0.477022 0.989012
Si Si5 0.022902 0.200584 0.567102
Si Si6 0.122992 0.019666 0.225658
O O1 0.500000 0.500000 0.000000
O O2 0.270134 0.237909 0.019121
O O3 0.060907 0.212500 0.808098
O O4 0.500000 0.000000 0.000000
O O5 0.503306 0.464688 0.664496
O O6 0.604128 0.360428 0.866143
O O7 0.295703 0.118161 0.701925
O O8 0.743148 0.047717 0.804108
O O9 0.500000 0.500000 0.500000
O O10 0.665759 0.885941 0.640755
O O11 0.197919 0.803080 0.457213
O O12 0.000000 0.500000 0.000000
O O13 0.934104 0.279042 0.121281
O O14 0.000000 0.500000 0.500000
O O15 0.000000 0.000000 0.500000
#
# Coordination Sequence:
#
# PCOD9035652 Si02
#       6
#     2   2   2   2   2   2
#     4  12  27  48  70 110 158 197 251 312 380 455
#     4  11  24  44  74 110 149 195 256 310 373 459
#     4  11  25  46  75 110 150 201 255 314 381 448
#     4  12  24  44  78 113 147 200 252 307 382 466
#     4  10  22  46  70 102 141 189 250 305 358 438
#     4  12  23  45  79 106 159 196 256 309 390 446
#
# _framework density 26.139575000000001
#
# number of rings (size 3 to 8) (size 9 to 14) (size 15 to 20)
#    0.000    0.667    6.667    0.500    0.000    2.000 
#    0.000    0.000    0.000    0.000    0.000    0.000 
#    0.000    0.000    0.000    0.000    0.000    0.000 
#
# Total GULP energy -66931.706898 kJ/mol
# GULP energy per Si atom -5577.642241 kJ/mol
# Density = 2.608008 g / cm^3
# Si number density = 26.139575 Si / 1000 Ang^3
#
#
#
# Elastic Constant Matrix: (Units=GPa)
#
#
# Indices 1 2 3 4 5 6 
#
# 1 167.7025 66.0669 73.1418 20.2032 38.0860 -27.2763
# 2 66.0669 145.9425 51.7889 36.7607 7.6842 -39.2162
# 3 73.1418 51.7889 189.0885 64.2608 41.0478 -21.0847
# 4 20.2032 36.7607 64.2608 57.2523 6.0175 -1.9929
# 5 38.0860 7.6842 41.0478 6.0175 59.6613 0.6031
# 6 -27.2763 -39.2162 -21.0847 -1.9929 0.6031 68.1974
#
#
#
# Elastic Compliance Matrix: (Units=1/GPa)
#
#
# Indices 1 2 3 4 5 6 
#
# 1 0.009121 -0.003280 -0.002270 0.001900 -0.004042 0.001152
# 2 -0.003280 0.011096 0.001083 -0.007063 0.000579 0.005192
# 3 -0.002270 0.001083 0.011494 -0.012124 -0.005406 0.002962
# 4 0.001900 -0.007063 -0.012124 0.034240 0.004647 -0.006091
# 5 -0.004042 0.000579 -0.005406 0.004647 0.022548 -0.003018
# 6 0.001152 0.005192 0.002962 -0.006091 -0.003018 0.018874
#
#
# Mechanical properties :
#
#
# Convention : Reuss Voigt Hill
#
# Bulk Modulus (GPa) = 43.90018 98.30318 71.10168
# Shear Modulus (GPa) = 40.35532 57.80458 49.07995
#
# Velocity S-wave (km/s) = 3.93344 4.70763 4.33784
# Velocity P-wave (km/s) = 6.12047 8.19986 7.23526
#
# Compressibility (1/GPa) = 0.02277895
#
# Stress axis : x y z
#
# Youngs Moduli (GPa) = 109.63199 90.12001 87.00209
#
# Poissons Ratio (x) = 0.29560 0.19746
# Poissons Ratio (y) = 0.35959 -0.09425
# Poissons Ratio (z) = 0.24883 -0.09763
#
# Static dielectric constant tensor:
#      x y z
#    x 2.214400 0.064280 0.066290 
#    y 0.064280 2.116690 -0.071520 
#    z 0.066290 -0.071520 2.024550 
# 
# From -- ./inp_files/553680.got.cif
#   From: 2010.05.17/outbox.cif.g08.bks.cpg/sg2_277_cif.got.tgz:553680.got - 2010.06.03 11:33:40.
