data_PCOD9035722
_publ_section_title
;
Structure prediction by ZEFSAII (Michael W. Deem and Ramdas Pophale) SiO2 
 PCOD9035722
Probable space group: P -1
;
_chemical_formula_sum "Si O2"
_cell_formula_units_Z 16
_cell_length_a 8.106397
_cell_length_b 11.022482
_cell_length_c 9.381211
_cell_angle_alpha 79.100790
_cell_angle_beta 129.774815
_cell_angle_gamma 94.470892
_cell_volume 631.588820
_symmetry_space_group_name_H-M "P -1"
_symmetry_group_IT_number 2
_symmetry_cell_setting 'triclinic'
loop_
_space_group_symop_operation_xyz
x,y,z
-x,-y,-z
loop_
_atom_site_type_symbol
_atom_site_label
_atom_site_fract_x
_atom_site_fract_y
_atom_site_fract_z
Si Si1 0.457455 0.204176 0.908104
Si Si2 0.967660 0.222860 0.141367
Si Si3 0.545046 0.977935 0.800077
Si Si4 0.241676 0.476528 0.706539
Si Si5 0.162594 0.835134 0.218305
Si Si6 0.983753 0.480938 0.163682
Si Si7 0.638353 0.394759 0.518144
Si Si8 0.118149 0.973405 0.422110
O O1 0.435978 0.091397 0.809555
O O2 0.329949 0.333843 0.772765
O O3 0.713089 0.227340 0.036885
O O4 0.411091 0.139900 0.047861
O O5 0.067032 0.337892 0.248374
O O6 0.078163 0.099664 0.288732
O O7 0.971348 0.220317 0.972407
O O8 0.745419 0.040954 0.826273
O O9 0.367641 0.943637 0.596916
O O10 0.230417 0.508495 0.861224
O O11 0.374780 0.570617 0.663117
O O12 0.000000 0.500000 0.500000
O O13 0.368504 0.743431 0.396656
O O14 0.046921 0.868061 0.297023
O O15 0.126497 0.576000 0.300523
O O16 0.000000 0.500000 0.000000
O O17 0.500000 0.500000 0.500000
O O18 0.000000 0.000000 0.500000
#
# Coordination Sequence:
#
# PCOD9035722 Si02
#       8
#     2   2   2   2   2   2   2   2
#     4  10  22  46  71 103 145 181 238 293 366 422
#     4  11  24  45  71 102 146 185 234 296 360 426
#     4  10  23  44  71 104 137 190 231 296 354 424
#     4  10  25  43  73 101 136 190 237 294 354 422
#     4  11  25  46  68 102 147 186 237 289 366 424
#     4  11  25  46  66 106 136 186 240 288 357 425
#     4  11  24  47  72 103 145 188 237 295 356 428
#     4  12  26  43  70 105 139 183 242 295 352 423
#
# _framework density 25.332934999999999
#
# number of rings (size 3 to 8) (size 9 to 14) (size 15 to 20)
#    0.000    1.250    2.500    2.250    7.000    2.500 
#    2.250    0.000    0.000    0.000    0.000    0.000 
#    0.000    0.000    0.000    0.000    0.000    0.000 
#
# Total GULP energy -89401.441673 kJ/mol
# GULP energy per Si atom -5587.590105 kJ/mol
# Density = 2.527528 g / cm^3
# Si number density = 25.332935 Si / 1000 Ang^3
#
#
#
# Elastic Constant Matrix: (Units=GPa)
#
#
# Indices 1 2 3 4 5 6 
#
# 1 83.1482 -3.9250 30.8141 -4.0424 -41.2236 -14.4210
# 2 -3.9250 84.3142 30.3942 -24.2770 -13.2894 -5.5729
# 3 30.8141 30.3942 114.6606 -21.9003 -22.0597 3.9516
# 4 -4.0424 -24.2770 -21.9003 53.4880 2.5666 1.3464
# 5 -41.2236 -13.2894 -22.0597 2.5666 51.6489 4.3656
# 6 -14.4210 -5.5729 3.9516 1.3464 4.3656 26.2831
#
#
#
# Elastic Compliance Matrix: (Units=1/GPa)
#
#
# Indices 1 2 3 4 5 6 
#
# 1 0.026710 0.007841 -0.005558 0.002010 0.019698 0.013779
# 2 0.007841 0.017226 -0.004202 0.006132 0.008005 0.006943
# 3 -0.005558 -0.004202 0.012058 0.002759 -0.000006 -0.005893
# 4 0.002010 0.006132 0.002759 0.022599 0.003212 0.000297
# 5 0.019698 0.008005 -0.000006 0.003212 0.036449 0.006287
# 6 0.013779 0.006943 -0.005893 0.000297 0.006287 0.046906
#
#
# Mechanical properties :
#
#
# Convention : Reuss Voigt Hill
#
# Bulk Modulus (GPa) = 19.17297 44.07661 31.62479
# Shear Modulus (GPa) = 27.29711 41.27332 34.28521
#
# Velocity S-wave (km/s) = 3.28614 4.04076 3.68283
# Velocity P-wave (km/s) = 4.68862 6.26155 5.53128
#
# Compressibility (1/GPa) = 0.05215675
#
# Stress axis : x y z
#
# Youngs Moduli (GPa) = 37.43956 58.05109 82.93535
#
# Poissons Ratio (x) = -0.45518 0.46094
# Poissons Ratio (y) = -0.29357 0.34846
# Poissons Ratio (z) = 0.20808 0.24391
#
# Static dielectric constant tensor:
#      x y z
#    x 2.175010 0.023910 0.020390 
#    y 0.023910 2.002020 0.035660 
#    z 0.020390 0.035660 1.980530 
# 
# From -- ./inp_files/187054.got.cif
#   From: 2010.05.17/outbox.cif.g08.bks.cpg/sg2_94_cif.got.tgz:187054.got - 2010.06.03 11:33:40.
