data_PCOD9035095
_publ_section_title
;
Structure prediction by ZEFSAII (Michael W. Deem and Ramdas Pophale) SiO2 
 PCOD9035095
Probable space group: P -1
;
_chemical_formula_sum "Si O2"
_cell_formula_units_Z 16
_cell_length_a 14.814440
_cell_length_b 8.686173
_cell_length_c 11.359293
_cell_angle_alpha 37.977358
_cell_angle_beta 119.655485
_cell_angle_gamma 98.492914
_cell_volume 696.789209
_symmetry_space_group_name_H-M "P -1"
_symmetry_group_IT_number 2
_symmetry_cell_setting 'triclinic'
loop_
_space_group_symop_operation_xyz
x,y,z
-x,-y,-z
loop_
_atom_site_type_symbol
_atom_site_label
_atom_site_fract_x
_atom_site_fract_y
_atom_site_fract_z
Si Si1 0.215526 0.394024 0.279617
Si Si2 0.323843 0.483170 0.684476
Si Si3 0.631218 0.413206 0.599020
Si Si4 0.159518 0.443722 0.944237
Si Si5 0.000923 0.824520 0.992493
Si Si6 0.062722 0.670273 0.498248
Si Si7 0.588750 0.190484 0.298409
Si Si8 0.384084 0.113145 0.159149
O O1 0.295990 0.539833 0.280057
O O2 0.165953 0.492210 0.057346
O O3 0.295123 0.054764 0.539090
O O4 0.108758 0.519063 0.227667
O O5 0.353210 0.428918 0.599926
O O6 0.190375 0.568027 0.581732
O O7 0.362642 0.717644 0.612019
O O8 0.395650 0.216282 0.974197
O O9 0.500000 0.500000 0.500000
O O10 0.669885 0.098337 0.771616
O O11 0.287662 0.355665 0.028869
O O12 0.116403 0.204463 0.063378
O O13 0.079346 0.638139 0.669081
O O14 0.006095 0.008763 0.776448
O O15 0.000000 0.000000 0.000000
O O16 0.000000 0.500000 0.500000
O O17 0.506449 0.035392 0.347193
O O18 0.500000 0.500000 0.000000
#
# Coordination Sequence:
#
# PCOD9035095 Si02
#       8
#     2   2   2   2   2   2   2   2
#     4  12  26  43  70 112 145 194 247 301 371 438
#     4  10  24  43  71 100 140 191 241 298 365 437
#     4  12  25  42  67 103 147 186 240 297 360 439
#     4  11  25  44  74 104 145 193 246 304 366 444
#     4  12  24  46  75 105 150 194 242 310 365 437
#     4  11  23  44  73 105 137 193 246 295 372 436
#     4  10  22  46  73 104 144 190 243 306 366 433
#     4  10  22  45  71 101 140 190 242 297 373 428
#
# _framework density 22.962467
#
# number of rings (size 3 to 8) (size 9 to 14) (size 15 to 20)
#    0.000    1.000    2.500    4.125    3.500    2.000 
#    0.000    3.750    0.000    0.000    0.000    0.000 
#    0.000    0.000    0.000    0.000    0.000    0.000 
#
# Total GULP energy -89236.813200 kJ/mol
# GULP energy per Si atom -5577.300825 kJ/mol
# Density = 2.291020 g / cm^3
# Si number density = 22.962467 Si / 1000 Ang^3
#
#
#
# Elastic Constant Matrix: (Units=GPa)
#
#
# Indices 1 2 3 4 5 6 
#
# 1 96.5209 57.8611 32.3747 14.9045 6.7607 0.4020
# 2 57.8611 144.2944 54.1609 37.5570 0.0741 0.9983
# 3 32.3747 54.1609 94.2737 5.6581 -3.0219 -15.1162
# 4 14.9045 37.5570 5.6581 36.0716 -1.7022 9.0171
# 5 6.7607 0.0741 -3.0219 -1.7022 41.3659 -0.9040
# 6 0.4020 0.9983 -15.1162 9.0171 -0.9040 45.8162
#
#
#
# Elastic Compliance Matrix: (Units=1/GPa)
#
#
# Indices 1 2 3 4 5 6 
#
# 1 0.014215 -0.004646 -0.002376 -0.000598 -0.002529 -0.000740
# 2 -0.004646 0.014022 -0.005728 -0.011831 -0.000167 0.000171
# 3 -0.002376 -0.005728 0.015288 0.003497 0.001758 0.004536
# 4 -0.000598 -0.011831 0.003497 0.041510 0.001936 -0.006715
# 5 -0.002529 -0.000167 0.001758 0.001936 0.024812 0.000715
# 6 -0.000740 0.000171 0.004536 -0.006715 0.000715 0.024661
#
#
# Mechanical properties :
#
#
# Convention : Reuss Voigt Hill
#
# Bulk Modulus (GPa) = 55.48076 69.32029 62.40052
# Shear Modulus (GPa) = 30.11739 37.36358 33.74048
#
# Velocity S-wave (km/s) = 3.62552 4.03818 3.83740
# Velocity P-wave (km/s) = 6.46064 7.21087 6.84604
#
# Compressibility (1/GPa) = 0.01802427
#
# Stress axis : x y z
#
# Youngs Moduli (GPa) = 70.34651 71.31737 65.41076
#
# Poissons Ratio (x) = 0.33137 0.15543
# Poissons Ratio (y) = 0.32686 0.37467
# Poissons Ratio (z) = 0.16715 0.40850
#
# Static dielectric constant tensor:
#      x y z
#    x 1.864850 -0.006770 -0.006070 
#    y -0.006770 1.894190 -0.048020 
#    z -0.006070 -0.048020 2.026640 
# 
# From -- ./inp_files/446675.got.cif
#   From: 2010.05.17/outbox.cif.g08.bks.cpg/sg2_224_cif.got.tgz:446675.got - 2010.06.03 11:33:40.
