data_PCOD9035311
_publ_section_title
;
Structure prediction by ZEFSAII (Michael W. Deem and Ramdas Pophale) SiO2 
 PCOD9035311
Probable space group: P -1
;
_chemical_formula_sum "Si O2"
_cell_formula_units_Z 15
_cell_length_a 5.047980
_cell_length_b 25.345533
_cell_length_c 5.422704
_cell_angle_alpha 63.887865
_cell_angle_beta 100.075840
_cell_angle_gamma 107.286315
_cell_volume 594.058721
_symmetry_space_group_name_H-M "P -1"
_symmetry_group_IT_number 2
_symmetry_cell_setting 'triclinic'
loop_
_space_group_symop_operation_xyz
x,y,z
-x,-y,-z
loop_
_atom_site_type_symbol
_atom_site_label
_atom_site_fract_x
_atom_site_fract_y
_atom_site_fract_z
Si Si1 0.775665 0.105028 0.698173
Si Si2 0.500000 0.000000 0.000000
Si Si3 0.321218 0.774712 0.459625
Si Si4 0.168602 0.417803 0.755449
Si Si5 0.748609 0.477454 0.819773
Si Si6 0.824421 0.831522 0.751235
Si Si7 0.151593 0.051601 0.227531
Si Si8 0.935271 0.278179 0.949331
O O1 0.470415 0.063191 0.714720
O O2 0.805203 0.167169 0.717862
O O3 0.904840 0.124887 0.416530
O O4 0.895769 0.056684 0.980038
O O5 0.615370 0.972170 0.823492
O O6 0.624612 0.808502 0.533362
O O7 0.187107 0.738450 0.760134
O O8 0.282708 0.735446 0.286196
O O9 0.882820 0.433365 0.762237
O O10 0.265642 0.461096 0.448399
O O11 0.440710 0.441077 0.926781
O O12 0.105949 0.347303 0.836045
O O13 0.000000 0.500000 0.000000
O O14 0.733661 0.876801 0.831423
O O15 0.877368 0.768557 0.978999
O O16 0.000000 0.000000 0.500000
#
# Coordination Sequence:
#
# PCOD9035311 Si02
#       8
#     2   1   2   2   2   2   2   2
#     4  11  25  47  65 106 140 181 251 307 391 467
#     4  12  26  40  74 100 134 190 242 306 398 472
#     4  11  27  47  75 104 147 199 248 319 386 454
#     4  10  24  43  73 114 153 206 263 315 385 461
#     4  10  22  45  73 113 159 205 255 321 383 454
#     4  11  26  49  73 102 147 195 246 325 389 466
#     4  12  26  46  70 103 144 188 248 318 393 478
#     4  11  27  48  73 113 147 199 262 310 381 467
#
# _framework density 25.250028
#
# number of rings (size 3 to 8) (size 9 to 14) (size 15 to 20)
#    0.000    1.067    2.667    1.600    9.333    0.533 
#    0.000    0.000    0.000    0.000    0.000    0.000 
#    0.000    0.000    0.000    0.000    0.000    0.000 
#
# Total GULP energy -83666.285257 kJ/mol
# GULP energy per Si atom -5577.752350 kJ/mol
# Density = 2.519256 g / cm^3
# Si number density = 25.250028 Si / 1000 Ang^3
#
#
#
# Elastic Constant Matrix: (Units=GPa)
#
#
# Indices 1 2 3 4 5 6 
#
# 1 96.5163 45.9627 37.6285 -9.2917 -8.7309 5.6692
# 2 45.9627 193.4764 87.3109 -26.7687 -7.5389 17.9185
# 3 37.6285 87.3109 89.5082 -10.2239 0.5688 1.1240
# 4 -9.2917 -26.7687 -10.2239 31.4258 3.6810 -1.1665
# 5 -8.7309 -7.5389 0.5688 3.6810 44.5640 10.6277
# 6 5.6692 17.9185 1.1240 -1.1665 10.6277 34.6823
#
#
#
# Elastic Compliance Matrix: (Units=1/GPa)
#
#
# Indices 1 2 3 4 5 6 
#
# 1 0.013036 -0.000212 -0.005081 0.001554 0.003112 -0.002758
# 2 -0.000212 0.011320 -0.010247 0.005661 0.003019 -0.006216
# 3 -0.005081 -0.010247 0.023023 -0.001971 -0.004452 0.006677
# 4 0.001554 0.005661 -0.001971 0.036569 -0.001385 -0.001461
# 5 0.003112 0.003019 -0.004452 -0.001385 0.026109 -0.009972
# 6 -0.002758 -0.006216 0.006677 -0.001461 -0.009972 0.035286
#
#
# Mechanical properties :
#
#
# Convention : Reuss Voigt Hill
#
# Bulk Modulus (GPa) = 61.35631 80.14500 70.75066
# Shear Modulus (GPa) = 27.49406 36.04100 31.76753
#
# Velocity S-wave (km/s) = 3.30339 3.78215 3.55084
# Velocity P-wave (km/s) = 6.23715 7.13318 6.70016
#
# Compressibility (1/GPa) = 0.01629824
#
# Stress axis : x y z
#
# Youngs Moduli (GPa) = 76.71056 88.33865 43.43465
#
# Poissons Ratio (x) = 0.01877 0.22068
# Poissons Ratio (y) = 0.01630 0.44509
# Poissons Ratio (z) = 0.38974 0.90523
#
# Static dielectric constant tensor:
#      x y z
#    x 0.719070 -0.793170 0.132990 
#    y -0.793170 1.518520 0.152950 
#    z 0.132990 0.152950 2.137130 
# 
# From -- ./inp_files/9284.got.cif
#   From: 2010.05.17/outbox.cif.g08.bks.cpg/sg2_5_cif.got.tgz:9284.got - 2010.06.03 11:33:40.
