data_PCOD9035906
_publ_section_title
;
Structure prediction by ZEFSAII (Michael W. Deem and Ramdas Pophale) SiO2 
 PCOD9035906
Probable space group: P -1
;
_chemical_formula_sum "Si O2"
_cell_formula_units_Z 10
_cell_length_a 12.269090
_cell_length_b 14.216540
_cell_length_c 11.881948
_cell_angle_alpha 152.564894
_cell_angle_beta 24.696218
_cell_angle_gamma 148.859062
_cell_volume 385.521166
_symmetry_space_group_name_H-M "P -1"
_symmetry_group_IT_number 2
_symmetry_cell_setting 'triclinic'
loop_
_space_group_symop_operation_xyz
x,y,z
-x,-y,-z
loop_
_atom_site_type_symbol
_atom_site_label
_atom_site_fract_x
_atom_site_fract_y
_atom_site_fract_z
Si Si1 0.344646 0.290573 0.487875
Si Si2 0.373664 0.023627 0.988871
Si Si3 0.939322 0.311419 0.242492
Si Si4 0.741835 0.404493 0.922639
Si Si5 0.477056 0.239173 0.772102
O O1 0.500000 0.500000 0.500000
O O2 0.223957 0.389826 0.811218
O O3 0.532905 0.156692 0.222799
O O4 0.208134 0.137760 0.350868
O O5 0.204446 0.901796 0.916074
O O6 0.637295 0.200967 0.884800
O O7 0.735455 0.342955 0.562813
O O8 0.998900 0.509254 0.309130
O O9 0.206925 0.258036 0.984609
O O10 0.518617 0.340799 0.964972
O O11 0.500000 0.000000 0.500000
#
# Coordination Sequence:
#
# PCOD9035906 Si02
#       5
#     2   2   2   2   2
#     4   9  21  46  75 108 146 196 246 308 374 439
#     4  10  22  46  75 109 151 192 250 309 369 441
#     4  12  26  48  75 111 150 199 247 304 372 443
#     4  11  24  43  74 108 149 196 249 301 370 441
#     4  12  26  48  75 108 154 200 243 307 372 439
#
# _framework density 25.938915000000001
#
# number of rings (size 3 to 8) (size 9 to 14) (size 15 to 20)
#    0.000    1.200    2.000    3.000    0.000    2.400 
#    3.600    9.000    0.000    0.000    0.000    0.000 
#    0.000    0.000    0.000    0.000    0.000    0.000 
#
# Total GULP energy -55861.225960 kJ/mol
# GULP energy per Si atom -5586.122596 kJ/mol
# Density = 2.587988 g / cm^3
# Si number density = 25.938915 Si / 1000 Ang^3
#
#
#
# Elastic Constant Matrix: (Units=GPa)
#
#
# Indices 1 2 3 4 5 6 
#
# 1 114.2507 44.9927 78.4186 -4.1260 19.5785 -8.9376
# 2 44.9927 129.3269 51.9116 15.0333 -15.0580 -28.5979
# 3 78.4186 51.9116 112.0788 -0.6906 9.2717 -5.0801
# 4 -4.1260 15.0333 -0.6906 49.9566 0.6105 3.4067
# 5 19.5785 -15.0580 9.2717 0.6105 50.4457 2.6911
# 6 -8.9376 -28.5979 -5.0801 3.4067 2.6911 48.2956
#
#
#
# Elastic Compliance Matrix: (Units=1/GPa)
#
#
# Indices 1 2 3 4 5 6 
#
# 1 0.018813 -0.002803 -0.011307 0.002260 -0.006131 0.000815
# 2 -0.002803 0.013141 -0.004299 -0.004779 0.005494 0.006842
# 3 -0.011307 -0.004299 0.018723 0.000806 -0.000201 -0.002714
# 4 0.002260 -0.004779 0.000806 0.021939 -0.002518 -0.003734
# 5 -0.006131 0.005494 -0.000201 -0.002518 0.023860 0.000945
# 6 0.000815 0.006842 -0.002714 -0.003734 0.000945 0.024833
#
#
# Mechanical properties :
#
#
# Convention : Reuss Voigt Hill
#
# Bulk Modulus (GPa) = 72.15234 78.47803 75.31518
# Shear Modulus (GPa) = 30.72251 41.76181 36.24216
#
# Velocity S-wave (km/s) = 3.44527 4.01684 3.74198
# Velocity P-wave (km/s) = 6.61084 7.19958 6.91148
#
# Compressibility (1/GPa) = 0.01385956
#
# Stress axis : x y z
#
# Youngs Moduli (GPa) = 53.15414 76.09607 53.40960
#
# Poissons Ratio (x) = 0.21330 0.60389
# Poissons Ratio (y) = 0.14899 0.22962
# Poissons Ratio (z) = 0.60100 0.32716
#
# Static dielectric constant tensor:
#      x y z
#    x 2.094120 0.004120 0.085100 
#    y 0.004120 2.099840 0.013910 
#    z 0.085100 0.013910 2.045590 
# 
# From -- ./inp_files/430558.got.cif
#   From: 2010.05.17/outbox.cif.g08.bks.cpg/sg2_216_cif.got.tgz:430558.got - 2010.06.03 11:33:40.
