data_PCOD9035781
_publ_section_title
;
Structure prediction by ZEFSAII (Michael W. Deem and Ramdas Pophale) SiO2 
 PCOD9035781
Probable space group: P -1
;
_chemical_formula_sum "Si O2"
_cell_formula_units_Z 13
_cell_length_a 13.151242
_cell_length_b 14.767331
_cell_length_c 8.395126
_cell_angle_alpha 137.528788
_cell_angle_beta 135.367425
_cell_angle_gamma 30.309990
_cell_volume 542.028096
_symmetry_space_group_name_H-M "P -1"
_symmetry_group_IT_number 2
_symmetry_cell_setting 'triclinic'
loop_
_space_group_symop_operation_xyz
x,y,z
-x,-y,-z
loop_
_atom_site_type_symbol
_atom_site_label
_atom_site_fract_x
_atom_site_fract_y
_atom_site_fract_z
Si Si1 0.961069 0.866380 0.420301
Si Si2 0.341127 0.163560 0.906059
Si Si3 0.528365 0.216836 0.923553
Si Si4 0.708388 0.527327 0.594475
Si Si5 0.028405 0.105611 0.903971
Si Si6 0.828081 0.497348 0.331730
Si Si7 0.500000 0.500000 0.500000
O O1 0.910765 0.912522 0.238128
O O2 0.202871 0.656867 0.435857
O O3 0.832742 0.831291 0.306261
O O4 0.933419 0.020776 0.683790
O O5 0.450271 0.140927 0.839985
O O6 0.246934 0.360559 0.132111
O O7 0.500000 0.000000 0.000000
O O8 0.493113 0.374245 0.193930
O O9 0.771693 0.036635 0.945768
O O10 0.390572 0.313112 0.738023
O O11 0.793952 0.478298 0.451261
O O12 0.475844 0.632947 0.497906
O O13 0.898450 0.318179 0.085987
O O14 0.000000 0.500000 0.500000
#
# Coordination Sequence:
#
# PCOD9035781 Si02
#       7
#     2   2   2   2   2   2   1
#     4  11  22  44  71 103 138 184 251 300 340 422
#     4  11  22  40  72 103 132 185 252 294 345 415
#     4  11  24  46  72 104 144 188 241 298 354 430
#     4  11  24  44  71 102 144 189 233 299 363 420
#     4  11  24  44  74 104 140 191 240 298 359 423
#     4  12  28  47  70 106 157 191 227 295 375 439
#     4  10  22  46  72 104 132 182 252 296 340 414
#
# _framework density 23.983996000000001
#
# number of rings (size 3 to 8) (size 9 to 14) (size 15 to 20)
#    0.000    0.923    3.077    4.154    2.154    1.846 
#    2.769    0.000    0.000    0.000    0.000    0.000 
#    0.000    0.000    0.000    0.000    0.000    0.000 
#
# Total GULP energy -72590.356055 kJ/mol
# GULP energy per Si atom -5583.873543 kJ/mol
# Density = 2.392941 g / cm^3
# Si number density = 23.983996 Si / 1000 Ang^3
#
#
#
# Elastic Constant Matrix: (Units=GPa)
#
#
# Indices 1 2 3 4 5 6 
#
# 1 129.0023 7.0266 62.0035 5.2709 30.0130 20.1176
# 2 7.0266 126.6845 35.6528 -20.7492 9.6767 11.3968
# 3 62.0035 35.6528 95.2634 13.4164 38.8756 12.9636
# 4 5.2709 -20.7492 13.4164 42.1388 8.7199 3.6696
# 5 30.0130 9.6767 38.8756 8.7199 38.8167 6.7906
# 6 20.1176 11.3968 12.9636 3.6696 6.7906 22.9141
#
#
#
# Elastic Compliance Matrix: (Units=1/GPa)
#
#
# Indices 1 2 3 4 5 6 
#
# 1 0.013215 0.003125 -0.008318 0.003687 -0.002018 -0.008443
# 2 0.003125 0.011431 -0.007029 0.007776 0.001079 -0.006018
# 3 -0.008318 -0.007029 0.026094 -0.007472 -0.016651 0.002167
# 4 0.003687 0.007776 -0.007472 0.030699 -0.002994 -0.006907
# 5 -0.002018 0.001079 -0.016651 -0.002994 0.044775 -0.002135
# 6 -0.008443 -0.006018 0.002167 -0.006907 -0.002135 0.054560
#
#
# Mechanical properties :
#
#
# Convention : Reuss Voigt Hill
#
# Bulk Modulus (GPa) = 38.02694 62.25734 50.14214
# Shear Modulus (GPa) = 23.36639 37.19172 30.27905
#
# Velocity S-wave (km/s) = 3.12468 3.94215 3.55698
# Velocity P-wave (km/s) = 5.37659 6.83630 6.14991
#
# Compressibility (1/GPa) = 0.02629715
#
# Stress axis : x y z
#
# Youngs Moduli (GPa) = 75.67218 87.48059 38.32322
#
# Poissons Ratio (x) = -0.27342 0.31876
# Poissons Ratio (y) = -0.23651 0.26938
# Poissons Ratio (z) = 0.62942 0.61491
#
# Static dielectric constant tensor:
#      x y z
#    x -1.198920 2.747790 -1.089010 
#    y 2.747790 -0.491340 0.973040 
#    z -1.089010 0.973040 1.497940 
# 
# From -- ./inp_files/316109.got.cif
#   From: 2010.05.17/outbox.cif.g08.bks.cpg/sg2_159_cif.got.tgz:316109.got - 2010.06.03 11:33:40.
