data_PCOD9035613
_publ_section_title
;
Structure prediction by ZEFSAII (Michael W. Deem and Ramdas Pophale) SiO2 
 PCOD9035613
Probable space group: P -1
;
_chemical_formula_sum "Si O2"
_cell_formula_units_Z 14
_cell_length_a 11.422468
_cell_length_b 11.621614
_cell_length_c 5.141282
_cell_angle_alpha 107.636270
_cell_angle_beta 112.127510
_cell_angle_gamma 51.162874
_cell_volume 490.348084
_symmetry_space_group_name_H-M "P -1"
_symmetry_group_IT_number 2
_symmetry_cell_setting 'triclinic'
loop_
_space_group_symop_operation_xyz
x,y,z
-x,-y,-z
loop_
_atom_site_type_symbol
_atom_site_label
_atom_site_fract_x
_atom_site_fract_y
_atom_site_fract_z
Si Si1 0.140336 0.128939 0.094582
Si Si2 0.247901 0.334888 0.901083
Si Si3 0.069236 0.621211 0.284168
Si Si4 0.487567 0.333442 0.728074
Si Si5 0.307718 0.660807 0.674088
Si Si6 0.580326 0.873005 0.693036
Si Si7 0.831847 0.046367 0.487163
O O1 0.243432 0.189107 0.283189
O O2 0.144985 0.035563 0.277109
O O3 0.984759 0.270791 0.937897
O O4 0.215441 0.018961 0.830096
O O5 0.191737 0.454586 0.170882
O O6 0.378980 0.165658 0.992418
O O7 0.339547 0.369414 0.804397
O O8 0.084605 0.358873 0.722324
O O9 0.148988 0.672189 0.577401
O O10 0.431246 0.484340 0.639621
O O11 0.506252 0.204537 0.483999
O O12 0.626158 0.294262 0.008127
O O13 0.270914 0.774876 0.491286
O O14 0.500000 0.000000 0.500000
O O15 0.000000 0.000000 0.500000
#
# Coordination Sequence:
#
# PCOD9035613 Si02
#       7
#     2   2   2   2   2   2   2
#     4  11  27  45  75 110 145 195 249 306 365 434
#     4  10  24  43  71 102 139 188 247 298 369 432
#     4  10  22  46  69 108 142 189 242 307 356 444
#     4  11  26  46  71 105 138 197 239 304 371 442
#     4  11  25  45  70 104 150 187 247 294 371 442
#     4  11  25  46  71 101 142 186 248 306 373 435
#     4  12  26  46  71 111 151 196 243 301 373 437
#
# _framework density 28.551148000000001
#
# number of rings (size 3 to 8) (size 9 to 14) (size 15 to 20)
#    0.000    1.143    2.857    1.286    8.000    1.714 
#    0.000    0.000    0.000    0.000    0.000    0.000 
#    0.000    0.000    0.000    0.000    0.000    0.000 
#
# Total GULP energy -78287.686245 kJ/mol
# GULP energy per Si atom -5591.977589 kJ/mol
# Density = 2.848616 g / cm^3
# Si number density = 28.551148 Si / 1000 Ang^3
#
#
#
# Elastic Constant Matrix: (Units=GPa)
#
#
# Indices 1 2 3 4 5 6 
#
# 1 150.8076 16.8662 111.4370 0.1218 9.9619 40.5381
# 2 16.8662 162.0630 38.0887 -55.3785 -21.1123 37.4192
# 3 111.4370 38.0887 147.9517 -20.7473 19.3843 25.2514
# 4 0.1218 -55.3785 -20.7473 60.0445 14.4483 -0.5469
# 5 9.9619 -21.1123 19.3843 14.4483 81.1007 -1.0043
# 6 40.5381 37.4192 25.2514 -0.5469 -1.0043 48.2355
#
#
#
# Elastic Compliance Matrix: (Units=1/GPa)
#
#
# Indices 1 2 3 4 5 6 
#
# 1 0.020198 0.003584 -0.014727 -0.002479 0.002265 -0.012026
# 2 0.003584 0.012824 -0.002822 0.010360 0.001587 -0.011333
# 3 -0.014727 -0.002822 0.019088 0.005109 -0.004342 0.004541
# 4 -0.002479 0.010360 0.005109 0.028732 -0.003442 -0.008375
# 5 0.002265 0.001587 -0.004342 -0.003442 0.014109 -0.000606
# 6 -0.012026 -0.011333 0.004541 -0.008375 -0.000606 0.037146
#
#
# Mechanical properties :
#
#
# Convention : Reuss Voigt Hill
#
# Bulk Modulus (GPa) = 41.35607 88.17845 64.76726
# Shear Modulus (GPa) = 29.74643 57.50483 43.62563
#
# Velocity S-wave (km/s) = 3.23129 4.49274 3.91318
# Velocity P-wave (km/s) = 5.33273 7.60686 6.56896
#
# Compressibility (1/GPa) = 0.02418025
#
# Stress axis : x y z
#
# Youngs Moduli (GPa) = 49.51012 77.97701 52.38778
#
# Poissons Ratio (x) = -0.27948 0.77154
# Poissons Ratio (y) = -0.17745 0.14783
# Poissons Ratio (z) = 0.72916 0.22003
#
# Static dielectric constant tensor:
#      x y z
#    x 2.276110 -0.142410 -0.040390 
#    y -0.142410 2.336430 0.094770 
#    z -0.040390 0.094770 2.265260 
# 
# From -- ./inp_files/71450.got.cif
#   From: 2010.05.17/outbox.cif.g08.bks.cpg/sg2_36_cif.got.tgz:71450.got - 2010.06.03 11:33:40.
