data_PCOD9035410
_publ_section_title
;
Structure prediction by ZEFSAII (Michael W. Deem and Ramdas Pophale) SiO2 
 PCOD9035410
Probable space group: P -1
;
_chemical_formula_sum "Si O2"
_cell_formula_units_Z 16
_cell_length_a 10.867464
_cell_length_b 13.970723
_cell_length_c 14.821663
_cell_angle_alpha 148.849789
_cell_angle_beta 144.757820
_cell_angle_gamma 54.434304
_cell_volume 617.634444
_symmetry_space_group_name_H-M "P -1"
_symmetry_group_IT_number 2
_symmetry_cell_setting 'triclinic'
loop_
_space_group_symop_operation_xyz
x,y,z
-x,-y,-z
loop_
_atom_site_type_symbol
_atom_site_label
_atom_site_fract_x
_atom_site_fract_y
_atom_site_fract_z
Si Si1 0.032979 0.117708 0.912812
Si Si2 0.244504 0.284609 0.681939
Si Si3 0.633618 0.239839 0.764924
Si Si4 0.182309 0.852283 0.921388
Si Si5 0.905997 0.461976 0.537960
Si Si6 0.627833 0.232798 0.544049
Si Si7 0.437386 0.394323 0.261167
Si Si8 0.888118 0.763082 0.230492
O O1 0.890742 0.258191 0.956928
O O2 0.062428 0.984467 0.905265
O O3 0.275887 0.258295 0.131013
O O4 0.901125 0.952312 0.622610
O O5 0.215480 0.315001 0.795323
O O6 0.111097 0.400418 0.642843
O O7 0.508090 0.676815 0.185073
O O8 0.627499 0.287470 0.693903
O O9 0.500000 0.000000 0.500000
O O10 0.207608 0.690291 0.736474
O O11 0.001272 0.694377 0.753398
O O12 0.432164 0.005607 0.231364
O O13 0.693468 0.403161 0.430815
O O14 0.550293 0.381348 0.559483
O O15 0.889609 0.278012 0.705032
O O16 0.308312 0.299181 0.013286
O O17 0.000000 0.000000 0.500000
#
# Coordination Sequence:
#
# PCOD9035410 Si02
#       8
#     2   2   2   2   2   2   2   2
#     4  10  22  45  76 110 151 195 247 317 379 445
#     4  10  23  46  77 109 152 197 257 309 378 445
#     4  10  22  46  73 107 151 197 247 318 378 440
#     4  10  25  48  74 109 149 207 250 309 378 453
#     4  10  25  48  73 112 152 199 252 315 375 449
#     4  12  27  46  74 109 156 198 254 309 378 455
#     4  12  26  45  75 112 158 195 247 316 383 452
#     4  12  23  48  76 114 145 204 255 311 379 449
#
# _framework density 25.905291999999999
#
# number of rings (size 3 to 8) (size 9 to 14) (size 15 to 20)
#    0.000    1.250    2.500    1.875    8.750    2.000 
#    2.250    1.875    0.000    1.500    0.000    0.000 
#    0.000    0.000    0.000    0.000    0.000    0.000 
#
# Total GULP energy -89688.516103 kJ/mol
# GULP energy per Si atom -5605.532256 kJ/mol
# Density = 2.584633 g / cm^3
# Si number density = 25.905292 Si / 1000 Ang^3
#
#
#
# Elastic Constant Matrix: (Units=GPa)
#
#
# Indices 1 2 3 4 5 6 
#
# 1 203.7052 71.4101 90.8052 -11.0679 14.2286 -8.4771
# 2 71.4101 109.6553 49.7859 -2.5249 4.6459 5.9794
# 3 90.8052 49.7859 170.1922 -10.0392 2.7226 1.6122
# 4 -11.0679 -2.5249 -10.0392 50.8484 6.1464 3.5465
# 5 14.2286 4.6459 2.7226 6.1464 60.7605 -7.8133
# 6 -8.4771 5.9794 1.6122 3.5465 -7.8133 52.5534
#
#
#
# Elastic Compliance Matrix: (Units=1/GPa)
#
#
# Indices 1 2 3 4 5 6 
#
# 1 0.007739 -0.003688 -0.002987 0.000964 -0.001301 0.001501
# 2 -0.003688 0.012380 -0.001652 -0.000350 -0.000226 -0.001963
# 3 -0.002987 -0.001652 0.008003 0.000849 0.000311 -0.000550
# 4 0.000964 -0.000350 0.000849 0.020440 -0.002508 -0.001583
# 5 -0.001301 -0.000226 0.000311 -0.002508 0.017348 0.002555
# 6 0.001501 -0.001963 -0.000550 -0.001583 0.002555 0.019997
#
#
# Mechanical properties :
#
#
# Convention : Reuss Voigt Hill
#
# Bulk Modulus (GPa) = 87.20143 100.83944 94.02044
# Shear Modulus (GPa) = 46.99924 50.93588 48.96756
#
# Velocity S-wave (km/s) = 4.26405 4.43904 4.35242
# Velocity P-wave (km/s) = 7.61430 8.07986 7.85053
#
# Compressibility (1/GPa) = 0.01146770
#
# Stress axis : x y z
#
# Youngs Moduli (GPa) = 129.21239 80.77509 124.95532
#
# Poissons Ratio (x) = 0.29793 0.37321
# Poissons Ratio (y) = 0.47659 0.20643
# Poissons Ratio (z) = 0.38593 0.13344
#
# Static dielectric constant tensor:
#      x y z
#    x 2.053620 -0.007930 -0.050380 
#    y -0.007930 2.067050 0.015240 
#    z -0.050380 0.015240 2.109800 
# 
# From -- ./inp_files/522701.got.cif
#   From: 2010.05.17/outbox.cif.g08.bks.cpg/sg2_262_cif.got.tgz:522701.got - 2010.06.03 11:33:40.
