data_PCOD9035728
_publ_section_title
;
Structure prediction by ZEFSAII (Michael W. Deem and Ramdas Pophale) SiO2 
 PCOD9035728
Probable space group: P -1
;
_chemical_formula_sum "Si O2"
_cell_formula_units_Z 15
_cell_length_a 7.682491
_cell_length_b 18.273046
_cell_length_c 10.137678
_cell_angle_alpha 138.303989
_cell_angle_beta 131.537881
_cell_angle_gamma 37.028625
_cell_volume 562.052765
_symmetry_space_group_name_H-M "P -1"
_symmetry_group_IT_number 2
_symmetry_cell_setting 'triclinic'
loop_
_space_group_symop_operation_xyz
x,y,z
-x,-y,-z
loop_
_atom_site_type_symbol
_atom_site_label
_atom_site_fract_x
_atom_site_fract_y
_atom_site_fract_z
Si Si1 0.621727 0.196164 0.384136
Si Si2 0.000000 0.500000 0.500000
Si Si3 0.038841 0.388755 0.765223
Si Si4 0.798033 0.267585 0.331395
Si Si5 0.664892 0.758669 0.038535
Si Si6 0.437045 0.059318 0.269589
Si Si7 0.606140 0.217194 0.689205
Si Si8 0.786318 0.379702 0.062884
O O1 0.822997 0.169623 0.329168
O O2 0.560691 0.086085 0.238440
O O3 0.732696 0.210077 0.599027
O O4 0.307989 0.344871 0.408267
O O5 0.812433 0.444224 0.292201
O O6 0.237521 0.255542 0.780818
O O7 0.261562 0.352533 0.708605
O O8 0.792678 0.385386 0.567415
O O9 0.000000 0.500000 0.000000
O O10 0.093883 0.181554 0.280333
O O11 0.522878 0.298599 0.154870
O O12 0.494640 0.915651 0.119019
O O13 0.948250 0.671901 0.971953
O O14 0.597778 0.088041 0.503234
O O15 0.767818 0.254495 0.915212
O O16 0.500000 0.500000 0.000000
#
# Coordination Sequence:
#
# PCOD9035728 Si02
#       8
#     2   1   2   2   2   2   2   2
#     4  10  22  46  71 105 143 185 235 293 351 429
#     4  12  24  40  74 102 138 192 234 286 370 416
#     4  11  26  44  69 103 146 185 241 301 352 427
#     4  11  24  49  74 106 145 188 234 309 346 431
#     4  12  26  45  75 106 135 203 235 284 382 416
#     4   9  24  49  70 107 149 180 247 296 346 437
#     4   9  22  43  64  98 145 181 222 309 337 409
#     4  12  23  42  69 101 142 178 240 294 347 428
#
# _framework density 26.687887
#
# number of rings (size 3 to 8) (size 9 to 14) (size 15 to 20)
#    0.800    0.533    2.667    2.000    1.867    4.800 
#    2.400    0.000    0.000    0.000    0.000    0.000 
#    0.000    0.000    0.000    0.000    0.000    0.000 
#
# Total GULP energy -83545.376364 kJ/mol
# GULP energy per Si atom -5569.691758 kJ/mol
# Density = 2.662714 g / cm^3
# Si number density = 26.687887 Si / 1000 Ang^3
#
#
#
# Elastic Constant Matrix: (Units=GPa)
#
#
# Indices 1 2 3 4 5 6 
#
# 1 95.7339 -1.3126 25.1565 -4.6026 11.3517 -2.7666
# 2 -1.3126 71.9145 49.5088 10.6108 13.5217 -8.2469
# 3 25.1565 49.5088 206.5349 -10.2230 40.9270 4.0686
# 4 -4.6026 10.6108 -10.2230 31.6770 0.4490 7.0123
# 5 11.3517 13.5217 40.9270 0.4490 44.9977 0.4706
# 6 -2.7666 -8.2469 4.0686 7.0123 0.4706 23.1109
#
#
#
# Elastic Compliance Matrix: (Units=1/GPa)
#
#
# Indices 1 2 3 4 5 6 
#
# 1 0.011162 0.001822 -0.001422 0.000083 -0.002095 0.002254
# 2 0.001822 0.021382 -0.005848 -0.011508 -0.001581 0.012402
# 3 -0.001422 -0.005848 0.007772 0.005479 -0.004953 -0.005187
# 4 0.000083 -0.011508 0.005479 0.041102 -0.001773 -0.017496
# 5 -0.002095 -0.001581 -0.004953 -0.001773 0.027749 0.000030
# 6 0.002254 0.012402 -0.005187 -0.017496 0.000030 0.054186
#
#
# Mechanical properties :
#
#
# Convention : Reuss Voigt Hill
#
# Bulk Modulus (GPa) = 33.98929 57.87651 45.93290
# Shear Modulus (GPa) = 27.16586 40.01248 33.58917
#
# Velocity S-wave (km/s) = 3.19393 3.87625 3.55151
# Velocity P-wave (km/s) = 5.13469 6.46276 5.83662
#
# Compressibility (1/GPa) = 0.02942103
#
# Stress axis : x y z
#
# Youngs Moduli (GPa) = 89.59210 46.76790 128.67178
#
# Poissons Ratio (x) = -0.08523 0.18291
# Poissons Ratio (y) = -0.16328 0.75250
# Poissons Ratio (z) = 0.12736 0.27351
#
# Static dielectric constant tensor:
#      x y z
#    x 2.146860 0.070660 -0.027750 
#    y 0.070660 2.149810 -0.022860 
#    z -0.027750 -0.022860 2.074290 
# 
# From -- ./inp_files/404970.got.cif
#   From: 2010.05.17/outbox.cif.g08.bks.cpg/sg2_203_cif.got.tgz:404970.got - 2010.06.03 11:33:40.
