data_PCOD9035389
_publ_section_title
;
Structure prediction by ZEFSAII (Michael W. Deem and Ramdas Pophale) SiO2 
 PCOD9035389
Probable space group: P -1
;
_chemical_formula_sum "Si O2"
_cell_formula_units_Z 16
_cell_length_a 16.099388
_cell_length_b 14.590650
_cell_length_c 8.927663
_cell_angle_alpha 42.069271
_cell_angle_beta 140.213027
_cell_angle_gamma 154.727278
_cell_volume 564.233848
_symmetry_space_group_name_H-M "P -1"
_symmetry_group_IT_number 2
_symmetry_cell_setting 'triclinic'
loop_
_space_group_symop_operation_xyz
x,y,z
-x,-y,-z
loop_
_atom_site_type_symbol
_atom_site_label
_atom_site_fract_x
_atom_site_fract_y
_atom_site_fract_z
Si Si1 0.450545 0.646298 0.378237
Si Si2 0.305189 0.575846 0.938487
Si Si3 0.899523 0.152822 0.338747
Si Si4 0.113165 0.091049 0.807334
Si Si5 0.677156 0.201991 0.807044
Si Si6 0.278933 0.947518 0.192904
Si Si7 0.208545 0.779866 0.620297
Si Si8 0.289933 0.296615 0.103090
O O1 0.320583 0.651135 0.287540
O O2 0.519669 0.589695 0.663889
O O3 0.674017 0.894423 0.340601
O O4 0.347332 0.539035 0.203082
O O5 0.510759 0.813237 0.867884
O O6 0.153293 0.578437 0.752560
O O7 0.243893 0.416843 0.922677
O O8 0.934774 0.257844 0.418677
O O9 0.074581 0.180912 0.526198
O O10 0.851272 0.241098 0.058968
O O11 0.125150 0.946795 0.936519
O O12 0.291892 0.257559 0.978964
O O13 0.906886 0.936926 0.808682
O O14 0.707194 0.194935 0.681976
O O15 0.437032 0.958788 0.798668
O O16 0.248497 0.902652 0.380707
#
# Coordination Sequence:
#
# PCOD9035389 Si02
#       8
#     2   2   2   2   2   2   2   2
#     4  10  17  34  59  85 112 142 195 241 273 328
#     4  11  20  35  59  92 110 145 195 242 281 327
#     4  10  17  34  61  77 113 157 191 220 274 348
#     4  10  22  40  53  81 121 156 187 226 285 352
#     4  10  17  32  58  87 108 146 191 237 276 331
#     4  11  22  35  58  91 119 143 185 240 296 325
#     4  10  18  33  58  90 115 142 189 244 281 326
#     4  10  22  38  60  81 115 156 193 228 281 342
#
# _framework density 28.357036999999998
#
# number of rings (size 3 to 8) (size 9 to 14) (size 15 to 20)
#    0.000    1.750    3.750    5.625    0.000    1.000 
#    0.000    2.500    0.000    0.750    0.000    0.000 
#    0.000    0.000    0.000    0.000    0.000    0.000 
#
# Total GULP energy -89512.859647 kJ/mol
# GULP energy per Si atom -5594.553728 kJ/mol
# Density = 2.829249 g / cm^3
# Si number density = 28.357037 Si / 1000 Ang^3
#
#
#
# Elastic Constant Matrix: (Units=GPa)
#
#
# Indices 1 2 3 4 5 6 
#
# 1 100.2275 22.9557 36.0003 6.6527 8.4840 -15.0830
# 2 22.9557 57.5969 18.0038 11.4233 6.4549 -7.0861
# 3 36.0003 18.0038 162.2216 9.1823 15.2285 -9.8503
# 4 6.6527 11.4233 9.1823 34.1055 -2.0817 9.6688
# 5 8.4840 6.4549 15.2285 -2.0817 59.7901 -8.7096
# 6 -15.0830 -7.0861 -9.8503 9.6688 -8.7096 61.1367
#
#
#
# Elastic Compliance Matrix: (Units=1/GPa)
#
#
# Indices 1 2 3 4 5 6 
#
# 1 0.011994 -0.003546 -0.002003 -0.001313 -0.000511 0.002360
# 2 -0.003546 0.020832 -0.000869 -0.006782 -0.001430 0.002268
# 3 -0.002003 -0.000869 0.006948 -0.001430 -0.001360 0.000557
# 4 -0.001313 -0.006782 -0.001430 0.034177 0.001522 -0.006529
# 5 -0.000511 -0.001430 -0.001360 0.001522 0.017607 0.001757
# 6 0.002360 0.002268 0.000557 -0.006529 0.001757 0.018575
#
#
# Mechanical properties :
#
#
# Convention : Reuss Voigt Hill
#
# Bulk Modulus (GPa) = 37.12291 52.66284 44.89287
# Shear Modulus (GPa) = 37.89363 47.21220 42.55292
#
# Velocity S-wave (km/s) = 3.65952 4.08477 3.87798
# Velocity P-wave (km/s) = 5.56559 6.39209 5.99310
#
# Compressibility (1/GPa) = 0.02693754
#
# Stress axis : x y z
#
# Youngs Moduli (GPa) = 83.37171 48.00403 143.93213
#
# Poissons Ratio (x) = 0.17024 0.28824
# Poissons Ratio (y) = 0.29567 0.12508
# Poissons Ratio (z) = 0.16696 0.04172
#
# Static dielectric constant tensor:
#      x y z
#    x 2.176450 0.053890 -0.024350 
#    y 0.053890 2.313170 0.028410 
#    z -0.024350 0.028410 2.251170 
# 
# From -- ./inp_files/335190.got.cif
#   From: 2010.05.17/outbox.cif.g08.bks.cpg/sg2_168_cif.got.tgz:335190.got - 2010.06.03 11:33:40.
