data_PCOD9035764
_publ_section_title
;
Structure prediction by ZEFSAII (Michael W. Deem and Ramdas Pophale) SiO2 
 PCOD9035764
Probable space group: P -1
;
_chemical_formula_sum "Si O2"
_cell_formula_units_Z 15
_cell_length_a 5.993409
_cell_length_b 23.728101
_cell_length_c 15.685254
_cell_angle_alpha 158.847958
_cell_angle_beta 84.077276
_cell_angle_gamma 85.024478
_cell_volume 688.778026
_symmetry_space_group_name_H-M "P -1"
_symmetry_group_IT_number 2
_symmetry_cell_setting 'triclinic'
loop_
_space_group_symop_operation_xyz
x,y,z
-x,-y,-z
loop_
_atom_site_type_symbol
_atom_site_label
_atom_site_fract_x
_atom_site_fract_y
_atom_site_fract_z
Si Si1 0.500000 0.500000 0.500000
Si Si2 0.214651 0.561388 0.056417
Si Si3 0.550772 0.807936 0.257811
Si Si4 0.868103 0.063004 0.402507
Si Si5 0.672856 0.298941 0.043399
Si Si6 0.802966 0.866435 0.784133
Si Si7 0.139656 0.502587 0.795039
Si Si8 0.050436 0.876164 0.961164
O O1 0.292530 0.696990 0.739354
O O2 0.508979 0.612363 0.742900
O O3 0.061450 0.779337 0.383359
O O4 0.500000 0.500000 0.000000
O O5 0.295077 0.496642 0.864330
O O6 0.000000 0.500000 0.000000
O O7 0.397291 0.844249 0.402883
O O8 0.448763 0.733691 0.081446
O O9 0.500000 0.000000 0.500000
O O10 0.851645 0.665885 0.055676
O O11 0.081335 0.893117 0.209602
O O12 0.858623 0.982266 0.197547
O O13 0.763782 0.440180 0.211609
O O14 0.855332 0.682271 0.479761
O O15 0.937128 0.822337 0.809489
O O16 0.500000 0.000000 0.000000
O O17 0.889068 0.977693 0.877363
#
# Coordination Sequence:
#
# PCOD9035764 Si02
#       8
#     1   2   2   2   2   2   2   2
#     4  10  22  46  72 100 138 184 240 312 374 440
#     4  12  27  45  70 107 148 195 251 303 377 456
#     4  12  23  43  71 106 145 190 239 310 384 456
#     4  11  23  46  70 106 146 185 242 309 378 451
#     4  11  23  44  69 102 139 181 236 309 372 448
#     4  11  25  47  73 102 143 196 248 300 375 449
#     4  12  25  44  72 102 142 191 245 299 383 445
#     4  10  24  47  72 103 147 186 247 313 373 446
#
# _framework density 21.777699999999999
#
# number of rings (size 3 to 8) (size 9 to 14) (size 15 to 20)
#    0.000    0.800    2.667    4.400    1.867    1.067 
#    9.600    4.000    0.000    0.000    0.000    0.000 
#    0.000    0.000    0.000    0.000    0.000    0.000 
#
# Total GULP energy -83546.604764 kJ/mol
# GULP energy per Si atom -5569.773651 kJ/mol
# Density = 2.172813 g / cm^3
# Si number density = 21.777700 Si / 1000 Ang^3
#
#
#
# Elastic Constant Matrix: (Units=GPa)
#
#
# Indices 1 2 3 4 5 6 
#
# 1 68.5109 41.6867 30.3868 2.0147 6.2274 -13.8010
# 2 41.6867 129.6622 52.2422 -5.7550 6.3276 -27.4101
# 3 30.3868 52.2422 141.8038 -1.9394 22.4841 -13.8841
# 4 2.0147 -5.7550 -1.9394 46.0572 5.3637 3.8601
# 5 6.2274 6.3276 22.4841 5.3637 21.6781 -3.1969
# 6 -13.8010 -27.4101 -13.8841 3.8601 -3.1969 29.3029
#
#
#
# Elastic Compliance Matrix: (Units=1/GPa)
#
#
# Indices 1 2 3 4 5 6 
#
# 1 0.019172 -0.004599 -0.001854 -0.001676 -0.001247 0.003934
# 2 -0.004599 0.011952 -0.002945 0.000707 0.001852 0.007728
# 3 -0.001854 -0.002945 0.010022 0.001225 -0.009314 -0.000057
# 4 -0.001676 0.000707 0.001225 0.023045 -0.007194 -0.003368
# 5 -0.001247 0.001852 -0.009314 -0.007194 0.057978 0.004004
# 6 0.003934 0.007728 -0.000057 -0.003368 0.004004 0.044061
#
#
# Mechanical properties :
#
#
# Convention : Reuss Voigt Hill
#
# Bulk Modulus (GPa) = 44.74162 65.40092 55.07127
# Shear Modulus (GPa) = 25.97712 33.78503 29.88107
#
# Velocity S-wave (km/s) = 3.45749 3.94300 3.70820
# Velocity P-wave (km/s) = 6.04386 7.12924 6.60887
#
# Compressibility (1/GPa) = 0.02235055
#
# Stress axis : x y z
#
# Youngs Moduli (GPa) = 52.15990 83.66756 99.77714
#
# Poissons Ratio (x) = 0.38476 0.18499
# Poissons Ratio (y) = 0.23986 0.29386
# Poissons Ratio (z) = 0.09671 0.24641
#
# Static dielectric constant tensor:
#      x y z
#    x 1.844350 0.026370 -0.007620 
#    y 0.026370 1.939730 0.014570 
#    z -0.007620 0.014570 1.744870 
# 
# From -- ./inp_files/486013.got.cif
#   From: 2010.05.17/outbox.cif.g08.bks.cpg/sg2_244_cif.got.tgz:486013.got - 2010.06.03 11:33:40.
