data_PCOD9035284
_publ_section_title
;
Structure prediction by ZEFSAII (Michael W. Deem and Ramdas Pophale) SiO2 
 PCOD9035284
Probable space group: P -1
;
_chemical_formula_sum "Si O2"
_cell_formula_units_Z 16
_cell_length_a 17.307051
_cell_length_b 7.652397
_cell_length_c 19.367407
_cell_angle_alpha 123.526050
_cell_angle_beta 158.443755
_cell_angle_gamma 66.837114
_cell_volume 722.462702
_symmetry_space_group_name_H-M "P -1"
_symmetry_group_IT_number 2
_symmetry_cell_setting 'triclinic'
loop_
_space_group_symop_operation_xyz
x,y,z
-x,-y,-z
loop_
_atom_site_type_symbol
_atom_site_label
_atom_site_fract_x
_atom_site_fract_y
_atom_site_fract_z
Si Si1 0.975155 0.686835 0.571744
Si Si2 0.449282 0.007198 0.042563
Si Si3 0.521586 0.494788 0.242767
Si Si4 0.904914 0.454004 0.159267
Si Si5 0.822692 0.980680 0.952348
Si Si6 0.710043 0.959603 0.699695
Si Si7 0.086467 0.925343 0.486531
Si Si8 0.382335 0.533913 0.525225
O O1 0.761185 0.579204 0.420188
O O2 0.000000 0.500000 0.500000
O O3 0.936858 0.898239 0.549804
O O4 0.229518 0.792744 0.835650
O O5 0.401779 0.230027 0.065962
O O6 0.656331 0.031747 0.270134
O O7 0.500000 0.000000 0.000000
O O8 0.574898 0.527367 0.374514
O O9 0.338952 0.591401 0.087306
O O10 0.955815 0.658392 0.301264
O O11 0.136406 0.554713 0.326423
O O12 0.882606 0.197306 0.099724
O O13 0.774129 0.052241 0.850594
O O14 0.598066 0.763241 0.737533
O O15 0.056157 0.938554 0.128507
O O16 0.642543 0.686451 0.588089
O O17 0.500000 0.000000 0.500000
O O18 0.000000 0.000000 0.500000
#
# Coordination Sequence:
#
# PCOD9035284 Si02
#       8
#     2   2   2   2   2   2   2   2
#     4  12  27  44  69  99 131 185 237 298 354 407
#     4  12  23  46  64  92 133 169 235 291 343 414
#     4  12  25  43  65  99 139 177 233 287 343 413
#     4  11  25  44  66 102 140 178 234 286 343 415
#     4  10  24  44  72 104 140 181 225 281 337 414
#     4  10  22  45  73 105 143 176 227 273 342 415
#     4  12  24  46  70  94 135 186 233 292 352 405
#     4  11  25  44  69 105 143 184 224 283 342 412
#
# _framework density 22.146471999999999
#
# number of rings (size 3 to 8) (size 9 to 14) (size 15 to 20)
#    0.000    0.750    5.000    1.125    1.750    5.000 
#    0.000    0.000    0.000    0.000    0.000    0.000 
#    0.000    0.000    0.000    0.000    0.000    0.000 
#
# Total GULP energy -89385.473568 kJ/mol
# GULP energy per Si atom -5586.592098 kJ/mol
# Density = 2.209607 g / cm^3
# Si number density = 22.146472 Si / 1000 Ang^3
#
#
#
# Elastic Constant Matrix: (Units=GPa)
#
#
# Indices 1 2 3 4 5 6 
#
# 1 80.4473 23.4957 44.9071 8.8386 2.3092 -13.9871
# 2 23.4957 64.9462 25.4416 10.8539 4.2344 -28.2586
# 3 44.9071 25.4416 155.7981 0.1239 22.6589 -6.5918
# 4 8.8386 10.8539 0.1239 62.4557 -0.3595 -5.3366
# 5 2.3092 4.2344 22.6589 -0.3595 47.4310 5.1827
# 6 -13.9871 -28.2586 -6.5918 -5.3366 5.1827 30.4323
#
#
#
# Elastic Compliance Matrix: (Units=1/GPa)
#
#
# Indices 1 2 3 4 5 6 
#
# 1 0.016346 -0.002284 -0.004316 -0.001559 0.001020 0.004010
# 2 -0.002284 0.029007 -0.002387 -0.002547 -0.004158 0.025630
# 3 -0.004316 -0.002387 0.008484 0.000850 -0.003446 -0.001627
# 4 -0.001559 -0.002547 0.000850 0.016675 0.000021 0.000023
# 5 0.001020 -0.004158 -0.003446 0.000021 0.023948 -0.008213
# 6 0.004010 0.025630 -0.001627 0.000023 -0.008213 0.059553
#
#
# Mechanical properties :
#
#
# Convention : Reuss Voigt Hill
#
# Bulk Modulus (GPa) = 27.88400 54.32006 41.10203
# Shear Modulus (GPa) = 27.18235 41.88695 34.53465
#
# Velocity S-wave (km/s) = 3.50721 4.35369 3.95318
# Velocity P-wave (km/s) = 5.38691 7.06072 6.27983
#
# Compressibility (1/GPa) = 0.03586286
#
# Stress axis : x y z
#
# Youngs Moduli (GPa) = 61.17665 34.47388 117.86785
#
# Poissons Ratio (x) = 0.07873 0.50872
# Poissons Ratio (y) = 0.13972 0.28140
# Poissons Ratio (z) = 0.26404 0.08230
#
# Static dielectric constant tensor:
#      x y z
#    x 1.897320 0.068500 -0.027380 
#    y 0.068500 1.965670 -0.080360 
#    z -0.027380 -0.080360 1.880760 
# 
# From -- ./inp_files/599582.got.cif
#   From: 2010.05.17/outbox.cif.g08.bks.cpg/sg2_300_cif.got.tgz:599582.got - 2010.06.03 11:33:40.
