data_PCOD9035457
_publ_section_title
;
Structure prediction by ZEFSAII (Michael W. Deem and Ramdas Pophale) SiO2 
 PCOD9035457
Probable space group: P -1
;
_chemical_formula_sum "Si O2"
_cell_formula_units_Z 14
_cell_length_a 11.522489
_cell_length_b 9.885451
_cell_length_c 8.047137
_cell_angle_alpha 66.186027
_cell_angle_beta 94.658708
_cell_angle_gamma 56.704003
_cell_volume 643.591966
_symmetry_space_group_name_H-M "P -1"
_symmetry_group_IT_number 2
_symmetry_cell_setting 'triclinic'
loop_
_space_group_symop_operation_xyz
x,y,z
-x,-y,-z
loop_
_atom_site_type_symbol
_atom_site_label
_atom_site_fract_x
_atom_site_fract_y
_atom_site_fract_z
Si Si1 0.981832 0.862209 0.672139
Si Si2 0.822481 0.418434 0.878027
Si Si3 0.627032 0.774491 0.128796
Si Si4 0.513059 0.664191 0.896734
Si Si5 0.348033 0.481532 0.504858
Si Si6 0.970469 0.498954 0.298989
Si Si7 0.667886 0.217886 0.488347
O O1 0.997333 0.698706 0.647704
O O2 0.901371 0.251747 0.106477
O O3 0.815297 0.011048 0.659920
O O4 0.000000 0.000000 0.500000
O O5 0.663042 0.593429 0.852293
O O6 0.766342 0.382892 0.722112
O O7 0.924871 0.473098 0.807369
O O8 0.669789 0.671315 0.362851
O O9 0.795967 0.674088 0.136873
O O10 0.535438 0.722162 0.045200
O O11 0.500000 0.000000 0.000000
O O12 0.376070 0.808222 0.684744
O O13 0.500000 0.500000 0.000000
O O14 0.520236 0.338161 0.529066
O O15 0.304565 0.627625 0.576775
O O16 0.000000 0.500000 0.500000
#
# Coordination Sequence:
#
# PCOD9035457 Si02
#       7
#     2   2   2   2   2   2   2
#     4  12  26  46  73 107 138 187 247 295 349 427
#     4  11  25  45  77  97 149 193 225 293 372 413
#     4  12  26  43  70 102 140 184 239 287 355 422
#     4  11  22  44  71  99 139 187 234 289 351 414
#     4  10  22  46  64 105 142 181 227 295 350 418
#     4  12  27  50  69 101 153 188 231 300 363 422
#     4  10  23  40  69 100 138 177 235 288 349 415
#
# _framework density 21.752911999999998
#
# number of rings (size 3 to 8) (size 9 to 14) (size 15 to 20)
#    0.000    0.857    4.286    2.143    4.000    0.571 
#    0.000    2.857    0.000    0.000    0.000    0.000 
#    0.000    0.000    0.000    0.000    0.000    0.000 
#
# Total GULP energy -78028.759650 kJ/mol
# GULP energy per Si atom -5573.482832 kJ/mol
# Density = 2.170340 g / cm^3
# Si number density = 21.752912 Si / 1000 Ang^3
#
#
#
# Elastic Constant Matrix: (Units=GPa)
#
#
# Indices 1 2 3 4 5 6 
#
# 1 88.5892 41.5401 16.8474 -14.1078 -6.1757 5.5488
# 2 41.5401 114.6780 45.4366 -15.3385 17.8247 13.3002
# 3 16.8474 45.4366 119.5898 -3.1132 17.6134 9.9059
# 4 -14.1078 -15.3385 -3.1132 28.0457 -1.2451 5.8516
# 5 -6.1757 17.8247 17.6134 -1.2451 45.6095 1.5111
# 6 5.5488 13.3002 9.9059 5.8516 1.5111 17.3864
#
#
#
# Elastic Compliance Matrix: (Units=1/GPa)
#
#
# Indices 1 2 3 4 5 6 
#
# 1 0.015052 -0.004786 -0.000536 0.005746 0.004377 -0.003151
# 2 -0.004786 0.014477 -0.003168 0.006978 -0.004571 -0.009693
# 3 -0.000536 -0.003168 0.010271 -0.000379 -0.002715 -0.002893
# 4 0.005746 0.006978 -0.000379 0.047094 0.000239 -0.022826
# 5 0.004377 -0.004571 -0.002715 0.000239 0.025314 0.001366
# 6 -0.003151 -0.009693 -0.002893 -0.022826 0.001366 0.075149
#
#
# Mechanical properties :
#
#
# Convention : Reuss Voigt Hill
#
# Bulk Modulus (GPa) = 43.82362 58.94503 51.38432
# Shear Modulus (GPa) = 23.59112 32.81053 28.20083
#
# Velocity S-wave (km/s) = 3.29675 3.88793 3.60448
# Velocity P-wave (km/s) = 5.88908 6.87830 6.40283
#
# Compressibility (1/GPa) = 0.02281875
#
# Stress axis : x y z
#
# Youngs Moduli (GPa) = 66.43714 69.07499 97.36227
#
# Poissons Ratio (x) = 0.33060 0.05219
# Poissons Ratio (y) = 0.31798 0.30848
# Poissons Ratio (z) = 0.03561 0.21886
#
# Static dielectric constant tensor:
#      x y z
#    x 2.016690 -0.021060 -0.119110 
#    y -0.021060 1.830790 0.119360 
#    z -0.119110 0.119360 1.994800 
# 
# From -- ./inp_files/237755.got.cif
#   From: 2010.05.17/outbox.cif.g08.bks.cpg/sg2_119_cif.got.tgz:237755.got - 2010.06.03 11:33:40.
