data_PCOD9035820
_publ_section_title
;
Structure prediction by ZEFSAII (Michael W. Deem and Ramdas Pophale) SiO2 
 PCOD9035820
Probable space group: P -1
;
_chemical_formula_sum "Si O2"
_cell_formula_units_Z 12
_cell_length_a 12.437112
_cell_length_b 7.546923
_cell_length_c 10.506372
_cell_angle_alpha 142.121291
_cell_angle_beta 128.201578
_cell_angle_gamma 74.356475
_cell_volume 424.239562
_symmetry_space_group_name_H-M "P -1"
_symmetry_group_IT_number 2
_symmetry_cell_setting 'triclinic'
loop_
_space_group_symop_operation_xyz
x,y,z
-x,-y,-z
loop_
_atom_site_type_symbol
_atom_site_label
_atom_site_fract_x
_atom_site_fract_y
_atom_site_fract_z
Si Si1 0.778940 0.791734 0.282416
Si Si2 0.538691 0.532624 0.277895
Si Si3 0.801429 0.192282 0.779794
Si Si4 0.898109 0.463396 0.647411
Si Si5 0.791173 0.359361 0.247935
Si Si6 0.292098 0.375188 0.208756
O O1 0.818894 0.521171 0.220867
O O2 0.801418 0.003887 0.545673
O O3 0.869166 0.090596 0.422799
O O4 0.604269 0.598235 0.998747
O O5 0.637063 0.357652 0.196061
O O6 0.650049 0.917316 0.577638
O O7 0.457890 0.468211 0.320023
O O8 0.783868 0.502227 0.891913
O O9 0.959503 0.302110 0.030850
O O10 0.907032 0.552494 0.556577
O O11 0.749951 0.474189 0.612463
O O12 0.227072 0.998231 0.973461
#
# Coordination Sequence:
#
# PCOD9035820 Si02
#       6
#     2   2   2   2   2   2
#     4  10  22  46  72  98 145 189 228 294 354 417
#     4  11  23  47  74 104 147 185 236 299 357 420
#     4  10  23  46  71 103 145 188 235 292 360 421
#     4  11  25  49  73 101 147 188 236 294 354 431
#     4  11  24  45  73 106 144 183 240 296 354 417
#     4  11  23  44  75 106 137 191 241 290 355 424
#
# _framework density 28.285902
#
# number of rings (size 3 to 8) (size 9 to 14) (size 15 to 20)
#    0.000    1.333    1.667    5.000    0.000    4.000 
#   18.000    7.500    0.000    0.000    0.000    0.000 
#    0.000    0.000    0.000    0.000    0.000    0.000 
#
# Total GULP energy -67241.416165 kJ/mol
# GULP energy per Si atom -5603.451347 kJ/mol
# Density = 2.822152 g / cm^3
# Si number density = 28.285902 Si / 1000 Ang^3
#
#
#
# Elastic Constant Matrix: (Units=GPa)
#
#
# Indices 1 2 3 4 5 6 
#
# 1 99.0070 27.1401 3.5898 14.9517 4.0650 6.2467
# 2 27.1401 181.1734 72.9693 21.7512 8.9323 -4.3559
# 3 3.5898 72.9693 182.2759 7.2012 13.9864 -4.5667
# 4 14.9517 21.7512 7.2012 68.7053 -3.4563 -5.1422
# 5 4.0650 8.9323 13.9864 -3.4563 44.6673 14.8249
# 6 6.2467 -4.3559 -4.5667 -5.1422 14.8249 63.1432
#
#
#
# Elastic Compliance Matrix: (Units=1/GPa)
#
#
# Indices 1 2 3 4 5 6 
#
# 1 0.010928 -0.001601 0.000523 -0.002045 -0.000606 -0.001178
# 2 -0.001601 0.007075 -0.002670 -0.001611 -0.000721 0.000491
# 3 0.000523 -0.002670 0.006703 -0.000013 -0.001839 0.000680
# 4 -0.002045 -0.001611 -0.000013 0.015659 0.001378 0.001042
# 5 -0.000606 -0.000721 -0.001839 0.001378 0.025240 -0.005936
# 6 -0.001178 0.000491 0.000680 0.001042 -0.005936 0.017515
#
#
# Mechanical properties :
#
#
# Convention : Reuss Voigt Hill
#
# Bulk Modulus (GPa) = 58.09677 74.42831 66.26254
# Shear Modulus (GPa) = 51.89285 59.22030 55.55657
#
# Velocity S-wave (km/s) = 4.28785 4.58059 4.43663
# Velocity P-wave (km/s) = 6.71550 7.37195 7.05137
#
# Compressibility (1/GPa) = 0.01721266
#
# Stress axis : x y z
#
# Youngs Moduli (GPa) = 91.50688 141.33464 149.18098
#
# Poissons Ratio (x) = 0.22625 -0.07807
# Poissons Ratio (y) = 0.14648 0.39826
# Poissons Ratio (z) = -0.04789 0.37731
#
# Static dielectric constant tensor:
#      x y z
#    x 2.321290 -0.034030 0.028200 
#    y -0.034030 2.292760 -0.052570 
#    z 0.028200 -0.052570 2.180880 
# 
# From -- ./inp_files/445245.got.cif
#   From: 2010.05.17/outbox.cif.g08.bks.cpg/sg2_223_cif.got.tgz:445245.got - 2010.06.03 11:33:40.
