data_PCOD9035387
_publ_section_title
;
Structure prediction by ZEFSAII (Michael W. Deem and Ramdas Pophale) SiO2 
 PCOD9035387
Probable space group: P -1
;
_chemical_formula_sum "Si O2"
_cell_formula_units_Z 14
_cell_length_a 12.256171
_cell_length_b 7.976071
_cell_length_c 9.755870
_cell_angle_alpha 91.548212
_cell_angle_beta 41.303662
_cell_angle_gamma 110.691841
_cell_volume 543.212016
_symmetry_space_group_name_H-M "P -1"
_symmetry_group_IT_number 2
_symmetry_cell_setting 'triclinic'
loop_
_space_group_symop_operation_xyz
x,y,z
-x,-y,-z
loop_
_atom_site_type_symbol
_atom_site_label
_atom_site_fract_x
_atom_site_fract_y
_atom_site_fract_z
Si Si1 0.648169 0.811034 0.358956
Si Si2 0.891612 0.132216 0.702142
Si Si3 0.308329 0.286048 0.985027
Si Si4 0.331316 0.340642 0.378361
Si Si5 0.997990 0.375869 0.368234
Si Si6 0.541417 0.105299 0.109629
Si Si7 0.694404 0.187495 0.437428
O O1 0.666349 0.688510 0.461308
O O2 0.425553 0.753260 0.547085
O O3 0.749402 0.039463 0.309750
O O4 0.722400 0.775448 0.146104
O O5 0.113834 0.241536 0.534128
O O6 0.887112 0.163250 0.544343
O O7 0.783344 0.909164 0.844750
O O8 0.772899 0.215887 0.896508
O O9 0.534942 0.436682 0.790052
O O10 0.195052 0.394850 0.136081
O O11 0.442440 0.233299 0.217266
O O12 0.000000 0.500000 0.500000
O O13 0.869449 0.356644 0.358860
O O14 0.461029 0.950600 0.304820
O O15 0.500000 0.000000 0.000000
#
# Coordination Sequence:
#
# PCOD9035387 Si02
#       7
#     2   2   2   2   2   2   2
#     4  10  23  47  74 106 151 201 251 313 376 446
#     4  12  27  47  78 112 150 203 247 311 395 449
#     4  12  26  48  75 111 150 200 254 312 380 452
#     4  11  28  48  73 115 154 193 260 319 365 463
#     4  12  28  47  75 116 152 195 256 317 389 459
#     4  11  22  44  76 105 154 202 245 310 394 447
#     4  10  22  45  75 106 150 195 253 314 371 459
#
# _framework density 25.772627
#
# number of rings (size 3 to 8) (size 9 to 14) (size 15 to 20)
#    0.000    0.857    2.857    3.429    4.000    2.857 
#    0.000    0.714    0.000    0.000    0.000    0.000 
#    0.000    0.000    0.000    0.000    0.000    0.000 
#
# Total GULP energy -78467.540952 kJ/mol
# GULP energy per Si atom -5604.824354 kJ/mol
# Density = 2.571397 g / cm^3
# Si number density = 25.772627 Si / 1000 Ang^3
#
#
#
# Elastic Constant Matrix: (Units=GPa)
#
#
# Indices 1 2 3 4 5 6 
#
# 1 126.8286 26.1249 22.8944 -2.9982 -16.6911 17.7592
# 2 26.1249 126.2674 35.3594 20.2851 -15.4799 3.5432
# 3 22.8944 35.3594 110.8660 18.6972 -23.4891 3.8420
# 4 -2.9982 20.2851 18.6972 50.9608 2.9389 -4.5066
# 5 -16.6911 -15.4799 -23.4891 2.9389 53.4949 -0.0304
# 6 17.7592 3.5432 3.8420 -4.5066 -0.0304 40.5927
#
#
#
# Elastic Compliance Matrix: (Units=1/GPa)
#
#
# Indices 1 2 3 4 5 6 
#
# 1 0.009164 -0.001427 -0.001087 0.001072 0.001908 -0.003661
# 2 -0.001427 0.009470 -0.001792 -0.003329 0.001691 -0.000401
# 3 -0.001087 -0.001792 0.011425 -0.003872 0.004371 -0.000876
# 4 0.001072 -0.003329 -0.003872 0.022879 -0.003584 0.002725
# 5 0.001908 0.001691 0.004371 -0.003584 0.021893 -0.001778
# 6 -0.003661 -0.000401 -0.000876 0.002725 -0.001778 0.026656
#
#
# Mechanical properties :
#
#
# Convention : Reuss Voigt Hill
#
# Bulk Modulus (GPa) = 46.62636 59.19107 52.90871
# Shear Modulus (GPa) = 42.64395 47.64857 45.14626
#
# Velocity S-wave (km/s) = 4.07212 4.30444 4.18989
# Velocity P-wave (km/s) = 6.34352 6.90802 6.63178
#
# Compressibility (1/GPa) = 0.02144710
#
# Stress axis : x y z
#
# Youngs Moduli (GPa) = 109.12293 105.59407 87.52398
#
# Poissons Ratio (x) = 0.15071 0.09513
# Poissons Ratio (y) = 0.15575 0.15685
# Poissons Ratio (z) = 0.11861 0.18924
#
# Static dielectric constant tensor:
#      x y z
#    x 2.059360 -0.038830 -0.048320 
#    y -0.038830 2.201530 -0.026430 
#    z -0.048320 -0.026430 2.009900 
# 
# From -- ./inp_files/244409.got.cif
#   From: 2010.05.17/outbox.cif.g08.bks.cpg/sg2_123_cif.got.tgz:244409.got - 2010.06.03 11:33:40.
