data_PCOD9035159
_publ_section_title
;
Structure prediction by ZEFSAII (Michael W. Deem and Ramdas Pophale) SiO2 
 PCOD9035159
Probable space group: P -1
;
_chemical_formula_sum "Si O2"
_cell_formula_units_Z 16
_cell_length_a 14.812945
_cell_length_b 7.524175
_cell_length_c 20.216732
_cell_angle_alpha 51.465490
_cell_angle_beta 158.214293
_cell_angle_gamma 130.087768
_cell_volume 637.304588
_symmetry_space_group_name_H-M "P -1"
_symmetry_group_IT_number 2
_symmetry_cell_setting 'triclinic'
loop_
_space_group_symop_operation_xyz
x,y,z
-x,-y,-z
loop_
_atom_site_type_symbol
_atom_site_label
_atom_site_fract_x
_atom_site_fract_y
_atom_site_fract_z
Si Si1 0.079791 0.509558 0.812218
Si Si2 0.619772 0.785288 0.115795
Si Si3 0.629178 0.291298 0.442283
Si Si4 0.210701 0.218280 0.619895
Si Si5 0.330615 0.873226 0.128958
Si Si6 0.560456 0.560707 0.452013
Si Si7 0.983166 0.046536 0.767240
Si Si8 0.786243 0.789228 0.928928
O O1 0.979734 0.269306 0.760453
O O2 0.865846 0.658093 0.631156
O O3 0.365241 0.604729 0.962992
O O4 0.103924 0.426104 0.922828
O O5 0.754608 0.741806 0.286558
O O6 0.809873 0.860394 0.168494
O O7 0.500000 0.000000 0.000000
O O8 0.815584 0.535745 0.487720
O O9 0.524103 0.335357 0.432204
O O10 0.404027 0.282304 0.241788
O O11 0.723389 0.052546 0.553588
O O12 0.463016 0.155833 0.777302
O O13 0.000000 0.000000 0.500000
O O14 0.387512 0.711591 0.264690
O O15 0.352987 0.119475 0.124865
O O16 0.071763 0.854574 0.916617
O O17 0.500000 0.500000 0.500000
O O18 0.000000 0.000000 0.000000
#
# Coordination Sequence:
#
# PCOD9035159 Si02
#       8
#     2   2   2   2   2   2   2   2
#     4  10  23  44  65  99 139 174 227 278 332 404
#     4  12  24  39  66 102 136 182 224 264 344 401
#     4  10  24  45  68 101 133 177 229 271 340 403
#     4  11  25  43  66 101 139 179 222 276 329 406
#     4  10  23  43  64  98 137 171 222 281 330 397
#     4  10  22  45  71  96 130 176 225 288 337 392
#     4  10  23  41  67  96 139 180 214 275 332 410
#     4  11  23  45  70  96 134 176 227 285 335 392
#
# _framework density 25.105737000000001
#
# number of rings (size 3 to 8) (size 9 to 14) (size 15 to 20)
#    0.000    1.500    2.500    1.125    7.000    2.500 
#    2.250   10.625    0.000    0.000    0.000    0.000 
#    0.000    0.000    0.000    0.000    0.000    0.000 
#
# Total GULP energy -89295.620936 kJ/mol
# GULP energy per Si atom -5580.976309 kJ/mol
# Density = 2.504860 g / cm^3
# Si number density = 25.105737 Si / 1000 Ang^3
#
#
#
# Elastic Constant Matrix: (Units=GPa)
#
#
# Indices 1 2 3 4 5 6 
#
# 1 111.5971 -7.0965 44.9901 -19.1313 -19.1757 4.8755
# 2 -7.0965 53.7166 30.3976 -14.0711 4.4284 11.0103
# 3 44.9901 30.3976 120.9184 -46.5243 -11.6425 18.8313
# 4 -19.1313 -14.0711 -46.5243 50.5203 3.0190 -7.0645
# 5 -19.1757 4.4284 -11.6425 3.0190 28.4945 -14.9504
# 6 4.8755 11.0103 18.8313 -7.0645 -14.9504 34.1697
#
#
#
# Elastic Compliance Matrix: (Units=1/GPa)
#
#
# Indices 1 2 3 4 5 6 
#
# 1 0.012476 0.003397 -0.004804 0.001262 0.007514 0.003321
# 2 0.003397 0.025835 -0.006614 0.001705 -0.009263 -0.008865
# 3 -0.004804 -0.006614 0.016688 0.011139 0.001679 -0.003343
# 4 0.001262 0.001705 0.011139 0.030942 0.002090 0.000443
# 5 0.007514 -0.009263 0.001679 0.002090 0.055553 0.025726
# 6 0.003321 -0.008865 -0.003343 0.000443 0.025726 0.044838
#
#
# Mechanical properties :
#
#
# Convention : Reuss Voigt Hill
#
# Bulk Modulus (GPa) = 25.66887 46.97939 36.32413
# Shear Modulus (GPa) = 23.21690 37.16627 30.19158
#
# Velocity S-wave (km/s) = 3.04429 3.85176 3.47158
# Velocity P-wave (km/s) = 4.75431 6.20763 5.52893
#
# Compressibility (1/GPa) = 0.03895770
#
# Stress axis : x y z
#
# Youngs Moduli (GPa) = 80.15409 38.70702 59.92196
#
# Poissons Ratio (x) = -0.13149 0.28788
# Poissons Ratio (y) = -0.27230 0.39631
# Poissons Ratio (z) = 0.38508 0.25600
#
# Static dielectric constant tensor:
#      x y z
#    x 1.988260 -0.015130 -0.098250 
#    y -0.015130 2.260970 -0.475780 
#    z -0.098250 -0.475780 3.967950 
# 
# From -- ./inp_files/597328.got.cif
#   From: 2010.05.17/outbox.cif.g08.bks.cpg/sg2_299_cif.got.tgz:597328.got - 2010.06.03 11:33:40.
