data_PCOD9035734
_publ_section_title
;
Structure prediction by ZEFSAII (Michael W. Deem and Ramdas Pophale) SiO2 
 PCOD9035734
Probable space group: P -1
;
_chemical_formula_sum "Si O2"
_cell_formula_units_Z 12
_cell_length_a 13.135753
_cell_length_b 11.039926
_cell_length_c 18.947488
_cell_angle_alpha 154.139619
_cell_angle_beta 23.604141
_cell_angle_gamma 154.542624
_cell_volume 428.922150
_symmetry_space_group_name_H-M "P -1"
_symmetry_group_IT_number 2
_symmetry_cell_setting 'triclinic'
loop_
_space_group_symop_operation_xyz
x,y,z
-x,-y,-z
loop_
_atom_site_type_symbol
_atom_site_label
_atom_site_fract_x
_atom_site_fract_y
_atom_site_fract_z
Si Si1 0.402106 0.317672 0.392676
Si Si2 0.379688 0.486043 0.782674
Si Si3 0.150241 0.661158 0.278386
Si Si4 0.376052 0.152289 0.832683
Si Si5 0.997602 0.122269 0.943879
Si Si6 0.055767 0.209132 0.326277
O O1 0.500000 0.500000 0.500000
O O2 0.620399 0.366030 0.215576
O O3 0.181911 0.432504 0.559125
O O4 0.257898 0.956584 0.313726
O O5 0.168578 0.442885 0.960793
O O6 0.234545 0.118375 0.659722
O O7 0.692786 0.687439 0.722052
O O8 0.278545 0.426579 0.051521
O O9 0.300195 0.764736 0.313860
O O10 0.212752 0.921796 0.881009
O O11 0.242205 0.048545 0.786337
O O12 0.825811 0.860915 0.859292
O O13 0.000000 0.500000 0.500000
#
# Coordination Sequence:
#
# PCOD9035734 Si02
#       6
#     2   2   2   2   2   2
#     4  11  27  47  70 103 144 196 245 305 362 433
#     4  10  25  42  67 102 147 184 244 298 367 425
#     4  10  26  42  74 100 146 188 250 297 361 432
#     4  10  22  46  71 108 142 196 237 298 359 441
#     4   9  24  39  70 106 150 181 244 298 368 426
#     4  10  23  39  65 105 145 188 233 303 360 423
#
# _framework density 27.977105999999999
#
# number of rings (size 3 to 8) (size 9 to 14) (size 15 to 20)
#    1.000    1.000    0.000    0.500   16.333    0.000 
#    0.000    1.667    0.000    0.000    0.000    0.000 
#    0.000    0.000    0.000    0.000    0.000    0.000 
#
# Total GULP energy -66968.635337 kJ/mol
# GULP energy per Si atom -5580.719611 kJ/mol
# Density = 2.791343 g / cm^3
# Si number density = 27.977106 Si / 1000 Ang^3
#
#
#
# Elastic Constant Matrix: (Units=GPa)
#
#
# Indices 1 2 3 4 5 6 
#
# 1 216.0720 33.6057 70.7279 -19.8582 8.6058 45.4517
# 2 33.6057 93.4813 27.8621 -11.4979 19.1805 -4.9758
# 3 70.7279 27.8621 73.6092 11.7875 7.0017 -4.5521
# 4 -19.8582 -11.4979 11.7875 43.4617 -2.9121 12.1405
# 5 8.6058 19.1805 7.0017 -2.9121 67.1152 -10.8282
# 6 45.4517 -4.9758 -4.5521 12.1405 -10.8282 68.2283
#
#
#
# Elastic Compliance Matrix: (Units=1/GPa)
#
#
# Indices 1 2 3 4 5 6 
#
# 1 0.014792 0.001705 -0.018080 0.015912 -0.002082 -0.014098
# 2 0.001705 0.013861 -0.007832 0.007022 -0.003453 -0.002445
# 3 -0.018080 -0.007832 0.039052 -0.026099 0.002433 0.019109
# 4 0.015912 0.007022 -0.026099 0.044680 -0.002644 -0.020199
# 5 -0.002082 -0.003453 0.002433 -0.002644 0.016492 0.004385
# 6 -0.014098 -0.002445 0.019109 -0.020199 0.004385 0.029435
#
#
# Mechanical properties :
#
#
# Convention : Reuss Voigt Hill
#
# Bulk Modulus (GPa) = 51.83946 71.95043 61.89494
# Shear Modulus (GPa) = 23.45693 52.49215 37.97454
#
# Velocity S-wave (km/s) = 2.89871 4.33627 3.68821
# Velocity P-wave (km/s) = 5.45645 7.13053 6.34891
#
# Compressibility (1/GPa) = 0.01929033
#
# Stress axis : x y z
#
# Youngs Moduli (GPa) = 67.60419 72.14707 25.60688
#
# Poissons Ratio (x) = -0.12302 0.46298
# Poissons Ratio (y) = -0.11527 0.20055
# Poissons Ratio (z) = 1.22230 0.56506
#
# Static dielectric constant tensor:
#      x y z
#    x 2.285430 0.098830 0.046200 
#    y 0.098830 2.382520 -0.068320 
#    z 0.046200 -0.068320 2.254130 
# 
# From -- ./inp_files/573499.got.cif
#   From: 2010.05.17/outbox.cif.g08.bks.cpg/sg2_287_cif.got.tgz:573499.got - 2010.06.03 11:33:40.
