data_PCOD9035570
_publ_section_title
;
Structure prediction by ZEFSAII (Michael W. Deem and Ramdas Pophale) SiO2 
 PCOD9035570
Probable space group: P -1
;
_chemical_formula_sum "Si O2"
_cell_formula_units_Z 16
_cell_length_a 18.623341
_cell_length_b 8.938704
_cell_length_c 12.411509
_cell_angle_alpha 82.353453
_cell_angle_beta 137.854214
_cell_angle_gamma 131.045195
_cell_volume 747.624034
_symmetry_space_group_name_H-M "P -1"
_symmetry_group_IT_number 2
_symmetry_cell_setting 'triclinic'
loop_
_space_group_symop_operation_xyz
x,y,z
-x,-y,-z
loop_
_atom_site_type_symbol
_atom_site_label
_atom_site_fract_x
_atom_site_fract_y
_atom_site_fract_z
Si Si1 0.810329 0.839390 0.241399
Si Si2 0.667490 0.342351 0.364490
Si Si3 0.445101 0.205207 0.930848
Si Si4 0.025982 0.115832 0.238553
Si Si5 0.882739 0.343858 0.496414
Si Si6 0.015207 0.278533 0.837883
Si Si7 0.608772 0.096404 0.722703
Si Si8 0.884808 0.206122 0.917863
O O1 0.711421 0.854163 0.199954
O O2 0.873498 0.960986 0.181035
O O3 0.641583 0.513647 0.075071
O O4 0.000000 0.000000 0.500000
O O5 0.849401 0.463257 0.506589
O O6 0.760244 0.600353 0.498083
O O7 0.554389 0.110244 0.348038
O O8 0.516020 0.203334 0.116102
O O9 0.334526 0.969151 0.747032
O O10 0.994036 0.908159 0.182957
O O11 0.998013 0.207290 0.105683
O O12 0.000000 0.500000 0.500000
O O13 0.975140 0.333992 0.683122
O O14 0.855015 0.118114 0.770152
O O15 0.223973 0.584439 0.088927
O O16 0.710877 0.055054 0.816929
O O17 0.500000 0.000000 0.500000
O O18 0.000000 0.500000 0.000000
#
# Coordination Sequence:
#
# PCOD9035570 Si02
#       8
#     2   2   2   2   2   2   2   2
#     4  11  23  44  66 102 148 187 230 298 356 410
#     4  12  24  42  68 103 139 185 238 286 352 420
#     4  11  25  41  69  99 141 192 245 280 350 424
#     4  12  24  42  73  99 142 181 229 293 358 412
#     4  12  26  44  70 101 144 191 239 290 352 427
#     4  11  25  44  71 100 137 182 234 288 360 417
#     4  11  23  44  70  98 135 179 232 295 351 426
#     4  10  22  46  68  96 132 179 227 283 357 419
#
# _framework density 21.401129999999998
#
# number of rings (size 3 to 8) (size 9 to 14) (size 15 to 20)
#    0.000    0.750    1.250    7.500    5.250    0.000 
#    0.000    1.250    0.000    0.000    0.000    0.000 
#    0.000    0.000    0.000    0.000    0.000    0.000 
#
# Total GULP energy -89460.600948 kJ/mol
# GULP energy per Si atom -5591.287559 kJ/mol
# Density = 2.135242 g / cm^3
# Si number density = 21.401130 Si / 1000 Ang^3
#
#
#
# Elastic Constant Matrix: (Units=GPa)
#
#
# Indices 1 2 3 4 5 6 
#
# 1 106.9064 56.8935 36.0475 7.9554 -4.6874 -2.8946
# 2 56.8935 109.5550 59.7855 -9.6400 -16.5627 -2.2326
# 3 36.0475 59.7855 118.8436 -12.0567 -17.9567 -18.1357
# 4 7.9554 -9.6400 -12.0567 47.8031 -1.1388 -9.0889
# 5 -4.6874 -16.5627 -17.9567 -1.1388 37.2074 2.4851
# 6 -2.8946 -2.2326 -18.1357 -9.0889 2.4851 45.0784
#
#
#
# Elastic Compliance Matrix: (Units=1/GPa)
#
#
# Indices 1 2 3 4 5 6 
#
# 1 0.013846 -0.007086 -0.001538 -0.004332 -0.002229 -0.000831
# 2 -0.007086 0.016683 -0.005561 0.002953 0.004040 -0.001493
# 3 -0.001538 -0.005561 0.013439 0.003669 0.003556 0.005576
# 4 -0.004332 0.002953 0.003669 0.024390 0.002878 0.006103
# 5 -0.002229 0.004040 0.003556 0.002878 0.030171 0.000405
# 6 -0.000831 -0.001493 0.005576 0.006103 0.000405 0.025508
#
#
# Mechanical properties :
#
#
# Convention : Reuss Voigt Hill
#
# Bulk Modulus (GPa) = 64.11475 71.19533 67.65504
# Shear Modulus (GPa) = 31.72468 38.18969 34.95719
#
# Velocity S-wave (km/s) = 3.85435 4.22888 4.04595
# Velocity P-wave (km/s) = 7.05915 7.56200 7.31490
#
# Compressibility (1/GPa) = 0.01559703
#
# Stress axis : x y z
#
# Youngs Moduli (GPa) = 72.22359 59.94268 74.41059
#
# Poissons Ratio (x) = 0.42476 0.11446
# Poissons Ratio (y) = 0.51179 0.41378
# Poissons Ratio (z) = 0.11109 0.33333
#
# Static dielectric constant tensor:
#      x y z
#    x 1.879120 0.012650 0.026530 
#    y 0.012650 1.788420 0.011370 
#    z 0.026530 0.011370 1.782620 
# 
# From -- ./inp_files/273279.got.cif
#   From: 2010.05.17/outbox.cif.g08.bks.cpg/sg2_137_cif.got.tgz:273279.got - 2010.06.03 11:33:40.
