data_PCOD9035926
_publ_section_title
;
Structure prediction by ZEFSAII (Michael W. Deem and Ramdas Pophale) SiO2 
 PCOD9035926
Probable space group: P -1
;
_chemical_formula_sum "Si O2"
_cell_formula_units_Z 12
_cell_length_a 7.782680
_cell_length_b 14.208949
_cell_length_c 8.838475
_cell_angle_alpha 131.473219
_cell_angle_beta 146.328024
_cell_angle_gamma 53.367829
_cell_volume 403.583972
_symmetry_space_group_name_H-M "P -1"
_symmetry_group_IT_number 2
_symmetry_cell_setting 'triclinic'
loop_
_space_group_symop_operation_xyz
x,y,z
-x,-y,-z
loop_
_atom_site_type_symbol
_atom_site_label
_atom_site_fract_x
_atom_site_fract_y
_atom_site_fract_z
Si Si1 0.679853 0.782946 0.395828
Si Si2 0.369569 0.712128 0.590118
Si Si3 0.925724 0.031449 0.806109
Si Si4 0.935301 0.624853 0.687724
Si Si5 0.901912 0.544573 0.144216
Si Si6 0.161112 0.123104 0.798133
O O1 0.820016 0.897078 0.530411
O O2 0.879225 0.733465 0.636246
O O3 0.655986 0.662468 0.142220
O O4 0.358967 0.858131 0.296935
O O5 0.640186 0.648948 0.611544
O O6 0.217617 0.613645 0.481827
O O7 0.514672 0.816195 0.912342
O O8 0.096772 0.770503 0.341344
O O9 0.186348 0.086983 0.958066
O O10 0.000000 0.000000 0.000000
O O11 0.180553 0.576112 0.948402
O O12 0.000000 0.500000 0.500000
O O13 0.000000 0.500000 0.000000
O O14 0.000000 0.000000 0.500000
#
# Coordination Sequence:
#
# PCOD9035926 Si02
#       6
#     2   2   2   2   2   2
#     4  10  23  49  74 113 150 204 261 326 396 473
#     4  12  25  50  76 116 161 201 265 324 395 473
#     4  11  24  46  79 111 155 203 265 326 403 471
#     4  10  22  46  76 107 153 204 259 320 388 467
#     4  11  25  49  78 116 156 207 266 326 392 470
#     4  12  27  48  80 116 159 206 259 327 399 477
#
# _framework density 29.733591000000001
#
# number of rings (size 3 to 8) (size 9 to 14) (size 15 to 20)
#    0.000    1.000    1.667    4.000    2.333    0.000 
#   21.000    2.500    0.000    2.000    0.000    0.000 
#    0.000    0.000    0.000    0.000    0.000    0.000 
#
# Total GULP energy -67038.808745 kJ/mol
# GULP energy per Si atom -5586.567395 kJ/mol
# Density = 2.966592 g / cm^3
# Si number density = 29.733591 Si / 1000 Ang^3
#
#
#
# Elastic Constant Matrix: (Units=GPa)
#
#
# Indices 1 2 3 4 5 6 
#
# 1 111.9789 34.5701 11.0051 13.2161 -1.1247 25.7838
# 2 34.5701 236.7856 49.8954 16.3042 -10.8591 28.3790
# 3 11.0051 49.8954 161.4190 21.4279 0.7065 7.9892
# 4 13.2161 16.3042 21.4279 41.6299 -0.5696 -12.3361
# 5 -1.1247 -10.8591 0.7065 -0.5696 59.7176 0.8717
# 6 25.7838 28.3790 7.9892 -12.3361 0.8717 65.0420
#
#
#
# Elastic Compliance Matrix: (Units=1/GPa)
#
#
# Indices 1 2 3 4 5 6 
#
# 1 0.010822 -0.000733 0.000369 -0.004797 0.000092 -0.004927
# 2 -0.000733 0.004986 -0.001163 -0.001726 0.000921 -0.002082
# 3 0.000369 -0.001163 0.007076 -0.003663 -0.000306 -0.001199
# 4 -0.004797 -0.001726 -0.003663 0.030752 -0.000198 0.008940
# 5 0.000092 0.000921 -0.000306 -0.000198 0.016926 -0.000665
# 6 -0.004927 -0.002082 -0.001199 0.008940 -0.000665 0.020088
#
#
# Mechanical properties :
#
#
# Convention : Reuss Voigt Hill
#
# Bulk Modulus (GPa) = 50.42827 77.90274 64.16551
# Shear Modulus (GPa) = 49.84381 60.92541 55.38461
#
# Velocity S-wave (km/s) = 4.09876 4.53155 4.32058
# Velocity P-wave (km/s) = 6.27668 7.32373 6.82033
#
# Compressibility (1/GPa) = 0.01983015
#
# Stress axis : x y z
#
# Youngs Moduli (GPa) = 92.40724 200.56867 141.31494
#
# Poissons Ratio (x) = 0.14695 -0.05213
# Poissons Ratio (y) = 0.06770 0.16436
# Poissons Ratio (z) = -0.03409 0.23328
#
# Static dielectric constant tensor:
#      x y z
#    x 2.330960 -0.069240 -0.069950 
#    y -0.069240 2.455160 0.145870 
#    z -0.069950 0.145870 2.586260 
# 
# From -- ./inp_files/204538.got.cif
#   From: 2010.05.17/outbox.cif.g08.bks.cpg/sg2_103_cif.got.tgz:204538.got - 2010.06.03 11:33:40.
