data_PCOD9035119
_publ_section_title
;
Structure prediction by ZEFSAII (Michael W. Deem and Ramdas Pophale) SiO2 
 PCOD9035119
Probable space group: P -1
;
_chemical_formula_sum "Si O2"
_cell_formula_units_Z 16
_cell_length_a 12.803276
_cell_length_b 12.530550
_cell_length_c 5.523309
_cell_angle_alpha 113.859606
_cell_angle_beta 97.234593
_cell_angle_gamma 60.704176
_cell_volume 703.858045
_symmetry_space_group_name_H-M "P -1"
_symmetry_group_IT_number 2
_symmetry_cell_setting 'triclinic'
loop_
_space_group_symop_operation_xyz
x,y,z
-x,-y,-z
loop_
_atom_site_type_symbol
_atom_site_label
_atom_site_fract_x
_atom_site_fract_y
_atom_site_fract_z
Si Si1 0.412041 0.375635 0.438283
Si Si2 0.067156 0.489686 0.762090
Si Si3 0.601839 0.413319 0.757128
Si Si4 0.874657 0.994486 0.489840
Si Si5 0.227954 0.184048 0.592410
Si Si6 0.855575 0.096176 0.076690
Si Si7 0.369612 0.127506 0.090409
Si Si8 0.210304 0.630334 0.873938
O O1 0.546375 0.329473 0.535054
O O2 0.398857 0.473374 0.306642
O O3 0.387232 0.257106 0.254098
O O4 0.310143 0.483746 0.682871
O O5 0.176256 0.340160 0.673911
O O6 0.098645 0.609361 0.880184
O O7 0.000000 0.500000 0.500000
O O8 0.000000 0.500000 0.000000
O O9 0.500000 0.500000 0.000000
O O10 0.730484 0.338911 0.850300
O O11 0.814934 0.051438 0.264324
O O12 0.876904 0.855079 0.418343
O O13 0.808553 0.074398 0.786007
O O14 0.000000 0.000000 0.500000
O O15 0.299042 0.119559 0.302882
O O16 0.305232 0.143371 0.825962
O O17 0.822029 0.250820 0.215113
O O18 0.000000 0.000000 0.000000
O O19 0.500000 0.000000 0.000000
#
# Coordination Sequence:
#
# PCOD9035119 Si02
#       8
#     2   2   2   2   2   2   2   2
#     4  10  22  45  71 104 143 179 242 300 373 428
#     4  12  29  43  77 109 145 198 249 302 362 443
#     4   9  21  42  71 104 135 185 231 306 360 442
#     4  10  24  45  70  96 143 190 239 296 354 426
#     4  12  26  52  73 108 151 198 248 305 373 437
#     4  10  24  41  66  98 138 189 229 295 346 426
#     4  12  27  49  78 108 148 196 246 307 371 454
#     4  11  24  43  72 102 145 186 242 293 373 417
#
# _framework density 22.731857000000002
#
# number of rings (size 3 to 8) (size 9 to 14) (size 15 to 20)
#    0.000    1.250    1.250    2.625   12.250    1.000 
#   11.250    0.000    0.000    0.000    0.000    0.000 
#    0.000    0.000    0.000    0.000    0.000    0.000 
#
# Total GULP energy -89284.503620 kJ/mol
# GULP energy per Si atom -5580.281476 kJ/mol
# Density = 2.268012 g / cm^3
# Si number density = 22.731857 Si / 1000 Ang^3
#
#
#
# Elastic Constant Matrix: (Units=GPa)
#
#
# Indices 1 2 3 4 5 6 
#
# 1 79.7776 33.2566 27.4613 -17.0594 3.0191 23.4462
# 2 33.2566 69.6310 34.1249 -10.4872 1.1492 8.1481
# 3 27.4613 34.1249 127.7428 -38.4788 -13.6021 -0.7810
# 4 -17.0594 -10.4872 -38.4788 47.7573 -0.0977 -3.5795
# 5 3.0191 1.1492 -13.6021 -0.0977 33.6591 -4.4230
# 6 23.4462 8.1481 -0.7810 -3.5795 -4.4230 48.7383
#
#
#
# Elastic Compliance Matrix: (Units=1/GPa)
#
#
# Indices 1 2 3 4 5 6 
#
# 1 0.019209 -0.006833 -0.001676 0.003391 -0.003231 -0.008169
# 2 -0.006833 0.019652 -0.004537 -0.001813 -0.001947 -0.000381
# 3 -0.001676 -0.004537 0.012719 0.008886 0.005859 0.002953
# 4 0.003391 -0.001813 0.008886 0.029015 0.003600 0.001272
# 5 -0.003231 -0.001947 0.005859 0.003600 0.033133 0.005245
# 6 -0.008169 -0.000381 0.002953 0.001272 0.005245 0.025128
#
#
# Mechanical properties :
#
#
# Convention : Reuss Voigt Hill
#
# Bulk Modulus (GPa) = 39.23397 51.87077 45.55237
# Shear Modulus (GPa) = 28.82784 38.18484 33.50634
#
# Velocity S-wave (km/s) = 3.56500 4.10298 3.84341
# Velocity P-wave (km/s) = 5.85171 6.73156 6.30700
#
# Compressibility (1/GPa) = 0.02548812
#
# Stress axis : x y z
#
# Youngs Moduli (GPa) = 52.06004 50.88614 78.62111
#
# Poissons Ratio (x) = 0.34768 0.13181
# Poissons Ratio (y) = 0.35570 0.35668
# Poissons Ratio (z) = 0.08728 0.23085
#
# Static dielectric constant tensor:
#      x y z
#    x 1.872740 -0.020100 0.013250 
#    y -0.020100 1.784640 0.008200 
#    z 0.013250 0.008200 2.000080 
# 
# From -- ./inp_files/71833.got.cif
#   From: 2010.05.17/outbox.cif.g08.bks.cpg/sg2_36_cif.got.tgz:71833.got - 2010.06.03 11:33:40.
