data_PCOD9035089
_publ_section_title
;
Structure prediction by ZEFSAII (Michael W. Deem and Ramdas Pophale) SiO2 
 PCOD9035089
Probable space group: P -1
;
_chemical_formula_sum "Si O2"
_cell_formula_units_Z 14
_cell_length_a 7.264191
_cell_length_b 22.495189
_cell_length_c 13.273746
_cell_angle_alpha 32.283626
_cell_angle_beta 147.093246
_cell_angle_gamma 139.108110
_cell_volume 621.370946
_symmetry_space_group_name_H-M "P -1"
_symmetry_group_IT_number 2
_symmetry_cell_setting 'triclinic'
loop_
_space_group_symop_operation_xyz
x,y,z
-x,-y,-z
loop_
_atom_site_type_symbol
_atom_site_label
_atom_site_fract_x
_atom_site_fract_y
_atom_site_fract_z
Si Si1 0.723472 0.624421 0.430126
Si Si2 0.945075 0.376226 0.198127
Si Si3 0.604869 0.181355 0.895763
Si Si4 0.756572 0.736145 0.072893
Si Si5 0.412279 0.946084 0.642908
Si Si6 0.709637 0.814059 0.450559
Si Si7 0.636939 0.040688 0.793620
O O1 0.500000 0.500000 0.500000
O O2 0.502709 0.720573 0.225870
O O3 0.822077 0.657656 0.311142
O O4 0.988024 0.625566 0.646574
O O5 0.226799 0.311105 0.365678
O O6 0.573684 0.317250 0.070690
O O7 0.000000 0.500000 0.000000
O O8 0.308982 0.138330 0.738941
O O9 0.928924 0.233343 0.903517
O O10 0.617405 0.067090 0.124175
O O11 0.655249 0.851853 0.904187
O O12 0.033372 0.877165 0.568337
O O13 0.500000 0.000000 0.500000
O O14 0.483870 0.051212 0.599056
O O15 0.388456 0.849139 0.311785
O O16 0.000000 0.000000 0.000000
#
# Coordination Sequence:
#
# PCOD9035089 Si02
#       7
#     2   2   2   2   2   2   2
#     4  11  23  45  73  99 137 185 236 288 352 411
#     4  10  22  45  71 100 140 178 232 297 346 412
#     4  11  24  44  66 100 136 177 233 288 344 415
#     4  11  23  45  71  99 140 183 231 288 350 412
#     4  11  22  41  64  97 140 176 225 285 347 417
#     4  10  23  39  64  98 131 175 229 276 346 415
#     4  12  23  41  69  97 139 185 228 282 352 416
#
# _framework density 22.530826000000001
#
# number of rings (size 3 to 8) (size 9 to 14) (size 15 to 20)
#    0.000    1.143    2.857    3.429    0.000    0.571 
#    2.571    0.714    0.000    0.000    0.000    0.000 
#    0.000    0.000    0.000    0.000    0.000    0.000 
#
# Total GULP energy -78108.547471 kJ/mol
# GULP energy per Si atom -5579.181962 kJ/mol
# Density = 2.247954 g / cm^3
# Si number density = 22.530826 Si / 1000 Ang^3
#
#
#
# Elastic Constant Matrix: (Units=GPa)
#
#
# Indices 1 2 3 4 5 6 
#
# 1 125.1088 43.3245 52.7955 3.5316 -15.1385 0.1374
# 2 43.3245 98.3351 29.7512 12.5965 -12.1014 -12.1341
# 3 52.7955 29.7512 98.6630 0.5069 -13.7794 1.5738
# 4 3.5316 12.5965 0.5069 32.9942 1.5486 -6.0574
# 5 -15.1385 -12.1014 -13.7794 1.5486 40.3179 1.5233
# 6 0.1374 -12.1341 1.5738 -6.0574 1.5233 42.7442
#
#
#
# Elastic Compliance Matrix: (Units=1/GPa)
#
#
# Indices 1 2 3 4 5 6 
#
# 1 0.011436 -0.003481 -0.004826 -0.000066 0.001637 -0.000915
# 2 -0.003481 0.013496 -0.001940 -0.004256 0.002122 0.003235
# 3 -0.004826 -0.001940 0.013633 0.000755 0.002274 -0.001011
# 4 -0.000066 -0.004256 0.000755 0.032682 -0.002431 0.003482
# 5 0.001637 0.002122 0.002274 -0.002431 0.026955 -0.000792
# 6 -0.000915 0.003235 -0.001011 0.003482 -0.000792 0.024875
#
#
# Mechanical properties :
#
#
# Convention : Reuss Voigt Hill
#
# Bulk Modulus (GPa) = 55.34265 63.76105 59.55185
# Shear Modulus (GPa) = 33.42355 36.29363 34.85859
#
# Velocity S-wave (km/s) = 3.85575 4.01789 3.93765
# Velocity P-wave (km/s) = 6.66624 7.06296 6.86747
#
# Compressibility (1/GPa) = 0.01806925
#
# Stress axis : x y z
#
# Youngs Moduli (GPa) = 87.44121 74.09867 73.35179
#
# Poissons Ratio (x) = 0.25797 0.35402
# Poissons Ratio (y) = 0.30442 0.14230
# Poissons Ratio (z) = 0.42202 0.14375
#
# Static dielectric constant tensor:
#      x y z
#    x 1.831360 -0.026320 -0.004450 
#    y -0.026320 1.836660 0.067790 
#    z -0.004450 0.067790 1.918510 
# 
# From -- ./inp_files/83539.got.cif
#   From: 2010.05.17/outbox.cif.g08.bks.cpg/sg2_42_cif.got.tgz:83539.got - 2010.06.03 11:33:40.
