data_PCOD9035067
_publ_section_title
;
Structure prediction by ZEFSAII (Michael W. Deem and Ramdas Pophale) SiO2 
 PCOD9035067
Probable space group: P -1
;
_chemical_formula_sum "Si O2"
_cell_formula_units_Z 12
_cell_length_a 11.203477
_cell_length_b 11.212226
_cell_length_c 7.122703
_cell_angle_alpha 84.992112
_cell_angle_beta 114.550988
_cell_angle_gamma 140.275991
_cell_volume 476.786005
_symmetry_space_group_name_H-M "P -1"
_symmetry_group_IT_number 2
_symmetry_cell_setting 'triclinic'
loop_
_space_group_symop_operation_xyz
x,y,z
-x,-y,-z
loop_
_atom_site_type_symbol
_atom_site_label
_atom_site_fract_x
_atom_site_fract_y
_atom_site_fract_z
Si Si1 0.922772 0.476073 0.745520
Si Si2 0.281690 0.911149 0.425648
Si Si3 0.930008 0.179601 0.370934
Si Si4 0.473177 0.252824 0.319713
Si Si5 0.852891 0.787096 0.838236
Si Si6 0.315194 0.466851 0.893522
O O1 0.902233 0.330218 0.655349
O O2 0.082616 0.695378 0.737461
O O3 0.684426 0.365067 0.565270
O O4 0.000000 0.500000 0.000000
O O5 0.286732 0.986256 0.615183
O O6 0.500000 0.000000 0.500000
O O7 0.282313 0.012307 0.252787
O O8 0.012349 0.155073 0.263619
O O9 0.120064 0.299352 0.638237
O O10 0.377330 0.307138 0.326948
O O11 0.557333 0.327417 0.149108
O O12 0.788743 0.628717 0.955216
O O13 0.000000 0.000000 0.000000
O O14 0.500000 0.500000 0.000000
#
# Coordination Sequence:
#
# PCOD9035067 Si02
#       6
#     2   2   2   2   2   2
#     4  10  23  42  72 100 133 188 236 283 348 409
#     4  10  22  45  70  96 140 183 231 292 340 410
#     4  11  24  43  72 102 141 181 233 295 349 416
#     4   9  21  43  69 101 144 176 229 292 340 420
#     4  11  24  42  73 107 142 183 231 288 362 418
#     4   9  21  41  66 100 137 182 222 278 350 416
#
# _framework density 25.168524000000001
#
# number of rings (size 3 to 8) (size 9 to 14) (size 15 to 20)
#    0.000    2.000    0.000    1.500    4.667    8.667 
#    0.000   11.667    0.000    0.000    0.000    0.000 
#    0.000    0.000    0.000    0.000    0.000    0.000 
#
# Total GULP energy -66917.399858 kJ/mol
# GULP energy per Si atom -5576.449988 kJ/mol
# Density = 2.511124 g / cm^3
# Si number density = 25.168524 Si / 1000 Ang^3
#
#
#
# Elastic Constant Matrix: (Units=GPa)
#
#
# Indices 1 2 3 4 5 6 
#
# 1 161.7247 39.3689 81.3143 -20.9409 -19.4423 8.9225
# 2 39.3689 82.8243 9.7091 -39.4780 -7.3777 -3.5951
# 3 81.3143 9.7091 127.8582 -27.4539 5.4020 -5.5453
# 4 -20.9409 -39.4780 -27.4539 35.4699 -2.8106 -0.4956
# 5 -19.4423 -7.3777 5.4020 -2.8106 57.4468 -9.4458
# 6 8.9225 -3.5951 -5.5453 -0.4956 -9.4458 41.6105
#
#
#
# Elastic Compliance Matrix: (Units=1/GPa)
#
#
# Indices 1 2 3 4 5 6 
#
# 1 0.013018 -0.010726 -0.010386 -0.012146 0.002647 -0.004646
# 2 -0.010726 0.040186 0.014800 0.050306 0.004126 0.009280
# 3 -0.010386 0.014800 0.018990 0.025030 -0.001178 0.006067
# 4 -0.012146 0.050306 0.025030 0.097114 0.006886 0.013006
# 5 0.002647 0.004126 -0.001178 0.006886 0.019980 0.004249
# 6 -0.004646 0.009280 0.006067 0.013006 0.004249 0.027759
#
#
# Mechanical properties :
#
#
# Convention : Reuss Voigt Hill
#
# Bulk Modulus (GPa) = 16.78700 70.35466 43.57083
# Shear Modulus (GPa) = 20.03789 43.03975 31.53882
#
# Velocity S-wave (km/s) = 2.82467 4.13978 3.54376
# Velocity P-wave (km/s) = 4.16205 7.13193 5.83897
#
# Compressibility (1/GPa) = 0.05956989
#
# Stress axis : x y z
#
# Youngs Moduli (GPa) = 76.81541 24.88432 52.65916
#
# Poissons Ratio (x) = 0.26690 0.54692
# Poissons Ratio (y) = 0.82390 -0.77934
# Poissons Ratio (z) = 0.79781 -0.36828
#
# Static dielectric constant tensor:
#      x y z
#    x 2.141090 0.113670 0.026800 
#    y 0.113670 2.208920 0.035750 
#    z 0.026800 0.035750 2.016870 
# 
# From -- ./inp_files/70097.got.cif
#   From: 2010.05.17/outbox.cif.g08.bks.cpg/sg2_36_cif.got.tgz:70097.got - 2010.06.03 11:33:40.
