data_PCOD9035498
_publ_section_title
;
Structure prediction by ZEFSAII (Michael W. Deem and Ramdas Pophale) SiO2 
 PCOD9035498
Probable space group: P -1
;
_chemical_formula_sum "Si O2"
_cell_formula_units_Z 12
_cell_length_a 4.892889
_cell_length_b 19.308867
_cell_length_c 16.792043
_cell_angle_alpha 158.942844
_cell_angle_beta 61.324577
_cell_angle_gamma 111.269298
_cell_volume 481.551990
_symmetry_space_group_name_H-M "P -1"
_symmetry_group_IT_number 2
_symmetry_cell_setting 'triclinic'
loop_
_space_group_symop_operation_xyz
x,y,z
-x,-y,-z
loop_
_atom_site_type_symbol
_atom_site_label
_atom_site_fract_x
_atom_site_fract_y
_atom_site_fract_z
Si Si1 0.793904 0.794582 0.966244
Si Si2 0.350341 0.958253 0.058508
Si Si3 0.657491 0.418748 0.138718
Si Si4 0.367688 0.941118 0.329438
Si Si5 0.106849 0.682919 0.404723
Si Si6 0.563536 0.264292 0.727748
O O1 0.610042 0.919102 0.051012
O O2 0.670505 0.899575 0.181123
O O3 0.168977 0.781488 0.891127
O O4 0.638525 0.607068 0.792238
O O5 0.069872 0.153259 0.332115
O O6 0.500000 0.000000 0.000000
O O7 0.913619 0.515098 0.245384
O O8 0.468289 0.569417 0.259365
O O9 0.818064 0.197003 0.842482
O O10 0.407251 0.832139 0.292793
O O11 0.317173 0.169301 0.610061
O O12 0.119214 0.782343 0.423393
O O13 0.500000 0.500000 0.000000
#
# Coordination Sequence:
#
# PCOD9035498 Si02
#       6
#     2   2   2   2   2   2
#     4  10  22  46  66  95 138 168 221 280 342 400
#     4  12  25  44  71  97 129 178 228 282 347 400
#     4  10  23  42  69  95 139 178 216 280 343 386
#     4   9  22  40  67 101 137 184 220 276 341 397
#     4  12  23  43  67 100 136 174 230 277 327 411
#     4  11  20  40  69 101 139 182 228 269 334 406
#
# _framework density 24.919426999999999
#
# number of rings (size 3 to 8) (size 9 to 14) (size 15 to 20)
#    1.000    0.333    3.333    2.500    0.000    0.667 
#    0.000    6.667    0.000    0.000    0.000    0.000 
#    0.000    0.000    0.000    0.000    0.000    0.000 
#
# Total GULP energy -66967.631917 kJ/mol
# GULP energy per Si atom -5580.635993 kJ/mol
# Density = 2.486271 g / cm^3
# Si number density = 24.919427 Si / 1000 Ang^3
#
#
#
# Elastic Constant Matrix: (Units=GPa)
#
#
# Indices 1 2 3 4 5 6 
#
# 1 101.7443 39.0690 22.3316 8.6620 17.6533 0.5917
# 2 39.0690 213.2822 40.2447 -19.7850 13.4545 -5.5838
# 3 22.3316 40.2447 83.3605 18.2255 6.1762 -10.0490
# 4 8.6620 -19.7850 18.2255 40.5149 6.6862 -1.9166
# 5 17.6533 13.4545 6.1762 6.6862 19.7557 6.7649
# 6 0.5917 -5.5838 -10.0490 -1.9166 6.7649 38.8782
#
#
#
# Elastic Compliance Matrix: (Units=1/GPa)
#
#
# Indices 1 2 3 4 5 6 
#
# 1 0.012487 -0.001454 -0.001610 -0.001035 -0.009590 0.000803
# 2 -0.001454 0.006470 -0.003560 0.005838 -0.004338 0.001074
# 3 -0.001610 -0.003560 0.016396 -0.008714 0.000584 0.003220
# 4 -0.001035 0.005838 -0.008714 0.033877 -0.012639 0.002471
# 5 -0.009590 -0.004338 0.000584 -0.012639 0.070779 -0.013265
# 6 0.000803 0.001074 0.003220 0.002471 -0.013265 0.029126
#
#
# Mechanical properties :
#
#
# Convention : Reuss Voigt Hill
#
# Bulk Modulus (GPa) = 45.23514 66.85309 56.04411
# Shear Modulus (GPa) = 26.35024 39.61255 32.98139
#
# Velocity S-wave (km/s) = 3.25532 3.99134 3.64197
# Velocity P-wave (km/s) = 5.68520 6.93736 6.34226
#
# Compressibility (1/GPa) = 0.02210671
#
# Stress axis : x y z
#
# Youngs Moduli (GPa) = 80.08033 154.55978 60.99033
#
# Poissons Ratio (x) = 0.22468 0.09819
# Poissons Ratio (y) = 0.11641 0.21711
# Poissons Ratio (z) = 0.12893 0.55019
#
# Static dielectric constant tensor:
#      x y z
#    x 2.084990 0.001560 -0.075860 
#    y 0.001560 1.989980 0.067590 
#    z -0.075860 0.067590 2.004500 
# 
# From -- ./inp_files/104417.got.cif
#   From: 2010.05.17/outbox.cif.g08.bks.cpg/sg2_53_cif.got.tgz:104417.got - 2010.06.03 11:33:40.
