data_PCOD9035970
_publ_section_title
;
Structure prediction by ZEFSAII (Michael W. Deem and Ramdas Pophale) SiO2 
 PCOD9035970
Probable space group: P -1
;
_chemical_formula_sum "Si O2"
_cell_formula_units_Z 14
_cell_length_a 11.273676
_cell_length_b 15.519973
_cell_length_c 7.476779
_cell_angle_alpha 62.516968
_cell_angle_beta 78.367211
_cell_angle_gamma 128.133066
_cell_volume 654.304508
_symmetry_space_group_name_H-M "P -1"
_symmetry_group_IT_number 2
_symmetry_cell_setting 'triclinic'
loop_
_space_group_symop_operation_xyz
x,y,z
-x,-y,-z
loop_
_atom_site_type_symbol
_atom_site_label
_atom_site_fract_x
_atom_site_fract_y
_atom_site_fract_z
Si Si1 0.563185 0.462868 0.784815
Si Si2 0.598761 0.267002 0.005911
Si Si3 0.155032 0.053304 0.757563
Si Si4 0.839562 0.767250 0.650484
Si Si5 0.429773 0.662303 0.416414
Si Si6 0.033920 0.595280 0.062242
Si Si7 0.193461 0.910209 0.638088
O O1 0.601738 0.383246 0.945805
O O2 0.744543 0.652655 0.614017
O O3 0.557468 0.429283 0.612385
O O4 0.342078 0.357329 0.025071
O O5 0.534225 0.232499 0.849885
O O6 0.825304 0.368320 0.869396
O O7 0.427571 0.097697 0.336027
O O8 0.127201 0.100268 0.544013
O O9 0.389809 0.215135 0.609565
O O10 0.123138 0.922376 0.826783
O O11 0.000000 0.000000 0.000000
O O12 0.044247 0.849916 0.581997
O O13 0.196066 0.523117 0.691359
O O14 0.161010 0.775084 0.798006
O O15 0.000000 0.500000 0.000000
#
# Coordination Sequence:
#
# PCOD9035970 Si02
#       7
#     2   2   2   2   2   2   2
#     4   9  22  40  68  90 132 170 218 256 328 382
#     4  10  22  47  62  93 129 171 217 270 317 377
#     4  12  24  39  65 101 137 168 209 265 330 393
#     4  11  22  40  66  95 134 172 209 264 325 392
#     4  10  24  43  66  95 132 167 221 260 322 386
#     4  12  26  44  70  93 127 174 227 271 317 379
#     4  12  25  42  67  98 132 170 218 266 331 382
#
# _framework density 21.396766
#
# number of rings (size 3 to 8) (size 9 to 14) (size 15 to 20)
#    0.857    0.286    1.429    4.714    6.000    0.571 
#    0.000    1.429    0.000    0.000    0.000    0.000 
#    0.000    0.000    0.000    0.000    0.000    0.000 
#
# Total GULP energy -78243.408684 kJ/mol
# GULP energy per Si atom -5588.814906 kJ/mol
# Density = 2.134807 g / cm^3
# Si number density = 21.396766 Si / 1000 Ang^3
#
#
#
# Elastic Constant Matrix: (Units=GPa)
#
#
# Indices 1 2 3 4 5 6 
#
# 1 97.9962 22.1015 7.8581 -17.0548 -2.1217 4.5036
# 2 22.1015 94.1861 4.8773 1.3389 0.5532 -10.8518
# 3 7.8581 4.8773 69.1025 -4.5846 -6.0844 -2.4709
# 4 -17.0548 1.3389 -4.5846 24.7102 7.7477 2.7751
# 5 -2.1217 0.5532 -6.0844 7.7477 25.4551 -17.0815
# 6 4.5036 -10.8518 -2.4709 2.7751 -17.0815 43.4463
#
#
#
# Elastic Compliance Matrix: (Units=1/GPa)
#
#
# Indices 1 2 3 4 5 6 
#
# 1 0.013378 -0.003872 -0.001246 0.011936 -0.006616 -0.005788
# 2 -0.003872 0.012245 -0.000154 -0.005550 0.004913 0.005737
# 3 -0.001246 -0.000154 0.015235 -0.000200 0.005777 0.003241
# 4 0.011936 -0.005550 -0.000200 0.060195 -0.029344 -0.018017
# 5 -0.006616 0.004913 0.005777 -0.029344 0.070229 0.031727
# 6 -0.005788 0.005737 0.003241 -0.018017 0.031727 0.038859
#
#
# Mechanical properties :
#
#
# Convention : Reuss Voigt Hill
#
# Bulk Modulus (GPa) = 32.98877 36.77318 34.88098
# Shear Modulus (GPa) = 21.66469 33.81886 27.74177
#
# Velocity S-wave (km/s) = 3.18547 3.97994 3.60466
# Velocity P-wave (km/s) = 5.38337 6.19221 5.80191
#
# Compressibility (1/GPa) = 0.03031334
#
# Stress axis : x y z
#
# Youngs Moduli (GPa) = 74.75040 81.66567 65.63813
#
# Poissons Ratio (x) = 0.31625 0.08176
# Poissons Ratio (y) = 0.28947 0.01013
# Poissons Ratio (z) = 0.09310 0.01260
#
# Static dielectric constant tensor:
#      x y z
#    x 1.763120 -0.018730 0.016150 
#    y -0.018730 1.764840 0.025060 
#    z 0.016150 0.025060 1.770550 
# 
# From -- ./inp_files/270163.got.cif
#   From: 2010.05.17/outbox.cif.g08.bks.cpg/sg2_136_cif.got.tgz:270163.got - 2010.06.03 11:33:40.
