data_PCOD9035496
_publ_section_title
;
Structure prediction by ZEFSAII (Michael W. Deem and Ramdas Pophale) SiO2 
 PCOD9035496
Probable space group: P -1
;
_chemical_formula_sum "Si O2"
_cell_formula_units_Z 14
_cell_length_a 24.040239
_cell_length_b 9.060499
_cell_length_c 7.094477
_cell_angle_alpha 105.710448
_cell_angle_beta 107.145621
_cell_angle_gamma 25.594752
_cell_volume 637.859275
_symmetry_space_group_name_H-M "P -1"
_symmetry_group_IT_number 2
_symmetry_cell_setting 'triclinic'
loop_
_space_group_symop_operation_xyz
x,y,z
-x,-y,-z
loop_
_atom_site_type_symbol
_atom_site_label
_atom_site_fract_x
_atom_site_fract_y
_atom_site_fract_z
Si Si1 0.714781 0.707518 0.280407
Si Si2 0.121372 0.224207 0.783149
Si Si3 0.189021 0.395819 0.007125
Si Si4 0.156543 0.012094 0.361495
Si Si5 0.714069 0.365814 0.021450
Si Si6 0.468489 0.742021 0.978643
Si Si7 0.889366 0.221608 0.614702
O O1 0.759638 0.575162 0.490381
O O2 0.589994 0.104220 0.239805
O O3 0.827426 0.520697 0.200061
O O4 0.692786 0.593044 0.124162
O O5 0.190370 0.036860 0.584371
O O6 0.970395 0.609291 0.725484
O O7 0.173223 0.251733 0.951683
O O8 0.157692 0.992347 0.863393
O O9 0.100653 0.694907 0.164022
O O10 0.338723 0.092493 0.085682
O O11 0.260383 0.734888 0.206110
O O12 0.118554 0.935779 0.383271
O O13 0.592721 0.556935 0.047064
O O14 0.500000 0.500000 0.000000
O O15 0.000000 0.000000 0.500000
#
# Coordination Sequence:
#
# PCOD9035496 Si02
#       7
#     2   2   2   2   2   2   2
#     4  10  23  41  66  97 129 172 223 267 327 389
#     4  11  24  42  67  98 138 169 222 274 330 392
#     4  10  24  45  66  98 135 170 222 276 324 390
#     4  11  25  42  65 103 131 175 223 267 333 397
#     4  12  21  44  70  93 133 180 214 279 325 388
#     4  10  22  46  66  95 134 174 222 271 331 388
#     4  12  25  42  69  99 136 176 222 266 335 398
#
# _framework density 21.948415000000001
#
# number of rings (size 3 to 8) (size 9 to 14) (size 15 to 20)
#    0.857    0.286    4.286    1.714    2.000    4.571 
#    2.571    2.857    0.000    0.000    0.000    0.000 
#    0.000    0.000    0.000    0.000    0.000    0.000 
#
# Total GULP energy -78115.935258 kJ/mol
# GULP energy per Si atom -5579.709661 kJ/mol
# Density = 2.189846 g / cm^3
# Si number density = 21.948415 Si / 1000 Ang^3
#
#
#
# Elastic Constant Matrix: (Units=GPa)
#
#
# Indices 1 2 3 4 5 6 
#
# 1 80.6260 29.5114 0.8282 4.3474 -6.0842 17.8497
# 2 29.5114 71.1856 21.7257 -22.4653 -13.6256 17.7960
# 3 0.8282 21.7257 73.8679 8.7209 0.2423 4.6618
# 4 4.3474 -22.4653 8.7209 40.1060 4.5481 -13.1268
# 5 -6.0842 -13.6256 0.2423 4.5481 23.4898 1.1526
# 6 17.8497 17.7960 4.6618 -13.1268 1.1526 33.9058
#
#
#
# Elastic Compliance Matrix: (Units=1/GPa)
#
#
# Indices 1 2 3 4 5 6 
#
# 1 0.019361 -0.010705 0.005080 -0.012757 0.001727 -0.010270
# 2 -0.010705 0.030383 -0.010924 0.018601 0.011460 -0.001998
# 3 0.005080 -0.010924 0.018315 -0.011599 -0.002775 -0.003856
# 4 -0.012757 0.018601 -0.011599 0.044671 -0.001824 0.015904
# 5 0.001727 0.011460 -0.002775 -0.001824 0.050489 -0.008965
# 6 -0.010270 -0.001998 -0.003856 0.015904 -0.008965 0.042941
#
#
# Mechanical properties :
#
#
# Convention : Reuss Voigt Hill
#
# Bulk Modulus (GPa) = 28.60240 36.64557 32.62398
# Shear Modulus (GPa) = 19.92749 31.07459 25.50104
#
# Velocity S-wave (km/s) = 3.01645 3.76680 3.41231
# Velocity P-wave (km/s) = 5.01915 5.97083 5.51555
#
# Compressibility (1/GPa) = 0.03496210
#
# Stress axis : x y z
#
# Youngs Moduli (GPa) = 51.65086 32.91343 54.59898
#
# Poissons Ratio (x) = 0.35233 -0.27735
# Poissons Ratio (y) = 0.55290 0.59642
# Poissons Ratio (z) = -0.26238 0.35953
#
# Static dielectric constant tensor:
#      x y z
#    x 1.773550 -0.006290 -0.005960 
#    y -0.006290 1.908940 -0.066740 
#    z -0.005960 -0.066740 1.830280 
# 
# From -- ./inp_files/122946.got.cif
#   From: 2010.05.17/outbox.cif.g08.bks.cpg/sg2_62_cif.got.tgz:122946.got - 2010.06.03 11:33:40.
