data_PCOD9035291
_publ_section_title
;
Structure prediction by ZEFSAII (Michael W. Deem and Ramdas Pophale) SiO2 
 PCOD9035291
Probable space group: P -1
;
_chemical_formula_sum "Si O2"
_cell_formula_units_Z 14
_cell_length_a 5.253862
_cell_length_b 11.843192
_cell_length_c 26.178495
_cell_angle_alpha 26.149444
_cell_angle_beta 104.033655
_cell_angle_gamma 89.143349
_cell_volume 584.348150
_symmetry_space_group_name_H-M "P -1"
_symmetry_group_IT_number 2
_symmetry_cell_setting 'triclinic'
loop_
_space_group_symop_operation_xyz
x,y,z
-x,-y,-z
loop_
_atom_site_type_symbol
_atom_site_label
_atom_site_fract_x
_atom_site_fract_y
_atom_site_fract_z
Si Si1 0.546759 0.717254 0.018068
Si Si2 0.206313 0.250199 0.277105
Si Si3 0.655437 0.609199 0.922485
Si Si4 0.285614 0.429487 0.417497
Si Si5 0.974482 0.309268 0.357867
Si Si6 0.644597 0.258687 0.892297
Si Si7 0.391964 0.189720 0.727442
O O1 0.344229 0.575487 0.050978
O O2 0.461006 0.838435 0.022691
O O3 0.904021 0.433496 0.152419
O O4 0.497610 0.962205 0.874107
O O5 0.363755 0.441748 0.211535
O O6 0.088967 0.263489 0.323872
O O7 0.443840 0.902519 0.415008
O O8 0.462401 0.974536 0.768938
O O9 0.500000 0.500000 0.000000
O O10 0.000000 0.500000 0.000000
O O11 0.418199 0.646396 0.331876
O O12 0.177159 0.376376 0.378465
O O13 0.976234 0.575404 0.377656
O O14 0.615262 0.593258 0.224654
O O15 0.000000 0.000000 0.500000
O O16 0.000000 0.000000 0.000000
#
# Coordination Sequence:
#
# PCOD9035291 Si02
#       7
#     2   2   2   2   2   2   2
#     4  10  26  45  72 100 144 183 228 301 355 409
#     4  11  26  43  65 100 143 187 228 285 363 412
#     4  10  22  45  73 106 138 179 235 291 356 413
#     4  12  26  44  71 103 145 183 238 290 345 418
#     4  11  24  44  65  96 139 193 235 276 349 422
#     4  11  27  43  68 105 140 183 242 286 349 420
#     4  11  26  44  75 109 132 184 246 291 343 419
#
# _framework density 23.958317999999998
#
# number of rings (size 3 to 8) (size 9 to 14) (size 15 to 20)
#    0.000    1.143    1.429    3.000   14.000    1.143 
#    0.000    3.571    0.000    0.000    0.000    0.000 
#    0.000    0.000    0.000    0.000    0.000    0.000 
#
# Total GULP energy -78414.930844 kJ/mol
# GULP energy per Si atom -5601.066489 kJ/mol
# Density = 2.390379 g / cm^3
# Si number density = 23.958318 Si / 1000 Ang^3
#
#
#
# Elastic Constant Matrix: (Units=GPa)
#
#
# Indices 1 2 3 4 5 6 
#
# 1 124.4159 12.6049 36.8110 -13.0727 2.2110 26.0197
# 2 12.6049 66.2052 14.2204 -21.2133 -6.2144 17.1347
# 3 36.8110 14.2204 125.5593 -24.6734 12.5955 12.8513
# 4 -13.0727 -21.2133 -24.6734 36.4841 1.1757 -7.5136
# 5 2.2110 -6.2144 12.5955 1.1757 57.9718 -9.9538
# 6 26.0197 17.1347 12.8513 -7.5136 -9.9538 51.1762
#
#
#
# Elastic Compliance Matrix: (Units=1/GPa)
#
#
# Indices 1 2 3 4 5 6 
#
# 1 0.009709 0.000062 -0.002097 0.001216 -0.000686 -0.004385
# 2 0.000062 0.019839 0.000239 0.010662 0.001002 -0.004974
# 3 -0.002097 0.000239 0.010100 0.006063 -0.002406 -0.001128
# 4 0.001216 0.010662 0.006063 0.038113 -0.001048 -0.000319
# 5 -0.000686 0.001002 -0.002406 -0.001048 0.018629 0.004087
# 6 -0.004385 -0.004974 -0.001128 -0.000319 0.004087 0.024467
#
#
# Mechanical properties :
#
#
# Convention : Reuss Voigt Hill
#
# Bulk Modulus (GPa) = 27.73461 49.27255 38.50358
# Shear Modulus (GPa) = 36.63879 45.96271 41.30075
#
# Velocity S-wave (km/s) = 3.91483 4.38476 4.15644
# Velocity P-wave (km/s) = 5.66003 6.80040 6.25625
#
# Compressibility (1/GPa) = 0.03605603
#
# Stress axis : x y z
#
# Youngs Moduli (GPa) = 103.00019 50.40524 99.00680
#
# Poissons Ratio (x) = -0.00313 0.20760
# Poissons Ratio (y) = -0.00640 -0.02363
# Poissons Ratio (z) = 0.21598 -0.01203
#
# Static dielectric constant tensor:
#      x y z
#    x 1.970600 -0.004440 -0.016280 
#    y -0.004440 1.984930 -0.006890 
#    z -0.016280 -0.006890 1.903500 
# 
# From -- ./inp_files/615409.got.cif
#   From: 2010.05.17/outbox.cif.g08.bks.cpg/sg2_308_cif.got.tgz:615409.got - 2010.06.03 11:33:40.
