data_PCOD9035509
_publ_section_title
;
Structure prediction by ZEFSAII (Michael W. Deem and Ramdas Pophale) SiO2 
 PCOD9035509
Probable space group: P -1
;
_chemical_formula_sum "Si O2"
_cell_formula_units_Z 16
_cell_length_a 9.101874
_cell_length_b 21.322856
_cell_length_c 11.862513
_cell_angle_alpha 38.854915
_cell_angle_beta 148.881244
_cell_angle_gamma 128.402658
_cell_volume 739.059844
_symmetry_space_group_name_H-M "P -1"
_symmetry_group_IT_number 2
_symmetry_cell_setting 'triclinic'
loop_
_space_group_symop_operation_xyz
x,y,z
-x,-y,-z
loop_
_atom_site_type_symbol
_atom_site_label
_atom_site_fract_x
_atom_site_fract_y
_atom_site_fract_z
Si Si1 0.622579 0.076537 0.559674
Si Si2 0.266345 0.950980 0.833168
Si Si3 0.577592 0.440153 0.803353
Si Si4 0.242403 0.542245 0.852420
Si Si5 0.753344 0.898906 0.060645
Si Si6 0.951388 0.789732 0.958510
Si Si7 0.893072 0.709405 0.267271
Si Si8 0.809288 0.385543 0.799446
O O1 0.385484 0.170474 0.303147
O O2 0.922662 0.107677 0.670004
O O3 0.500000 0.000000 0.500000
O O4 0.686001 0.010830 0.807012
O O5 0.102278 0.888404 0.900908
O O6 0.497048 0.885760 0.994750
O O7 0.000000 0.000000 0.500000
O O8 0.500000 0.000000 0.000000
O O9 0.336063 0.369158 0.775263
O O10 0.762712 0.381158 0.908293
O O11 0.480905 0.553067 0.530478
O O12 0.714309 0.456974 0.987994
O O13 0.131690 0.655191 0.583194
O O14 0.018355 0.465312 0.794413
O O15 0.500000 0.500000 0.000000
O O16 0.763610 0.816421 0.084142
O O17 0.027819 0.727231 0.210090
O O18 0.058853 0.718221 0.025299
#
# Coordination Sequence:
#
# PCOD9035509 Si02
#       8
#     2   2   2   2   2   2   2   2
#     4  11  23  43  70  96 137 183 240 307 364 434
#     4  12  28  51  73 107 151 195 249 319 380 441
#     4  10  22  46  66  98 148 180 227 296 367 430
#     4  11  23  41  67 102 141 180 231 292 357 424
#     4  11  25  43  68 100 136 187 242 297 374 436
#     4  12  24  45  74 105 141 192 250 304 370 449
#     4  11  25  40  69 101 135 183 239 288 356 445
#     4  10  23  43  70 101 138 184 236 291 361 444
#
# _framework density 21.649127
#
# number of rings (size 3 to 8) (size 9 to 14) (size 15 to 20)
#    0.000    1.000    2.500    3.375    5.250    2.000 
#    4.500    0.000    0.000    0.000    0.000    0.000 
#    0.000    0.000    0.000    0.000    0.000    0.000 
#
# Total GULP energy -89210.261369 kJ/mol
# GULP energy per Si atom -5575.641336 kJ/mol
# Density = 2.159985 g / cm^3
# Si number density = 21.649127 Si / 1000 Ang^3
#
#
#
# Elastic Constant Matrix: (Units=GPa)
#
#
# Indices 1 2 3 4 5 6 
#
# 1 104.4832 -3.4610 21.3891 -3.3727 14.4743 1.2948
# 2 -3.4610 64.6056 19.9102 -0.3085 9.7804 0.8943
# 3 21.3891 19.9102 71.7362 -2.0367 11.1869 -11.6275
# 4 -3.3727 -0.3085 -2.0367 21.7122 6.1731 7.5961
# 5 14.4743 9.7804 11.1869 6.1731 27.4150 -5.1710
# 6 1.2948 0.8943 -11.6275 7.5961 -5.1710 48.3650
#
#
#
# Elastic Compliance Matrix: (Units=1/GPa)
#
#
# Indices 1 2 3 4 5 6 
#
# 1 0.011539 0.002818 -0.003399 0.004497 -0.007224 -0.002657
# 2 0.002818 0.018383 -0.005201 0.003299 -0.007224 -0.002956
# 3 -0.003399 -0.005201 0.017503 0.000437 -0.002832 0.004024
# 4 0.004497 0.003299 0.000437 0.055839 -0.018342 -0.010807
# 5 -0.007224 -0.007224 -0.002832 -0.018342 0.049631 0.007833
# 6 -0.002657 -0.002956 0.004024 -0.010807 0.007833 0.024304
#
#
# Mechanical properties :
#
#
# Convention : Reuss Voigt Hill
#
# Bulk Modulus (GPa) = 27.88644 35.16684 31.52664
# Shear Modulus (GPa) = 24.91070 33.03089 28.97080
#
# Velocity S-wave (km/s) = 3.39581 3.91031 3.66211
# Velocity P-wave (km/s) = 5.31831 6.05529 5.69873
#
# Compressibility (1/GPa) = 0.03585972
#
# Stress axis : x y z
#
# Youngs Moduli (GPa) = 86.66334 54.39927 57.13261
#
# Poissons Ratio (x) = -0.15327 0.19419
# Poissons Ratio (y) = -0.24417 0.29715
# Poissons Ratio (z) = 0.29456 0.28294
#
# Static dielectric constant tensor:
#      x y z
#    x 1.769440 0.015060 -0.046120 
#    y 0.015060 1.762900 0.053770 
#    z -0.046120 0.053770 1.992180 
# 
# From -- ./inp_files/279751.got.cif
#   From: 2010.05.17/outbox.cif.g08.bks.cpg/sg2_140_cif.got.tgz:279751.got - 2010.06.03 11:33:40.
