data_PCOD9035644
_publ_section_title
;
Structure prediction by ZEFSAII (Michael W. Deem and Ramdas Pophale) SiO2 
 PCOD9035644
Probable space group: P -1
;
_chemical_formula_sum "Si O2"
_cell_formula_units_Z 15
_cell_length_a 7.462855
_cell_length_b 12.792360
_cell_length_c 11.900272
_cell_angle_alpha 48.702648
_cell_angle_beta 118.637127
_cell_angle_gamma 84.736648
_cell_volume 588.476550
_symmetry_space_group_name_H-M "P -1"
_symmetry_group_IT_number 2
_symmetry_cell_setting 'triclinic'
loop_
_space_group_symop_operation_xyz
x,y,z
-x,-y,-z
loop_
_atom_site_type_symbol
_atom_site_label
_atom_site_fract_x
_atom_site_fract_y
_atom_site_fract_z
Si Si1 0.595858 0.143129 0.333623
Si Si2 0.500000 0.500000 0.000000
Si Si3 0.120085 0.159016 0.203429
Si Si4 0.074361 0.614948 0.667327
Si Si5 0.569046 0.342750 0.855766
Si Si6 0.159102 0.071498 0.021829
Si Si7 0.849291 0.476352 0.570719
Si Si8 0.674674 0.996292 0.209144
O O1 0.575574 0.315297 0.202030
O O2 0.328095 0.191022 0.266275
O O3 0.831264 0.981637 0.591259
O O4 0.628101 0.072376 0.267233
O O5 0.825297 0.401062 0.167328
O O6 0.193497 0.064203 0.171110
O O7 0.821805 0.322152 0.977103
O O8 0.360887 0.461129 0.808445
O O9 0.889528 0.561093 0.628478
O O10 0.939502 0.798316 0.431662
O O11 0.431169 0.429807 0.634614
O O12 0.649766 0.146778 0.023083
O O13 0.992800 0.273486 0.785337
O O14 0.445239 0.983493 0.122258
O O15 0.000000 0.000000 0.000000
O O16 0.000000 0.500000 0.500000
#
# Coordination Sequence:
#
# PCOD9035644 Si02
#       8
#     2   1   2   2   2   2   2   2
#     4  10  23  47  71 103 140 185 240 286 355 412
#     4  12  22  42  74  98 136 178 244 288 326 422
#     4  10  24  44  72  99 147 186 223 297 354 421
#     4  11  24  39  71 107 132 182 239 288 347 404
#     4  11  23  45  72 104 139 184 237 290 347 426
#     4  11  24  46  70 106 143 186 229 291 362 420
#     4  10  22  46  70 101 139 177 243 287 335 424
#     4  11  23  45  74  98 145 184 236 295 343 421
#
# _framework density 25.489545
#
# number of rings (size 3 to 8) (size 9 to 14) (size 15 to 20)
#    0.000    1.333    4.000    1.600    3.733    6.400 
#    2.400    0.667    0.000    0.000    0.000    0.000 
#    0.000    0.000    0.000    0.000    0.000    0.000 
#
# Total GULP energy -83775.894447 kJ/mol
# GULP energy per Si atom -5585.059630 kJ/mol
# Density = 2.543153 g / cm^3
# Si number density = 25.489545 Si / 1000 Ang^3
#
#
#
# Elastic Constant Matrix: (Units=GPa)
#
#
# Indices 1 2 3 4 5 6 
#
# 1 64.9459 23.0094 33.2429 0.5204 5.3096 14.6234
# 2 23.0094 77.0965 34.1195 -3.4508 -10.9033 28.9816
# 3 33.2429 34.1195 181.1508 -7.0443 6.4285 23.8631
# 4 0.5204 -3.4508 -7.0443 48.7676 9.8112 -4.9147
# 5 5.3096 -10.9033 6.4285 9.8112 54.9156 1.2099
# 6 14.6234 28.9816 23.8631 -4.9147 1.2099 34.7871
#
#
#
# Elastic Compliance Matrix: (Units=1/GPa)
#
#
# Indices 1 2 3 4 5 6 
#
# 1 0.018785 -0.003690 -0.002272 -0.000702 -0.002085 -0.003290
# 2 -0.003690 0.021266 -0.001528 -0.001310 0.005333 -0.015488
# 3 -0.002272 -0.001528 0.006572 0.000844 -0.000957 -0.002128
# 4 -0.000702 -0.001310 0.000844 0.021809 -0.004276 0.004038
# 5 -0.002085 0.005333 -0.000957 -0.004276 0.020439 -0.004226
# 6 -0.003290 -0.015488 -0.002128 0.004038 -0.004226 0.045210
#
#
# Mechanical properties :
#
#
# Convention : Reuss Voigt Hill
#
# Bulk Modulus (GPa) = 31.60341 55.99298 43.79820
# Shear Modulus (GPa) = 31.32636 43.21549 37.27092
#
# Velocity S-wave (km/s) = 3.50950 4.12201 3.82803
# Velocity P-wave (km/s) = 5.37099 6.68352 6.06288
#
# Compressibility (1/GPa) = 0.03164215
#
# Stress axis : x y z
#
# Youngs Moduli (GPa) = 53.23491 47.02269 152.15936
#
# Poissons Ratio (x) = 0.17352 0.34571
# Poissons Ratio (y) = 0.19645 0.23253
# Poissons Ratio (z) = 0.12095 0.07186
#
# Static dielectric constant tensor:
#      x y z
#    x 2.012010 0.176280 0.149160 
#    y 0.176280 1.594580 -0.162520 
#    z 0.149160 -0.162520 1.865410 
# 
# From -- ./inp_files/505304.got.cif
#   From: 2010.05.17/outbox.cif.g08.bks.cpg/sg2_253_cif.got.tgz:505304.got - 2010.06.03 11:33:40.
