data_PCOD9035959
_publ_section_title
;
Structure prediction by ZEFSAII (Michael W. Deem and Ramdas Pophale) SiO2 
 PCOD9035959
Probable space group: P -1
;
_chemical_formula_sum "Si O2"
_cell_formula_units_Z 15
_cell_length_a 7.275586
_cell_length_b 14.404665
_cell_length_c 7.035557
_cell_angle_alpha 75.297684
_cell_angle_beta 121.277007
_cell_angle_gamma 123.850999
_cell_volume 522.708652
_symmetry_space_group_name_H-M "P -1"
_symmetry_group_IT_number 2
_symmetry_cell_setting 'triclinic'
loop_
_space_group_symop_operation_xyz
x,y,z
-x,-y,-z
loop_
_atom_site_type_symbol
_atom_site_label
_atom_site_fract_x
_atom_site_fract_y
_atom_site_fract_z
Si Si1 0.200547 0.258861 0.710255
Si Si2 0.265600 0.063897 0.998216
Si Si3 0.058734 0.851826 0.761481
Si Si4 0.500000 0.000000 0.500000
Si Si5 0.494135 0.303637 0.359003
Si Si6 0.085986 0.555283 0.722671
Si Si7 0.344857 0.490700 0.203581
Si Si8 0.227618 0.774322 0.229095
O O1 0.294058 0.177157 0.874815
O O2 0.422521 0.383067 0.716814
O O3 0.013676 0.189280 0.471498
O O4 0.033493 0.270008 0.777417
O O5 0.453165 0.063111 0.254455
O O6 0.219085 0.196056 0.272503
O O7 0.218485 0.982111 0.834562
O O8 0.000000 0.000000 0.000000
O O9 0.182805 0.794191 0.978258
O O10 0.593921 0.109845 0.626825
O O11 0.676720 0.325034 0.269504
O O12 0.442821 0.405582 0.279019
O O13 0.646068 0.298219 0.624842
O O14 0.000000 0.500000 0.500000
O O15 0.860508 0.551430 0.717416
O O16 0.193311 0.494100 0.938932
#
# Coordination Sequence:
#
# PCOD9035959 Si02
#       8
#     2   2   2   1   2   2   2   2
#     4  12  26  51  83 113 167 218 271 347 413 490
#     4  11  22  49  82 116 161 212 269 345 417 492
#     4  11  26  50  79 123 159 210 285 336 411 500
#     4  10  22  46  80 116 158 212 274 330 412 500
#     4  12  28  50  85 116 172 221 268 345 416 482
#     4  11  27  51  83 116 163 222 283 340 408 490
#     4  11  29  53  79 127 168 215 286 340 408 503
#     4  11  27  48  80 118 163 220 273 337 419 486
#
# _framework density 28.696676
#
# number of rings (size 3 to 8) (size 9 to 14) (size 15 to 20)
#    0.000    0.800    2.667    3.200    7.467    1.067 
#    2.400    3.333    0.000    0.000    0.000    0.000 
#    0.000    0.000    0.000    0.000    0.000    0.000 
#
# Total GULP energy -84078.112183 kJ/mol
# GULP energy per Si atom -5605.207479 kJ/mol
# Density = 2.863136 g / cm^3
# Si number density = 28.696676 Si / 1000 Ang^3
#
#
#
# Elastic Constant Matrix: (Units=GPa)
#
#
# Indices 1 2 3 4 5 6 
#
# 1 158.9353 70.9642 64.7750 -17.6068 22.2302 -9.7134
# 2 70.9642 145.5754 56.0658 -0.4266 26.2227 -27.5056
# 3 64.7750 56.0658 260.3765 4.6028 34.4113 -19.2667
# 4 -17.6068 -0.4266 4.6028 55.9804 -4.9238 3.9029
# 5 22.2302 26.2227 34.4113 -4.9238 59.9094 -11.5248
# 6 -9.7134 -27.5056 -19.2667 3.9029 -11.5248 41.1600
#
#
#
# Elastic Compliance Matrix: (Units=1/GPa)
#
#
# Indices 1 2 3 4 5 6 
#
# 1 0.009011 -0.004002 -0.001449 0.002970 -0.000851 -0.001746
# 2 -0.004002 0.010380 -0.000570 -0.001669 -0.001835 0.005370
# 3 -0.001449 -0.000570 0.004655 -0.001073 -0.001771 0.001062
# 4 0.002970 -0.001669 -0.001073 0.019157 0.001367 -0.002350
# 5 -0.000851 -0.001835 -0.001771 0.001367 0.019534 0.003084
# 6 -0.001746 0.005370 0.001062 -0.002350 0.003084 0.029055
#
#
# Mechanical properties :
#
#
# Convention : Reuss Voigt Hill
#
# Bulk Modulus (GPa) = 83.31041 105.38858 94.34949
# Shear Modulus (GPa) = 46.36668 56.28212 51.32440
#
# Velocity S-wave (km/s) = 4.02400 4.43343 4.23367
# Velocity P-wave (km/s) = 7.11931 7.93800 7.53977
#
# Compressibility (1/GPa) = 0.01200330
#
# Stress axis : x y z
#
# Youngs Moduli (GPa) = 110.97792 96.33795 214.80453
#
# Poissons Ratio (x) = 0.38558 0.31126
# Poissons Ratio (y) = 0.44418 0.12245
# Poissons Ratio (z) = 0.16081 0.05492
#
# Static dielectric constant tensor:
#      x y z
#    x 2.225640 0.076070 -0.025030 
#    y 0.076070 2.314450 0.025830 
#    z -0.025030 0.025830 2.217210 
# 
# From -- ./inp_files/51409.got.cif
#   From: 2010.05.17/outbox.cif.g08.bks.cpg/sg2_26_cif.got.tgz:51409.got - 2010.06.03 11:33:40.
