data_PCOD9035923
_publ_section_title
;
Structure prediction by ZEFSAII (Michael W. Deem and Ramdas Pophale) SiO2 
 PCOD9035923
Probable space group: P -1
;
_chemical_formula_sum "Si O2"
_cell_formula_units_Z 12
_cell_length_a 9.670501
_cell_length_b 14.591004
_cell_length_c 15.521171
_cell_angle_alpha 21.422635
_cell_angle_beta 43.563634
_cell_angle_gamma 34.512913
_cell_volume 443.581488
_symmetry_space_group_name_H-M "P -1"
_symmetry_group_IT_number 2
_symmetry_cell_setting 'triclinic'
loop_
_space_group_symop_operation_xyz
x,y,z
-x,-y,-z
loop_
_atom_site_type_symbol
_atom_site_label
_atom_site_fract_x
_atom_site_fract_y
_atom_site_fract_z
Si Si1 0.240092 0.624598 0.056328
Si Si2 0.212291 0.128775 0.743446
Si Si3 0.544200 0.296940 0.844311
Si Si4 0.457144 0.822952 0.553300
Si Si5 0.260679 0.008757 0.131961
Si Si6 0.084843 0.821537 0.528064
O O1 0.016927 0.712683 0.017650
O O2 0.154650 0.917054 0.902209
O O3 0.500000 0.500000 0.000000
O O4 0.333886 0.335105 0.329962
O O5 0.478532 0.003617 0.691450
O O6 0.000000 0.500000 0.500000
O O7 0.288275 0.030114 0.894932
O O8 0.511226 0.538112 0.719078
O O9 0.257099 0.465364 0.795882
O O10 0.680655 0.266926 0.720512
O O11 0.175584 0.036792 0.525229
O O12 0.237401 0.905301 0.327413
O O13 0.500000 0.000000 0.000000
O O14 0.000000 0.000000 0.500000
#
# Coordination Sequence:
#
# PCOD9035923 Si02
#       6
#     2   2   2   2   2   2
#     4  11  24  48  74 113 152 191 257 315 371 450
#     4  11  24  44  78 109 146 200 250 311 385 443
#     4  10  24  44  72 105 149 190 257 307 368 451
#     4  10  22  46  76 106 149 195 249 315 378 443
#     4  12  26  45  73 108 151 198 249 309 377 446
#     4  10  23  46  71 103 150 194 246 309 375 445
#
# _framework density 27.052527999999999
#
# number of rings (size 3 to 8) (size 9 to 14) (size 15 to 20)
#    0.000    1.333    1.667    2.500    4.667    5.333 
#    9.000    0.000    0.000    0.000    0.000    0.000 
#    0.000    0.000    0.000    0.000    0.000    0.000 
#
# Total GULP energy -66968.720322 kJ/mol
# GULP energy per Si atom -5580.726693 kJ/mol
# Density = 2.699096 g / cm^3
# Si number density = 27.052528 Si / 1000 Ang^3
#
#
#
# Elastic Constant Matrix: (Units=GPa)
#
#
# Indices 1 2 3 4 5 6 
#
# 1 145.4536 53.2261 47.3383 -4.1010 29.5880 -28.8779
# 2 53.2261 168.2954 68.2052 7.4541 20.7974 -15.6437
# 3 47.3383 68.2052 108.6041 0.1940 28.0209 -8.5584
# 4 -4.1010 7.4541 0.1940 63.4448 3.5712 -1.1804
# 5 29.5880 20.7974 28.0209 3.5712 40.1012 -2.4539
# 6 -28.8779 -15.6437 -8.5584 -1.1804 -2.4539 61.1182
#
#
#
# Elastic Compliance Matrix: (Units=1/GPa)
#
#
# Indices 1 2 3 4 5 6 
#
# 1 0.009815 -0.001461 -0.001733 0.001172 -0.005142 0.003837
# 2 -0.001461 0.008369 -0.004574 -0.001053 0.000077 0.000794
# 3 -0.001733 -0.004574 0.014513 0.000747 -0.006569 -0.000207
# 4 0.001172 -0.001053 0.000747 0.016096 -0.002237 0.000610
# 5 -0.005142 0.000077 -0.006569 -0.002237 0.033356 -0.002034
# 6 0.003837 0.000794 -0.000207 0.000610 -0.002034 0.018279
#
#
# Mechanical properties :
#
#
# Convention : Reuss Voigt Hill
#
# Bulk Modulus (GPa) = 58.27782 84.43247 71.35515
# Shear Modulus (GPa) = 41.08957 49.83842 45.46399
#
# Velocity S-wave (km/s) = 3.90151 4.29684 4.10394
# Velocity P-wave (km/s) = 6.47186 7.47632 6.99215
#
# Compressibility (1/GPa) = 0.01715919
#
# Stress axis : x y z
#
# Youngs Moduli (GPa) = 101.88757 119.49068 68.90315
#
# Poissons Ratio (x) = 0.17463 0.11943
# Poissons Ratio (y) = 0.14890 0.31517
# Poissons Ratio (z) = 0.17659 0.54656
#
# Static dielectric constant tensor:
#      x y z
#    x 2.403540 0.044230 -0.117940 
#    y 0.044230 2.140900 -0.017150 
#    z -0.117940 -0.017150 2.248200 
# 
# From -- ./inp_files/570294.got.cif
#   From: 2010.05.17/outbox.cif.g08.bks.cpg/sg2_286_cif.got.tgz:570294.got - 2010.06.03 11:33:40.
