data_PCOD9035849
_publ_section_title
;
Structure prediction by ZEFSAII (Michael W. Deem and Ramdas Pophale) SiO2 
 PCOD9035849
Probable space group: P -1
;
_chemical_formula_sum "Si O2"
_cell_formula_units_Z 12
_cell_length_a 18.619282
_cell_length_b 9.068488
_cell_length_c 6.062766
_cell_angle_alpha 125.930849
_cell_angle_beta 122.359790
_cell_angle_gamma 45.818687
_cell_volume 580.217854
_symmetry_space_group_name_H-M "P -1"
_symmetry_group_IT_number 2
_symmetry_cell_setting 'triclinic'
loop_
_space_group_symop_operation_xyz
x,y,z
-x,-y,-z
loop_
_atom_site_type_symbol
_atom_site_label
_atom_site_fract_x
_atom_site_fract_y
_atom_site_fract_z
Si Si1 0.584535 0.415769 0.256175
Si Si2 0.127966 0.554079 0.260366
Si Si3 0.473767 0.242993 0.154124
Si Si4 0.885040 0.113599 0.819278
Si Si5 0.277722 0.555696 0.802442
Si Si6 0.062216 0.323385 0.641046
O O1 0.568680 0.252220 0.228914
O O2 0.560177 0.616318 0.551728
O O3 0.688273 0.334903 0.225991
O O4 0.500000 0.500000 0.000000
O O5 0.124494 0.741389 0.276261
O O6 0.223644 0.455938 0.495457
O O7 0.024162 0.656717 0.321235
O O8 0.128429 0.387266 0.944076
O O9 0.378249 0.378394 0.947929
O O10 0.500000 0.000000 0.000000
O O11 0.872986 0.918743 0.562925
O O12 0.804590 0.267690 0.007475
O O13 0.000000 0.000000 0.000000
O O14 0.000000 0.500000 0.500000
#
# Coordination Sequence:
#
# PCOD9035849 Si02
#       6
#     2   2   2   2   2   2
#     4   9  21  43  68  97 129 167 215 278 338 403
#     4  11  23  41  64  92 133 180 230 274 323 391
#     4  10  22  46  73  95 133 169 216 283 344 398
#     4  12  23  42  67  92 137 184 221 276 327 387
#     4  11  23  41  66 100 134 174 228 268 335 405
#     4  11  23  41  63  92 130 184 228 274 326 379
#
# _framework density 20.681888000000001
#
# number of rings (size 3 to 8) (size 9 to 14) (size 15 to 20)
#    0.000    1.333    3.333    1.500    0.000    2.667 
#    0.000   31.667    0.000    0.000    0.000    0.000 
#    0.000    0.000    0.000    0.000    0.000    0.000 
#
# Total GULP energy -67077.832785 kJ/mol
# GULP energy per Si atom -5589.819399 kJ/mol
# Density = 2.063481 g / cm^3
# Si number density = 20.681888 Si / 1000 Ang^3
#
#
#
# Elastic Constant Matrix: (Units=GPa)
#
#
# Indices 1 2 3 4 5 6 
#
# 1 118.9278 64.3288 43.5934 13.3857 -12.4011 11.2083
# 2 64.3288 88.7967 72.1663 13.0527 3.4494 8.9525
# 3 43.5934 72.1663 180.1593 0.4354 18.5632 10.6596
# 4 13.3857 13.0527 0.4354 35.0425 1.2253 13.4721
# 5 -12.4011 3.4494 18.5632 1.2253 35.0980 -9.6722
# 6 11.2083 8.9525 10.6596 13.4721 -9.6722 26.7305
#
#
#
# Elastic Compliance Matrix: (Units=1/GPa)
#
#
# Indices 1 2 3 4 5 6 
#
# 1 0.015299 -0.011093 -0.000015 -0.002317 0.006846 0.000951
# 2 -0.011093 0.026430 -0.007766 -0.005904 -0.001874 0.001194
# 3 -0.000015 -0.007766 0.009665 0.005392 -0.006259 -0.006230
# 4 -0.002317 -0.005904 0.005392 0.041161 -0.011134 -0.023975
# 5 0.006846 -0.001874 -0.006259 -0.011134 0.040443 0.020498
# 6 0.000951 0.001194 -0.006230 -0.023975 0.020498 0.058596
#
#
# Mechanical properties :
#
#
# Convention : Reuss Voigt Hill
#
# Bulk Modulus (GPa) = 73.27427 83.11785 78.19606
# Shear Modulus (GPa) = 21.37761 33.22722 27.30241
#
# Velocity S-wave (km/s) = 3.21851 4.01257 3.63728
# Velocity P-wave (km/s) = 7.02267 7.85771 7.45190
#
# Compressibility (1/GPa) = 0.01364736
#
# Stress axis : x y z
#
# Youngs Moduli (GPa) = 65.36363 37.83617 103.46080
#
# Poissons Ratio (x) = 0.41971 0.00151
# Poissons Ratio (y) = 0.72506 0.80348
# Poissons Ratio (z) = 0.00096 0.29384
#
# Static dielectric constant tensor:
#      x y z
#    x 1.747570 0.029580 0.013650 
#    y 0.029580 1.669130 -0.031820 
#    z 0.013650 -0.031820 1.746530 
# 
# From -- ./inp_files/38274.got.cif
#   From: 2010.05.17/outbox.cif.g08.bks.cpg/sg2_20_cif.got.tgz:38274.got - 2010.06.03 11:33:40.
