data_PCOD9035609
_publ_section_title
;
Structure prediction by ZEFSAII (Michael W. Deem and Ramdas Pophale) SiO2 
 PCOD9035609
Probable space group: P -1
;
_chemical_formula_sum "Si O2"
_cell_formula_units_Z 16
_cell_length_a 8.329559
_cell_length_b 10.748920
_cell_length_c 14.721101
_cell_angle_alpha 73.181135
_cell_angle_beta 127.379757
_cell_angle_gamma 132.089513
_cell_volume 761.628617
_symmetry_space_group_name_H-M "P -1"
_symmetry_group_IT_number 2
_symmetry_cell_setting 'triclinic'
loop_
_space_group_symop_operation_xyz
x,y,z
-x,-y,-z
loop_
_atom_site_type_symbol
_atom_site_label
_atom_site_fract_x
_atom_site_fract_y
_atom_site_fract_z
Si Si1 0.965099 0.662365 0.922800
Si Si2 0.004334 0.085032 0.846454
Si Si3 0.784063 0.519152 0.412648
Si Si4 0.390155 0.472005 0.846752
Si Si5 0.182314 0.347133 0.425862
Si Si6 0.808457 0.820097 0.690793
Si Si7 0.310924 0.984786 0.077815
Si Si8 0.170003 0.635781 0.831811
O O1 0.698323 0.565566 0.912552
O O2 0.911971 0.749377 0.808212
O O3 0.031117 0.568735 0.898157
O O4 0.219952 0.811892 0.037921
O O5 0.232407 0.286417 0.873706
O O6 0.128312 0.014414 0.957104
O O7 0.902600 0.990970 0.734355
O O8 0.769272 0.040999 0.838691
O O9 0.738658 0.554570 0.289962
O O10 0.871089 0.665118 0.483638
O O11 0.507408 0.332262 0.382499
O O12 0.000000 0.500000 0.500000
O O13 0.324253 0.572524 0.862425
O O14 0.500000 0.500000 0.500000
O O15 0.106017 0.184617 0.379943
O O16 0.039482 0.403903 0.308436
O O17 0.607847 0.157875 0.128997
#
# Coordination Sequence:
#
# PCOD9035609 Si02
#       8
#     2   2   2   2   2   2   2   2
#     4   9  20  37  58  88 118 148 196 242 290 342
#     4  10  21  38  58  85 123 156 191 238 296 344
#     4  10  17  32  59  83 106 145 198 232 281 342
#     4  11  22  37  59  88 123 155 187 245 295 345
#     4   9  18  33  59  85 110 147 196 241 282 340
#     4   8  17  34  55  79 111 149 187 237 282 338
#     4  10  20  37  62  84 112 160 199 235 288 356
#     4  11  20  36  63  90 115 151 202 240 290 349
#
# _framework density 21.007614
#
# number of rings (size 3 to 8) (size 9 to 14) (size 15 to 20)
#    0.000    2.250    1.250    4.125    0.000    2.000 
#    0.000    7.500    0.000    0.000    0.000    0.000 
#    0.000    0.000    0.000    0.000    0.000    0.000 
#
# Total GULP energy -89231.273952 kJ/mol
# GULP energy per Si atom -5576.954622 kJ/mol
# Density = 2.095980 g / cm^3
# Si number density = 21.007614 Si / 1000 Ang^3
#
#
#
# Elastic Constant Matrix: (Units=GPa)
#
#
# Indices 1 2 3 4 5 6 
#
# 1 145.7769 38.5244 60.5789 13.3800 -29.8610 2.4725
# 2 38.5244 63.1447 16.1053 16.4360 -17.9736 0.2262
# 3 60.5789 16.1053 107.8412 19.7006 -20.8909 -10.0622
# 4 13.3800 16.4360 19.7006 25.8171 -0.7515 -2.5323
# 5 -29.8610 -17.9736 -20.8909 -0.7515 27.5779 1.8741
# 6 2.4725 0.2262 -10.0622 -2.5323 1.8741 22.7348
#
#
#
# Elastic Compliance Matrix: (Units=1/GPa)
#
#
# Indices 1 2 3 4 5 6 
#
# 1 0.011252 -0.003891 -0.004944 0.000220 0.006170 -0.003857
# 2 -0.003891 0.026197 0.004475 -0.017727 0.015845 -0.001138
# 3 -0.004944 0.004475 0.015680 -0.011464 0.008759 0.005434
# 4 0.000220 -0.017727 -0.011464 0.058418 -0.018620 0.003120
# 5 0.006170 0.015845 0.008759 -0.018620 0.059665 -0.003944
# 6 -0.003857 -0.001138 0.005434 0.003120 -0.003944 0.047494
#
#
# Mechanical properties :
#
#
# Convention : Reuss Voigt Hill
#
# Bulk Modulus (GPa) = 22.51784 60.79776 41.65780
# Shear Modulus (GPa) = 20.64158 28.66289 24.65224
#
# Velocity S-wave (km/s) = 3.13801 3.69779 3.42934
# Velocity P-wave (km/s) = 4.88586 6.87279 5.96267
#
# Compressibility (1/GPa) = 0.04440924
#
# Stress axis : x y z
#
# Youngs Moduli (GPa) = 88.87439 38.17162 63.77498
#
# Poissons Ratio (x) = 0.14851 0.31533
# Poissons Ratio (y) = 0.34578 -0.28539
# Poissons Ratio (z) = 0.43943 -0.17082
#
# Static dielectric constant tensor:
#      x y z
#    x 1.911450 -0.034630 -0.040180 
#    y -0.034630 1.747760 0.006310 
#    z -0.040180 0.006310 1.761760 
# 
# From -- ./inp_files/245127.got.cif
#   From: 2010.05.17/outbox.cif.g08.bks.cpg/sg2_123_cif.got.tgz:245127.got - 2010.06.03 11:33:40.
