data_PCOD9035324
_publ_section_title
;
Structure prediction by ZEFSAII (Michael W. Deem and Ramdas Pophale) SiO2 
 PCOD9035324
Probable space group: P -1
;
_chemical_formula_sum "Si O2"
_cell_formula_units_Z 15
_cell_length_a 12.422300
_cell_length_b 9.103546
_cell_length_c 7.493141
_cell_angle_alpha 124.958133
_cell_angle_beta 73.254053
_cell_angle_gamma 127.799909
_cell_volume 546.144435
_symmetry_space_group_name_H-M "P -1"
_symmetry_group_IT_number 2
_symmetry_cell_setting 'triclinic'
loop_
_space_group_symop_operation_xyz
x,y,z
-x,-y,-z
loop_
_atom_site_type_symbol
_atom_site_label
_atom_site_fract_x
_atom_site_fract_y
_atom_site_fract_z
Si Si1 0.456205 0.781705 0.966050
Si Si2 0.419299 0.255656 0.785021
Si Si3 0.500000 0.000000 0.500000
Si Si4 0.198239 0.417796 0.670667
Si Si5 0.299414 0.139544 0.284668
Si Si6 0.200297 0.591018 0.408276
Si Si7 0.837166 0.849415 0.990826
Si Si8 0.924585 0.302300 0.756989
O O1 0.297255 0.593394 0.894864
O O2 0.548151 0.724381 0.774571
O O3 0.516458 0.846463 0.184152
O O4 0.500000 0.000000 0.000000
O O5 0.469334 0.194538 0.548594
O O6 0.500000 0.500000 0.000000
O O7 0.259564 0.158539 0.811133
O O8 0.662465 0.179549 0.535676
O O9 0.267360 0.293278 0.507198
O O10 0.197303 0.549952 0.592501
O O11 0.037493 0.246918 0.662122
O O12 0.214647 0.079148 0.097905
O O13 0.220667 0.904513 0.252869
O O14 0.202056 0.393283 0.186473
O O15 0.090710 0.608675 0.362319
O O16 0.000000 0.000000 0.000000
O O17 0.000000 0.500000 0.000000
#
# Coordination Sequence:
#
# PCOD9035324 Si02
#       8
#     2   2   1   2   2   2   2   2
#     4  11  24  43  71  98 141 185 240 295 362 424
#     4  11  25  45  71 108 147 197 246 301 363 439
#     4  12  26  42  74 108 150 184 252 298 358 434
#     4  11  25  46  70  98 143 190 235 295 360 431
#     4  10  24  42  66 102 136 183 240 291 357 428
#     4  11  26  44  71 106 146 186 249 298 367 427
#     4  10  22  45  73  99 149 192 239 300 373 434
#     4  12  26  43  71 104 144 185 238 298 362 431
#
# _framework density 27.465261999999999
#
# number of rings (size 3 to 8) (size 9 to 14) (size 15 to 20)
#    0.000    1.067    1.333    3.600    5.600    7.467 
#    0.000    0.000    0.000    0.000    0.000    0.000 
#    0.000    0.000    0.000    0.000    0.000    0.000 
#
# Total GULP energy -83794.271422 kJ/mol
# GULP energy per Si atom -5586.284761 kJ/mol
# Density = 2.740275 g / cm^3
# Si number density = 27.465262 Si / 1000 Ang^3
#
#
#
# Elastic Constant Matrix: (Units=GPa)
#
#
# Indices 1 2 3 4 5 6 
#
# 1 133.7207 31.8349 52.9287 6.8207 -3.6525 28.8362
# 2 31.8349 101.9712 41.1490 1.0549 25.3792 -5.1474
# 3 52.9287 41.1490 95.7906 9.4058 11.1548 9.2347
# 4 6.8207 1.0549 9.4058 40.3791 -6.6587 1.1595
# 5 -3.6525 25.3792 11.1548 -6.6587 54.2095 0.4692
# 6 28.8362 -5.1474 9.2347 1.1595 0.4692 52.8918
#
#
#
# Elastic Compliance Matrix: (Units=1/GPa)
#
#
# Indices 1 2 3 4 5 6 
#
# 1 0.011353 -0.002574 -0.004979 -0.000029 0.003039 -0.005597
# 2 -0.002574 0.013958 -0.004231 -0.000014 -0.005870 0.003553
# 3 -0.004979 -0.004231 0.015556 -0.002979 -0.001919 -0.000331
# 4 -0.000029 -0.000014 -0.002979 0.026097 0.003824 -0.000072
# 5 0.003039 -0.005870 -0.001919 0.003824 0.022283 -0.002175
# 6 -0.005597 0.003553 -0.000331 -0.000072 -0.002175 0.022383
#
#
# Mechanical properties :
#
#
# Convention : Reuss Voigt Hill
#
# Bulk Modulus (GPa) = 57.80724 64.81196 61.30960
# Shear Modulus (GPa) = 35.46963 43.20074 39.33519
#
# Velocity S-wave (km/s) = 3.59755 3.97031 3.78852
# Velocity P-wave (km/s) = 6.19271 6.68333 6.44269
#
# Compressibility (1/GPa) = 0.01729887
#
# Stress axis : x y z
#
# Youngs Moduli (GPa) = 88.07971 71.64213 64.28345
#
# Poissons Ratio (x) = 0.18440 0.32007
# Poissons Ratio (y) = 0.22671 0.27201
# Poissons Ratio (z) = 0.43855 0.30315
#
# Static dielectric constant tensor:
#      x y z
#    x 2.452040 -0.148310 -0.215220 
#    y -0.148310 2.448260 -0.177170 
#    z -0.215220 -0.177170 2.917660 
# 
# From -- ./inp_files/240897.got.cif
#   From: 2010.05.17/outbox.cif.g08.bks.cpg/sg2_121_cif.got.tgz:240897.got - 2010.06.03 11:33:40.
