data_PCOD9035818
_publ_section_title
;
Structure prediction by ZEFSAII (Michael W. Deem and Ramdas Pophale) SiO2 
 PCOD9035818
Probable space group: P -1
;
_chemical_formula_sum "Si O2"
_cell_formula_units_Z 13
_cell_length_a 19.141433
_cell_length_b 11.311100
_cell_length_c 5.598970
_cell_angle_alpha 126.371607
_cell_angle_beta 126.837238
_cell_angle_gamma 31.475384
_cell_volume 496.801118
_symmetry_space_group_name_H-M "P -1"
_symmetry_group_IT_number 2
_symmetry_cell_setting 'triclinic'
loop_
_space_group_symop_operation_xyz
x,y,z
-x,-y,-z
loop_
_atom_site_type_symbol
_atom_site_label
_atom_site_fract_x
_atom_site_fract_y
_atom_site_fract_z
Si Si1 0.844055 0.376445 0.716766
Si Si2 0.323495 0.656070 0.474032
Si Si3 0.547047 0.218605 0.090021
Si Si4 0.299759 0.193820 0.755474
Si Si5 0.071100 0.515593 0.350104
Si Si6 0.500000 0.000000 0.500000
Si Si7 0.077924 0.047916 0.131383
O O1 0.773561 0.311036 0.510886
O O2 0.834653 0.486366 0.594698
O O3 0.764951 0.574330 0.990943
O O4 0.005131 0.164006 0.864942
O O5 0.448365 0.400516 0.317269
O O6 0.379614 0.731537 0.795847
O O7 0.233890 0.816826 0.247395
O O8 0.657524 0.963318 0.125761
O O9 0.476312 0.209587 0.738574
O O10 0.174747 0.291404 0.461158
O O11 0.423703 0.067694 0.682626
O O12 0.968117 0.751095 0.568269
O O13 0.000000 0.500000 0.000000
O O14 0.000000 0.000000 0.000000
#
# Coordination Sequence:
#
# PCOD9035818 Si02
#       7
#     2   2   2   2   2   1   2
#     4  10  22  46  72  98 144 184 230 293 347 413
#     4  10  23  45  69 101 144 185 225 287 361 409
#     4  11  25  45  72 102 144 182 233 293 344 418
#     4  11  25  43  73 102 141 181 227 301 345 414
#     4  11  26  42  74 109 131 184 244 285 346 417
#     4  12  24  44  74 106 128 188 240 280 352 406
#     4   9  22  43  67  98 141 183 221 292 350 409
#
# _framework density 26.167411000000001
#
# number of rings (size 3 to 8) (size 9 to 14) (size 15 to 20)
#    0.000    1.538    1.538    1.385    8.615    3.692 
#    0.000    9.231    0.000    0.000    0.000    0.000 
#    0.000    0.000    0.000    0.000    0.000    0.000 
#
# Total GULP energy -72589.373980 kJ/mol
# GULP energy per Si atom -5583.797998 kJ/mol
# Density = 2.610785 g / cm^3
# Si number density = 26.167411 Si / 1000 Ang^3
#
#
#
# Elastic Constant Matrix: (Units=GPa)
#
#
# Indices 1 2 3 4 5 6 
#
# 1 127.4955 4.2443 36.6066 15.1786 20.0661 1.5925
# 2 4.2443 90.5751 20.3945 -0.4520 6.8316 10.2815
# 3 36.6066 20.3945 70.1263 27.9206 34.2412 -8.4378
# 4 15.1786 -0.4520 27.9206 36.8321 3.5339 -2.4777
# 5 20.0661 6.8316 34.2412 3.5339 50.0920 -1.2588
# 6 1.5925 10.2815 -8.4378 -2.4777 -1.2588 18.6396
#
#
#
# Elastic Compliance Matrix: (Units=1/GPa)
#
#
# Indices 1 2 3 4 5 6 
#
# 1 0.009544 0.001405 -0.006054 0.000386 -0.000011 -0.004280
# 2 0.001405 0.014614 -0.011389 0.006994 0.004432 -0.012108
# 3 -0.006054 -0.011389 0.048465 -0.030306 -0.026437 0.022925
# 4 0.000386 0.006994 -0.030306 0.047833 0.015977 -0.010173
# 5 -0.000011 0.004432 -0.026437 0.015977 0.036060 -0.009852
# 6 -0.004280 -0.012108 0.022925 -0.010173 -0.009852 0.069054
#
#
# Mechanical properties :
#
#
# Convention : Reuss Voigt Hill
#
# Bulk Modulus (GPa) = 24.66236 45.63196 35.14716
# Shear Modulus (GPa) = 18.43914 36.24281 27.34098
#
# Velocity S-wave (km/s) = 2.65742 3.72564 3.23592
# Velocity P-wave (km/s) = 4.34294 5.99863 5.23664
#
# Compressibility (1/GPa) = 0.04054762
#
# Stress axis : x y z
#
# Youngs Moduli (GPa) = 104.77670 68.42692 20.63324
#
# Poissons Ratio (x) = -0.09611 0.12491
# Poissons Ratio (y) = -0.14716 0.23499
# Poissons Ratio (z) = 0.63431 0.77929
#
# Static dielectric constant tensor:
#      x y z
#    x 2.041190 -0.036640 0.076250 
#    y -0.036640 2.101750 -0.114010 
#    z 0.076250 -0.114010 2.110140 
# 
# From -- ./inp_files/28698.got.cif
#   From: 2010.05.17/outbox.cif.g08.bks.cpg/sg2_15_cif.got.tgz:28698.got - 2010.06.03 11:33:40.
