data_PCOD9035043
_publ_section_title
;
Structure prediction by ZEFSAII (Michael W. Deem and Ramdas Pophale) SiO2 
 PCOD9035043
Probable space group: P -1
;
_chemical_formula_sum "Si O2"
_cell_formula_units_Z 16
_cell_length_a 6.829030
_cell_length_b 12.230895
_cell_length_c 20.088194
_cell_angle_alpha 152.062211
_cell_angle_beta 122.483303
_cell_angle_gamma 54.860432
_cell_volume 641.048711
_symmetry_space_group_name_H-M "P -1"
_symmetry_group_IT_number 2
_symmetry_cell_setting 'triclinic'
loop_
_space_group_symop_operation_xyz
x,y,z
-x,-y,-z
loop_
_atom_site_type_symbol
_atom_site_label
_atom_site_fract_x
_atom_site_fract_y
_atom_site_fract_z
Si Si1 0.452836 0.320319 0.052179
Si Si2 0.353153 0.989443 0.755128
Si Si3 0.027890 0.326799 0.636754
Si Si4 0.862115 0.303517 0.343359
Si Si5 0.470805 0.752700 0.520303
Si Si6 0.977655 0.353831 0.798112
Si Si7 0.083956 0.805849 0.851921
Si Si8 0.447170 0.826077 0.325152
O O1 0.174487 0.392410 0.062706
O O2 0.629442 0.278741 0.124805
O O3 0.487369 0.563794 0.154210
O O4 0.504745 0.091638 0.891486
O O5 0.207992 0.219018 0.809338
O O6 0.168812 0.871688 0.697308
O O7 0.502730 0.795994 0.627297
O O8 0.815788 0.199077 0.516013
O O9 0.024067 0.373811 0.740201
O O10 0.974452 0.579269 0.724777
O O11 0.306074 0.201201 0.603815
O O12 0.599726 0.483567 0.377640
O O13 0.949031 0.155426 0.212177
O O14 0.000000 0.500000 0.500000
O O15 0.572833 0.947497 0.603929
O O16 0.783255 0.195101 0.686824
O O17 0.000000 0.000000 0.000000
#
# Coordination Sequence:
#
# PCOD9035043 Si02
#       8
#     2   2   2   2   2   2   2   2
#     4   9  24  45  70 106 139 187 248 304 357 424
#     4  12  25  44  73 104 149 198 241 301 371 435
#     4  11  23  45  72 109 140 184 252 298 370 430
#     4  12  29  49  71 109 151 195 245 301 367 443
#     4  12  25  44  72 105 150 196 239 301 369 448
#     4  10  22  45  70 109 142 183 240 310 362 425
#     4  11  27  49  76 104 144 197 247 306 361 437
#     4   9  22  42  68 109 139 186 237 304 363 426
#
# _framework density 24.959102000000001
#
# number of rings (size 3 to 8) (size 9 to 14) (size 15 to 20)
#    0.750    0.500    1.250    3.375    5.250    1.500 
#    0.000    0.000    0.000    0.000    0.000    0.000 
#    0.000    0.000    0.000    0.000    0.000    0.000 
#
# Total GULP energy -89451.012073 kJ/mol
# GULP energy per Si atom -5590.688255 kJ/mol
# Density = 2.490229 g / cm^3
# Si number density = 24.959102 Si / 1000 Ang^3
#
#
#
# Elastic Constant Matrix: (Units=GPa)
#
#
# Indices 1 2 3 4 5 6 
#
# 1 87.3608 10.8072 7.1467 -11.0943 -8.9901 0.1357
# 2 10.8072 56.4638 -2.0959 -7.2325 -12.5903 13.1225
# 3 7.1467 -2.0959 101.8081 -16.0308 -15.9720 8.3577
# 4 -11.0943 -7.2325 -16.0308 30.3866 2.3714 -3.2158
# 5 -8.9901 -12.5903 -15.9720 2.3714 42.9242 -2.3730
# 6 0.1357 13.1225 8.3577 -3.2158 -2.3730 46.9476
#
#
#
# Elastic Compliance Matrix: (Units=1/GPa)
#
#
# Indices 1 2 3 4 5 6 
#
# 1 0.012359 -0.001601 -0.000025 0.004051 0.001929 0.000791
# 2 -0.001601 0.021548 0.002820 0.004909 0.006439 -0.005859
# 3 -0.000025 0.002820 0.011797 0.006281 0.004742 -0.002218
# 4 0.004051 0.004909 0.006281 0.038704 0.002503 0.000276
# 5 0.001929 0.006439 0.004742 0.002503 0.027155 -0.001106
# 6 0.000791 -0.005859 -0.002218 0.000276 -0.001106 0.023294
#
#
# Mechanical properties :
#
#
# Convention : Reuss Voigt Hill
#
# Bulk Modulus (GPa) = 20.79336 30.81653 25.80495
# Shear Modulus (GPa) = 33.67026 39.36999 36.52012
#
# Velocity S-wave (km/s) = 3.67688 3.97593 3.82933
# Velocity P-wave (km/s) = 5.13566 5.78368 5.46928
#
# Compressibility (1/GPa) = 0.04809227
#
# Stress axis : x y z
#
# Youngs Moduli (GPa) = 80.91475 46.40834 84.76504
#
# Poissons Ratio (x) = 0.07431 0.00211
# Poissons Ratio (y) = 0.12955 -0.23905
# Poissons Ratio (z) = 0.00201 -0.13088
#
# Static dielectric constant tensor:
#      x y z
#    x 2.027950 -0.089080 -0.070050 
#    y -0.089080 1.973330 0.027170 
#    z -0.070050 0.027170 2.019530 
# 
# From -- ./inp_files/560193.got.cif
#   From: 2010.05.17/outbox.cif.g08.bks.cpg/sg2_281_cif.got.tgz:560193.got - 2010.06.03 11:33:40.
