data_PCOD9035517
_publ_section_title
;
Structure prediction by ZEFSAII (Michael W. Deem and Ramdas Pophale) SiO2 
 PCOD9035517
Probable space group: P -1
;
_chemical_formula_sum "Si O2"
_cell_formula_units_Z 14
_cell_length_a 12.144904
_cell_length_b 17.650144
_cell_length_c 9.353025
_cell_angle_alpha 30.949937
_cell_angle_beta 145.667814
_cell_angle_gamma 136.244547
_cell_volume 580.844290
_symmetry_space_group_name_H-M "P -1"
_symmetry_group_IT_number 2
_symmetry_cell_setting 'triclinic'
loop_
_space_group_symop_operation_xyz
x,y,z
-x,-y,-z
loop_
_atom_site_type_symbol
_atom_site_label
_atom_site_fract_x
_atom_site_fract_y
_atom_site_fract_z
Si Si1 0.606585 0.364675 0.402700
Si Si2 0.094550 0.139186 0.618652
Si Si3 0.984612 0.527323 0.607804
Si Si4 0.330929 0.777468 0.866879
Si Si5 0.793579 0.541204 0.777247
Si Si6 0.607008 0.868514 0.255807
Si Si7 0.803522 0.181883 0.653621
O O1 0.781800 0.438943 0.566972
O O2 0.457040 0.270436 0.492323
O O3 0.694988 0.257486 0.549147
O O4 0.500000 0.500000 0.000000
O O5 0.215611 0.290212 0.553025
O O6 0.165376 0.120722 0.559196
O O7 0.871313 0.175373 0.352132
O O8 0.134778 0.982533 0.985010
O O9 0.000000 0.500000 0.500000
O O10 0.010563 0.704055 0.366272
O O11 0.158018 0.467092 0.987473
O O12 0.323304 0.816195 0.629409
O O13 0.345827 0.600029 0.180491
O O14 0.499436 0.859436 0.002736
O O15 0.000000 0.500000 0.000000
O O16 0.500000 0.000000 0.000000
#
# Coordination Sequence:
#
# PCOD9035517 Si02
#       7
#     2   2   2   2   2   2   2
#     4  11  24  44  65 100 141 183 225 280 338 405
#     4  11  23  43  73 101 137 176 224 281 350 392
#     4   9  20  39  66  90 129 173 224 267 323 403
#     4  10  24  46  69  97 139 181 228 279 334 410
#     4   9  19  40  65  95 125 169 224 269 323 398
#     4  12  27  47  66 104 140 175 230 283 341 413
#     4  10  22  46  67 103 133 177 234 276 341 406
#
# _framework density 24.102844999999999
#
# number of rings (size 3 to 8) (size 9 to 14) (size 15 to 20)
#    0.000    1.714    1.429    2.143    6.000    2.857 
#   10.286    0.000    0.000    0.000    0.000    0.000 
#    0.000    0.000    0.000    0.000    0.000    0.000 
#
# Total GULP energy -78189.483723 kJ/mol
# GULP energy per Si atom -5584.963123 kJ/mol
# Density = 2.404799 g / cm^3
# Si number density = 24.102845 Si / 1000 Ang^3
#
#
#
# Elastic Constant Matrix: (Units=GPa)
#
#
# Indices 1 2 3 4 5 6 
#
# 1 110.8427 17.5043 44.2955 -7.4135 3.0502 -4.6908
# 2 17.5043 101.8176 51.6716 -19.3353 0.3875 -19.7073
# 3 44.2955 51.6716 131.6673 -57.9013 4.8937 -11.5772
# 4 -7.4135 -19.3353 -57.9013 47.3078 -5.0009 -8.1312
# 5 3.0502 0.3875 4.8937 -5.0009 47.8502 -7.3276
# 6 -4.6908 -19.7073 -11.5772 -8.1312 -7.3276 31.3896
#
#
#
# Elastic Compliance Matrix: (Units=1/GPa)
#
#
# Indices 1 2 3 4 5 6 
#
# 1 0.011549 -0.000451 -0.008001 -0.009049 -0.001504 -0.004204
# 2 -0.000451 0.013817 -0.002877 0.003812 0.001987 0.008997
# 3 -0.008001 -0.002877 0.028892 0.036478 0.004159 0.018074
# 4 -0.009049 0.003812 0.036478 0.073119 0.009932 0.035754
# 5 -0.001504 0.001987 0.004159 0.009932 0.023206 0.010547
# 6 -0.004204 0.008997 0.018074 0.035754 0.010547 0.055268
#
#
# Mechanical properties :
#
#
# Convention : Reuss Voigt Hill
#
# Bulk Modulus (GPa) = 31.64746 63.47452 47.56099
# Shear Modulus (GPa) = 20.91678 40.69993 30.80836
#
# Velocity S-wave (km/s) = 2.94906 4.11371 3.57908
# Velocity P-wave (km/s) = 4.97540 6.99682 6.07084
#
# Compressibility (1/GPa) = 0.03159811
#
# Stress axis : x y z
#
# Youngs Moduli (GPa) = 86.58894 72.37509 34.61216
#
# Poissons Ratio (x) = 0.03266 0.27694
# Poissons Ratio (y) = 0.03907 0.09958
# Poissons Ratio (z) = 0.69282 0.20823
#
# Static dielectric constant tensor:
#      x y z
#    x 2.039940 0.008770 -0.001260 
#    y 0.008770 1.964230 0.018470 
#    z -0.001260 0.018470 1.949260 
# 
# From -- ./inp_files/278720.got.cif
#   From: 2010.05.17/outbox.cif.g08.bks.cpg/sg2_140_cif.got.tgz:278720.got - 2010.06.03 11:33:40.
