data_PCOD9035381
_publ_section_title
;
Structure prediction by ZEFSAII (Michael W. Deem and Ramdas Pophale) SiO2 
 PCOD9035381
Probable space group: P -1
;
_chemical_formula_sum "Si O2"
_cell_formula_units_Z 15
_cell_length_a 22.485188
_cell_length_b 6.894713
_cell_length_c 11.883149
_cell_angle_alpha 130.699267
_cell_angle_beta 157.443911
_cell_angle_gamma 56.152613
_cell_volume 529.229498
_symmetry_space_group_name_H-M "P -1"
_symmetry_group_IT_number 2
_symmetry_cell_setting 'triclinic'
loop_
_space_group_symop_operation_xyz
x,y,z
-x,-y,-z
loop_
_atom_site_type_symbol
_atom_site_label
_atom_site_fract_x
_atom_site_fract_y
_atom_site_fract_z
Si Si1 0.991384 0.905764 0.690046
Si Si2 0.164088 0.955017 0.718789
Si Si3 0.419470 0.091905 0.659097
Si Si4 0.475530 0.562202 0.611898
Si Si5 0.273534 0.514679 0.630983
Si Si6 0.698631 0.175201 0.882553
Si Si7 0.160340 0.503696 0.175845
Si Si8 0.000000 0.000000 0.000000
O O1 0.833776 0.879537 0.329200
O O2 0.068923 0.210562 0.919583
O O3 0.978128 0.872323 0.785722
O O4 0.119203 0.742501 0.799938
O O5 0.166839 0.658780 0.578126
O O6 0.296489 0.997322 0.061808
O O7 0.000000 0.000000 0.500000
O O8 0.276221 0.203264 0.516593
O O9 0.362584 0.981163 0.396435
O O10 0.491315 0.872519 0.767378
O O11 0.557062 0.330946 0.979537
O O12 0.500000 0.500000 0.500000
O O13 0.597993 0.398998 0.819162
O O14 0.299315 0.496286 0.326770
O O15 0.238769 0.568872 0.460496
O O16 0.063772 0.729896 0.059116
#
# Coordination Sequence:
#
# PCOD9035381 Si02
#       8
#     2   2   2   2   2   2   2   1
#     4  11  24  47  73 111 149 199 255 307 373 451
#     4  10  24  43  68 106 149 193 254 296 371 451
#     4  10  23  44  73 104 152 187 254 311 379 448
#     4  10  24  45  71 114 151 194 255 313 381 451
#     4  11  24  44  70 112 143 198 251 307 380 444
#     4  10  22  45  75 104 152 201 243 310 383 448
#     4  12  26  43  75 111 148 203 248 308 386 445
#     4  12  24  44  74 104 154 192 248 314 368 444
#
# _framework density 28.343091999999999
#
# number of rings (size 3 to 8) (size 9 to 14) (size 15 to 20)
#    0.000    1.333    2.667    2.000    3.733    5.867 
#    2.400    0.000    0.000    8.800    0.000    0.000 
#    0.000    0.000    0.000    0.000    0.000    0.000 
#
# Total GULP energy -83804.650663 kJ/mol
# GULP energy per Si atom -5586.976711 kJ/mol
# Density = 2.827858 g / cm^3
# Si number density = 28.343092 Si / 1000 Ang^3
#
#
#
# Elastic Constant Matrix: (Units=GPa)
#
#
# Indices 1 2 3 4 5 6 
#
# 1 176.2215 66.4410 25.7062 -27.1364 9.4824 -17.3766
# 2 66.4410 209.3359 58.0134 -45.5082 10.4253 -41.1049
# 3 25.7062 58.0134 85.4624 -28.1561 -5.6566 2.0051
# 4 -27.1364 -45.5082 -28.1561 64.5137 -1.9203 4.5492
# 5 9.4824 10.4253 -5.6566 -1.9203 48.9274 -19.5549
# 6 -17.3766 -41.1049 2.0051 4.5492 -19.5549 66.7201
#
#
#
# Elastic Compliance Matrix: (Units=1/GPa)
#
#
# Indices 1 2 3 4 5 6 
#
# 1 0.006634 -0.001502 -0.000570 0.001424 -0.000778 0.000494
# 2 -0.001502 0.007849 -0.004046 0.002831 0.000011 0.004376
# 3 -0.000570 -0.004046 0.016205 0.004237 0.001865 -0.002870
# 4 0.001424 0.002831 0.004237 0.019908 0.000729 0.000844
# 5 -0.000778 0.000011 0.001865 0.000729 0.023458 0.006574
# 6 0.000494 0.004376 -0.002870 0.000844 0.006574 0.019768
#
#
# Mechanical properties :
#
#
# Convention : Reuss Voigt Hill
#
# Bulk Modulus (GPa) = 54.18953 85.70454 69.94704
# Shear Modulus (GPa) = 44.55954 57.42288 50.99121
#
# Velocity S-wave (km/s) = 3.96933 4.50599 4.24615
# Velocity P-wave (km/s) = 6.33783 7.57468 6.98369
#
# Compressibility (1/GPa) = 0.01845375
#
# Stress axis : x y z
#
# Youngs Moduli (GPa) = 150.73640 127.40165 61.70832
#
# Poissons Ratio (x) = 0.19141 0.03514
# Poissons Ratio (y) = 0.22646 0.24964
# Poissons Ratio (z) = 0.08585 0.51540
#
# Static dielectric constant tensor:
#      x y z
#    x 2.157380 -0.014830 -0.043840 
#    y -0.014830 2.238490 -0.072260 
#    z -0.043840 -0.072260 2.084250 
# 
# From -- ./inp_files/411341.got.cif
#   From: 2010.05.17/outbox.cif.g08.bks.cpg/sg2_206_cif.got.tgz:411341.got - 2010.06.03 11:33:40.
