data_PCOD9036115
_publ_section_title
;
Structure prediction by ZEFSAII (Michael W. Deem and Ramdas Pophale) SiO2 
 PCOD9036115
Probable space group: P -1
;
_chemical_formula_sum "Si O2"
_cell_formula_units_Z 14
_cell_length_a 21.774308
_cell_length_b 16.465337
_cell_length_c 11.390008
_cell_angle_alpha 145.930273
_cell_angle_beta 27.011245
_cell_angle_gamma 161.981013
_cell_volume 568.495177
_symmetry_space_group_name_H-M "P -1"
_symmetry_group_IT_number 2
_symmetry_cell_setting 'triclinic'
loop_
_space_group_symop_operation_xyz
x,y,z
-x,-y,-z
loop_
_atom_site_type_symbol
_atom_site_label
_atom_site_fract_x
_atom_site_fract_y
_atom_site_fract_z
Si Si1 0.814616 0.947186 0.691582
Si Si2 0.497320 0.830506 0.674226
Si Si3 0.181040 0.067032 0.920188
Si Si4 0.244488 0.693156 0.540199
Si Si5 0.284931 0.426496 0.036927
Si Si6 0.982470 0.723257 0.055537
Si Si7 0.822856 0.179225 0.762244
O O1 0.840606 0.044390 0.638194
O O2 0.546471 0.636746 0.782750
O O3 0.000000 0.000000 0.500000
O O4 0.853095 0.118927 0.918607
O O5 0.608148 0.848652 0.393865
O O6 0.716590 0.054609 0.663094
O O7 0.361528 0.863047 0.922321
O O8 0.294184 0.549916 0.754082
O O9 0.084910 0.945145 0.067224
O O10 0.269070 0.309786 0.038435
O O11 0.938082 0.819267 0.959759
O O12 0.275548 0.586742 0.274295
O O13 0.056670 0.649126 0.764771
O O14 0.094583 0.491835 0.664406
O O15 0.500000 0.000000 0.500000
#
# Coordination Sequence:
#
# PCOD9036115 Si02
#       7
#     2   2   2   2   2   2   2
#     4  12  27  45  69 103 148 195 234 290 362 430
#     4  10  22  47  74 109 137 185 244 297 361 415
#     4  11  25  45  76 104 144 186 238 304 357 418
#     4  11  23  44  70 101 141 182 236 297 354 421
#     4  11  25  46  68 107 138 188 243 289 361 423
#     4  11  26  42  70 111 140 187 240 291 361 429
#     4  10  24  45  74 103 143 186 239 299 353 427
#
# _framework density 24.626418000000001
#
# number of rings (size 3 to 8) (size 9 to 14) (size 15 to 20)
#    0.000    1.143    2.857    1.714    4.000    5.714 
#    0.000    3.571    0.000    0.000    0.000    0.000 
#    0.000    0.000    0.000    0.000    0.000    0.000 
#
# Total GULP energy -78278.463501 kJ/mol
# GULP energy per Si atom -5591.318822 kJ/mol
# Density = 2.457037 g / cm^3
# Si number density = 24.626418 Si / 1000 Ang^3
#
#
#
# Elastic Constant Matrix: (Units=GPa)
#
#
# Indices 1 2 3 4 5 6 
#
# 1 68.7727 23.9700 28.1373 -7.3272 -4.9071 -24.5949
# 2 23.9700 136.3885 27.2375 -29.0534 0.8013 -20.9347
# 3 28.1373 27.2375 104.7254 -10.9611 -9.8668 -4.0491
# 4 -7.3272 -29.0534 -10.9611 54.9566 1.6208 5.0206
# 5 -4.9071 0.8013 -9.8668 1.6208 20.2915 3.4021
# 6 -24.5949 -20.9347 -4.0491 5.0206 3.4021 43.3103
#
#
#
# Elastic Compliance Matrix: (Units=1/GPa)
#
#
# Indices 1 2 3 4 5 6 
#
# 1 0.020799 -0.000987 -0.004800 0.000282 0.000905 0.010781
# 2 -0.000987 0.009304 -0.001809 0.004180 -0.002402 0.003472
# 3 -0.004800 -0.001809 0.011761 0.000874 0.005063 -0.003000
# 4 0.000282 0.004180 0.000874 0.020659 -0.001317 -0.000029
# 5 0.000905 -0.002402 0.005063 -0.001317 0.052862 -0.004174
# 6 0.010781 0.003472 -0.003000 -0.000029 -0.004174 0.030941
#
#
# Mechanical properties :
#
#
# Convention : Reuss Voigt Hill
#
# Bulk Modulus (GPa) = 37.49221 52.06402 44.77812
# Shear Modulus (GPa) = 29.34104 39.08113 34.21109
#
# Velocity S-wave (km/s) = 3.45548 3.98799 3.73124
# Velocity P-wave (km/s) = 5.58371 6.51098 6.06509
#
# Compressibility (1/GPa) = 0.02667220
#
# Stress axis : x y z
#
# Youngs Moduli (GPa) = 48.07966 107.47823 85.02352
#
# Poissons Ratio (x) = 0.10609 0.40810
# Poissons Ratio (y) = 0.04746 0.15383
# Poissons Ratio (z) = 0.23077 0.19445
#
# Static dielectric constant tensor:
#      x y z
#    x 1.971810 -0.042700 0.001090 
#    y -0.042700 1.974230 0.052850 
#    z 0.001090 0.052850 2.085690 
# 
# From -- ./inp_files/263688.got.cif
#   From: 2010.05.17/outbox.cif.g08.bks.cpg/sg2_132_cif.got.tgz:263688.got - 2010.06.03 11:33:40.
