data_PCOD9036160
_publ_section_title
;
Structure prediction by ZEFSAII (Michael W. Deem and Ramdas Pophale) SiO2 
 PCOD9036160
Probable space group: P -1
;
_chemical_formula_sum "Si O2"
_cell_formula_units_Z 10
_cell_length_a 19.595467
_cell_length_b 10.478431
_cell_length_c 9.424010
_cell_angle_alpha 151.776021
_cell_angle_beta 153.931705
_cell_angle_gamma 32.562773
_cell_volume 389.679781
_symmetry_space_group_name_H-M "P -1"
_symmetry_group_IT_number 2
_symmetry_cell_setting 'triclinic'
loop_
_space_group_symop_operation_xyz
x,y,z
-x,-y,-z
loop_
_atom_site_type_symbol
_atom_site_label
_atom_site_fract_x
_atom_site_fract_y
_atom_site_fract_z
Si Si1 0.690797 0.644836 0.605316
Si Si2 0.476494 0.040017 0.804649
Si Si3 0.837394 0.108656 0.887141
Si Si4 0.161685 0.907506 0.804423
Si Si5 0.670343 0.480170 0.687229
O O1 0.533625 0.861749 0.589586
O O2 0.780684 0.540909 0.823287
O O3 0.706814 0.356218 0.271950
O O4 0.771073 0.822116 0.825515
O O5 0.287599 0.085670 0.516008
O O6 0.562526 0.784812 0.818394
O O7 0.564233 0.289074 0.226990
O O8 0.748061 0.346134 0.844062
O O9 0.872186 0.169675 0.173983
O O10 0.000000 0.000000 0.000000
O O11 0.000000 0.000000 0.500000
#
# Coordination Sequence:
#
# PCOD9036160 Si02
#       5
#     2   2   2   2   2
#     4  10  22  47  77  95 142 187 238 289 355 414
#     4  10  23  47  80 103 141 186 244 291 356 419
#     4  12  28  45  74 110 147 189 239 292 360 427
#     4  12  26  47  69 108 147 185 233 299 360 414
#     4  10  22  49  75 106 140 184 241 292 357 421
#
# _framework density 25.662096999999999
#
# number of rings (size 3 to 8) (size 9 to 14) (size 15 to 20)
#    1.200    0.000    2.000    3.000    0.000    4.800 
#    0.000    8.000    0.000    0.000    0.000    0.000 
#    0.000    0.000    0.000    0.000    0.000    0.000 
#
# Total GULP energy -55787.688549 kJ/mol
# GULP energy per Si atom -5578.768855 kJ/mol
# Density = 2.560369 g / cm^3
# Si number density = 25.662097 Si / 1000 Ang^3
#
#
#
# Elastic Constant Matrix: (Units=GPa)
#
#
# Indices 1 2 3 4 5 6 
#
# 1 227.6396 61.2442 36.2611 -11.7979 -27.7530 13.5707
# 2 61.2442 99.5251 84.4064 20.5805 1.3354 0.7005
# 3 36.2611 84.4064 101.8195 12.9080 -11.9508 4.8862
# 4 -11.7979 20.5805 12.9080 50.3224 3.6030 -4.2955
# 5 -27.7530 1.3354 -11.9508 3.6030 40.0919 -4.0724
# 6 13.5707 0.7005 4.8862 -4.2955 -4.0724 52.1606
#
#
#
# Elastic Compliance Matrix: (Units=1/GPa)
#
#
# Indices 1 2 3 4 5 6 
#
# 1 0.007760 -0.012716 0.008227 0.004216 0.007699 -0.001671
# 2 -0.012716 0.061204 -0.047379 -0.013851 -0.023317 0.003964
# 3 0.008227 -0.047379 0.047837 0.007244 0.020497 -0.003789
# 4 0.004216 -0.013851 0.007244 0.024482 0.003409 0.000693
# 5 0.007699 -0.023317 0.020497 0.003409 0.036806 -0.000456
# 6 -0.001671 0.003964 -0.003789 0.000693 -0.000456 0.019929
#
#
# Mechanical properties :
#
#
# Convention : Reuss Voigt Hill
#
# Bulk Modulus (GPa) = 76.54144 88.08971 82.31558
# Shear Modulus (GPa) = 16.33396 44.98649 30.66022
#
# Velocity S-wave (km/s) = 2.52563 4.19147 3.46029
# Velocity P-wave (km/s) = 6.19649 7.60433 6.93622
#
# Compressibility (1/GPa) = 0.01306482
#
# Stress axis : x y z
#
# Youngs Moduli (GPa) = 128.86112 16.33879 20.90422
#
# Poissons Ratio (x) = 0.20777 -0.17198
# Poissons Ratio (y) = 1.63861 0.99043
# Poissons Ratio (z) = -1.06016 0.77412
#
# Static dielectric constant tensor:
#      x y z
#    x 2.149140 -0.019930 -0.093240 
#    y -0.019930 2.065970 -0.069440 
#    z -0.093240 -0.069440 2.108520 
# 
# From -- ./inp_files/330545.got.cif
#   From: 2010.05.17/outbox.cif.g08.bks.cpg/sg2_166_cif.got.tgz:330545.got - 2010.06.03 11:33:40.
