data_PCOD9036271
_publ_section_title
;
Structure prediction by ZEFSAII (Michael W. Deem and Ramdas Pophale) SiO2 
 PCOD9036271
Probable space group: P -1
;
_chemical_formula_sum "Si O2"
_cell_formula_units_Z 9
_cell_length_a 5.129839
_cell_length_b 7.187526
_cell_length_c 9.729452
_cell_angle_alpha 105.536590
_cell_angle_beta 88.705348
_cell_angle_gamma 69.681105
_cell_volume 321.454129
_symmetry_space_group_name_H-M "P -1"
_symmetry_group_IT_number 2
_symmetry_cell_setting 'triclinic'
loop_
_space_group_symop_operation_xyz
x,y,z
-x,-y,-z
loop_
_atom_site_type_symbol
_atom_site_label
_atom_site_fract_x
_atom_site_fract_y
_atom_site_fract_z
Si Si1 0.000000 0.000000 0.500000
Si Si2 0.901822 0.354497 0.372432
Si Si3 0.731011 0.747191 0.322342
Si Si4 0.184024 0.624242 0.079550
Si Si5 0.317505 0.994818 0.131243
O O1 0.825782 0.181095 0.420778
O O2 0.227453 0.110526 0.529591
O O3 0.675531 0.540436 0.324345
O O4 0.133705 0.219226 0.234390
O O5 0.000000 0.500000 0.500000
O O6 0.052841 0.674893 0.244120
O O7 0.517638 0.868086 0.229760
O O8 0.133299 0.855097 0.074504
O O9 0.500000 0.500000 0.000000
O O10 0.000000 0.500000 0.000000
O O11 0.500000 0.000000 0.000000
#
# Coordination Sequence:
#
# PCOD9036271 Si02
#       5
#     1   2   2   2   2
#     4  10  22  48  76 108 156 214 270 336 410 494
#     4  10  24  47  76 114 160 217 274 341 415 503
#     4  11  25  49  77 115 164 210 279 337 422 495
#     4  12  25  47  77 116 165 217 272 342 419 499
#     4  12  27  49  83 121 166 220 278 347 425 505
#
# _framework density 27.997776000000002
#
# number of rings (size 3 to 8) (size 9 to 14) (size 15 to 20)
#    0.000    0.889    4.444    1.333    0.000    6.222 
#    4.000    3.333    0.000    0.000    0.000    0.000 
#    0.000    0.000    0.000    0.000    0.000    0.000 
#
# Total GULP energy -50126.052371 kJ/mol
# GULP energy per Si atom -5569.561375 kJ/mol
# Density = 2.793405 g / cm^3
# Si number density = 27.997776 Si / 1000 Ang^3
#
#
#
# Elastic Constant Matrix: (Units=GPa)
#
#
# Indices 1 2 3 4 5 6 
#
# 1 137.1530 52.9847 34.8448 7.3049 -10.2962 -5.5409
# 2 52.9847 248.0090 29.2393 -8.4450 4.3338 -30.0987
# 3 34.8448 29.2393 134.5113 4.8810 -24.8481 11.6065
# 4 7.3049 -8.4450 4.8810 43.1342 -4.8400 12.9798
# 5 -10.2962 4.3338 -24.8481 -4.8400 43.7527 -15.1305
# 6 -5.5409 -30.0987 11.6065 12.9798 -15.1305 64.5987
#
#
#
# Elastic Compliance Matrix: (Units=1/GPa)
#
#
# Indices 1 2 3 4 5 6 
#
# 1 0.008559 -0.001603 -0.001633 -0.001708 0.001384 0.000948
# 2 -0.001603 0.004756 -0.000927 0.000645 -0.000622 0.001970
# 3 -0.001633 -0.000927 0.008973 -0.000085 0.004401 -0.001136
# 4 -0.001708 0.000645 -0.000085 0.025102 0.000628 -0.004727
# 5 0.001384 -0.000622 0.004401 0.000628 0.027678 0.005395
# 6 0.000948 0.001970 -0.001136 -0.004727 0.005395 0.018897
#
#
# Mechanical properties :
#
#
# Convention : Reuss Voigt Hill
#
# Bulk Modulus (GPa) = 71.62381 83.75675 77.69028
# Shear Modulus (GPa) = 46.75414 57.13741 51.94578
#
# Velocity S-wave (km/s) = 4.09090 4.52240 4.31205
# Velocity P-wave (km/s) = 6.92470 7.56637 7.25264
#
# Compressibility (1/GPa) = 0.01396184
#
# Stress axis : x y z
#
# Youngs Moduli (GPa) = 116.84279 210.27151 111.44769
#
# Poissons Ratio (x) = 0.33713 0.18195
# Poissons Ratio (y) = 0.18733 0.10328
# Poissons Ratio (z) = 0.19076 0.19487
#
# Static dielectric constant tensor:
#      x y z
#    x 2.475970 -0.105250 0.072870 
#    y -0.105250 2.013590 -0.029390 
#    z 0.072870 -0.029390 2.416520 
# 
# From -- ./inp_files/478743.got.cif
#   From: 2010.05.17/outbox.cif.g08.bks.cpg/sg2_240_cif.got.tgz:478743.got - 2010.06.03 11:33:40.
