data_PCOD9036082
_publ_section_title
;
Structure prediction by ZEFSAII (Michael W. Deem and Ramdas Pophale) SiO2 
 PCOD9036082
Probable space group: P -1
;
_chemical_formula_sum "Si O2"
_cell_formula_units_Z 13
_cell_length_a 5.799003
_cell_length_b 4.949922
_cell_length_c 16.547430
_cell_angle_alpha 81.342952
_cell_angle_beta 96.726086
_cell_angle_gamma 93.678822
_cell_volume 465.820042
_symmetry_space_group_name_H-M "P -1"
_symmetry_group_IT_number 2
_symmetry_cell_setting 'triclinic'
loop_
_space_group_symop_operation_xyz
x,y,z
-x,-y,-z
loop_
_atom_site_type_symbol
_atom_site_label
_atom_site_fract_x
_atom_site_fract_y
_atom_site_fract_z
Si Si1 0.620825 0.116296 0.220000
Si Si2 0.653132 0.469786 0.428687
Si Si3 0.000000 0.000000 0.000000
Si Si4 0.058980 0.489010 0.860031
Si Si5 0.723371 0.661643 0.697643
Si Si6 0.906821 0.996114 0.383595
Si Si7 0.584545 0.191480 0.041314
O O1 0.402962 0.110598 0.267753
O O2 0.565249 0.026591 0.133286
O O3 0.707153 0.432195 0.185614
O O4 0.823917 0.999080 0.286114
O O5 0.500000 0.500000 0.500000
O O6 0.477624 0.523949 0.344732
O O7 0.872020 0.686982 0.423821
O O8 0.258516 0.828930 0.574509
O O9 0.309774 0.032906 0.008807
O O10 0.007764 0.783189 0.084579
O O11 0.871725 0.528742 0.779904
O O12 0.112353 0.703616 0.929170
O O13 0.858571 0.821186 0.623722
O O14 0.500000 0.500000 0.000000
#
# Coordination Sequence:
#
# PCOD9036082 Si02
#       7
#     2   2   1   2   2   2   2
#     4   8  21  42  63  95 129 176 231 282 345 413
#     4  11  25  45  73 112 147 179 230 286 344 420
#     4  12  24  40  64  90 128 172 232 294 344 408
#     4   9  23  44  61  93 127 175 231 277 351 414
#     4  10  22  47  72  92 142 186 224 295 345 416
#     4  10  23  44  73 107 140 188 235 274 350 425
#     4  10  24  39  63  92 125 172 224 292 346 402
#
# _framework density 27.907774
#
# number of rings (size 3 to 8) (size 9 to 14) (size 15 to 20)
#    0.923    1.231    0.000    0.923    2.154   10.462 
#    2.769    0.000    0.000    0.000    0.000    0.000 
#    0.000    0.000    0.000    0.000    0.000    0.000 
#
# Total GULP energy -72380.989013 kJ/mol
# GULP energy per Si atom -5567.768386 kJ/mol
# Density = 2.784425 g / cm^3
# Si number density = 27.907774 Si / 1000 Ang^3
#
#
#
# Elastic Constant Matrix: (Units=GPa)
#
#
# Indices 1 2 3 4 5 6 
#
# 1 100.7472 36.7349 17.7612 -6.5224 -9.2735 19.9227
# 2 36.7349 153.3892 46.7091 -20.8742 9.7959 -15.6841
# 3 17.7612 46.7091 142.4304 6.0360 -0.6843 -2.7559
# 4 -6.5224 -20.8742 6.0360 55.1873 4.3176 4.3545
# 5 -9.2735 9.7959 -0.6843 4.3176 42.4708 -5.7941
# 6 19.9227 -15.6841 -2.7559 4.3545 -5.7941 37.4356
#
#
#
# Elastic Compliance Matrix: (Units=1/GPa)
#
#
# Indices 1 2 3 4 5 6 
#
# 1 0.013458 -0.004020 -0.000538 0.000598 0.002630 -0.008548
# 2 -0.004020 0.009413 -0.002635 0.003184 -0.002719 0.005098
# 3 -0.000538 -0.002635 0.008044 -0.002017 0.000844 0.000140
# 4 0.000598 0.003184 -0.002017 0.019996 -0.002930 -0.001912
# 5 0.002630 -0.002719 0.000844 -0.002930 0.025301 0.001780
# 6 -0.008548 0.005098 0.000140 -0.001912 0.001780 0.033906
#
#
# Mechanical properties :
#
#
# Convention : Reuss Voigt Hill
#
# Bulk Modulus (GPa) = 60.49891 66.55301 63.52596
# Shear Modulus (GPa) = 38.45790 46.70952 42.58371
#
# Velocity S-wave (km/s) = 3.71622 4.09554 3.91048
# Velocity P-wave (km/s) = 6.33553 6.80175 6.57277
#
# Compressibility (1/GPa) = 0.01652922
#
# Stress axis : x y z
#
# Youngs Moduli (GPa) = 74.30773 106.24068 124.31011
#
# Poissons Ratio (x) = 0.42706 0.06688
# Poissons Ratio (y) = 0.29870 0.32754
# Poissons Ratio (z) = 0.03998 0.27993
#
# Static dielectric constant tensor:
#      x y z
#    x 2.132790 0.153470 0.084150 
#    y 0.153470 2.369500 0.235950 
#    z 0.084150 0.235950 2.207140 
# 
# From -- ./inp_files/546938.got.cif
#   From: 2010.05.17/outbox.cif.g08.bks.cpg/sg2_274_cif.got.tgz:546938.got - 2010.06.03 11:33:40.
