data_PCOD9036702
_publ_section_title
;
Structure prediction by ZEFSAII (Michael W. Deem and Ramdas Pophale) SiO2 
 PCOD9036702
Probable space group: P -1
;
_chemical_formula_sum "Si O2"
_cell_formula_units_Z 15
_cell_length_a 12.004949
_cell_length_b 11.786074
_cell_length_c 5.097412
_cell_angle_alpha 84.743685
_cell_angle_beta 74.764339
_cell_angle_gamma 56.238830
_cell_volume 577.202362
_symmetry_space_group_name_H-M "P -1"
_symmetry_group_IT_number 2
_symmetry_cell_setting 'triclinic'
loop_
_space_group_symop_operation_xyz
x,y,z
-x,-y,-z
loop_
_atom_site_type_symbol
_atom_site_label
_atom_site_fract_x
_atom_site_fract_y
_atom_site_fract_z
Si Si1 0.584529 0.554624 0.139200
Si Si2 0.212864 0.956874 0.551678
Si Si3 0.353709 0.722002 0.920525
Si Si4 0.087418 0.822578 0.302368
Si Si5 0.854582 0.411906 0.295816
Si Si6 0.401967 0.062856 0.298811
Si Si7 0.000000 0.500000 0.000000
Si Si8 0.775554 0.618317 0.695710
O O1 0.555013 0.434938 0.199428
O O2 0.691838 0.507951 0.320405
O O3 0.438010 0.698155 0.144645
O O4 0.681976 0.561920 0.856473
O O5 0.316528 0.843436 0.724275
O O6 0.153909 0.898873 0.385857
O O7 0.289431 0.023080 0.370250
O O8 0.064327 0.075571 0.739639
O O9 0.205960 0.738469 0.033028
O O10 0.096361 0.718303 0.532921
O O11 0.874479 0.525386 0.409599
O O12 0.952380 0.388307 0.998550
O O13 0.325495 0.224721 0.343806
O O14 0.500000 0.000000 0.500000
O O15 0.500000 0.000000 0.000000
O O16 0.863667 0.613206 0.886340
#
# Coordination Sequence:
#
# PCOD9036702 Si02
#       8
#     2   2   2   2   2   2   1   2
#     4  10  23  38  69 102 143 180 237 304 372 444
#     4  11  26  47  71 105 148 196 252 303 382 460
#     4  11  22  43  66 109 142 188 238 306 376 448
#     4  11  24  44  73 106 145 192 245 315 382 452
#     4  11  22  44  68 109 140 191 248 307 382 436
#     4  12  31  54  78 110 154 210 256 314 381 463
#     4  10  24  40  72 102 148 190 244 312 368 452
#     4  11  24  47  71 105 139 193 247 312 370 449
#
# _framework density 25.987421000000001
#
# number of rings (size 3 to 8) (size 9 to 14) (size 15 to 20)
#    0.000    1.067    2.667    2.400    7.467    1.600 
#    0.000    0.000    0.000    0.000    0.000    0.000 
#    0.000    0.000    0.000    0.000    0.000    0.000 
#
# Total GULP energy -83611.730343 kJ/mol
# GULP energy per Si atom -5574.115356 kJ/mol
# Density = 2.592827 g / cm^3
# Si number density = 25.987421 Si / 1000 Ang^3
#
#
#
# Elastic Constant Matrix: (Units=GPa)
#
#
# Indices 1 2 3 4 5 6 
#
# 1 148.7348 42.4793 21.9854 -10.9331 -12.8273 -24.1452
# 2 42.4793 123.3661 32.2685 -22.8804 3.8554 -12.6259
# 3 21.9854 32.2685 61.5566 -17.8129 -4.6263 -9.2703
# 4 -10.9331 -22.8804 -17.8129 35.9090 -8.1401 -2.1009
# 5 -12.8273 3.8554 -4.6263 -8.1401 54.6143 -16.1821
# 6 -24.1452 -12.6259 -9.2703 -2.1009 -16.1821 54.3273
#
#
#
# Elastic Compliance Matrix: (Units=1/GPa)
#
#
# Indices 1 2 3 4 5 6 
#
# 1 0.008599 -0.002116 -0.000360 0.002215 0.003798 0.004486
# 2 -0.002116 0.010665 -0.003489 0.004333 -0.000626 0.000924
# 3 -0.000360 -0.003489 0.022189 0.010064 0.004925 0.004671
# 4 0.002215 0.004333 0.010064 0.038829 0.009211 0.007954
# 5 0.003798 -0.000626 0.004925 0.009211 0.023963 0.009877
# 6 0.004486 0.000924 0.004671 0.007954 0.009877 0.024662
#
#
# Mechanical properties :
#
#
# Convention : Reuss Voigt Hill
#
# Bulk Modulus (GPa) = 33.87233 58.56933 46.22083
# Shear Modulus (GPa) = 33.18343 44.76507 38.97425
#
# Velocity S-wave (km/s) = 3.57726 4.15488 3.87684
# Velocity P-wave (km/s) = 5.48860 6.75307 6.15340
#
# Compressibility (1/GPa) = 0.02952262
#
# Stress axis : x y z
#
# Youngs Moduli (GPa) = 116.28722 93.76679 45.06772
#
# Poissons Ratio (x) = 0.19838 0.01625
# Poissons Ratio (y) = 0.24602 0.15724
# Poissons Ratio (z) = 0.04192 0.32716
#
# Static dielectric constant tensor:
#      x y z
#    x 2.069470 0.047930 0.390530 
#    y 0.047930 2.176770 0.028080 
#    z 0.390530 0.028080 1.699250 
# 
# From -- ./inp_files/66991.got.cif
#   From: 2010.05.17/outbox.cif.g08.bks.cpg/sg2_34_cif.got.tgz:66991.got - 2010.06.03 11:33:40.
