data_PCOD9036893
_publ_section_title
;
Structure prediction by ZEFSAII (Michael W. Deem and Ramdas Pophale) SiO2 
 PCOD9036893
Probable space group: P -1
;
_chemical_formula_sum "Si O2"
_cell_formula_units_Z 16
_cell_length_a 9.508814
_cell_length_b 12.893795
_cell_length_c 9.457343
_cell_angle_alpha 52.596005
_cell_angle_beta 58.381811
_cell_angle_gamma 65.840298
_cell_volume 777.257577
_symmetry_space_group_name_H-M "P -1"
_symmetry_group_IT_number 2
_symmetry_cell_setting 'triclinic'
loop_
_space_group_symop_operation_xyz
x,y,z
-x,-y,-z
loop_
_atom_site_type_symbol
_atom_site_label
_atom_site_fract_x
_atom_site_fract_y
_atom_site_fract_z
Si Si1 0.573126 0.382864 0.664116
Si Si2 0.627558 0.867667 0.019381
Si Si3 0.155035 0.661320 0.845018
Si Si4 0.526737 0.580117 0.778629
Si Si5 0.098451 0.281255 0.815911
Si Si6 0.872364 0.446316 0.325653
Si Si7 0.904017 0.875936 0.633799
Si Si8 0.846027 0.720313 0.532114
O O1 0.500000 0.500000 0.500000
O O2 0.473072 0.258718 0.830228
O O3 0.580292 0.461221 0.740365
O O4 0.756136 0.344091 0.533717
O O5 0.768600 0.835271 0.094280
O O6 0.737140 0.880583 0.810751
O O7 0.500000 0.000000 0.000000
O O8 0.350434 0.663589 0.758644
O O9 0.154217 0.534512 0.844775
O O10 0.038401 0.760882 0.723349
O O11 0.063032 0.687355 0.022619
O O12 0.664674 0.677811 0.638780
O O13 0.500000 0.500000 0.000000
O O14 0.179685 0.414653 0.686429
O O15 0.072082 0.266479 0.675681
O O16 0.055160 0.397447 0.328958
O O17 0.857492 0.844938 0.523323
O O18 0.000000 0.000000 0.500000
#
# Coordination Sequence:
#
# PCOD9036893 Si02
#       8
#     2   2   2   2   2   2   2   2
#     4  12  22  40  67 101 135 175 225 271 330 399
#     4  11  25  43  69  99 132 180 230 270 323 404
#     4  10  23  39  65  92 133 175 218 266 328 395
#     4  12  23  38  61 100 136 164 211 281 340 384
#     4  11  21  41  63 101 133 170 219 276 331 389
#     4  11  21  38  67  96 136 176 215 265 338 391
#     4  10  25  49  67  90 130 184 227 264 333 409
#     4  11  24  40  67  99 131 169 221 282 337 388
#
# _framework density 20.585196
#
# number of rings (size 3 to 8) (size 9 to 14) (size 15 to 20)
#    0.000    1.000    3.750    2.250    5.250    2.000 
#    0.000    6.250    0.000    0.000    0.000    0.000 
#    0.000    0.000    0.000    0.000    0.000    0.000 
#
# Total GULP energy -89204.590281 kJ/mol
# GULP energy per Si atom -5575.286893 kJ/mol
# Density = 2.053834 g / cm^3
# Si number density = 20.585196 Si / 1000 Ang^3
#
#
#
# Elastic Constant Matrix: (Units=GPa)
#
#
# Indices 1 2 3 4 5 6 
#
# 1 129.7959 54.6011 49.2652 22.6533 -12.0640 7.3584
# 2 54.6011 112.5894 55.2914 16.0714 -3.8205 14.2551
# 3 49.2652 55.2914 113.3617 31.1991 -12.0791 24.6417
# 4 22.6533 16.0714 31.1991 37.8749 5.4520 1.3534
# 5 -12.0640 -3.8205 -12.0791 5.4520 43.7485 5.7944
# 6 7.3584 14.2551 24.6417 1.3534 5.7944 42.6214
#
#
#
# Elastic Compliance Matrix: (Units=1/GPa)
#
#
# Indices 1 2 3 4 5 6 
#
# 1 0.010843 -0.003898 -0.001387 -0.004088 0.002778 -0.000015
# 2 -0.003898 0.013110 -0.005007 0.001113 -0.001363 -0.000667
# 3 -0.001387 -0.005007 0.018032 -0.012573 0.006925 -0.009054
# 4 -0.004088 0.001113 -0.012573 0.039969 -0.010511 0.007763
# 5 0.002778 -0.001363 0.006925 -0.010511 0.027715 -0.007462
# 6 -0.000015 -0.000667 -0.009054 0.007763 -0.007462 0.029690
#
#
# Mechanical properties :
#
#
# Convention : Reuss Voigt Hill
#
# Bulk Modulus (GPa) = 46.72228 74.89583 60.80906
# Shear Modulus (GPa) = 29.92623 37.95491 33.94057
#
# Velocity S-wave (km/s) = 3.81698 4.29860 4.06493
# Velocity P-wave (km/s) = 6.49400 7.81663 7.18581
#
# Compressibility (1/GPa) = 0.02140306
#
# Stress axis : x y z
#
# Youngs Moduli (GPa) = 92.22554 76.27572 55.45559
#
# Poissons Ratio (x) = 0.29730 0.07690
# Poissons Ratio (y) = 0.35946 0.27766
# Poissons Ratio (z) = 0.12789 0.38191
#
# Static dielectric constant tensor:
#      x y z
#    x 1.905100 -0.089830 -0.087120 
#    y -0.089830 1.898990 0.109100 
#    z -0.087120 0.109100 1.853420 
# 
# From -- ./inp_files/184824.got.cif
#   From: 2010.05.17/outbox.cif.g08.bks.cpg/sg2_93_cif.got.tgz:184824.got - 2010.06.03 11:33:40.
