data_PCOD9036592
_publ_section_title
;
Structure prediction by ZEFSAII (Michael W. Deem and Ramdas Pophale) SiO2 
 PCOD9036592
Probable space group: P -1
;
_chemical_formula_sum "Si O2"
_cell_formula_units_Z 16
_cell_length_a 8.664188
_cell_length_b 28.274956
_cell_length_c 9.144887
_cell_angle_alpha 142.931120
_cell_angle_beta 114.976854
_cell_angle_gamma 37.677142
_cell_volume 679.304987
_symmetry_space_group_name_H-M "P -1"
_symmetry_group_IT_number 2
_symmetry_cell_setting 'triclinic'
loop_
_space_group_symop_operation_xyz
x,y,z
-x,-y,-z
loop_
_atom_site_type_symbol
_atom_site_label
_atom_site_fract_x
_atom_site_fract_y
_atom_site_fract_z
Si Si1 0.157932 0.873914 0.950600
Si Si2 0.513028 0.472334 0.106587
Si Si3 0.635453 0.154647 0.755309
Si Si4 0.613418 0.646988 0.321627
Si Si5 0.480204 0.163163 0.409587
Si Si6 0.110998 0.469834 0.304561
Si Si7 0.954622 0.787260 0.789650
Si Si8 0.151720 0.631074 0.743069
O O1 0.343491 0.772313 0.636186
O O2 0.041338 0.841848 0.915213
O O3 0.375864 0.843258 0.067093
O O4 0.835452 0.038703 0.197789
O O5 0.812690 0.378597 0.091592
O O6 0.230853 0.628567 0.445386
O O7 0.500000 0.500000 0.000000
O O8 0.474519 0.393758 0.910943
O O9 0.479963 0.161586 0.583189
O O10 0.458712 0.305111 0.024847
O O11 0.000000 0.000000 0.500000
O O12 0.681898 0.697510 0.377682
O O13 0.889971 0.513999 0.209210
O O14 0.340728 0.138996 0.221437
O O15 0.053099 0.583313 0.535705
O O16 0.000000 0.500000 0.500000
O O17 0.959037 0.770157 0.923358
O O18 0.500000 0.500000 0.500000
#
# Coordination Sequence:
#
# PCOD9036592 Si02
#       8
#     2   2   2   2   2   2   2   2
#     4  11  23  45  64  87 133 179 205 257 337 387
#     4  11  22  39  62  94 127 162 206 269 329 377
#     4  10  23  41  64  94 128 169 212 260 324 384
#     4  12  24  40  65  97 130 163 216 272 319 380
#     4  11  25  41  65  95 126 168 221 269 312 384
#     4  12  22  40  68  95 128 168 213 266 320 381
#     4  11  22  42  63  92 125 165 219 260 320 385
#     4  10  23  38  62  94 126 164 210 266 323 378
#
# _framework density 23.553484000000001
#
# number of rings (size 3 to 8) (size 9 to 14) (size 15 to 20)
#    0.000    1.000    3.750    3.750    5.250    1.000 
#    0.000    0.000    0.000    0.750    0.000    0.000 
#    0.000    0.000    0.000    0.000    0.000    0.000 
#
# Total GULP energy -89319.173195 kJ/mol
# GULP energy per Si atom -5582.448325 kJ/mol
# Density = 2.349988 g / cm^3
# Si number density = 23.553484 Si / 1000 Ang^3
#
#
#
# Elastic Constant Matrix: (Units=GPa)
#
#
# Indices 1 2 3 4 5 6 
#
# 1 50.9931 19.2913 5.1107 -1.7830 7.9922 13.8159
# 2 19.2913 160.9987 27.6523 -7.5051 0.4110 -4.3385
# 3 5.1107 27.6523 89.7531 1.0735 -5.4071 6.2830
# 4 -1.7830 -7.5051 1.0735 33.0015 -2.7120 6.9836
# 5 7.9922 0.4110 -5.4071 -2.7120 25.9249 -0.5576
# 6 13.8159 -4.3385 6.2830 6.9836 -0.5576 33.7760
#
#
#
# Elastic Compliance Matrix: (Units=1/GPa)
#
#
# Indices 1 2 3 4 5 6 
#
# 1 0.025182 -0.003162 -0.000164 0.002402 -0.007739 -0.011301
# 2 -0.003162 0.007070 -0.002144 0.001048 0.000577 0.002393
# 3 -0.000164 -0.002144 0.012134 -0.000177 0.002545 -0.002387
# 4 0.002402 0.001048 -0.000177 0.032460 0.002441 -0.007486
# 5 -0.007739 0.000577 0.002545 0.002441 0.041799 0.002952
# 6 -0.011301 0.002393 -0.002387 -0.007486 0.002952 0.036577
#
#
# Mechanical properties :
#
#
# Convention : Reuss Voigt Hill
#
# Bulk Modulus (GPa) = 29.89751 45.09485 37.49618
# Shear Modulus (GPa) = 28.19916 35.18653 31.69284
#
# Velocity S-wave (km/s) = 3.46387 3.86929 3.67218
# Velocity P-wave (km/s) = 5.35900 6.25693 5.82529
#
# Compressibility (1/GPa) = 0.03344760
#
# Stress axis : x y z
#
# Youngs Moduli (GPa) = 39.71116 141.44004 82.41342
#
# Poissons Ratio (x) = 0.44724 0.01348
# Poissons Ratio (y) = 0.12557 0.17665
# Poissons Ratio (z) = 0.00650 0.30318
#
# Static dielectric constant tensor:
#      x y z
#    x 1.876910 0.111320 -0.051720 
#    y 0.111320 1.833230 0.044090 
#    z -0.051720 0.044090 1.866720 
# 
# From -- ./inp_files/227770.got.cif
#   From: 2010.05.17/outbox.cif.g08.bks.cpg/sg2_114_cif.got.tgz:227770.got - 2010.06.03 11:33:40.
