data_PCOD9036687
_publ_section_title
;
Structure prediction by ZEFSAII (Michael W. Deem and Ramdas Pophale) SiO2 
 PCOD9036687
Probable space group: P -1
;
_chemical_formula_sum "Si O2"
_cell_formula_units_Z 12
_cell_length_a 10.971036
_cell_length_b 10.700130
_cell_length_c 15.367925
_cell_angle_alpha 112.646369
_cell_angle_beta 52.007789
_cell_angle_gamma 152.915007
_cell_volume 576.700351
_symmetry_space_group_name_H-M "P -1"
_symmetry_group_IT_number 2
_symmetry_cell_setting 'triclinic'
loop_
_space_group_symop_operation_xyz
x,y,z
-x,-y,-z
loop_
_atom_site_type_symbol
_atom_site_label
_atom_site_fract_x
_atom_site_fract_y
_atom_site_fract_z
Si Si1 0.670190 0.246964 0.141716
Si Si2 0.582977 0.695525 0.826094
Si Si3 0.296139 0.203659 0.748586
Si Si4 0.723549 0.311594 0.494998
Si Si5 0.168673 0.332586 0.076638
Si Si6 0.080756 0.565026 0.224946
O O1 0.450755 0.205894 0.197485
O O2 0.813605 0.371909 0.210088
O O3 0.430739 0.926004 0.150425
O O4 0.000000 0.500000 0.000000
O O5 0.551909 0.526493 0.747924
O O6 0.247070 0.431957 0.969092
O O7 0.941844 0.983547 0.800841
O O8 0.480791 0.244249 0.613787
O O9 0.168932 0.019922 0.840851
O O10 0.000000 0.500000 0.500000
O O11 0.917437 0.487737 0.365919
O O12 0.500000 0.000000 0.500000
O O13 0.157288 0.464636 0.168705
O O14 0.500000 0.500000 0.000000
#
# Coordination Sequence:
#
# PCOD9036687 Si02
#       6
#     2   2   2   2   2   2
#     4  12  26  44  69  97 140 179 224 273 330 402
#     4  11  24  42  66  97 135 177 219 273 336 394
#     4  11  24  43  66  99 134 174 220 276 338 392
#     4  12  25  45  70  98 138 176 222 276 333 402
#     4  10  23  38  68 100 138 164 220 276 348 388
#     4  12  26  44  68 104 131 177 231 271 331 403
#
# _framework density 20.808035
#
# number of rings (size 3 to 8) (size 9 to 14) (size 15 to 20)
#    0.000    0.667    3.333    4.000    7.000    0.000 
#    0.000    5.000    0.000    0.000    0.000    0.000 
#    0.000    0.000    0.000    0.000    0.000    0.000 
#
# Total GULP energy -67167.979597 kJ/mol
# GULP energy per Si atom -5597.331633 kJ/mol
# Density = 2.076068 g / cm^3
# Si number density = 20.808035 Si / 1000 Ang^3
#
#
#
# Elastic Constant Matrix: (Units=GPa)
#
#
# Indices 1 2 3 4 5 6 
#
# 1 94.3183 11.1639 10.6359 -6.0417 10.0881 17.9556
# 2 11.1639 78.0787 -34.4951 -3.1133 6.6050 10.8759
# 3 10.6359 -34.4951 66.8325 11.5234 -9.8376 7.2714
# 4 -6.0417 -3.1133 11.5234 28.7009 0.7888 6.4380
# 5 10.0881 6.6050 -9.8376 0.7888 16.7841 5.2155
# 6 17.9556 10.8759 7.2714 6.4380 5.2155 37.6075
#
#
#
# Elastic Compliance Matrix: (Units=1/GPa)
#
#
# Indices 1 2 3 4 5 6 
#
# 1 0.013802 -0.002783 -0.005580 0.006100 -0.009375 -0.004450
# 2 -0.002783 0.018955 0.011732 -0.001859 0.003212 -0.006549
# 3 -0.005580 0.011732 0.026780 -0.009638 0.016939 -0.006606
# 4 0.006100 -0.001859 -0.009638 0.041470 -0.008536 -0.006427
# 5 -0.009375 0.003212 0.016939 -0.008536 0.077063 -0.008954
# 6 -0.004450 -0.006549 -0.006606 -0.006427 -0.008954 0.034228
#
#
# Mechanical properties :
#
#
# Convention : Reuss Voigt Hill
#
# Bulk Modulus (GPa) = 15.08840 23.75988 19.42414
# Shear Modulus (GPa) = 21.96339 33.41348 27.68843
#
# Velocity S-wave (km/s) = 3.25241 4.01159 3.65178
# Velocity P-wave (km/s) = 4.62290 5.73590 5.20921
#
# Compressibility (1/GPa) = 0.06627606
#
# Stress axis : x y z
#
# Youngs Moduli (GPa) = 72.45518 52.75629 37.34092
#
# Poissons Ratio (x) = 0.14680 0.20837
# Poissons Ratio (y) = 0.20161 -0.43809
# Poissons Ratio (z) = 0.40431 -0.61895
#
# Static dielectric constant tensor:
#      x y z
#    x 1.768360 0.008090 0.005780 
#    y 0.008090 1.724030 -0.002850 
#    z 0.005780 -0.002850 1.742010 
# 
# From -- ./inp_files/36537.got.cif
#   From: 2010.05.17/outbox.cif.g08.bks.cpg/sg2_19_cif.got.tgz:36537.got - 2010.06.03 11:33:40.
