data_PCOD9036638
_publ_section_title
;
Structure prediction by ZEFSAII (Michael W. Deem and Ramdas Pophale) SiO2 
 PCOD9036638
Probable space group: P -1
;
_chemical_formula_sum "Si O2"
_cell_formula_units_Z 16
_cell_length_a 9.940201
_cell_length_b 6.937795
_cell_length_c 12.301691
_cell_angle_alpha 128.712675
_cell_angle_beta 95.445436
_cell_angle_gamma 77.710914
_cell_volume 645.989038
_symmetry_space_group_name_H-M "P -1"
_symmetry_group_IT_number 2
_symmetry_cell_setting 'triclinic'
loop_
_space_group_symop_operation_xyz
x,y,z
-x,-y,-z
loop_
_atom_site_type_symbol
_atom_site_label
_atom_site_fract_x
_atom_site_fract_y
_atom_site_fract_z
Si Si1 0.246512 0.841959 0.325896
Si Si2 0.905930 0.374060 0.026155
Si Si3 0.379688 0.289353 0.120451
Si Si4 0.167610 0.147661 0.222667
Si Si5 0.353237 0.167686 0.836527
Si Si6 0.998248 0.622427 0.317646
Si Si7 0.414641 0.610636 0.639944
Si Si8 0.677402 0.823700 0.394891
O O1 0.303792 0.571107 0.185858
O O2 0.095775 0.803872 0.342953
O O3 0.242104 0.048929 0.305959
O O4 0.343544 0.908495 0.452943
O O5 0.762844 0.577652 0.086330
O O6 0.974863 0.398170 0.155495
O O7 0.000000 0.500000 0.000000
O O8 0.903121 0.090512 0.893699
O O9 0.270246 0.162132 0.133872
O O10 0.486089 0.331745 0.235580
O O11 0.423377 0.174971 0.963710
O O12 0.085982 0.432356 0.343560
O O13 0.411965 0.180040 0.722972
O O14 0.315120 0.889506 0.722246
O O15 0.843883 0.772048 0.372968
O O16 0.500000 0.500000 0.500000
O O17 0.341228 0.399438 0.606850
#
# Coordination Sequence:
#
# PCOD9036638 Si02
#       8
#     2   2   2   2   2   2   2   2
#     4  11  22  44  67 101 141 182 225 274 344 409
#     4  11  20  40  67 105 142 177 217 281 342 410
#     4  11  25  45  71 102 137 176 233 285 333 406
#     4  11  22  39  71 101 143 181 217 276 354 397
#     4  11  26  46  69 104 136 176 231 286 338 405
#     4  10  23  38  65 103 139 181 225 276 333 420
#     4  12  28  49  71 100 135 182 236 286 338 404
#     4  11  27  44  71  97 140 185 226 282 346 401
#
# _framework density 24.768222000000002
#
# number of rings (size 3 to 8) (size 9 to 14) (size 15 to 20)
#    0.000    1.000    2.500    3.375    5.250    5.000 
#    0.000    0.000    0.000    0.000    0.000    0.000 
#    0.000    0.000    0.000    0.000    0.000    0.000 
#
# Total GULP energy -89223.995703 kJ/mol
# GULP energy per Si atom -5576.499731 kJ/mol
# Density = 2.471185 g / cm^3
# Si number density = 24.768222 Si / 1000 Ang^3
#
#
#
# Elastic Constant Matrix: (Units=GPa)
#
#
# Indices 1 2 3 4 5 6 
#
# 1 40.6163 8.6946 30.4939 -1.8857 0.0124 -1.6788
# 2 8.6946 134.2921 41.9099 -5.6508 -2.4735 4.0862
# 3 30.4939 41.9099 150.6837 -10.4316 7.1158 17.3085
# 4 -1.8857 -5.6508 -10.4316 39.1261 -6.1851 6.8727
# 5 0.0124 -2.4735 7.1158 -6.1851 27.8446 8.3025
# 6 -1.6788 4.0862 17.3085 6.8727 8.3025 21.2884
#
#
#
# Elastic Compliance Matrix: (Units=1/GPa)
#
#
# Indices 1 2 3 4 5 6 
#
# 1 0.030463 -0.000110 -0.007362 -0.002500 -0.001635 0.009854
# 2 -0.000110 0.008237 -0.002185 0.001028 0.001767 -0.000834
# 3 -0.007362 -0.002185 0.010118 0.003981 0.001122 -0.010110
# 4 -0.002500 0.001028 0.003981 0.031713 0.011604 -0.018395
# 5 -0.001635 0.001767 0.001122 0.011604 0.045140 -0.022732
# 6 0.009854 -0.000834 -0.010110 -0.018395 -0.022732 0.070935
#
#
# Mechanical properties :
#
#
# Convention : Reuss Voigt Hill
#
# Bulk Modulus (GPa) = 33.89417 54.19876 44.04647
# Shear Modulus (GPa) = 22.14793 33.95139 28.04966
#
# Velocity S-wave (km/s) = 2.99357 3.70640 3.36889
# Velocity P-wave (km/s) = 5.06586 6.34401 5.74061
#
# Compressibility (1/GPa) = 0.02950360
#
# Stress axis : x y z
#
# Youngs Moduli (GPa) = 32.82649 121.40822 98.83441
#
# Poissons Ratio (x) = 0.01335 0.72762
# Poissons Ratio (y) = 0.00361 0.21597
# Poissons Ratio (z) = 0.24167 0.26530
#
# Static dielectric constant tensor:
#      x y z
#    x 2.158150 -0.124510 0.078580 
#    y -0.124510 2.022890 -0.095970 
#    z 0.078580 -0.095970 2.070470 
# 
# From -- ./inp_files/411255.got.cif
#   From: 2010.05.17/outbox.cif.g08.bks.cpg/sg2_206_cif.got.tgz:411255.got - 2010.06.03 11:33:40.
