data_PCOD9036589
_publ_section_title
;
Structure prediction by ZEFSAII (Michael W. Deem and Ramdas Pophale) SiO2 
 PCOD9036589
Probable space group: P -1
;
_chemical_formula_sum "Si O2"
_cell_formula_units_Z 15
_cell_length_a 5.105142
_cell_length_b 5.212509
_cell_length_c 23.863904
_cell_angle_alpha 78.668439
_cell_angle_beta 90.782070
_cell_angle_gamma 86.023666
_cell_volume 620.913417
_symmetry_space_group_name_H-M "P -1"
_symmetry_group_IT_number 2
_symmetry_cell_setting 'triclinic'
loop_
_space_group_symop_operation_xyz
x,y,z
-x,-y,-z
loop_
_atom_site_type_symbol
_atom_site_label
_atom_site_fract_x
_atom_site_fract_y
_atom_site_fract_z
Si Si1 0.965328 0.935113 0.769151
Si Si2 0.000000 0.000000 0.000000
Si Si3 0.521135 0.669156 0.049376
Si Si4 0.463609 0.619892 0.266683
Si Si5 0.455523 0.929540 0.566692
Si Si6 0.248435 0.372822 0.622714
Si Si7 0.839343 0.760771 0.658953
Si Si8 0.534323 0.336736 0.174930
O O1 0.004585 0.859103 0.706796
O O2 0.750891 0.759848 0.806052
O O3 0.237462 0.892053 0.804472
O O4 0.808877 0.218135 0.754896
O O5 0.252906 0.856357 0.042387
O O6 0.215311 0.176895 0.960609
O O7 0.536549 0.465754 0.109141
O O8 0.500000 0.500000 0.000000
O O9 0.606161 0.734160 0.315355
O O10 0.405408 0.338729 0.303675
O O11 0.603153 0.554459 0.211682
O O12 0.254953 0.142405 0.587426
O O13 0.500000 0.000000 0.500000
O O14 0.378232 0.629264 0.586014
O O15 0.719833 0.951252 0.602960
O O16 0.976648 0.509717 0.638699
#
# Coordination Sequence:
#
# PCOD9036589 Si02
#       8
#     2   1   2   2   2   2   2   2
#     4  11  23  40  66  95 136 177 231 290 366 418
#     4  10  24  44  74  96 138 196 238 288 368 430
#     4  11  24  45  70 102 144 186 246 297 368 430
#     4  10  23  38  62  93 131 173 225 285 353 429
#     4  11  25  42  63  97 132 177 237 293 358 432
#     4  11  23  41  68  89 134 176 229 293 357 427
#     4  10  23  38  63  92 128 176 226 288 359 426
#     4  11  25  41  64 103 134 179 235 295 348 441
#
# _framework density 24.157955000000001
#
# number of rings (size 3 to 8) (size 9 to 14) (size 15 to 20)
#    0.000    1.333    2.667    1.600    3.733    4.267 
#    0.000    0.000    0.000    0.000    0.000    0.000 
#    0.000    0.000    0.000    0.000    0.000    0.000 
#
# Total GULP energy -83586.895592 kJ/mol
# GULP energy per Si atom -5572.459706 kJ/mol
# Density = 2.410297 g / cm^3
# Si number density = 24.157955 Si / 1000 Ang^3
#
#
#
# Elastic Constant Matrix: (Units=GPa)
#
#
# Indices 1 2 3 4 5 6 
#
# 1 146.4873 38.4949 36.9192 -4.7058 -12.2389 1.8439
# 2 38.4949 93.1362 39.8067 -15.2622 -0.2894 -7.3235
# 3 36.9192 39.8067 199.8183 -21.6428 -2.4386 -1.6036
# 4 -4.7058 -15.2622 -21.6428 21.5554 -4.6565 0.1429
# 5 -12.2389 -0.2894 -2.4386 -4.6565 14.5985 -5.2256
# 6 1.8439 -7.3235 -1.6036 0.1429 -5.2256 40.4086
#
#
#
# Elastic Compliance Matrix: (Units=1/GPa)
#
#
# Indices 1 2 3 4 5 6 
#
# 1 0.008432 -0.003059 -0.000827 0.000348 0.006955 -0.000074
# 2 -0.003059 0.014137 -0.001323 0.008235 0.001111 0.002764
# 3 -0.000827 -0.001323 0.006033 0.005395 0.002114 0.000292
# 4 0.000348 0.008235 0.005395 0.062638 0.022923 0.004434
# 5 0.006955 0.001111 0.002114 0.022923 0.085956 0.011003
# 6 -0.000074 0.002764 0.000292 0.004434 0.011003 0.026670
#
#
# Mechanical properties :
#
#
# Convention : Reuss Voigt Hill
#
# Bulk Modulus (GPa) = 54.99209 74.43149 64.71179
# Shear Modulus (GPa) = 22.69151 36.92722 29.80936
#
# Velocity S-wave (km/s) = 3.06812 3.91394 3.51655
# Velocity P-wave (km/s) = 5.94677 7.16257 6.58280
#
# Compressibility (1/GPa) = 0.01818443
#
# Stress axis : x y z
#
# Youngs Moduli (GPa) = 118.59749 70.73572 165.74370
#
# Poissons Ratio (x) = 0.21638 0.13699
# Poissons Ratio (y) = 0.36279 0.21936
# Poissons Ratio (z) = 0.09803 0.09362
#
# Static dielectric constant tensor:
#      x y z
#    x 2.030150 0.064090 -0.006320 
#    y 0.064090 2.039940 0.016330 
#    z -0.006320 0.016330 1.896070 
# 
# From -- ./inp_files/11966.got.cif
#   From: 2010.05.17/outbox.cif.g08.bks.cpg/sg2_6_cif.got.tgz:11966.got - 2010.06.03 11:33:40.
