data_PCOD9036427
_publ_section_title
;
Structure prediction by ZEFSAII (Michael W. Deem and Ramdas Pophale) SiO2 
 PCOD9036427
Probable space group: P -1
;
_chemical_formula_sum "Si O2"
_cell_formula_units_Z 16
_cell_length_a 16.595371
_cell_length_b 7.984741
_cell_length_c 10.953320
_cell_angle_alpha 67.965187
_cell_angle_beta 65.355880
_cell_angle_gamma 31.499333
_cell_volume 688.687809
_symmetry_space_group_name_H-M "P -1"
_symmetry_group_IT_number 2
_symmetry_cell_setting 'triclinic'
loop_
_space_group_symop_operation_xyz
x,y,z
-x,-y,-z
loop_
_atom_site_type_symbol
_atom_site_label
_atom_site_fract_x
_atom_site_fract_y
_atom_site_fract_z
Si Si1 0.652858 0.121636 0.969622
Si Si2 0.249599 0.559090 0.571502
Si Si3 0.856145 0.041079 0.005805
Si Si4 0.443049 0.057894 0.773410
Si Si5 0.769911 0.598479 0.603766
Si Si6 0.552586 0.582565 0.181470
Si Si7 0.977627 0.897499 0.232369
Si Si8 0.438080 0.750662 0.566208
O O1 0.805943 0.958551 0.973895
O O2 0.625431 0.971273 0.083661
O O3 0.500000 0.500000 0.000000
O O4 0.620561 0.153244 0.837766
O O5 0.326056 0.261223 0.677207
O O6 0.160069 0.633654 0.490070
O O7 0.406081 0.395085 0.469499
O O8 0.157307 0.833123 0.655093
O O9 0.686978 0.413741 0.046417
O O10 0.959218 0.011896 0.875365
O O11 0.932107 0.881867 0.136077
O O12 0.445868 0.256432 0.769845
O O13 0.623944 0.727051 0.713944
O O14 0.889753 0.426687 0.684677
O O15 0.694997 0.903868 0.507291
O O16 0.605837 0.298492 0.277232
O O17 0.500000 0.500000 0.500000
#
# Coordination Sequence:
#
# PCOD9036427 Si02
#       8
#     2   2   2   2   2   2   2   2
#     4  10  23  36  68 103 124 169 225 285 322 391
#     4  11  24  41  68  96 138 182 222 279 327 407
#     4  10  23  43  71  92 138 179 218 285 334 396
#     4  11  21  43  69 100 134 170 226 282 342 388
#     4  11  24  39  71 101 130 186 221 274 335 408
#     4  11  21  41  70 100 137 167 224 285 339 392
#     4  11  23  47  66  96 142 185 222 267 348 405
#     4  11  21  41  68 102 134 170 224 282 336 389
#
# _framework density 23.232589000000001
#
# number of rings (size 3 to 8) (size 9 to 14) (size 15 to 20)
#    0.000    1.250    3.750    3.750    8.750    0.000 
#    0.000    3.125    2.750    0.000    0.000    0.000 
#    0.000    0.000    0.000    0.000    0.000    0.000 
#
# Total GULP energy -89311.040181 kJ/mol
# GULP energy per Si atom -5581.940011 kJ/mol
# Density = 2.317971 g / cm^3
# Si number density = 23.232589 Si / 1000 Ang^3
#
#
#
# Elastic Constant Matrix: (Units=GPa)
#
#
# Indices 1 2 3 4 5 6 
#
# 1 127.6174 34.0838 55.2572 -37.7831 24.7497 -21.3176
# 2 34.0838 68.3354 25.4246 -9.4569 6.1278 -10.6934
# 3 55.2572 25.4246 90.7625 -23.6865 -5.5382 -9.2145
# 4 -37.7831 -9.4569 -23.6865 33.5994 -1.6720 4.2859
# 5 24.7497 6.1278 -5.5382 -1.6720 44.0960 -7.0207
# 6 -21.3176 -10.6934 -9.2145 4.2859 -7.0207 26.6614
#
#
#
# Elastic Compliance Matrix: (Units=1/GPa)
#
#
# Indices 1 2 3 4 5 6 
#
# 1 0.018610 -0.002961 -0.006726 0.014040 -0.009285 0.006666
# 2 -0.002961 0.017758 -0.003105 -0.001021 -0.000649 0.003675
# 3 -0.006726 -0.003105 0.017533 0.004188 0.006650 0.000514
# 4 0.014040 -0.001021 0.004188 0.047547 -0.004878 0.003336
# 5 -0.009285 -0.000649 0.006650 -0.004878 0.029118 0.003065
# 6 0.006666 0.003675 0.000514 0.003336 0.003065 0.044760
#
#
# Mechanical properties :
#
#
# Convention : Reuss Voigt Hill
#
# Bulk Modulus (GPa) = 35.31452 57.36072 46.33762
# Shear Modulus (GPa) = 23.77004 32.33466 28.05235
#
# Velocity S-wave (km/s) = 3.20212 3.73470 3.47862
# Velocity P-wave (km/s) = 5.37632 6.58337 6.01022
#
# Compressibility (1/GPa) = 0.02831696
#
# Stress axis : x y z
#
# Youngs Moduli (GPa) = 53.73452 56.31386 57.03374
#
# Poissons Ratio (x) = 0.16674 0.38363
# Poissons Ratio (y) = 0.15910 0.17707
# Poissons Ratio (z) = 0.36144 0.17484
#
# Static dielectric constant tensor:
#      x y z
#    x 1.935000 -0.015690 0.073120 
#    y -0.015690 1.892470 -0.006110 
#    z 0.073120 -0.006110 1.937850 
# 
# From -- ./inp_files/461090.got.cif
#   From: 2010.05.17/outbox.cif.g08.bks.cpg/sg2_231_cif.got.tgz:461090.got - 2010.06.03 11:33:40.
