data_PCOD9036556
_publ_section_title
;
Structure prediction by ZEFSAII (Michael W. Deem and Ramdas Pophale) SiO2 
 PCOD9036556
Probable space group: P -1
;
_chemical_formula_sum "Si O2"
_cell_formula_units_Z 16
_cell_length_a 7.304207
_cell_length_b 8.018678
_cell_length_c 11.948037
_cell_angle_alpha 86.432957
_cell_angle_beta 112.820426
_cell_angle_gamma 69.705725
_cell_volume 589.106448
_symmetry_space_group_name_H-M "P -1"
_symmetry_group_IT_number 2
_symmetry_cell_setting 'triclinic'
loop_
_space_group_symop_operation_xyz
x,y,z
-x,-y,-z
loop_
_atom_site_type_symbol
_atom_site_label
_atom_site_fract_x
_atom_site_fract_y
_atom_site_fract_z
Si Si1 0.478657 0.736303 0.180398
Si Si2 0.784032 0.726317 0.080600
Si Si3 0.181004 0.938875 0.809517
Si Si4 0.934300 0.601218 0.697245
Si Si5 0.842961 0.855061 0.856111
Si Si6 0.682843 0.776303 0.438254
Si Si7 0.237569 0.894258 0.455060
Si Si8 0.361153 0.647190 0.706388
O O1 0.571649 0.702007 0.077994
O O2 0.673489 0.740053 0.307534
O O3 0.453864 0.555171 0.226593
O O4 0.292065 0.933986 0.150892
O O5 0.752729 0.920581 0.115199
O O6 0.984501 0.571095 0.196757
O O7 0.834945 0.733788 0.963223
O O8 0.980189 0.048223 0.672110
O O9 0.080953 0.843341 0.880148
O O10 0.373988 0.802108 0.784534
O O11 0.783661 0.772630 0.732195
O O12 0.812145 0.602609 0.553883
O O13 0.145347 0.632795 0.706587
O O14 0.437222 0.844568 0.419954
O O15 0.772011 0.928736 0.484482
O O16 0.303337 0.729432 0.565832
#
# Coordination Sequence:
#
# PCOD9036556 Si02
#       8
#     2   2   2   2   2   2   2   2
#     4  11  24  40  63  94 126 159 209 249 307 368
#     4  11  25  39  67  91 120 169 209 250 303 360
#     4  11  22  41  60  90 126 162 208 249 305 360
#     4  10  23  41  65  94 123 157 210 254 303 367
#     4  11  21  46  63  87 126 166 207 256 298 358
#     4  11  21  39  63  91 126 158 202 251 316 370
#     4  11  21  38  62  90 125 166 194 252 316 364
#     4  10  23  38  60  93 129 159 196 256 307 365
#
# _framework density 27.159776999999998
#
# number of rings (size 3 to 8) (size 9 to 14) (size 15 to 20)
#    0.000    1.250    3.750    3.000    3.500    2.500 
#    0.000    0.625    0.000    0.000    0.000    0.000 
#    0.000    0.000    0.000    0.000    0.000    0.000 
#
# Total GULP energy -89677.421057 kJ/mol
# GULP energy per Si atom -5604.838816 kJ/mol
# Density = 2.709796 g / cm^3
# Si number density = 27.159777 Si / 1000 Ang^3
#
#
#
# Elastic Constant Matrix: (Units=GPa)
#
#
# Indices 1 2 3 4 5 6 
#
# 1 86.6182 7.2817 38.3251 -9.2179 -15.5357 -9.6844
# 2 7.2817 107.8327 27.7554 -17.1574 -5.9503 -14.5237
# 3 38.3251 27.7554 150.7829 -22.1708 -34.7977 5.6071
# 4 -9.2179 -17.1574 -22.1708 50.2660 0.9624 2.1468
# 5 -15.5357 -5.9503 -34.7977 0.9624 44.1468 0.0767
# 6 -9.6844 -14.5237 5.6071 2.1468 0.0767 32.0724
#
#
#
# Elastic Compliance Matrix: (Units=1/GPa)
#
#
# Indices 1 2 3 4 5 6 
#
# 1 0.014019 0.000885 -0.003152 0.001216 0.002532 0.005097
# 2 0.000885 0.010897 -0.001990 0.002772 0.000142 0.005364
# 3 -0.003152 -0.001990 0.009864 0.003135 0.006336 -0.003802
# 4 0.001216 0.002772 0.003135 0.022411 0.002785 -0.000432
# 5 0.002532 0.000142 0.006336 0.002785 0.028496 -0.000533
# 6 0.005097 0.005364 -0.003802 -0.000432 -0.000533 0.035843
#
#
# Mechanical properties :
#
#
# Convention : Reuss Voigt Hill
#
# Bulk Modulus (GPa) = 38.07340 54.66200 46.36770
# Shear Modulus (GPa) = 36.02283 43.42181 39.72232
#
# Velocity S-wave (km/s) = 3.64583 4.00278 3.82847
# Velocity P-wave (km/s) = 5.63662 6.44459 6.05410
#
# Compressibility (1/GPa) = 0.02626506
#
# Stress axis : x y z
#
# Youngs Moduli (GPa) = 71.33232 91.76449 101.37811
#
# Poissons Ratio (x) = -0.08117 0.31958
# Poissons Ratio (y) = -0.06309 0.20173
# Poissons Ratio (z) = 0.22486 0.18260
#
# Static dielectric constant tensor:
#      x y z
#    x 2.141270 0.030360 0.038370 
#    y 0.030360 2.201660 -0.040640 
#    z 0.038370 -0.040640 2.119230 
# 
# From -- ./inp_files/382022.got.cif
#   From: 2010.05.17/outbox.cif.g08.bks.cpg/sg2_192_cif.got.tgz:382022.got - 2010.06.03 11:33:40.
