data_PCOD9036006
_publ_section_title
;
Structure prediction by ZEFSAII (Michael W. Deem and Ramdas Pophale) SiO2 
 PCOD9036006
Probable space group: P -1
;
_chemical_formula_sum "Si O2"
_cell_formula_units_Z 16
_cell_length_a 8.005921
_cell_length_b 6.164465
_cell_length_c 17.153334
_cell_angle_alpha 91.467310
_cell_angle_beta 127.460646
_cell_angle_gamma 94.497065
_cell_volume 667.022592
_symmetry_space_group_name_H-M "P -1"
_symmetry_group_IT_number 2
_symmetry_cell_setting 'triclinic'
loop_
_space_group_symop_operation_xyz
x,y,z
-x,-y,-z
loop_
_atom_site_type_symbol
_atom_site_label
_atom_site_fract_x
_atom_site_fract_y
_atom_site_fract_z
Si Si1 0.579118 0.206939 0.758196
Si Si2 0.136993 0.466362 0.424909
Si Si3 0.705537 0.781091 0.085737
Si Si4 0.142538 0.216677 0.568804
Si Si5 0.336497 0.858744 0.396249
Si Si6 0.965104 0.125588 0.263669
Si Si7 0.706545 0.141180 0.960327
Si Si8 0.040696 0.434720 0.143134
O O1 0.327185 0.206397 0.683835
O O2 0.617571 0.115509 0.682368
O O3 0.654765 0.091585 0.855378
O O4 0.729764 0.437303 0.807046
O O5 0.244796 0.328331 0.519467
O O6 0.288637 0.608088 0.408788
O O7 0.954237 0.307436 0.327939
O O8 0.023316 0.637346 0.442284
O O9 0.466348 0.713825 0.047531
O O10 0.879771 0.611419 0.126386
O O11 0.776152 0.967822 0.172014
O O12 0.700603 0.918301 0.005768
O O13 0.000000 0.000000 0.500000
O O14 0.500000 0.000000 0.500000
O O15 0.120734 0.968314 0.342585
O O16 0.056679 0.266826 0.216748
O O17 0.929066 0.290197 0.039864
#
# Coordination Sequence:
#
# PCOD9036006 Si02
#       8
#     2   2   2   2   2   2   2   2
#     4  12  25  44  69 103 142 178 229 292 353 408
#     4  11  24  46  71  97 139 184 233 293 339 426
#     4  10  22  47  69 101 135 185 233 281 353 420
#     4  11  27  47  68 105 140 180 239 290 352 414
#     4  12  26  45  70 101 141 188 233 287 352 423
#     4  11  22  41  74  96 137 182 233 278 352 417
#     4  10  25  43  71 100 139 177 237 293 343 423
#     4  11  23  45  69 101 137 183 231 287 351 428
#
# _framework density 23.987195
#
# number of rings (size 3 to 8) (size 9 to 14) (size 15 to 20)
#    0.000    1.000    2.500    3.000    7.000    1.500 
#    2.250    0.000    0.000    0.000    0.000    0.000 
#    0.000    0.000    0.000    0.000    0.000    0.000 
#
# Total GULP energy -89445.323789 kJ/mol
# GULP energy per Si atom -5590.332737 kJ/mol
# Density = 2.393260 g / cm^3
# Si number density = 23.987195 Si / 1000 Ang^3
#
#
#
# Elastic Constant Matrix: (Units=GPa)
#
#
# Indices 1 2 3 4 5 6 
#
# 1 55.7768 21.2485 26.3483 0.6402 -5.5112 12.6451
# 2 21.2485 81.4899 56.9011 -7.6663 -2.4478 11.0311
# 3 26.3483 56.9011 198.1353 7.7010 -13.4870 19.2764
# 4 0.6402 -7.6663 7.7010 43.8713 10.2881 -4.4609
# 5 -5.5112 -2.4478 -13.4870 10.2881 49.9376 3.1569
# 6 12.6451 11.0311 19.2764 -4.4609 3.1569 30.6156
#
#
#
# Elastic Compliance Matrix: (Units=1/GPa)
#
#
# Indices 1 2 3 4 5 6 
#
# 1 0.021986 -0.004405 -0.000595 -0.002496 0.003057 -0.007798
# 2 -0.004405 0.016999 -0.004504 0.004149 -0.001680 -0.000692
# 3 -0.000595 -0.004504 0.007009 -0.002900 0.002407 -0.003215
# 4 -0.002496 0.004149 -0.002900 0.026215 -0.006627 0.005865
# 5 0.003057 -0.001680 0.002407 -0.006627 0.022641 -0.005473
# 6 -0.007798 -0.000692 -0.003215 0.005865 -0.005473 0.039577
#
#
# Mechanical properties :
#
#
# Convention : Reuss Voigt Hill
#
# Bulk Modulus (GPa) = 37.05651 60.48864 48.77257
# Shear Modulus (GPa) = 30.78236 40.27849 35.53043
#
# Velocity S-wave (km/s) = 3.58618 4.10221 3.85284
# Velocity P-wave (km/s) = 5.71223 6.90719 6.33794
#
# Compressibility (1/GPa) = 0.02698581
#
# Stress axis : x y z
#
# Youngs Moduli (GPa) = 45.48280 58.82799 142.67056
#
# Poissons Ratio (x) = 0.25913 0.08489
# Poissons Ratio (y) = 0.20034 0.64264
# Poissons Ratio (z) = 0.02706 0.26498
#
# Static dielectric constant tensor:
#      x y z
#    x 2.017550 0.018240 0.006590 
#    y 0.018240 1.923080 -0.005010 
#    z 0.006590 -0.005010 1.906460 
# 
# From -- ./inp_files/39686.got.cif
#   From: 2010.05.17/outbox.cif.g08.bks.cpg/sg2_20_cif.got.tgz:39686.got - 2010.06.03 11:33:40.
