data_PCOD9036949
_publ_section_title
;
Structure prediction by ZEFSAII (Michael W. Deem and Ramdas Pophale) SiO2 
 PCOD9036949
Probable space group: P -1
;
_chemical_formula_sum "Si O2"
_cell_formula_units_Z 16
_cell_length_a 5.382134
_cell_length_b 17.876058
_cell_length_c 10.264029
_cell_angle_alpha 51.708799
_cell_angle_beta 95.622082
_cell_angle_gamma 118.569247
_cell_volume 651.904541
_symmetry_space_group_name_H-M "P -1"
_symmetry_group_IT_number 2
_symmetry_cell_setting 'triclinic'
loop_
_space_group_symop_operation_xyz
x,y,z
-x,-y,-z
loop_
_atom_site_type_symbol
_atom_site_label
_atom_site_fract_x
_atom_site_fract_y
_atom_site_fract_z
Si Si1 0.398590 0.752667 0.961381
Si Si2 0.461033 0.407041 0.205048
Si Si3 0.887691 0.368736 0.163549
Si Si4 0.439907 0.928898 0.284496
Si Si5 0.731988 0.156747 0.897540
Si Si6 0.927192 0.003085 0.643853
Si Si7 0.353037 0.323471 0.767615
Si Si8 0.729064 0.469964 0.425362
O O1 0.150665 0.700168 0.895703
O O2 0.672014 0.873334 0.803268
O O3 0.295084 0.762868 0.088741
O O4 0.487582 0.664209 0.099859
O O5 0.551349 0.322682 0.241556
O O6 0.689055 0.456863 0.283024
O O7 0.119272 0.358986 0.275917
O O8 0.500000 0.500000 0.000000
O O9 0.000000 0.500000 0.000000
O O10 0.313291 0.834578 0.266782
O O11 0.223378 0.927879 0.386585
O O12 0.755480 0.953212 0.320729
O O13 0.515146 0.036990 0.082497
O O14 0.072480 0.197075 0.887115
O O15 0.000000 0.000000 0.500000
O O16 0.492277 0.348744 0.604378
O O17 0.301049 0.424756 0.663164
O O18 0.000000 0.500000 0.500000
#
# Coordination Sequence:
#
# PCOD9036949 Si02
#       8
#     2   2   2   2   2   2   2   2
#     4  11  24  42  72 102 137 189 250 291 365 438
#     4  10  23  42  64  91 132 181 230 283 355 412
#     4  10  23  39  66  95 134 180 234 287 345 419
#     4  10  23  44  72 103 142 180 234 295 372 423
#     4  10  23  40  72 100 137 181 237 301 357 433
#     4  11  24  46  71 104 145 187 233 295 364 439
#     4  11  23  41  68  97 137 182 245 293 365 424
#     4  11  26  42  67  98 143 187 242 308 361 425
#
# _framework density 24.543468000000001
#
# number of rings (size 3 to 8) (size 9 to 14) (size 15 to 20)
#    0.000    1.500    1.250    2.625   14.000    1.500 
#    4.500    0.000    0.000    0.000    0.000    0.000 
#    0.000    0.000    0.000    0.000    0.000    0.000 
#
# Total GULP energy -89082.566591 kJ/mol
# GULP energy per Si atom -5567.660412 kJ/mol
# Density = 2.448761 g / cm^3
# Si number density = 24.543468 Si / 1000 Ang^3
#
#
#
# Elastic Constant Matrix: (Units=GPa)
#
#
# Indices 1 2 3 4 5 6 
#
# 1 119.0538 27.4029 19.8937 13.3911 -4.3677 1.6141
# 2 27.4029 88.7843 30.6311 38.0234 -1.3047 0.2238
# 3 19.8937 30.6311 93.3289 22.9186 -16.2945 4.4184
# 4 13.3911 38.0234 22.9186 38.4237 2.1242 11.4028
# 5 -4.3677 -1.3047 -16.2945 2.1242 40.4917 9.9347
# 6 1.6141 0.2238 4.4184 11.4028 9.9347 25.9123
#
#
#
# Elastic Compliance Matrix: (Units=1/GPa)
#
#
# Indices 1 2 3 4 5 6 
#
# 1 0.009169 -0.002474 -0.000996 -0.000001 0.000664 -0.000634
# 2 -0.002474 0.022916 -0.001993 -0.023954 -0.001913 0.011571
# 3 -0.000996 -0.001993 0.014249 -0.005874 0.006417 -0.002226
# 4 -0.000001 -0.023954 -0.005874 0.060814 -0.000063 -0.025529
# 5 0.000664 -0.001913 0.006417 -0.000063 0.030421 -0.012755
# 6 -0.000634 0.011571 -0.002226 -0.025529 -0.012755 0.055035
#
#
# Mechanical properties :
#
#
# Convention : Reuss Voigt Hill
#
# Bulk Modulus (GPa) = 28.24276 50.78027 39.51152
# Shear Modulus (GPa) = 23.21980 35.84818 29.53399
#
# Velocity S-wave (km/s) = 3.07916 3.82593 3.47267
# Velocity P-wave (km/s) = 4.91669 6.34443 5.67563
#
# Compressibility (1/GPa) = 0.03540730
#
# Stress axis : x y z
#
# Youngs Moduli (GPa) = 109.06776 43.63741 70.17826
#
# Poissons Ratio (x) = 0.10797 0.06990
# Poissons Ratio (y) = 0.26987 0.13988
# Poissons Ratio (z) = 0.10863 0.08698
#
# Static dielectric constant tensor:
#      x y z
#    x -1.168990 -2.724150 -1.600050 
#    y -2.724150 0.131320 -0.997680 
#    z -1.600050 -0.997680 1.451690 
# 
# From -- ./inp_files/138734.got.cif
#   From: 2010.05.17/outbox.cif.g08.bks.cpg/sg2_70_cif.got.tgz:138734.got - 2010.06.03 11:33:40.
