data_PCOD9036531
_publ_section_title
;
Structure prediction by ZEFSAII (Michael W. Deem and Ramdas Pophale) SiO2 
 PCOD9036531
Probable space group: P -1
;
_chemical_formula_sum "Si O2"
_cell_formula_units_Z 16
_cell_length_a 16.296927
_cell_length_b 6.865122
_cell_length_c 19.364347
_cell_angle_alpha 116.975933
_cell_angle_beta 160.598920
_cell_angle_gamma 55.842522
_cell_volume 572.322306
_symmetry_space_group_name_H-M "P -1"
_symmetry_group_IT_number 2
_symmetry_cell_setting 'triclinic'
loop_
_space_group_symop_operation_xyz
x,y,z
-x,-y,-z
loop_
_atom_site_type_symbol
_atom_site_label
_atom_site_fract_x
_atom_site_fract_y
_atom_site_fract_z
Si Si1 0.005342 0.669043 0.711903
Si Si2 0.156092 0.799552 0.333379
Si Si3 0.439415 0.217605 0.065344
Si Si4 0.574464 0.209506 0.676607
Si Si5 0.476046 0.709100 0.702552
Si Si6 0.182220 0.689726 0.699828
Si Si7 0.441083 0.152566 0.796587
Si Si8 0.280335 0.308712 0.309945
O O1 0.131803 0.640220 0.731058
O O2 0.684853 0.721044 0.465704
O O3 0.174252 0.437564 0.856860
O O4 0.996632 0.925053 0.772695
O O5 0.200558 0.789794 0.449898
O O6 0.076059 0.597346 0.204493
O O7 0.477080 0.712518 0.552213
O O8 0.543647 0.297952 0.231161
O O9 0.681927 0.140091 0.189593
O O10 0.404116 0.992996 0.035284
O O11 0.664158 0.425959 0.787332
O O12 0.422179 0.249306 0.488243
O O13 0.775973 0.920317 0.791305
O O14 0.542011 0.942151 0.784435
O O15 0.406377 0.422988 0.806345
O O16 0.884842 0.782083 0.443498
#
# Coordination Sequence:
#
# PCOD9036531 Si02
#       8
#     2   2   2   2   2   2   2   2
#     4  11  21  35  54  84 113 147 184 227 281 330
#     4   9  16  33  57  80 110 137 188 228 271 332
#     4  10  23  38  53  83 120 147 179 236 278 317
#     4   9  18  32  58  82 108 141 187 226 277 330
#     4   9  19  36  55  83 105 152 183 229 266 329
#     4  11  21  37  59  78 112 155 192 224 267 324
#     4   9  22  37  56  83 109 147 192 235 260 324
#     4   8  16  31  55  84 102 137 185 235 268 321
#
# _framework density 27.956275000000002
#
# number of rings (size 3 to 8) (size 9 to 14) (size 15 to 20)
#    0.750    1.750    1.250    0.750    3.500    0.500 
#    4.500    0.000    0.000   28.500    0.000    0.000 
#    0.000    0.000    0.000    0.000    0.000    0.000 
#
# Total GULP energy -89318.842461 kJ/mol
# GULP energy per Si atom -5582.427654 kJ/mol
# Density = 2.789265 g / cm^3
# Si number density = 27.956275 Si / 1000 Ang^3
#
#
#
# Elastic Constant Matrix: (Units=GPa)
#
#
# Indices 1 2 3 4 5 6 
#
# 1 111.6603 0.3500 23.3276 3.4046 -19.0606 4.8858
# 2 0.3500 153.7060 16.9892 -18.5430 -8.2077 -6.4499
# 3 23.3276 16.9892 129.1231 -40.3984 -23.5664 1.5006
# 4 3.4046 -18.5430 -40.3984 53.7787 10.8983 -3.7364
# 5 -19.0606 -8.2077 -23.5664 10.8983 27.8562 -3.2722
# 6 4.8858 -6.4499 1.5006 -3.7364 -3.2722 44.1944
#
#
#
# Elastic Compliance Matrix: (Units=1/GPa)
#
#
# Indices 1 2 3 4 5 6 
#
# 1 0.010670 0.000095 -0.001701 -0.003425 0.007128 -0.000870
# 2 0.000095 0.006897 -0.000005 0.002176 0.001393 0.001283
# 3 -0.001701 -0.000005 0.011460 0.007631 0.005646 0.000861
# 4 -0.003425 0.002176 0.007631 0.026539 -0.005362 0.002284
# 5 0.007128 0.001393 0.005646 -0.005362 0.048337 0.002349
# 6 -0.000870 0.001283 0.000861 0.002284 0.002349 0.023249
#
#
# Mechanical properties :
#
#
# Convention : Reuss Voigt Hill
#
# Bulk Modulus (GPa) = 38.75143 52.86922 45.81033
# Shear Modulus (GPa) = 35.97767 48.75403 42.36585
#
# Velocity S-wave (km/s) = 3.59127 4.18058 3.89708
# Velocity P-wave (km/s) = 5.57564 6.50042 6.05571
#
# Compressibility (1/GPa) = 0.02580550
#
# Stress axis : x y z
#
# Youngs Moduli (GPa) = 93.72058 144.99296 87.25785
#
# Poissons Ratio (x) = -0.01371 0.14841
# Poissons Ratio (y) = -0.00886 0.00040
# Poissons Ratio (z) = 0.15940 0.00067
#
# Static dielectric constant tensor:
#      x y z
#    x 2.155940 -0.057960 0.039000 
#    y -0.057960 2.292520 -0.020330 
#    z 0.039000 -0.020330 2.188780 
# 
# From -- ./inp_files/599243.got.cif
#   From: 2010.05.17/outbox.cif.g08.bks.cpg/sg2_300_cif.got.tgz:599243.got - 2010.06.03 11:33:40.
