data_PCOD9036807
_publ_section_title
;
Structure prediction by ZEFSAII (Michael W. Deem and Ramdas Pophale) SiO2 
 PCOD9036807
Probable space group: P -1
;
_chemical_formula_sum "Si O2"
_cell_formula_units_Z 16
_cell_length_a 11.454348
_cell_length_b 9.904481
_cell_length_c 12.820323
_cell_angle_alpha 103.644286
_cell_angle_beta 126.169835
_cell_angle_gamma 118.743828
_cell_volume 698.869189
_symmetry_space_group_name_H-M "P -1"
_symmetry_group_IT_number 2
_symmetry_cell_setting 'triclinic'
loop_
_space_group_symop_operation_xyz
x,y,z
-x,-y,-z
loop_
_atom_site_type_symbol
_atom_site_label
_atom_site_fract_x
_atom_site_fract_y
_atom_site_fract_z
Si Si1 0.879708 0.281474 0.837962
Si Si2 0.231316 0.231628 0.531632
Si Si3 0.857916 0.111965 0.452057
Si Si4 0.562457 0.053228 0.921623
Si Si5 0.524050 0.819055 0.687976
Si Si6 0.834486 0.808542 0.756111
Si Si7 0.937885 0.435561 0.682987
Si Si8 0.770543 0.677768 0.910468
O O1 0.806007 0.274123 0.684431
O O2 0.087785 0.325669 0.947705
O O3 0.665126 0.049562 0.744588
O O4 0.000000 0.500000 0.000000
O O5 0.213842 0.241273 0.400070
O O6 0.495299 0.473399 0.749055
O O7 0.032702 0.170534 0.473680
O O8 0.199585 0.047429 0.518901
O O9 0.979689 0.338391 0.609839
O O10 0.623951 0.991999 0.248327
O O11 0.549681 0.891285 0.832867
O O12 0.825541 0.313924 0.106692
O O13 0.500000 0.000000 0.000000
O O14 0.647116 0.776282 0.699810
O O15 0.247582 0.604981 0.478175
O O16 0.816076 0.675398 0.810491
O O17 0.089618 0.073851 0.949966
#
# Coordination Sequence:
#
# PCOD9036807 Si02
#       8
#     2   2   2   2   2   2   2   2
#     4  11  21  38  66  96 126 163 202 262 316 369
#     4  11  23  42  65  89 126 168 209 262 306 372
#     4  10  25  42  63  93 121 167 222 250 312 379
#     4  11  25  43  62  91 128 167 211 262 313 374
#     4  10  23  39  65  98 123 164 215 253 320 375
#     4  10  23  41  62  96 127 163 208 260 311 377
#     4  11  23  42  65  91 128 165 207 266 314 369
#     4  10  23  39  62  93 129 162 208 253 320 371
#
# _framework density 22.894127999999998
#
# number of rings (size 3 to 8) (size 9 to 14) (size 15 to 20)
#    0.000    1.500    1.250    3.000    3.500    8.000 
#    0.000    3.125    0.000    0.000    0.000    0.000 
#    0.000    0.000    0.000    0.000    0.000    0.000 
#
# Total GULP energy -89506.031926 kJ/mol
# GULP energy per Si atom -5594.126995 kJ/mol
# Density = 2.284202 g / cm^3
# Si number density = 22.894128 Si / 1000 Ang^3
#
#
#
# Elastic Constant Matrix: (Units=GPa)
#
#
# Indices 1 2 3 4 5 6 
#
# 1 100.1184 16.1543 39.0444 -10.3325 4.5009 3.1064
# 2 16.1543 60.1342 11.4845 -6.3303 -2.6289 6.8726
# 3 39.0444 11.4845 137.8467 4.2064 8.8569 0.0755
# 4 -10.3325 -6.3303 4.2064 35.4825 15.8043 -0.9814
# 5 4.5009 -2.6289 8.8569 15.8043 30.9593 -8.4702
# 6 3.1064 6.8726 0.0755 -0.9814 -8.4702 29.0235
#
#
#
# Elastic Compliance Matrix: (Units=1/GPa)
#
#
# Indices 1 2 3 4 5 6 
#
# 1 0.012415 -0.002110 -0.003225 0.005533 -0.004412 -0.001921
# 2 -0.002110 0.018127 -0.000968 0.002814 -0.000434 -0.004095
# 3 -0.003225 -0.000968 0.008371 -0.001586 -0.001154 0.000162
# 4 0.005533 0.002814 -0.001586 0.040306 -0.022450 -0.006443
# 5 -0.004412 -0.000434 -0.001154 -0.022450 0.048520 0.013979
# 6 -0.001921 -0.004095 0.000162 -0.006443 0.013979 0.039492
#
#
# Mechanical properties :
#
#
# Convention : Reuss Voigt Hill
#
# Bulk Modulus (GPa) = 38.01409 47.94062 42.97735
# Shear Modulus (GPa) = 26.51028 34.52081 30.51555
#
# Velocity S-wave (km/s) = 3.40656 3.88731 3.65485
# Velocity P-wave (km/s) = 5.66685 6.41357 6.05174
#
# Compressibility (1/GPa) = 0.02630604
#
# Stress axis : x y z
#
# Youngs Moduli (GPa) = 80.54547 55.16759 119.45911
#
# Poissons Ratio (x) = 0.11641 0.38527
# Poissons Ratio (y) = 0.16996 0.11567
# Poissons Ratio (z) = 0.25977 0.05342
#
# Static dielectric constant tensor:
#      x y z
#    x 1.870450 -0.043300 0.006920 
#    y -0.043300 1.919600 -0.020230 
#    z 0.006920 -0.020230 1.856470 
# 
# From -- ./inp_files/428432.got.cif
#   From: 2010.05.17/outbox.cif.g08.bks.cpg/sg2_215_cif.got.tgz:428432.got - 2010.06.03 11:33:40.
