data_PCOD9036486
_publ_section_title
;
Structure prediction by ZEFSAII (Michael W. Deem and Ramdas Pophale) SiO2 
 PCOD9036486
Probable space group: P -1
;
_chemical_formula_sum "Si O2"
_cell_formula_units_Z 14
_cell_length_a 12.247033
_cell_length_b 22.279279
_cell_length_c 5.275402
_cell_angle_alpha 59.402536
_cell_angle_beta 57.827461
_cell_angle_gamma 26.533403
_cell_volume 542.252230
_symmetry_space_group_name_H-M "P -1"
_symmetry_group_IT_number 2
_symmetry_cell_setting 'triclinic'
loop_
_space_group_symop_operation_xyz
x,y,z
-x,-y,-z
loop_
_atom_site_type_symbol
_atom_site_label
_atom_site_fract_x
_atom_site_fract_y
_atom_site_fract_z
Si Si1 0.498340 0.620017 0.955133
Si Si2 0.971317 0.136317 0.253347
Si Si3 0.256724 0.356838 0.609314
Si Si4 0.277233 0.155251 0.511839
Si Si5 0.041981 0.303105 0.982969
Si Si6 0.269561 0.967273 0.730228
Si Si7 0.382965 0.769728 0.163723
O O1 0.266696 0.706269 0.879974
O O2 0.573205 0.666106 0.703582
O O3 0.752865 0.459067 0.970206
O O4 0.396020 0.684826 0.222278
O O5 0.816984 0.142435 0.548537
O O6 0.162370 0.056678 0.424236
O O7 0.124698 0.054069 0.981370
O O8 0.219121 0.290865 0.789062
O O9 0.348367 0.334418 0.826832
O O10 0.000000 0.500000 0.500000
O O11 0.143243 0.208701 0.831623
O O12 0.500000 0.000000 0.500000
O O13 0.440584 0.149256 0.343056
O O14 0.083222 0.250131 0.319693
O O15 0.271894 0.883005 0.888962
#
# Coordination Sequence:
#
# PCOD9036486 Si02
#       7
#     2   2   2   2   2   2   2
#     4  10  23  37  63  98 136 173 207 251 309 398
#     4  11  24  38  60  97 134 173 210 242 309 393
#     4   9  20  33  56  94 136 171 204 242 312 386
#     4  12  27  47  70  94 118 165 224 278 328 368
#     4  11  24  43  68  92 130 165 213 271 326 369
#     4  12  24  40  64  89 135 171 211 262 312 367
#     4  11  21  36  59  98 139 172 211 238 311 392
#
# _framework density 25.818241
#
# number of rings (size 3 to 8) (size 9 to 14) (size 15 to 20)
#    0.000    1.143    2.857    3.000   10.000    1.143 
#    0.000    0.000    0.000    5.143    0.000    0.000 
#    0.000    0.000    0.000    0.000    0.000    0.000 
#
# Total GULP energy -78038.615900 kJ/mol
# GULP energy per Si atom -5574.186850 kJ/mol
# Density = 2.575948 g / cm^3
# Si number density = 25.818241 Si / 1000 Ang^3
#
#
#
# Elastic Constant Matrix: (Units=GPa)
#
#
# Indices 1 2 3 4 5 6 
#
# 1 69.8208 40.9586 34.7542 -8.8401 24.2616 -9.8504
# 2 40.9586 132.7892 61.5725 -12.0846 41.2527 -17.7332
# 3 34.7542 61.5725 110.3296 -7.4775 47.9038 -0.1989
# 4 -8.8401 -12.0846 -7.4775 39.8680 -8.4797 7.7693
# 5 24.2616 41.2527 47.9038 -8.4797 48.4269 2.9439
# 6 -9.8504 -17.7332 -0.1989 7.7693 2.9439 38.7752
#
#
#
# Elastic Compliance Matrix: (Units=1/GPa)
#
#
# Indices 1 2 3 4 5 6 
#
# 1 0.019581 -0.002722 -0.002274 0.001216 -0.005265 0.003874
# 2 -0.002722 0.012699 -0.003453 0.000167 -0.006346 0.005547
# 3 -0.002274 -0.003453 0.017385 -0.000933 -0.013227 -0.000876
# 4 0.001216 0.000167 -0.000933 0.027433 0.005310 -0.005519
# 5 -0.005265 -0.006346 -0.013227 0.005310 0.043234 -0.008654
# 6 0.003874 0.005547 -0.000876 -0.005519 -0.008654 0.031069
#
#
# Mechanical properties :
#
#
# Convention : Reuss Voigt Hill
#
# Bulk Modulus (GPa) = 30.51750 65.27891 47.89821
# Shear Modulus (GPa) = 27.89878 37.12429 32.51153
#
# Velocity S-wave (km/s) = 3.29079 3.79609 3.55244
# Velocity P-wave (km/s) = 5.12688 6.67478 5.95137
#
# Compressibility (1/GPa) = 0.03276808
#
# Stress axis : x y z
#
# Youngs Moduli (GPa) = 51.07072 78.74769 57.52064
#
# Poissons Ratio (x) = 0.21434 0.13079
# Poissons Ratio (y) = 0.13901 0.19860
# Poissons Ratio (z) = 0.11612 0.27189
#
# Static dielectric constant tensor:
#      x y z
#    x 2.211010 0.027730 0.057120 
#    y 0.027730 1.992540 0.068520 
#    z 0.057120 0.068520 2.360240 
# 
# From -- ./inp_files/101457.got.cif
#   From: 2010.05.17/outbox.cif.g08.bks.cpg/sg2_51_cif.got.tgz:101457.got - 2010.06.03 11:33:40.
