data_PCOD9036405
_publ_section_title
;
Structure prediction by ZEFSAII (Michael W. Deem and Ramdas Pophale) SiO2 
 PCOD9036405
Probable space group: P -1
;
_chemical_formula_sum "Si O2"
_cell_formula_units_Z 16
_cell_length_a 14.949262
_cell_length_b 8.693422
_cell_length_c 8.554478
_cell_angle_alpha 106.181550
_cell_angle_beta 84.997172
_cell_angle_gamma 52.158834
_cell_volume 792.823138
_symmetry_space_group_name_H-M "P -1"
_symmetry_group_IT_number 2
_symmetry_cell_setting 'triclinic'
loop_
_space_group_symop_operation_xyz
x,y,z
-x,-y,-z
loop_
_atom_site_type_symbol
_atom_site_label
_atom_site_fract_x
_atom_site_fract_y
_atom_site_fract_z
Si Si1 0.001304 0.815999 0.996361
Si Si2 0.249471 0.028412 0.854490
Si Si3 0.675551 0.901459 0.439282
Si Si4 0.843194 0.525222 0.878411
Si Si5 0.548352 0.385930 0.132265
Si Si6 0.441742 0.275865 0.729092
Si Si7 0.044111 0.472349 0.659896
Si Si8 0.595219 0.738867 0.909303
O O1 0.016446 0.673936 0.808485
O O2 0.113133 0.651955 0.049157
O O3 0.873481 0.924922 0.127875
O O4 0.000000 0.000000 0.000000
O O5 0.327885 0.968957 0.669723
O O6 0.326649 0.858950 0.935279
O O7 0.207482 0.256975 0.967353
O O8 0.628393 0.779831 0.367262
O O9 0.814231 0.726616 0.412334
O O10 0.583677 0.068246 0.633238
O O11 0.732926 0.609828 0.806108
O O12 0.965623 0.435908 0.754517
O O13 0.568665 0.526671 0.262028
O O14 0.455308 0.359375 0.194266
O O15 0.500000 0.500000 0.000000
O O16 0.397527 0.312413 0.922975
O O17 0.000000 0.500000 0.500000
O O18 0.500000 0.000000 0.000000
#
# Coordination Sequence:
#
# PCOD9036405 Si02
#       8
#     2   2   2   2   2   2   2   2
#     4  11  24  41  70  96 121 174 225 271 318 388
#     4  11  20  39  66  87 125 170 222 257 312 398
#     4  11  21  42  63  86 125 175 216 252 326 398
#     4  11  21  43  67  92 123 175 224 254 317 409
#     4  10  23  36  58  95 127 158 206 275 317 366
#     4  10  23  37  62  89 125 162 215 262 309 385
#     4  11  24  42  65  97 131 168 214 273 326 385
#     4  11  20  38  63  90 124 163 209 260 324 380
#
# _framework density 20.181045000000001
#
# number of rings (size 3 to 8) (size 9 to 14) (size 15 to 20)
#    0.000    1.250    5.000    0.750    7.000    1.500 
#    0.000    1.875    0.000    0.000    0.000    0.000 
#    0.000    0.000    0.000    0.000    0.000    0.000 
#
# Total GULP energy -89167.540199 kJ/mol
# GULP energy per Si atom -5572.971262 kJ/mol
# Density = 2.013511 g / cm^3
# Si number density = 20.181045 Si / 1000 Ang^3
#
#
#
# Elastic Constant Matrix: (Units=GPa)
#
#
# Indices 1 2 3 4 5 6 
#
# 1 134.8051 63.1993 4.1286 8.9370 -19.0679 -2.6567
# 2 63.1993 145.0557 9.1502 -1.0373 -2.7624 -3.5551
# 3 4.1286 9.1502 39.1421 1.6160 -9.4300 -7.2085
# 4 8.9370 -1.0373 1.6160 16.2375 -11.6913 -1.9402
# 5 -19.0679 -2.7624 -9.4300 -11.6913 19.6857 7.5935
# 6 -2.6567 -3.5551 -7.2085 -1.9402 7.5935 44.5450
#
#
#
# Elastic Compliance Matrix: (Units=1/GPa)
#
#
# Indices 1 2 3 4 5 6 
#
# 1 0.011398 -0.004896 0.002967 0.003210 0.014268 -0.001523
# 2 -0.004896 0.009120 -0.002682 -0.000020 -0.005094 0.000869
# 3 0.002967 -0.002682 0.031573 0.013137 0.024883 0.001403
# 4 0.003210 -0.000020 0.013137 0.115813 0.080645 -0.006387
# 5 0.014268 -0.005094 0.024883 0.080645 0.129130 -0.014029
# 6 -0.001523 0.000869 0.001403 -0.006387 -0.014029 0.024768
#
#
# Mechanical properties :
#
#
# Convention : Reuss Voigt Hill
#
# Bulk Modulus (GPa) = 23.32709 52.43990 37.88349
# Shear Modulus (GPa) = 14.47963 32.26197 23.37080
#
# Velocity S-wave (km/s) = 2.68150 4.00262 3.40672
# Velocity P-wave (km/s) = 4.60122 6.88494 5.85550
#
# Compressibility (1/GPa) = 0.04286861
#
# Stress axis : x y z
#
# Youngs Moduli (GPa) = 87.73568 109.64596 31.67307
#
# Poissons Ratio (x) = 0.53680 -0.09397
# Poissons Ratio (y) = 0.42953 0.08495
# Poissons Ratio (z) = -0.26029 0.29407
#
# Static dielectric constant tensor:
#      x y z
#    x 1.717690 -0.026170 0.102630 
#    y -0.026170 1.747230 -0.033420 
#    z 0.102630 -0.033420 1.578260 
# 
# From -- ./inp_files/189430.got.cif
#   From: 2010.05.17/outbox.cif.g08.bks.cpg/sg2_95_cif.got.tgz:189430.got - 2010.06.03 11:33:40.
