data_PCOD9036270
_publ_section_title
;
Structure prediction by ZEFSAII (Michael W. Deem and Ramdas Pophale) SiO2 
 PCOD9036270
Probable space group: P -1
;
_chemical_formula_sum "Si O2"
_cell_formula_units_Z 16
_cell_length_a 29.130873
_cell_length_b 7.812551
_cell_length_c 8.874634
_cell_angle_alpha 50.709351
_cell_angle_beta 148.766558
_cell_angle_gamma 135.691125
_cell_volume 730.284105
_symmetry_space_group_name_H-M "P -1"
_symmetry_group_IT_number 2
_symmetry_cell_setting 'triclinic'
loop_
_space_group_symop_operation_xyz
x,y,z
-x,-y,-z
loop_
_atom_site_type_symbol
_atom_site_label
_atom_site_fract_x
_atom_site_fract_y
_atom_site_fract_z
Si Si1 0.918572 0.543574 0.337396
Si Si2 0.386605 0.818328 0.262007
Si Si3 0.767270 0.996148 0.745209
Si Si4 0.098721 0.006756 0.601859
Si Si5 0.744919 0.576706 0.682108
Si Si6 0.106321 0.535378 0.341663
Si Si7 0.267046 0.135175 0.796189
Si Si8 0.386026 0.397201 0.279378
O O1 0.889774 0.427373 0.487118
O O2 0.000000 0.500000 0.500000
O O3 0.831492 0.499949 0.002347
O O4 0.983306 0.836261 0.384497
O O5 0.351848 0.654440 0.406755
O O6 0.370091 0.617451 0.195343
O O7 0.500000 0.000000 0.500000
O O8 0.322890 0.974829 0.984140
O O9 0.767846 0.798891 0.737766
O O10 0.660262 0.846225 0.606958
O O11 0.805817 0.249251 0.621563
O O12 0.845851 0.034986 0.075688
O O13 0.114891 0.284319 0.483009
O O14 0.157306 0.972603 0.641104
O O15 0.738121 0.681251 0.445040
O O16 0.000000 0.500000 0.000000
O O17 0.326597 0.297365 0.014645
O O18 0.500000 0.500000 0.500000
#
# Coordination Sequence:
#
# PCOD9036270 Si02
#       8
#     2   2   2   2   2   2   2   2
#     4  12  26  44  67 101 148 190 241 294 354 422
#     4  11  24  49  75 101 142 184 236 304 363 429
#     4  10  23  43  72 100 139 185 237 294 357 420
#     4  11  24  46  66 103 145 185 241 297 342 429
#     4  11  26  44  67 104 145 185 238 296 354 429
#     4  12  24  42  71  98 133 194 242 288 359 417
#     4  11  26  44  74 104 144 187 239 286 373 420
#     4  10  22  48  76 108 143 183 236 305 361 430
#
# _framework density 21.909279999999999
#
# number of rings (size 3 to 8) (size 9 to 14) (size 15 to 20)
#    0.000    1.000    3.750    1.875    5.250    3.000 
#    0.000    1.875    0.000    0.000    0.000    0.000 
#    0.000    0.000    0.000    0.000    0.000    0.000 
#
# Total GULP energy -89443.552171 kJ/mol
# GULP energy per Si atom -5590.222011 kJ/mol
# Density = 2.185941 g / cm^3
# Si number density = 21.909280 Si / 1000 Ang^3
#
#
#
# Elastic Constant Matrix: (Units=GPa)
#
#
# Indices 1 2 3 4 5 6 
#
# 1 140.6127 62.5614 72.0461 -12.6037 -8.2831 17.9561
# 2 62.5614 146.1772 52.3636 -6.4163 -13.3230 34.7654
# 3 72.0461 52.3636 95.9465 -15.2758 -14.4711 22.9845
# 4 -12.6037 -6.4163 -15.2758 41.7217 8.7719 2.5780
# 5 -8.2831 -13.3230 -14.4711 8.7719 23.2299 -5.8818
# 6 17.9561 34.7654 22.9845 2.5780 -5.8818 53.2865
#
#
#
# Elastic Compliance Matrix: (Units=1/GPa)
#
#
# Indices 1 2 3 4 5 6 
#
# 1 0.012365 -0.002729 -0.008241 0.000738 -0.002347 0.000874
# 2 -0.002729 0.010003 -0.002012 -0.000270 0.002486 -0.004451
# 3 -0.008241 -0.002012 0.020181 0.003563 0.006092 -0.004115
# 4 0.000738 -0.000270 0.003563 0.027611 -0.009098 -0.003949
# 5 -0.002347 0.002486 0.006092 -0.009098 0.051543 0.002671
# 6 0.000874 -0.004451 -0.004115 -0.003949 0.002671 0.023637
#
#
# Mechanical properties :
#
#
# Convention : Reuss Voigt Hill
#
# Bulk Modulus (GPa) = 60.29787 84.07540 72.18664
# Shear Modulus (GPa) = 28.27534 36.69865 32.48700
#
# Velocity S-wave (km/s) = 3.59634 4.09715 3.85489
# Velocity P-wave (km/s) = 6.69524 7.79999 7.26863
#
# Compressibility (1/GPa) = 0.01658433
#
# Stress axis : x y z
#
# Youngs Moduli (GPa) = 80.87466 99.96954 49.55256
#
# Poissons Ratio (x) = 0.27284 0.40837
# Poissons Ratio (y) = 0.22072 0.09968
# Poissons Ratio (z) = 0.66651 0.20110
#
# Static dielectric constant tensor:
#      x y z
#    x 1.850010 -0.059510 0.021390 
#    y -0.059510 1.958320 0.020950 
#    z 0.021390 0.020950 1.789350 
# 
# From -- ./inp_files/128224.got.cif
#   From: 2010.05.17/outbox.cif.g08.bks.cpg/sg2_65_cif.got.tgz:128224.got - 2010.06.03 11:33:40.
