data_PCOD9036448
_publ_section_title
;
Structure prediction by ZEFSAII (Michael W. Deem and Ramdas Pophale) SiO2 
 PCOD9036448
Probable space group: P -1
;
_chemical_formula_sum "Si O2"
_cell_formula_units_Z 16
_cell_length_a 19.185674
_cell_length_b 8.854184
_cell_length_c 11.783017
_cell_angle_alpha 47.309483
_cell_angle_beta 143.860553
_cell_angle_gamma 107.206663
_cell_volume 706.344227
_symmetry_space_group_name_H-M "P -1"
_symmetry_group_IT_number 2
_symmetry_cell_setting 'triclinic'
loop_
_space_group_symop_operation_xyz
x,y,z
-x,-y,-z
loop_
_atom_site_type_symbol
_atom_site_label
_atom_site_fract_x
_atom_site_fract_y
_atom_site_fract_z
Si Si1 0.798287 0.350165 0.903710
Si Si2 0.923444 0.686998 0.629000
Si Si3 0.181678 0.679668 0.616140
Si Si4 0.849455 0.926135 0.025960
Si Si5 0.474159 0.173338 0.771550
Si Si6 0.719207 0.803945 0.105251
Si Si7 0.693815 0.251746 0.047100
Si Si8 0.079559 0.116225 0.104144
O O1 0.689939 0.641753 0.579010
O O2 0.731465 0.282599 0.953076
O O3 0.945523 0.295231 0.176145
O O4 0.819976 0.183775 0.907232
O O5 0.867104 0.716550 0.411239
O O6 0.783418 0.954522 0.351782
O O7 0.977582 0.401246 0.873188
O O8 0.277545 0.441959 0.782256
O O9 0.251983 0.630428 0.856328
O O10 0.022048 0.736124 0.379552
O O11 0.166606 0.919086 0.418471
O O12 0.741644 0.888689 0.971624
O O13 0.834048 0.896164 0.887072
O O14 0.527986 0.349120 0.786061
O O15 0.500000 0.000000 0.000000
O O16 0.579898 0.006890 0.891357
O O17 0.000000 0.000000 0.000000
#
# Coordination Sequence:
#
# PCOD9036448 Si02
#       8
#     2   2   2   2   2   2   2   2
#     4  12  24  42  71 100 134 174 230 272 336 392
#     4  11  21  39  69 102 134 166 228 276 331 388
#     4  11  23  41  66 105 136 171 219 280 335 393
#     4  11  21  38  69 101 135 171 215 281 333 392
#     4  11  28  47  65  94 138 184 221 275 332 400
#     4  11  23  43  69  96 137 175 226 269 334 397
#     4  11  24  43  70  99 131 175 228 279 328 394
#     4  10  23  37  59 103 141 174 208 272 345 389
#
# _framework density 22.651845999999999
#
# number of rings (size 3 to 8) (size 9 to 14) (size 15 to 20)
#    0.000    1.000    6.250    1.875    5.250    1.500 
#    0.000    2.500    0.000    0.000    0.000    0.000 
#    0.000    0.000    0.000    0.000    0.000    0.000 
#
# Total GULP energy -89272.299808 kJ/mol
# GULP energy per Si atom -5579.518738 kJ/mol
# Density = 2.260029 g / cm^3
# Si number density = 22.651846 Si / 1000 Ang^3
#
#
#
# Elastic Constant Matrix: (Units=GPa)
#
#
# Indices 1 2 3 4 5 6 
#
# 1 68.1369 -5.0945 5.6590 3.8115 -6.1238 -9.3926
# 2 -5.0945 56.1742 7.1188 -10.5722 -5.3305 -14.6570
# 3 5.6590 7.1188 66.1490 -8.3285 2.2149 -10.3793
# 4 3.8115 -10.5722 -8.3285 27.9811 4.7986 -2.9179
# 5 -6.1238 -5.3305 2.2149 4.7986 25.1359 -1.3709
# 6 -9.3926 -14.6570 -10.3793 -2.9179 -1.3709 33.2590
#
#
#
# Elastic Compliance Matrix: (Units=1/GPa)
#
#
# Indices 1 2 3 4 5 6 
#
# 1 0.016416 0.003367 -0.001248 -0.001666 0.005458 0.005809
# 2 0.003367 0.023421 0.000075 0.008877 0.004755 0.012271
# 3 -0.001248 0.000075 0.016943 0.006265 -0.002682 0.005407
# 4 -0.001666 0.008877 0.006265 0.043289 -0.006853 0.008912
# 5 0.005458 0.004755 -0.002682 -0.006853 0.043885 0.004008
# 6 0.005809 0.012271 0.005407 0.008912 0.004008 0.039750
#
#
# Mechanical properties :
#
#
# Convention : Reuss Voigt Hill
#
# Bulk Modulus (GPa) = 16.34780 22.86964 19.60872
# Shear Modulus (GPa) = 25.03690 29.46032 27.24861
#
# Velocity S-wave (km/s) = 3.32820 3.61025 3.47209
# Velocity P-wave (km/s) = 4.69062 5.24372 4.97486
#
# Compressibility (1/GPa) = 0.06117030
#
# Stress axis : x y z
#
# Youngs Moduli (GPa) = 60.91514 42.69623 59.02098
#
# Poissons Ratio (x) = -0.14377 0.07364
# Poissons Ratio (y) = -0.20511 -0.00444
# Poissons Ratio (z) = 0.07600 -0.00321
#
# Static dielectric constant tensor:
#      x y z
#    x 1.888680 0.012060 -0.026870 
#    y 0.012060 1.899170 -0.028690 
#    z -0.026870 -0.028690 1.851960 
# 
# From -- ./inp_files/461923.got.cif
#   From: 2010.05.17/outbox.cif.g08.bks.cpg/sg2_231_cif.got.tgz:461923.got - 2010.06.03 11:33:40.
