data_PCOD9036498
_publ_section_title
;
Structure prediction by ZEFSAII (Michael W. Deem and Ramdas Pophale) SiO2 
 PCOD9036498
Probable space group: P -1
;
_chemical_formula_sum "Si O2"
_cell_formula_units_Z 15
_cell_length_a 8.777471
_cell_length_b 11.447286
_cell_length_c 16.717612
_cell_angle_alpha 134.816920
_cell_angle_beta 31.808282
_cell_angle_gamma 128.825455
_cell_volume 626.284922
_symmetry_space_group_name_H-M "P -1"
_symmetry_group_IT_number 2
_symmetry_cell_setting 'triclinic'
loop_
_space_group_symop_operation_xyz
x,y,z
-x,-y,-z
loop_
_atom_site_type_symbol
_atom_site_label
_atom_site_fract_x
_atom_site_fract_y
_atom_site_fract_z
Si Si1 0.544018 0.546669 0.910706
Si Si2 0.976488 0.035440 0.394920
Si Si3 0.124848 0.635938 0.752473
Si Si4 0.445119 0.212728 0.704225
Si Si5 0.165595 0.763122 0.091075
Si Si6 0.500000 0.000000 0.000000
Si Si7 0.986608 0.077587 0.955662
Si Si8 0.756107 0.746222 0.474811
O O1 0.566777 0.384088 0.770163
O O2 0.848065 0.652370 0.827826
O O3 0.500000 0.500000 0.000000
O O4 0.270670 0.639307 0.048098
O O5 0.865041 0.870008 0.414459
O O6 0.201835 0.962725 0.196328
O O7 0.714703 0.116890 0.506870
O O8 0.121103 0.161989 0.455248
O O9 0.080145 0.733523 0.901538
O O10 0.411632 0.718191 0.622751
O O11 0.148668 0.440457 0.661117
O O12 0.165235 0.254951 0.797275
O O13 0.301530 0.097986 0.783470
O O14 0.428594 0.789275 0.925383
O O15 0.238103 0.008891 0.047306
O O16 0.000000 0.000000 0.000000
#
# Coordination Sequence:
#
# PCOD9036498 Si02
#       8
#     2   2   2   2   2   1   2   2
#     4  12  23  41  69 100 130 175 228 283 339 401
#     4  11  22  42  66  94 135 180 222 277 340 408
#     4  11  21  39  64  98 138 171 228 285 335 405
#     4  11  24  41  64  96 134 178 227 273 343 412
#     4  11  25  42  67  94 138 174 223 281 343 406
#     4  10  24  42  62 102 130 174 224 280 340 404
#     4  11  22  39  67  96 135 178 227 282 342 406
#     4  10  23  37  65 101 131 174 226 283 337 401
#
# _framework density 23.950761
#
# number of rings (size 3 to 8) (size 9 to 14) (size 15 to 20)
#    0.000    1.067    2.667    4.000    1.867    1.067 
#    0.000    0.000    0.000    1.600    0.000    0.000 
#    0.000    0.000    0.000    0.000    0.000    0.000 
#
# Total GULP energy -83631.937882 kJ/mol
# GULP energy per Si atom -5575.462525 kJ/mol
# Density = 2.389625 g / cm^3
# Si number density = 23.950761 Si / 1000 Ang^3
#
#
#
# Elastic Constant Matrix: (Units=GPa)
#
#
# Indices 1 2 3 4 5 6 
#
# 1 117.3679 55.7418 7.5395 10.0779 -16.5801 6.1825
# 2 55.7418 119.1515 41.2786 -0.0862 -15.5244 15.1389
# 3 7.5395 41.2786 96.0762 8.8871 -7.8984 3.6371
# 4 10.0779 -0.0862 8.8871 46.4456 2.4839 -3.1921
# 5 -16.5801 -15.5244 -7.8984 2.4839 35.3022 5.1202
# 6 6.1825 15.1389 3.6371 -3.1921 5.1202 51.3555
#
#
#
# Elastic Compliance Matrix: (Units=1/GPa)
#
#
# Indices 1 2 3 4 5 6 
#
# 1 0.011989 -0.005806 0.002192 -0.003271 0.003867 -0.000476
# 2 -0.005806 0.013639 -0.005272 0.001955 0.002398 -0.003066
# 3 0.002192 -0.005272 0.012934 -0.003057 0.001820 0.000003
# 4 -0.003271 0.001955 -0.003057 0.023126 -0.003248 0.001795
# 5 0.003867 0.002398 0.001820 -0.003248 0.032522 -0.004746
# 6 -0.000476 -0.003066 0.000003 0.001795 -0.004746 0.021018
#
#
# Mechanical properties :
#
#
# Convention : Reuss Voigt Hill
#
# Bulk Modulus (GPa) = 48.09981 60.19060 54.14521
# Shear Modulus (GPa) = 35.73232 41.82303 38.77768
#
# Velocity S-wave (km/s) = 3.86671 4.18330 4.02812
# Velocity P-wave (km/s) = 6.32943 6.96555 6.65509
#
# Compressibility (1/GPa) = 0.02079010
#
# Stress axis : x y z
#
# Youngs Moduli (GPa) = 83.40758 73.32004 77.31753
#
# Poissons Ratio (x) = 0.42573 -0.16951
# Poissons Ratio (y) = 0.48430 0.40760
# Poissons Ratio (z) = -0.18286 0.38653
#
# Static dielectric constant tensor:
#      x y z
#    x 2.142180 -0.168140 0.153160 
#    y -0.168140 2.112670 -0.124480 
#    z 0.153160 -0.124480 2.118030 
# 
# From -- ./inp_files/418429.got.cif
#   From: 2010.05.17/outbox.cif.g08.bks.cpg/sg2_210_cif.got.tgz:418429.got - 2010.06.03 11:33:40.
