data_PCOD9036722
_publ_section_title
;
Structure prediction by ZEFSAII (Michael W. Deem and Ramdas Pophale) SiO2 
 PCOD9036722
Probable space group: P -1
;
_chemical_formula_sum "Si O2"
_cell_formula_units_Z 15
_cell_length_a 17.912814
_cell_length_b 5.139542
_cell_length_c 8.989985
_cell_angle_alpha 75.385884
_cell_angle_beta 125.333488
_cell_angle_gamma 122.274458
_cell_volume 568.960329
_symmetry_space_group_name_H-M "P -1"
_symmetry_group_IT_number 2
_symmetry_cell_setting 'triclinic'
loop_
_space_group_symop_operation_xyz
x,y,z
-x,-y,-z
loop_
_atom_site_type_symbol
_atom_site_label
_atom_site_fract_x
_atom_site_fract_y
_atom_site_fract_z
Si Si1 0.333585 0.622766 0.178373
Si Si2 0.118744 0.468561 0.603671
Si Si3 0.500000 0.500000 0.500000
Si Si4 0.354549 0.718255 0.843905
Si Si5 0.803578 0.118438 0.860203
Si Si6 0.821565 0.968182 0.587300
Si Si7 0.986372 0.079592 0.232657
Si Si8 0.408041 0.394750 0.716526
O O1 0.439359 0.698349 0.373362
O O2 0.259071 0.733379 0.155285
O O3 0.269721 0.250126 0.156556
O O4 0.358739 0.738316 0.022406
O O5 0.231061 0.495983 0.699213
O O6 0.144441 0.820205 0.553650
O O7 0.079482 0.280295 0.738820
O O8 0.033290 0.275307 0.408573
O O9 0.495321 0.545196 0.670520
O O10 0.416656 0.577219 0.849873
O O11 0.389744 0.054251 0.773603
O O12 0.816887 0.169222 0.690729
O O13 0.913037 0.186744 0.050576
O O14 0.912166 0.886194 0.741795
O O15 0.704958 0.685152 0.475767
#
# Coordination Sequence:
#
# PCOD9036722 Si02
#       8
#     2   2   1   2   2   2   2   2
#     4  12  29  51  77 111 146 196 250 319 369 447
#     4  10  23  38  71 106 151 199 244 294 352 445
#     4  12  30  54  84 110 146 192 254 314 396 440
#     4  11  24  49  76 109 156 189 247 303 371 439
#     4  12  28  46  74 109 156 194 248 306 371 437
#     4  11  24  44  70 110 152 200 251 300 366 439
#     4  11  23  42  70 109 150 207 243 295 361 445
#     4  11  26  46  81 110 145 197 244 315 364 446
#
# _framework density 26.363875
#
# number of rings (size 3 to 8) (size 9 to 14) (size 15 to 20)
#    0.000    0.800    4.000    1.600    7.467    4.800 
#    0.000    0.000    0.000    0.000    0.000    0.000 
#    0.000    0.000    0.000    0.000    0.000    0.000 
#
# Total GULP energy -83835.315024 kJ/mol
# GULP energy per Si atom -5589.021002 kJ/mol
# Density = 2.630387 g / cm^3
# Si number density = 26.363875 Si / 1000 Ang^3
#
#
#
# Elastic Constant Matrix: (Units=GPa)
#
#
# Indices 1 2 3 4 5 6 
#
# 1 205.9877 42.1918 52.8697 -6.6435 5.8672 -34.8276
# 2 42.1918 70.9972 5.0832 -1.2566 3.2960 -15.2906
# 3 52.8697 5.0832 106.1566 -10.6290 14.4745 -5.3262
# 4 -6.6435 -1.2566 -10.6290 34.3580 1.6406 0.5587
# 5 5.8672 3.2960 14.4745 1.6406 47.0935 -6.5752
# 6 -34.8276 -15.2906 -5.3262 0.5587 -6.5752 39.9446
#
#
#
# Elastic Compliance Matrix: (Units=1/GPa)
#
#
# Indices 1 2 3 4 5 6 
#
# 1 0.007088 -0.002997 -0.003271 0.000124 0.000992 0.004758
# 2 -0.002997 0.016644 0.000995 0.000303 -0.000579 0.003791
# 3 -0.003271 0.000995 0.011738 0.003232 -0.003598 -0.001543
# 4 0.000124 0.000303 0.003232 0.030242 -0.002100 -0.000113
# 5 0.000992 -0.000579 -0.003598 -0.002100 0.022883 0.003960
# 6 0.004758 0.003791 -0.001543 -0.000113 0.003960 0.031082
#
#
# Mechanical properties :
#
#
# Convention : Reuss Voigt Hill
#
# Bulk Modulus (GPa) = 40.12115 64.82564 52.47340
# Shear Modulus (GPa) = 36.09277 43.14569 39.61923
#
# Velocity S-wave (km/s) = 3.70405 4.04981 3.88078
# Velocity P-wave (km/s) = 5.79177 6.81984 6.32672
#
# Compressibility (1/GPa) = 0.02492451
#
# Stress axis : x y z
#
# Youngs Moduli (GPa) = 141.07625 60.08280 85.19239
#
# Poissons Ratio (x) = 0.18009 0.27865
# Poissons Ratio (y) = 0.42285 -0.08479
# Poissons Ratio (z) = 0.46143 -0.05980
#
# Static dielectric constant tensor:
#      x y z
#    x 2.040450 0.075890 0.018610 
#    y 0.075890 2.005280 0.100970 
#    z 0.018610 0.100970 2.050480 
# 
# From -- ./inp_files/43021.got.cif
#   From: 2010.05.17/outbox.cif.g08.bks.cpg/sg2_22_cif.got.tgz:43021.got - 2010.06.03 11:33:40.
