data_PCOD9036978
_publ_section_title
;
Structure prediction by ZEFSAII (Michael W. Deem and Ramdas Pophale) SiO2 
 PCOD9036978
Probable space group: P -1
;
_chemical_formula_sum "Si O2"
_cell_formula_units_Z 14
_cell_length_a 15.181258
_cell_length_b 4.825610
_cell_length_c 7.806596
_cell_angle_alpha 106.644718
_cell_angle_beta 110.688877
_cell_angle_gamma 85.490709
_cell_volume 512.441241
_symmetry_space_group_name_H-M "P -1"
_symmetry_group_IT_number 2
_symmetry_cell_setting 'triclinic'
loop_
_space_group_symop_operation_xyz
x,y,z
-x,-y,-z
loop_
_atom_site_type_symbol
_atom_site_label
_atom_site_fract_x
_atom_site_fract_y
_atom_site_fract_z
Si Si1 0.133678 0.473218 0.268023
Si Si2 0.471244 0.269869 0.167487
Si Si3 0.942883 0.530890 0.288330
Si Si4 0.352652 0.452676 0.802476
Si Si5 0.410299 0.856798 0.315161
Si Si6 0.781346 0.286062 0.960156
Si Si7 0.813661 0.929765 0.480806
O O1 0.182753 0.480178 0.118179
O O2 0.139624 0.178915 0.327876
O O3 0.026405 0.578865 0.218023
O O4 0.185726 0.725599 0.461090
O O5 0.580205 0.362662 0.244156
O O6 0.421483 0.515620 0.290517
O O7 0.442936 0.964165 0.169567
O O8 0.419876 0.302144 0.958080
O O9 0.873426 0.788806 0.341350
O O10 0.000000 0.500000 0.500000
O O11 0.880712 0.258163 0.124362
O O12 0.290088 0.209776 0.623367
O O13 0.282054 0.621809 0.906092
O O14 0.297473 0.902807 0.235286
O O15 0.500000 0.000000 0.500000
#
# Coordination Sequence:
#
# PCOD9036978 Si02
#       7
#     2   2   2   2   2   2   2
#     4  11  23  41  65  96 131 167 209 272 326 380
#     4  10  23  41  66  88 129 175 220 264 318 381
#     4   9  20  44  67  95 127 171 217 266 320 388
#     4   9  22  42  65  95 128 176 220 266 317 388
#     4  11  25  42  64  98 134 169 214 269 325 382
#     4  10  23  41  65  99 131 169 216 268 326 381
#     4  10  23  39  67  94 130 169 220 258 323 390
#
# _framework density 27.320208999999998
#
# number of rings (size 3 to 8) (size 9 to 14) (size 15 to 20)
#    0.000    2.000    0.000    1.286    4.000   12.000 
#    0.000   15.000    0.000    0.000    0.000    0.000 
#    0.000    0.000    0.000    0.000    0.000    0.000 
#
# Total GULP energy -78126.621290 kJ/mol
# GULP energy per Si atom -5580.472949 kJ/mol
# Density = 2.725803 g / cm^3
# Si number density = 27.320209 Si / 1000 Ang^3
#
#
#
# Elastic Constant Matrix: (Units=GPa)
#
#
# Indices 1 2 3 4 5 6 
#
# 1 144.7348 11.0861 37.9164 7.6188 24.5786 38.5659
# 2 11.0861 54.2725 20.4140 -3.0835 12.2447 11.4497
# 3 37.9164 20.4140 139.2282 20.9553 33.5293 13.9389
# 4 7.6188 -3.0835 20.9553 40.8930 16.2737 -3.8846
# 5 24.5786 12.2447 33.5293 16.2737 54.7853 10.4197
# 6 38.5659 11.4497 13.9389 -3.8846 10.4197 40.8029
#
#
#
# Elastic Compliance Matrix: (Units=1/GPa)
#
#
# Indices 1 2 3 4 5 6 
#
# 1 0.009900 0.000638 -0.001301 -0.001269 -0.001744 -0.008768
# 2 0.000638 0.021243 -0.002516 0.003877 -0.003816 -0.004361
# 3 -0.001301 -0.002516 0.009311 -0.003433 -0.003399 -0.000704
# 4 -0.001269 0.003877 -0.003433 0.030751 -0.008547 0.006394
# 5 -0.001744 -0.003816 -0.003399 -0.008547 0.025145 -0.003355
# 6 -0.008768 -0.004361 -0.000704 0.006394 -0.003355 0.035725
#
#
# Mechanical properties :
#
#
# Convention : Reuss Voigt Hill
#
# Bulk Modulus (GPa) = 29.32905 53.00764 41.16835
# Shear Modulus (GPa) = 33.37800 45.21751 39.29776
#
# Velocity S-wave (km/s) = 3.49912 4.07270 3.79676
# Velocity P-wave (km/s) = 5.20420 6.44673 5.85850
#
# Compressibility (1/GPa) = 0.03409588
#
# Stress axis : x y z
#
# Youngs Moduli (GPa) = 101.00780 47.07441 107.39429
#
# Poissons Ratio (x) = -0.03004 0.13973
# Poissons Ratio (y) = -0.06445 0.27024
# Poissons Ratio (z) = 0.13142 0.11845
#
# Static dielectric constant tensor:
#      x y z
#    x 2.153050 -0.071670 -0.011190 
#    y -0.071670 2.091180 0.022860 
#    z -0.011190 0.022860 2.268720 
# 
# From -- ./inp_files/90995.got.cif
#   From: 2010.05.17/outbox.cif.g08.bks.cpg/sg2_46_cif.got.tgz:90995.got - 2010.06.03 11:33:40.
